data_PCOD9172618
_publ_section_title
;
Structure prediction by ZEFSAII (Michael W. Deem and Ramdas Pophale) SiO2 
 PCOD9172618
Probable space group: C 2/M
;
_chemical_formula_sum "Si O2"
_cell_formula_units_Z 60
_cell_length_a 5.517021
_cell_length_b 18.922799
_cell_length_c 30.142593
_cell_angle_alpha 90.000000
_cell_angle_beta 111.896945
_cell_angle_gamma 90.000000
_cell_volume 2919.787661
_symmetry_space_group_name_H-M "C 2/M"
_symmetry_group_IT_number 12
_symmetry_cell_setting 'monoclinic'
loop_
_space_group_symop_operation_xyz
x,y,z
-x,y,-z
-x,-y,-z
x,-y,z
1/2+x,1/2+y,z
1/2-x,1/2+y,-z
1/2-x,1/2-y,-z
1/2+x,1/2-y,z
loop_
_atom_site_type_symbol
_atom_site_label
_atom_site_fract_x
_atom_site_fract_y
_atom_site_fract_z
Si Si1 0.993425 0.586306 0.717130
Si Si2 0.396472 0.913832 0.444379
Si Si3 0.081323 0.918278 0.760295
Si Si4 0.239607 0.882081 0.096766
Si Si5 0.293732 0.585905 0.393788
Si Si6 0.000000 0.205442 0.000000
Si Si7 0.577553 0.755670 0.828717
Si Si8 0.802440 0.895789 0.129094
O O1 0.013583 0.500000 0.721262
O O2 0.823412 0.610453 0.748003
O O3 0.834606 0.604321 0.662041
O O4 0.291509 0.612976 0.734792
O O5 0.500000 0.893554 0.500000
O O6 0.600825 0.890685 0.420318
O O7 0.095567 0.890486 0.417544
O O8 0.393206 0.000000 0.442532
O O9 0.138409 0.917241 0.816472
O O10 0.061485 0.000000 0.744299
O O11 0.355342 0.826348 0.140500
O O12 0.506897 0.916749 0.097920
O O13 0.019544 0.922070 0.109710
O O14 0.100609 0.841915 0.047411
O O15 0.300263 0.500000 0.396363
O O16 0.250000 0.250000 0.000000
O O17 0.771199 0.750048 0.801029
O O18 0.662102 0.690307 0.866822
#
# Coordination Sequence:
#
# PCOD9172618 Si02
#       8
#     8   8   8   8   8   4   8   8
#     4   9  17  28  40  55  74  96 130 174 220 256
#     4   9  15  21  30  46  66  89 120 154 194 249
#     4  10  19  30  44  61  78 101 138 182 217 245
#     4  10  19  30  45  67  90 112 131 153 191 238
#     4   9  15  23  34  46  65  93 119 155 208 251
#     4  12  20  30  48  72  99 120 133 154 188 240
#     4   8  14  25  39  57  81 104 124 146 182 228
#     4  10  18  30  44  61  85 110 134 164 204 239
#
# _framework density 20.549440000000001
#
# number of rings (size 3 to 8) (size 9 to 14) (size 15 to 20)
#    0.000    2.533    0.000    5.200    0.000    4.800 
#    0.000    0.000    0.000    0.000    0.000    2.800 
#    0.000    0.000    0.000    0.000    0.000    0.000 
#
# Total GULP energy -167210.993977 kJ/mol
# GULP energy per Si atom -5573.699799 kJ/mol
# Density = 2.050267 g / cm^3
# Si number density = 20.549440 Si / 1000 Ang^3
#
#
#
# Elastic Constant Matrix: (Units=GPa)
#
#
# Indices 1 2 3 4 5 6 
#
# 1 204.3087 3.3265 31.4638 0.0000 7.0176 0.0000
# 2 3.3265 37.4993 -8.0465 0.0000 -2.3840 0.0000
# 3 31.4638 -8.0465 68.2841 0.0000 1.8175 0.0000
# 4 0.0000 0.0000 0.0000 18.3923 0.0000 -12.3736
# 5 7.0176 -2.3840 1.8175 0.0000 39.5272 0.0000
# 6 0.0000 0.0000 0.0000 -12.3736 0.0000 -1.7379
#
#
#
# Elastic Compliance Matrix: (Units=1/GPa)
#
#
# Indices 1 2 3 4 5 6 
#
# 1 0.005338 -0.001080 -0.002563 0.000000 -0.000895 0.000000
# 2 -0.001080 0.027667 0.003713 0.000000 0.001690 0.000000
# 3 -0.002563 0.003713 0.016265 0.000000 -0.000069 0.000000
# 4 0.000000 0.000000 0.000000 0.009390 0.000000 -0.066859
# 5 -0.000895 0.001690 -0.000069 0.000000 0.025563 0.000000
# 6 0.000000 0.000000 0.000000 -0.066859 0.000000 -0.099380
#
#
# Mechanical properties :
#
#
# Convention : Reuss Voigt Hill
#
# Bulk Modulus (GPa) = 20.23908 40.39773 30.31841
# Shear Modulus (GPa) = 4260.68591 30.12622 2145.40607
#
# Velocity S-wave (km/s) = 45.58381 3.83304 32.34638
# Velocity P-wave (km/s) = 52.72933 6.26826 37.54779
#
# Compressibility (1/GPa) = 0.04940936
#
# Stress axis : x y z
#
# Youngs Moduli (GPa) = 187.35104 36.14398 61.48166
#
# Poissons Ratio (x) = 0.03905 0.15757
# Poissons Ratio (y) = 0.20240 -0.22828
# Poissons Ratio (z) = 0.48016 -0.13420
#
# Static dielectric constant tensor:
#      x y z
#    x 1.837540 0.000000 0.003070 
#    y 0.000000 1.771010 0.000000 
#    z 0.003070 0.000000 1.676880 
# 
# From -- ./inp_files/355188.got.cif
#   From: 2010.05.17/outbox.cif.g08.bks.cpg/sg12_178_cif.got.tgz:355188.got - 2010.06.03 13:09:07.
