data_PCOD9172576
_publ_section_title
;
Structure prediction by ZEFSAII (Michael W. Deem and Ramdas Pophale) SiO2 
 PCOD9172576
Probable space group: C 2/M
;
_chemical_formula_sum "Si O2"
_cell_formula_units_Z 48
_cell_length_a 19.528039
_cell_length_b 22.252600
_cell_length_c 11.740168
_cell_angle_alpha 90.000000
_cell_angle_beta 155.557117
_cell_angle_gamma 90.000000
_cell_volume 2111.005720
_symmetry_space_group_name_H-M "C 2/M"
_symmetry_group_IT_number 12
_symmetry_cell_setting 'monoclinic'
loop_
_space_group_symop_operation_xyz
x,y,z
-x,y,-z
-x,-y,-z
x,-y,z
1/2+x,1/2+y,z
1/2-x,1/2+y,-z
1/2-x,1/2-y,-z
1/2+x,1/2-y,z
loop_
_atom_site_type_symbol
_atom_site_label
_atom_site_fract_x
_atom_site_fract_y
_atom_site_fract_z
Si Si1 0.664794 0.314232 0.404652
Si Si2 0.873992 0.226396 0.412601
Si Si3 0.718196 0.855964 0.645685
Si Si4 0.305054 0.064365 0.727394
Si Si5 0.155403 0.375823 0.989136
Si Si6 0.299972 0.068876 0.176370
O O1 0.750000 0.250000 0.500000
O O2 0.564236 0.293948 0.367101
O O3 0.656084 0.338866 0.262446
O O4 0.746484 0.374370 0.581451
O O5 0.825105 0.295666 0.350422
O O6 0.000000 0.218563 0.500000
O O7 0.716399 0.186349 0.136793
O O8 0.543002 0.876144 0.325253
O O9 0.778523 0.904620 0.827973
O O10 0.231967 0.000000 0.579584
O O11 0.500000 0.061948 0.000000
O O12 0.285906 0.073803 0.833539
O O13 0.230361 0.389882 0.979189
O O14 0.500000 0.070445 0.500000
O O15 0.253383 0.000000 0.085033
#
# Coordination Sequence:
#
# PCOD9172576 Si02
#       6
#     8   8   8   8   8   8
#     4   9  19  35  52  74 112 140 172 219 269 322
#     4  10  21  34  52  76 101 139 184 216 256 316
#     4  10  19  33  51  78 106 136 170 216 272 321
#     4  10  18  29  52  82 107 133 173 223 274 320
#     4  10  19  33  53  73 112 137 170 221 265 320
#     4   9  18  30  49  78 107 133 161 206 273 332
#
# _framework density 22.737977999999998
#
# number of rings (size 3 to 8) (size 9 to 14) (size 15 to 20)
#    0.000    2.333    1.667    2.000    0.000    4.000 
#    0.000    0.000    0.000   12.500    0.000    1.167 
#    0.000    0.000    0.000    0.000    0.000    0.000 
#
# Total GULP energy -133601.382945 kJ/mol
# GULP energy per Si atom -5566.724289 kJ/mol
# Density = 2.268623 g / cm^3
# Si number density = 22.737978 Si / 1000 Ang^3
#
#
#
# Elastic Constant Matrix: (Units=GPa)
#
#
# Indices 1 2 3 4 5 6 
#
# 1 169.8454 10.8016 16.1776 0.0000 -22.6637 0.0000
# 2 10.8016 126.9797 4.2999 0.0000 5.7409 0.0000
# 3 16.1776 4.2999 -18.9754 0.0000 44.6435 0.0000
# 4 0.0000 0.0000 0.0000 3.7112 0.0000 -59.1273
# 5 -22.6637 5.7409 44.6435 0.0000 -28.7597 0.0000
# 6 0.0000 0.0000 0.0000 -59.1273 0.0000 -120.9885
#
#
#
# Elastic Compliance Matrix: (Units=1/GPa)
#
#
# Indices 1 2 3 4 5 6 
#
# 1 0.005571 -0.000503 0.002236 0.000000 -0.001020 0.000000
# 2 -0.000503 0.008067 -0.002308 0.000000 -0.001576 0.000000
# 3 0.002236 -0.002308 0.021321 0.000000 0.030874 0.000000
# 4 0.000000 0.000000 0.000000 0.030668 0.000000 -0.014988
# 5 -0.001020 -0.001576 0.030874 0.000000 0.013644 0.000000
# 6 0.000000 0.000000 0.000000 -0.014988 0.000000 -0.000941
#
#
# Mechanical properties :
#
#
# Convention : Reuss Voigt Hill
#
# Bulk Modulus (GPa) = 29.57889 37.82309 33.70099
# Shear Modulus (GPa) = 55.09493 -12.76938 21.16278
#
# Velocity S-wave (km/s) = 4.92777 -2.37236 3.05409
# Velocity P-wave (km/s) = 6.73900 3.02760 5.22400
#
# Compressibility (1/GPa) = 0.03380789
#
# Stress axis : x y z
#
# Youngs Moduli (GPa) = 179.51109 123.95415 46.90143
#
# Poissons Ratio (x) = 0.06241 -0.10486
# Poissons Ratio (y) = 0.09038 0.10825
# Poissons Ratio (z) = -0.40134 0.28609
#
# Static dielectric constant tensor:
#      x y z
#    x 1.830080 0.000000 0.053750 
#    y 0.000000 1.836320 0.000000 
#    z 0.053750 0.000000 1.935090 
# 
# From -- ./inp_files/134412.got.cif
#   From: 2010.05.17/outbox.cif.g08.bks.cpg/sg12_68_cif.got.tgz:134412.got - 2010.06.03 13:09:07.
