data_PCOD9172453
_publ_section_title
;
Structure prediction by ZEFSAII (Michael W. Deem and Ramdas Pophale) SiO2 
 PCOD9172453
Probable space group: C 2/M
;
_chemical_formula_sum "Si O2"
_cell_formula_units_Z 56
_cell_length_a 16.004794
_cell_length_b 19.265180
_cell_length_c 14.695797
_cell_angle_alpha 90.000000
_cell_angle_beta 42.149914
_cell_angle_gamma 90.000000
_cell_volume 3040.786342
_symmetry_space_group_name_H-M "C 2/M"
_symmetry_group_IT_number 12
_symmetry_cell_setting 'monoclinic'
loop_
_space_group_symop_operation_xyz
x,y,z
-x,y,-z
-x,-y,-z
x,-y,z
1/2+x,1/2+y,z
1/2-x,1/2+y,-z
1/2-x,1/2-y,-z
1/2+x,1/2-y,z
loop_
_atom_site_type_symbol
_atom_site_label
_atom_site_fract_x
_atom_site_fract_y
_atom_site_fract_z
Si Si1 0.730057 0.189764 0.809217
Si Si2 0.754483 0.363365 0.501612
Si Si3 0.017361 0.578696 0.272295
Si Si4 0.637275 0.224880 0.155841
Si Si5 0.858539 0.923209 0.579186
Si Si6 0.414227 0.925601 0.981882
Si Si7 0.625822 0.256101 0.721295
O O1 0.835023 0.235931 0.771911
O O2 0.787440 0.132293 0.697000
O O3 0.663794 0.143928 0.940901
O O4 0.642496 0.235778 0.813643
O O5 0.662207 0.406346 0.510597
O O6 0.686743 0.329025 0.642362
O O7 0.800612 0.301163 0.398119
O O8 0.882309 0.403351 0.422293
O O9 0.056880 0.500000 0.266439
O O10 0.113407 0.643549 0.201831
O O11 0.001197 0.578079 0.175657
O O12 0.513411 0.250522 0.204356
O O13 0.750000 0.250000 0.000000
O O14 0.000000 0.921731 0.500000
O O15 0.806894 0.000000 0.637522
O O16 0.344303 0.000000 0.031768
O O17 0.500000 0.927800 0.000000
#
# Coordination Sequence:
#
# PCOD9172453 Si02
#       7
#     8   8   8   8   8   8   8
#     4  11  21  33  55  78 115 148 185 234 285 339
#     4   9  17  34  53  72 108 148 186 224 276 333
#     4  10  20  35  55  78 107 146 192 238 286 337
#     4  11  21  35  55  84 117 150 191 235 288 347
#     4  10  19  30  48  78 113 146 180 221 282 351
#     4  10  18  29  49  80 114 143 175 220 282 348
#     4   9  20  34  52  79 109 146 191 231 277 331
#
# _framework density 18.416288999999999
#
# number of rings (size 3 to 8) (size 9 to 14) (size 15 to 20)
#    0.000    2.000    1.429    4.286    0.000    2.286 
#    0.000    0.000    0.000    3.429    0.000    1.000 
#    0.000    0.000    0.000    0.000    0.000    0.000 
#
# Total GULP energy -155916.900542 kJ/mol
# GULP energy per Si atom -5568.460734 kJ/mol
# Density = 1.837437 g / cm^3
# Si number density = 18.416289 Si / 1000 Ang^3
#
#
#
# Elastic Constant Matrix: (Units=GPa)
#
#
# Indices 1 2 3 4 5 6 
#
# 1 83.8475 51.5834 18.7547 0.0000 -11.5684 0.0000
# 2 51.5834 140.2654 43.2403 0.0000 -6.9310 0.0000
# 3 18.7547 43.2403 59.3684 0.0000 -7.9895 0.0000
# 4 0.0000 0.0000 0.0000 29.2963 0.0000 2.1862
# 5 -11.5684 -6.9310 -7.9895 0.0000 18.0051 0.0000
# 6 0.0000 0.0000 0.0000 2.1862 0.0000 26.3900
#
#
#
# Elastic Compliance Matrix: (Units=1/GPa)
#
#
# Indices 1 2 3 4 5 6 
#
# 1 0.016592 -0.005698 0.000051 0.000000 0.008490 0.000000
# 2 -0.005698 0.011157 -0.006637 0.000000 -0.002311 0.000000
# 3 0.000051 -0.006637 0.022676 0.000000 0.007540 0.000000
# 4 0.000000 0.000000 0.000000 0.034346 0.000000 -0.002845
# 5 0.008490 -0.002311 0.007540 0.000000 0.063451 0.000000
# 6 0.000000 0.000000 0.000000 -0.002845 0.000000 0.038129
#
#
# Mechanical properties :
#
#
# Convention : Reuss Voigt Hill
#
# Bulk Modulus (GPa) = 38.67354 56.73754 47.70554
# Shear Modulus (GPa) = 22.77522 26.06514 24.42018
#
# Velocity S-wave (km/s) = 3.52047 3.76617 3.64539
# Velocity P-wave (km/s) = 6.12945 7.05601 6.60899
#
# Compressibility (1/GPa) = 0.02585747
#
# Stress axis : x y z
#
# Youngs Moduli (GPa) = 60.27109 89.63356 44.09875
#
# Poissons Ratio (x) = 0.51073 -0.00226
# Poissons Ratio (y) = 0.34342 0.29267
# Poissons Ratio (z) = -0.00308 0.59488
#
# Static dielectric constant tensor:
#      x y z
#    x 1.642680 0.000000 -0.007480 
#    y 0.000000 1.718410 0.000000 
#    z -0.007480 0.000000 1.681440 
# 
# From -- ./inp_files/217683.got.cif
#   From: 2010.05.17/outbox.cif.g08.bks.cpg/sg12_109_cif.got.tgz:217683.got - 2010.06.03 13:09:07.
