data_PCOD9172795
_publ_section_title
;
Structure prediction by ZEFSAII (Michael W. Deem and Ramdas Pophale) SiO2 
 PCOD9172795
Probable space group: C 2/M
;
_chemical_formula_sum "Si O2"
_cell_formula_units_Z 40
_cell_length_a 19.679257
_cell_length_b 11.865122
_cell_length_c 12.359143
_cell_angle_alpha 90.000000
_cell_angle_beta 37.590274
_cell_angle_gamma 90.000000
_cell_volume 1760.381069
_symmetry_space_group_name_H-M "C 2/M"
_symmetry_group_IT_number 12
_symmetry_cell_setting 'monoclinic'
loop_
_space_group_symop_operation_xyz
x,y,z
-x,y,-z
-x,-y,-z
x,-y,z
1/2+x,1/2+y,z
1/2-x,1/2+y,-z
1/2-x,1/2-y,-z
1/2+x,1/2-y,z
loop_
_atom_site_type_symbol
_atom_site_label
_atom_site_fract_x
_atom_site_fract_y
_atom_site_fract_z
Si Si1 0.159151 0.686075 0.374128
Si Si2 0.923275 0.628896 0.750489
Si Si3 0.379169 0.871516 0.246481
Si Si4 0.663698 0.626085 0.666082
Si Si5 0.700639 0.127259 0.886795
O O1 0.139853 0.625409 0.284064
O O2 0.255587 0.637736 0.329668
O O3 0.193607 0.808166 0.290087
O O4 0.042267 0.685494 0.582501
O O5 0.949034 0.500000 0.745995
O O6 0.854032 0.678637 0.937182
O O7 0.409833 0.741427 0.241431
O O8 0.251396 0.871514 0.455234
O O9 0.381161 0.871138 0.113423
O O10 0.418214 0.000000 0.229370
O O11 0.611533 0.500000 0.733446
O O12 0.729975 0.000000 0.875785
#
# Coordination Sequence:
#
# PCOD9172795 Si02
#       5
#     8   8   8   8   8
#     4  10  18  30  48  68  93 122 155 192 235 278
#     4  10  19  31  47  69  94 121 155 194 235 278
#     4   8  15  27  43  65  92 121 153 189 233 283
#     4   9  15  25  44  68  91 118 154 194 233 275
#     4   9  18  32  49  67  92 125 156 189 234 284
#
# _framework density 22.722352999999998
#
# number of rings (size 3 to 8) (size 9 to 14) (size 15 to 20)
#    0.000    2.800    0.000    3.000    0.000    0.000 
#    0.000    3.000    0.000   12.000    0.000    0.000 
#    0.000   44.800    0.000    0.000    0.000    0.000 
#
# Total GULP energy -111423.847552 kJ/mol
# GULP energy per Si atom -5571.192378 kJ/mol
# Density = 2.267064 g / cm^3
# Si number density = 22.722353 Si / 1000 Ang^3
#
#
#
# Elastic Constant Matrix: (Units=GPa)
#
#
# Indices 1 2 3 4 5 6 
#
# 1 85.7992 12.2099 24.9112 0.0000 27.3024 0.0000
# 2 12.2099 177.1626 51.9303 0.0000 -10.3194 0.0000
# 3 24.9112 51.9303 104.7279 0.0000 26.3323 0.0000
# 4 0.0000 0.0000 0.0000 45.1934 0.0000 -3.8792
# 5 27.3024 -10.3194 26.3323 0.0000 35.0035 0.0000
# 6 0.0000 0.0000 0.0000 -3.8792 0.0000 21.5176
#
#
#
# Elastic Compliance Matrix: (Units=1/GPa)
#
#
# Indices 1 2 3 4 5 6 
#
# 1 0.016118 -0.002096 0.000643 0.000000 -0.013674 0.000000
# 2 -0.002096 0.007839 -0.005403 0.000000 0.008010 0.000000
# 3 0.000643 -0.005403 0.015541 0.000000 -0.013785 0.000000
# 4 0.000000 0.000000 0.000000 0.022475 0.000000 0.004052
# 5 -0.013674 0.008010 -0.013785 0.000000 0.051966 0.000000
# 6 0.000000 0.000000 0.000000 0.004052 0.000000 0.047204
#
#
# Mechanical properties :
#
#
# Convention : Reuss Voigt Hill
#
# Bulk Modulus (GPa) = 38.77879 60.64362 49.71121
# Shear Modulus (GPa) = 27.25567 38.91878 33.08722
#
# Velocity S-wave (km/s) = 3.46715 4.14308 3.82010
# Velocity P-wave (km/s) = 5.75600 7.04512 6.43294
#
# Compressibility (1/GPa) = 0.02578729
#
# Stress axis : x y z
#
# Youngs Moduli (GPa) = 62.04380 127.56449 64.34765
#
# Poissons Ratio (x) = 0.26736 -0.04140
# Poissons Ratio (y) = 0.13004 0.34765
# Poissons Ratio (z) = -0.03992 0.68918
#
# Static dielectric constant tensor:
#      x y z
#    x 1.910570 0.000000 0.020720 
#    y 0.000000 1.906170 0.000000 
#    z 0.020720 0.000000 1.920650 
# 
# From -- ./inp_files/140300.got.cif
#   From: 2010.05.17/outbox.cif.g08.bks.cpg/sg12_71_cif.got.tgz:140300.got - 2010.06.03 13:09:07.
