data_PCOD9172697
_publ_section_title
;
Structure prediction by ZEFSAII (Michael W. Deem and Ramdas Pophale) SiO2 
 PCOD9172697
Probable space group: C 2/M
;
_chemical_formula_sum "Si O2"
_cell_formula_units_Z 60
_cell_length_a 30.581474
_cell_length_b 9.268048
_cell_length_c 11.995425
_cell_angle_alpha 90.000000
_cell_angle_beta 80.333623
_cell_angle_gamma 90.000000
_cell_volume 3351.599369
_symmetry_space_group_name_H-M "C 2/M"
_symmetry_group_IT_number 12
_symmetry_cell_setting 'monoclinic'
loop_
_space_group_symop_operation_xyz
x,y,z
-x,y,-z
-x,-y,-z
x,-y,z
1/2+x,1/2+y,z
1/2-x,1/2+y,-z
1/2-x,1/2-y,-z
1/2+x,1/2-y,z
loop_
_atom_site_type_symbol
_atom_site_label
_atom_site_fract_x
_atom_site_fract_y
_atom_site_fract_z
Si Si1 0.112666 0.826400 0.183414
Si Si2 0.000000 0.734116 0.000000
Si Si3 0.631246 0.168322 0.386768
Si Si4 0.295253 0.169735 0.450774
Si Si5 0.488999 0.669453 0.754525
Si Si6 0.065887 0.833597 0.569528
Si Si7 0.860732 0.834121 0.266108
Si Si8 0.897412 0.335436 0.038014
O O1 0.140714 0.758829 0.271325
O O2 0.061611 0.784026 0.233021
O O3 0.115856 0.000000 0.176324
O O4 0.119967 0.753142 0.061082
O O5 0.997064 0.812234 0.121810
O O6 0.951504 0.661271 0.013093
O O7 0.671086 0.179896 0.458682
O O8 0.588366 0.237796 0.465438
O O9 0.624198 0.000000 0.364038
O O10 0.250000 0.250000 0.500000
O O11 0.319609 0.249923 0.338240
O O12 0.288324 0.000000 0.430367
O O13 0.490468 0.500000 0.732234
O O14 0.522144 0.730827 0.647383
O O15 0.101434 0.839427 0.654920
O O16 0.059331 0.000000 0.532309
O O17 0.880762 0.747829 0.154010
O O18 0.849825 0.000000 0.241736
O O19 0.881779 0.500000 0.043230
#
# Coordination Sequence:
#
# PCOD9172697 Si02
#       8
#     8   4   8   8   8   8   8   8
#     4  10  21  35  52  73 101 145 191 227 264 316
#     4  10  18  30  46  72 105 148 189 236 277 316
#     4  10  21  37  54  76 107 139 172 217 270 325
#     4  10  21  38  62  90 114 138 170 216 274 334
#     4   9  17  29  47  71 100 138 188 235 270 308
#     4   9  17  31  50  73 100 138 182 227 271 313
#     4  10  19  33  55  82 111 144 182 226 274 324
#     4  11  21  33  50  76 111 148 187 232 277 321
#
# _framework density 17.901900999999999
#
# number of rings (size 3 to 8) (size 9 to 14) (size 15 to 20)
#    0.000    2.133    1.333    2.400    0.000    3.733 
#    0.000    4.000    0.000    0.800    0.000    0.000 
#    0.000    0.000    0.000    0.000    0.000    0.000 
#
# Total GULP energy -167225.471649 kJ/mol
# GULP energy per Si atom -5574.182388 kJ/mol
# Density = 1.786116 g / cm^3
# Si number density = 17.901901 Si / 1000 Ang^3
#
#
#
# Elastic Constant Matrix: (Units=GPa)
#
#
# Indices 1 2 3 4 5 6 
#
# 1 28.0657 34.2991 25.3150 0.0000 -11.2193 0.0000
# 2 34.2991 125.8372 65.5110 0.0000 -7.7484 0.0000
# 3 25.3150 65.5110 109.3194 0.0000 -0.1780 0.0000
# 4 0.0000 0.0000 0.0000 27.1606 0.0000 -0.7096
# 5 -11.2193 -7.7484 -0.1780 0.0000 24.3827 0.0000
# 6 0.0000 0.0000 0.0000 -0.7096 0.0000 14.9270
#
#
#
# Elastic Compliance Matrix: (Units=1/GPa)
#
#
# Indices 1 2 3 4 5 6 
#
# 1 0.070528 -0.013091 -0.008441 0.000000 0.028231 0.000000
# 2 -0.013091 0.014309 -0.005546 0.000000 -0.001517 0.000000
# 3 -0.008441 -0.005546 0.014417 0.000000 -0.005541 0.000000
# 4 0.000000 0.000000 0.000000 0.036864 0.000000 0.001752
# 5 0.028231 -0.001517 -0.005541 0.000000 0.053480 0.000000
# 6 0.000000 0.000000 0.000000 0.001752 0.000000 0.067076
#
#
# Mechanical properties :
#
#
# Convention : Reuss Voigt Hill
#
# Bulk Modulus (GPa) = 22.17404 57.05251 39.61327
# Shear Modulus (GPa) = 15.34393 22.50053 18.92223
#
# Velocity S-wave (km/s) = 2.93082 3.54910 3.25467
# Velocity P-wave (km/s) = 4.88531 6.98094 6.02494
#
# Compressibility (1/GPa) = 0.04509778
#
# Stress axis : x y z
#
# Youngs Moduli (GPa) = 14.17870 69.88827 69.36479
#
# Poissons Ratio (x) = 0.91489 0.58553
# Poissons Ratio (y) = 0.18561 0.38467
# Poissons Ratio (z) = 0.11969 0.38757
#
# Static dielectric constant tensor:
#      x y z
#    x 1.619720 0.000000 0.001270 
#    y 0.000000 1.607590 0.000000 
#    z 0.001270 0.000000 1.616880 
# 
# From -- ./inp_files/187357.got.cif
#   From: 2010.05.17/outbox.cif.g08.bks.cpg/sg12_94_cif.got.tgz:187357.got - 2010.06.03 13:09:07.
