data_PCOD9172564
_publ_section_title
;
Structure prediction by ZEFSAII (Michael W. Deem and Ramdas Pophale) SiO2 
 PCOD9172564
Probable space group: C 2/M
;
_chemical_formula_sum "Si O2"
_cell_formula_units_Z 56
_cell_length_a 26.802989
_cell_length_b 7.509743
_cell_length_c 14.991710
_cell_angle_alpha 90.000000
_cell_angle_beta 54.457847
_cell_angle_gamma 90.000000
_cell_volume 2455.372707
_symmetry_space_group_name_H-M "C 2/M"
_symmetry_group_IT_number 12
_symmetry_cell_setting 'monoclinic'
loop_
_space_group_symop_operation_xyz
x,y,z
-x,y,-z
-x,-y,-z
x,-y,z
1/2+x,1/2+y,z
1/2-x,1/2+y,-z
1/2-x,1/2-y,-z
1/2+x,1/2-y,z
loop_
_atom_site_type_symbol
_atom_site_label
_atom_site_fract_x
_atom_site_fract_y
_atom_site_fract_z
Si Si1 0.898543 0.790596 0.799505
Si Si2 0.120445 0.719582 0.602544
Si Si3 0.481179 0.796915 0.425455
Si Si4 0.645473 0.215320 0.961087
Si Si5 0.285294 0.284883 0.798150
Si Si6 0.125169 0.701321 0.789674
Si Si7 0.235980 0.292173 0.377952
O O1 0.837732 0.723712 0.811251
O O2 0.958796 0.701165 0.698155
O O3 0.904334 0.000000 0.774216
O O4 0.890008 0.765995 0.913467
O O5 0.119889 0.500000 0.604986
O O6 0.073347 0.782181 0.576372
O O7 0.102681 0.781958 0.720040
O O8 0.188705 0.772762 0.501601
O O9 0.500000 0.712472 0.500000
O O10 0.461384 0.000000 0.466596
O O11 0.716488 0.275859 0.894508
O O12 0.618181 0.282355 0.895232
O O13 0.646668 0.000000 0.953888
O O14 0.284764 0.500000 0.800210
O O15 0.296500 0.226419 0.684884
O O16 0.100660 0.500000 0.819433
O O17 0.199121 0.695781 0.698598
O O18 0.249064 0.500000 0.379145
#
# Coordination Sequence:
#
# PCOD9172564 Si02
#       7
#     8   8   8   8   8   8   8
#     4  11  22  35  53  77 105 136 170 214 264 306
#     4   9  18  33  53  76 103 138 177 212 250 302
#     4  10  21  38  58  78 102 135 175 214 250 298
#     4   9  18  33  53  75 100 134 173 211 252 304
#     4   9  19  34  51  75 107 140 171 205 254 313
#     4   9  18  34  53  75 106 139 171 209 254 306
#     4  10  18  29  51  82 109 134 168 211 258 304
#
# _framework density 22.807127999999999
#
# number of rings (size 3 to 8) (size 9 to 14) (size 15 to 20)
#    0.000    2.429    0.000    3.429    0.000    4.857 
#    0.000    3.571    0.000    4.286    0.000    0.000 
#    0.000    0.000    0.000    0.000    0.000    0.000 
#
# Total GULP energy -156400.516626 kJ/mol
# GULP energy per Si atom -5585.732737 kJ/mol
# Density = 2.275522 g / cm^3
# Si number density = 22.807128 Si / 1000 Ang^3
#
#
#
# Elastic Constant Matrix: (Units=GPa)
#
#
# Indices 1 2 3 4 5 6 
#
# 1 86.0082 -2.0037 24.9072 0.0001 32.0304 0.0002
# 2 -2.0037 69.8663 -10.3757 0.0002 -0.0830 0.0004
# 3 24.9072 -10.3757 101.1675 0.0000 20.7630 0.0000
# 4 0.0001 0.0002 0.0000 5.2913 0.0000 0.8986
# 5 32.0304 -0.0830 20.7630 0.0000 33.1867 0.0000
# 6 0.0002 0.0004 0.0000 0.8986 0.0000 -4.1069
#
#
#
# Elastic Compliance Matrix: (Units=1/GPa)
#
#
# Indices 1 2 3 4 5 6 
#
# 1 0.018249 0.000360 -0.000965 -0.000001 -0.017008 0.000001
# 2 0.000360 0.014572 0.001686 -0.000001 -0.001366 0.000001
# 3 -0.000965 0.001686 0.011592 0.000000 -0.006316 0.000000
# 4 -0.000001 -0.000001 0.000000 0.182219 0.000001 0.039870
# 5 -0.017008 -0.001366 -0.006316 0.000001 0.050496 -0.000001
# 6 0.000001 0.000001 0.000000 0.039870 -0.000001 -0.234767
#
#
# Mechanical properties :
#
#
# Convention : Reuss Voigt Hill
#
# Bulk Modulus (GPa) = 21.47122 31.34415 26.40769
# Shear Modulus (GPa) = 89.72831 23.17516 56.45174
#
# Velocity S-wave (km/s) = 6.27914 3.19115 4.98051
# Velocity P-wave (km/s) = 7.87432 5.22981 6.68415
#
# Compressibility (1/GPa) = 0.04657398
#
# Stress axis : x y z
#
# Youngs Moduli (GPa) = 54.79844 68.62396 86.27007
#
# Poissons Ratio (x) = -0.02469 0.08327
# Poissons Ratio (y) = -0.01972 -0.14547
# Poissons Ratio (z) = 0.05289 -0.11572
#
# Static dielectric constant tensor:
#      x y z
#    x 1.859450 0.000000 0.043950 
#    y 0.000000 1.856410 0.000000 
#    z 0.043950 0.000000 1.815790 
# 
# From -- ./inp_files/243679.got.cif
#   From: 2010.05.17/outbox.cif.g08.bks.cpg/sg12_122_cif.got.tgz:243679.got - 2010.06.03 13:09:07.
