data_PCOD9172558
_publ_section_title
;
Structure prediction by ZEFSAII (Michael W. Deem and Ramdas Pophale) SiO2 
 PCOD9172558
Probable space group: C 2/M
;
_chemical_formula_sum "Si O2"
_cell_formula_units_Z 64
_cell_length_a 22.047750
_cell_length_b 8.414693
_cell_length_c 21.414400
_cell_angle_alpha 90.000000
_cell_angle_beta 126.188390
_cell_angle_gamma 90.000000
_cell_volume 3206.454136
_symmetry_space_group_name_H-M "C 2/M"
_symmetry_group_IT_number 12
_symmetry_cell_setting 'monoclinic'
loop_
_space_group_symop_operation_xyz
x,y,z
-x,y,-z
-x,-y,-z
x,-y,z
1/2+x,1/2+y,z
1/2-x,1/2+y,-z
1/2-x,1/2-y,-z
1/2+x,1/2-y,z
loop_
_atom_site_type_symbol
_atom_site_label
_atom_site_fract_x
_atom_site_fract_y
_atom_site_fract_z
Si Si1 0.355364 0.182397 0.110911
Si Si2 0.870730 0.689631 0.587315
Si Si3 0.763903 0.688586 0.740283
Si Si4 0.493632 0.316171 0.255627
Si Si5 0.070008 0.187361 0.166034
Si Si6 0.773987 0.807394 0.418087
Si Si7 0.269028 0.811467 0.878931
Si Si8 0.084733 0.186150 0.980395
O O1 0.419490 0.211403 0.201973
O O2 0.276881 0.229609 0.093718
O O3 0.379827 0.289412 0.067258
O O4 0.354889 0.000000 0.089687
O O5 0.877123 0.500000 0.594443
O O6 0.948719 0.765938 0.655814
O O7 0.840424 0.741675 0.501416
O O8 0.804420 0.739185 0.595577
O O9 0.750529 0.500000 0.732799
O O10 0.853081 0.718564 0.790617
O O11 0.727616 0.750894 0.654296
O O12 0.740857 0.749726 0.794430
O O13 0.471343 0.500000 0.248949
O O14 0.538431 0.299310 0.217319
O O15 0.001588 0.240421 0.079524
O O16 0.084134 0.000000 0.162518
O O17 0.776938 0.000000 0.420585
O O18 0.257401 0.000000 0.876090
O O19 0.357370 0.774496 0.939678
O O20 0.083890 0.000000 0.995454
#
# Coordination Sequence:
#
# PCOD9172558 Si02
#       8
#     8   8   8   8   8   8   8   8
#     4  11  22  37  58  81 105 136 176 225 271 313
#     4  10  18  29  51  81 110 140 177 217 260 312
#     4  10  21  36  54  75 107 146 181 216 258 317
#     4  10  19  33  54  81 111 141 173 217 268 317
#     4   9  19  33  52  77 106 139 174 214 264 314
#     4   9  18  32  49  75 110 144 176 214 259 312
#     4  11  23  38  55  77 104 141 183 221 265 316
#     4  10  21  38  57  80 107 137 175 223 272 316
#
# _framework density 19.959743
#
# number of rings (size 3 to 8) (size 9 to 14) (size 15 to 20)
#    0.000    2.000    1.250    3.750    0.000    5.000 
#    0.000    2.500    0.000    0.750    0.000    5.250 
#    0.000    0.000    0.000    0.000    0.000    0.000 
#
# Total GULP energy -178709.133190 kJ/mol
# GULP energy per Si atom -5584.660412 kJ/mol
# Density = 1.991431 g / cm^3
# Si number density = 19.959743 Si / 1000 Ang^3
#
#
#
# Elastic Constant Matrix: (Units=GPa)
#
#
# Indices 1 2 3 4 5 6 
#
# 1 22.5281 -2.0594 8.0794 0.0000 -3.6348 0.0000
# 2 -2.0594 15.0320 -0.9847 0.0000 1.5575 0.0000
# 3 8.0794 -0.9847 118.5577 0.0000 -4.7346 0.0000
# 4 0.0000 0.0000 0.0000 29.0642 0.0000 8.0173
# 5 -3.6348 1.5575 -4.7346 0.0000 25.5962 0.0000
# 6 0.0000 0.0000 0.0000 8.0173 0.0000 15.8483
#
#
#
# Elastic Compliance Matrix: (Units=1/GPa)
#
#
# Indices 1 2 3 4 5 6 
#
# 1 0.046882 0.005633 -0.002917 0.000000 0.005775 0.000000
# 2 0.005633 0.067642 0.000046 0.000000 -0.003307 0.000000
# 3 -0.002917 0.000046 0.008681 0.000000 0.001189 0.000000
# 4 0.000000 0.000000 0.000000 0.039987 0.000000 -0.020228
# 5 0.005775 -0.003307 0.001189 0.000000 0.040310 0.000000
# 6 0.000000 0.000000 0.000000 -0.020228 0.000000 0.073331
#
#
# Mechanical properties :
#
#
# Convention : Reuss Voigt Hill
#
# Bulk Modulus (GPa) = 7.76823 18.46538 13.11681
# Shear Modulus (GPa) = 15.91246 24.17392 20.04319
#
# Velocity S-wave (km/s) = 2.82659 3.48391 3.17232
# Velocity P-wave (km/s) = 3.81486 5.04528 4.47259
#
# Compressibility (1/GPa) = 0.12872940
#
# Stress axis : x y z
#
# Youngs Moduli (GPa) = 21.33015 14.78363 115.18904
#
# Poissons Ratio (x) = -0.08328 0.33606
# Poissons Ratio (y) = -0.12016 -0.00528
# Poissons Ratio (z) = 0.06223 -0.00068
#
# Static dielectric constant tensor:
#      x y z
#    x 1.701450 0.000000 -0.023970 
#    y 0.000000 1.683600 0.000000 
#    z -0.023970 0.000000 1.738490 
# 
# From -- ./inp_files/324310.got.cif
#   From: 2010.05.17/outbox.cif.g08.bks.cpg/sg12_163_cif.got.tgz:324310.got - 2010.06.03 13:09:07.
