data_PCOD9172215
_publ_section_title
;
Structure prediction by ZEFSAII (Michael W. Deem and Ramdas Pophale) SiO2 
 PCOD9172215
Probable space group: C 2/M
;
_chemical_formula_sum "Si O2"
_cell_formula_units_Z 40
_cell_length_a 23.874303
_cell_length_b 13.859186
_cell_length_c 23.948092
_cell_angle_alpha 90.000000
_cell_angle_beta 161.043170
_cell_angle_gamma 90.000000
_cell_volume 2574.125822
_symmetry_space_group_name_H-M "C 2/M"
_symmetry_group_IT_number 12
_symmetry_cell_setting 'monoclinic'
loop_
_space_group_symop_operation_xyz
x,y,z
-x,y,-z
-x,-y,-z
x,-y,z
1/2+x,1/2+y,z
1/2-x,1/2+y,-z
1/2-x,1/2-y,-z
1/2+x,1/2-y,z
loop_
_atom_site_type_symbol
_atom_site_label
_atom_site_fract_x
_atom_site_fract_y
_atom_site_fract_z
Si Si1 0.808087 0.615000 0.988078
Si Si2 0.015613 0.614542 0.077131
Si Si3 0.954260 0.798842 0.633991
Si Si4 0.082423 0.113321 0.518065
Si Si5 0.887376 0.612083 0.634642
O O1 0.773789 0.500000 0.951229
O O2 0.889241 0.651382 0.005999
O O3 0.955099 0.626368 0.173392
O O4 0.628810 0.668251 0.829342
O O5 0.976556 0.500000 0.036073
O O6 0.211883 0.622521 0.282305
O O7 0.000000 0.655508 0.000000
O O8 0.976665 0.824530 0.590148
O O9 0.914556 0.687888 0.610461
O O10 0.790807 0.859579 0.502580
O O11 0.000000 0.138855 0.500000
O O12 0.040361 0.000000 0.467860
O O13 0.883394 0.500000 0.614607
#
# Coordination Sequence:
#
# PCOD9172215 Si02
#       5
#     8   8   8   8   8
#     4  10  18  30  48  70 100 129 159 197 241 290
#     4   9  16  26  41  66  99 129 153 187 236 289
#     4  11  20  32  52  73  97 130 167 198 242 292
#     4  10  18  29  47  73 102 127 157 196 242 294
#     4  10  21  35  49  70 100 130 165 206 239 283
#
# _framework density 15.539256
#
# number of rings (size 3 to 8) (size 9 to 14) (size 15 to 20)
#    0.000    2.000    2.000    3.600    0.000    3.200 
#    0.000    0.000    0.000    0.600    0.000    0.000 
#    0.000    3.200    0.000    0.000    0.000    0.000 
#
# Total GULP energy -111521.709944 kJ/mol
# GULP energy per Si atom -5576.085497 kJ/mol
# Density = 1.550389 g / cm^3
# Si number density = 15.539256 Si / 1000 Ang^3
#
#
#
# Elastic Constant Matrix: (Units=GPa)
#
#
# Indices 1 2 3 4 5 6 
#
# 1 76.6220 49.1662 30.4114 0.0003 3.3245 0.0001
# 2 49.1662 81.7729 34.3154 0.0003 0.0175 0.0002
# 3 30.4114 34.3154 71.0858 -0.0006 11.5033 -0.0006
# 4 0.0003 0.0003 -0.0006 6.7515 -0.0013 -1.4839
# 5 3.3245 0.0175 11.5033 -0.0013 21.8564 -0.0007
# 6 0.0001 0.0002 -0.0006 -1.4839 -0.0007 18.9263
#
#
#
# Elastic Compliance Matrix: (Units=1/GPa)
#
#
# Indices 1 2 3 4 5 6 
#
# 1 0.022083 -0.011807 -0.003504 -0.000001 -0.001505 0.000000
# 2 -0.011807 0.022017 -0.006411 0.000000 0.005153 0.000000
# 3 -0.003504 -0.006411 0.020304 0.000000 -0.010148 0.000000
# 4 -0.000001 0.000000 0.000000 0.150713 0.000009 0.011817
# 5 -0.001505 0.005153 -0.010148 0.000009 0.051319 0.000002
# 6 0.000000 0.000000 0.000000 0.011817 0.000002 0.053763
#
#
# Mechanical properties :
#
#
# Convention : Reuss Voigt Hill
#
# Bulk Modulus (GPa) = 47.71077 50.80741 49.25909
# Shear Modulus (GPa) = 13.49054 17.21268 15.35161
#
# Velocity S-wave (km/s) = 2.94965 3.33181 3.14654
# Velocity P-wave (km/s) = 6.50927 6.89699 6.70593
#
# Compressibility (1/GPa) = 0.02095963
#
# Stress axis : x y z
#
# Youngs Moduli (GPa) = 45.28290 45.41923 49.25194
#
# Poissons Ratio (x) = 0.53625 0.17260
# Poissons Ratio (y) = 0.53464 0.31576
# Poissons Ratio (z) = 0.15869 0.29119
#
# Static dielectric constant tensor:
#      x y z
#    x 1.533930 0.000000 -0.003420 
#    y 0.000000 1.490810 0.000000 
#    z -0.003420 0.000000 1.543140 
# 
# From -- ./inp_files/84648.got.cif
#   From: 2010.05.17/outbox.cif.g08.bks.cpg/sg12_43_cif.got.tgz:84648.got - 2010.06.03 13:09:07.
