data_PCOD9172224
_publ_section_title
;
Structure prediction by ZEFSAII (Michael W. Deem and Ramdas Pophale) SiO2 
 PCOD9172224
Probable space group: C 2/M
;
_chemical_formula_sum "Si O2"
_cell_formula_units_Z 48
_cell_length_a 23.264466
_cell_length_b 8.472583
_cell_length_c 14.567482
_cell_angle_alpha 90.000000
_cell_angle_beta 102.438103
_cell_angle_gamma 90.000000
_cell_volume 2804.004270
_symmetry_space_group_name_H-M "C 2/M"
_symmetry_group_IT_number 12
_symmetry_cell_setting 'monoclinic'
loop_
_space_group_symop_operation_xyz
x,y,z
-x,y,-z
-x,-y,-z
x,-y,z
1/2+x,1/2+y,z
1/2-x,1/2+y,-z
1/2-x,1/2-y,-z
1/2+x,1/2-y,z
loop_
_atom_site_type_symbol
_atom_site_label
_atom_site_fract_x
_atom_site_fract_y
_atom_site_fract_z
Si Si1 0.312404 0.309977 0.983327
Si Si2 0.422867 0.688394 0.552036
Si Si3 0.797896 0.190853 0.588760
Si Si4 0.450011 0.186186 0.363713
Si Si5 0.737139 0.308454 0.219168
Si Si6 0.637740 0.310621 0.814352
O O1 0.312854 0.500000 0.984996
O O2 0.358643 0.258687 0.077188
O O3 0.250000 0.250000 0.000000
O O4 0.310402 0.262188 0.875928
O O5 0.428201 0.500000 0.563153
O O6 0.362870 0.742014 0.579545
O O7 0.481577 0.765832 0.613274
O O8 0.422276 0.730428 0.443891
O O9 0.750000 0.250000 0.500000
O O10 0.781464 0.242928 0.685907
O O11 0.797464 0.000000 0.587820
O O12 0.415110 0.237804 0.261593
O O13 0.444856 0.000000 0.375289
O O14 0.741811 0.500000 0.220402
O O15 0.800578 0.240983 0.211487
O O16 0.633587 0.500000 0.809416
#
# Coordination Sequence:
#
# PCOD9172224 Si02
#       6
#     8   8   8   8   8   8
#     4   8  15  27  45  67  94 123 154 191 233 274
#     4  10  20  35  51  70  95 124 156 194 234 276
#     4  10  21  33  49  71  97 126 156 187 227 277
#     4  11  21  33  50  71  93 123 158 196 236 278
#     4   9  17  31  48  70  98 127 156 192 233 278
#     4  10  18  29  47  73  98 124 157 194 234 278
#
# _framework density 17.118375
#
# number of rings (size 3 to 8) (size 9 to 14) (size 15 to 20)
#    0.000    2.333    0.000    4.500    0.000    5.333 
#    0.000    0.000    0.000    1.000    0.000    7.000 
#    0.000    0.000    0.000    0.000    0.000    0.000 
#
# Total GULP energy -133782.770294 kJ/mol
# GULP energy per Si atom -5574.282096 kJ/mol
# Density = 1.707941 g / cm^3
# Si number density = 17.118375 Si / 1000 Ang^3
#
#
#
# Elastic Constant Matrix: (Units=GPa)
#
#
# Indices 1 2 3 4 5 6 
#
# 1 58.0678 0.9939 47.3022 0.0000 -6.2676 0.0000
# 2 0.9939 9.1903 0.5651 0.0000 -0.2614 0.0000
# 3 47.3022 0.5651 160.8639 0.0000 6.8895 0.0000
# 4 0.0000 0.0000 0.0000 21.5962 0.0000 6.8297
# 5 -6.2676 -0.2614 6.8895 0.0000 24.1719 0.0000
# 6 0.0000 0.0000 0.0000 6.8297 0.0000 19.7498
#
#
#
# Elastic Compliance Matrix: (Units=1/GPa)
#
#
# Indices 1 2 3 4 5 6 
#
# 1 0.024260 -0.001924 -0.007487 0.000000 0.008404 0.000000
# 2 -0.001924 0.109027 0.000156 0.000000 0.000636 0.000000
# 3 -0.007487 0.000156 0.008606 0.000000 -0.004392 0.000000
# 4 0.000000 0.000000 0.000000 0.051990 0.000000 -0.017979
# 5 0.008404 0.000636 -0.004392 0.000000 0.044808 0.000000
# 6 0.000000 0.000000 0.000000 -0.017979 0.000000 0.056851
#
#
# Mechanical properties :
#
#
# Convention : Reuss Voigt Hill
#
# Bulk Modulus (GPa) = 8.10493 36.20493 22.15493
# Shear Modulus (GPa) = 14.07738 25.05430 19.56584
#
# Velocity S-wave (km/s) = 2.87078 3.82984 3.38446
# Velocity P-wave (km/s) = 3.96654 6.38377 5.31442
#
# Compressibility (1/GPa) = 0.12338170
#
# Stress axis : x y z
#
# Youngs Moduli (GPa) = 41.22007 9.17203 116.20457
#
# Poissons Ratio (x) = 0.01765 0.87000
# Poissons Ratio (y) = 0.07932 -0.01808
# Poissons Ratio (z) = 0.30861 -0.00143
#
# Static dielectric constant tensor:
#      x y z
#    x 1.546630 0.000000 0.000240 
#    y 0.000000 1.584750 0.000000 
#    z 0.000240 0.000000 1.615440 
# 
# From -- ./inp_files/230381.got.cif
#   From: 2010.05.17/outbox.cif.g08.bks.cpg/sg12_116_cif.got.tgz:230381.got - 2010.06.03 13:09:07.
