data_PCOD9172445
_publ_section_title
;
Structure prediction by ZEFSAII (Michael W. Deem and Ramdas Pophale) SiO2 
 PCOD9172445
Probable space group: C 2/M
;
_chemical_formula_sum "Si O2"
_cell_formula_units_Z 64
_cell_length_a 24.292646
_cell_length_b 8.493850
_cell_length_c 17.283219
_cell_angle_alpha 90.000000
_cell_angle_beta 96.234890
_cell_angle_gamma 90.000000
_cell_volume 3545.092476
_symmetry_space_group_name_H-M "C 2/M"
_symmetry_group_IT_number 12
_symmetry_cell_setting 'monoclinic'
loop_
_space_group_symop_operation_xyz
x,y,z
-x,y,-z
-x,-y,-z
x,-y,z
1/2+x,1/2+y,z
1/2-x,1/2+y,-z
1/2-x,1/2-y,-z
1/2+x,1/2-y,z
loop_
_atom_site_type_symbol
_atom_site_label
_atom_site_fract_x
_atom_site_fract_y
_atom_site_fract_z
Si Si1 0.353037 0.314488 0.322396
Si Si2 0.230476 0.686627 0.579360
Si Si3 0.189206 0.312320 0.275381
Si Si4 0.568656 0.810205 0.215390
Si Si5 0.370569 0.810169 0.088296
Si Si6 0.725986 0.814162 0.822975
Si Si7 0.551750 0.809779 0.753436
Si Si8 0.060154 0.811810 0.040662
O O1 0.344587 0.500000 0.308177
O O2 0.326508 0.266000 0.399690
O O3 0.317329 0.217140 0.253719
O O4 0.415621 0.267061 0.312836
O O5 0.223487 0.500000 0.576077
O O6 0.250000 0.750000 0.500000
O O7 0.276142 0.731877 0.651037
O O8 0.192005 0.500000 0.287046
O O9 0.125782 0.258679 0.263360
O O10 0.219133 0.271870 0.198261
O O11 0.511554 0.758312 0.246455
O O12 0.568665 0.755721 0.126924
O O13 0.568352 0.000000 0.215986
O O14 0.309324 0.760066 0.107848
O O15 0.414582 0.766386 0.162808
O O16 0.370269 0.000000 0.084089
O O17 0.392843 0.741688 0.012113
O O18 0.736842 0.000000 0.830950
O O19 0.554184 0.000000 0.747108
O O20 0.059467 0.000000 0.044285
O O21 0.000000 0.757338 0.000000
#
# Coordination Sequence:
#
# PCOD9172445 Si02
#       8
#     8   8   8   8   8   8   8   8
#     4  10  18  29  49  79 109 135 168 213 256 300
#     4  11  21  36  59  85 112 140 169 207 253 303
#     4  10  20  35  55  81 107 136 174 213 256 311
#     4  10  21  36  54  73 102 143 181 214 258 318
#     4   9  17  30  50  70  94 131 177 219 264 316
#     4   9  17  31  50  72  98 134 173 213 261 312
#     4   9  17  31  50  73 100 137 178 216 257 305
#     4  11  22  32  46  73 104 132 173 227 275 312
#
# _framework density 18.053125000000001
#
# number of rings (size 3 to 8) (size 9 to 14) (size 15 to 20)
#    0.000    2.125    1.250    5.625    0.000    4.500 
#    0.000    0.625    0.000    0.750    0.000    5.250 
#    0.000    0.000    0.000    0.000    0.000    0.000 
#
# Total GULP energy -178491.385280 kJ/mol
# GULP energy per Si atom -5577.855790 kJ/mol
# Density = 1.801204 g / cm^3
# Si number density = 18.053125 Si / 1000 Ang^3
#
#
#
# Elastic Constant Matrix: (Units=GPa)
#
#
# Indices 1 2 3 4 5 6 
#
# 1 124.1419 19.2884 52.6518 0.0000 -28.1843 0.0000
# 2 19.2884 22.4485 10.9557 0.0000 -2.0687 0.0000
# 3 52.6518 10.9557 75.0118 0.0000 -29.6390 0.0000
# 4 0.0000 0.0000 0.0000 21.9598 0.0000 -7.3896
# 5 -28.1843 -2.0687 -29.6390 0.0000 31.3199 0.0000
# 6 0.0000 0.0000 0.0000 -7.3896 0.0000 23.4972
#
#
#
# Elastic Compliance Matrix: (Units=1/GPa)
#
#
# Indices 1 2 3 4 5 6 
#
# 1 0.013007 -0.007865 -0.005689 0.000000 0.005802 0.000000
# 2 -0.007865 0.053328 -0.005866 0.000000 -0.009107 0.000000
# 3 -0.005689 -0.005866 0.025564 0.000000 0.018685 0.000000
# 4 0.000000 0.000000 0.000000 0.050927 0.000000 0.016016
# 5 0.005802 -0.009107 0.018685 0.000000 0.054231 0.000000
# 6 0.000000 0.000000 0.000000 0.016016 0.000000 0.047595
#
#
# Mechanical properties :
#
#
# Convention : Reuss Voigt Hill
#
# Bulk Modulus (GPa) = 18.84692 43.04377 30.94534
# Shear Modulus (GPa) = 16.60134 24.60245 20.60190
#
# Velocity S-wave (km/s) = 3.03575 3.69559 3.38180
# Velocity P-wave (km/s) = 4.76970 6.48879 5.69449
#
# Compressibility (1/GPa) = 0.05305908
#
# Stress axis : x y z
#
# Youngs Moduli (GPa) = 76.87939 18.75176 39.11732
#
# Poissons Ratio (x) = 0.14749 0.22253
# Poissons Ratio (y) = 0.60468 0.22948
# Poissons Ratio (z) = 0.43735 0.11000
#
# Static dielectric constant tensor:
#      x y z
#    x 1.666320 0.000000 -0.023470 
#    y 0.000000 1.612570 0.000000 
#    z -0.023470 0.000000 1.602260 
# 
# From -- ./inp_files/287649.got.cif
#   From: 2010.05.17/outbox.cif.g08.bks.cpg/sg12_144_cif.got.tgz:287649.got - 2010.06.03 13:09:07.
