data_PCOD9172480
_publ_section_title
;
Structure prediction by ZEFSAII (Michael W. Deem and Ramdas Pophale) SiO2 
 PCOD9172480
Probable space group: C 2/M
;
_chemical_formula_sum "Si O2"
_cell_formula_units_Z 56
_cell_length_a 20.386293
_cell_length_b 7.787379
_cell_length_c 21.873093
_cell_angle_alpha 90.000000
_cell_angle_beta 125.314938
_cell_angle_gamma 90.000000
_cell_volume 2833.498337
_symmetry_space_group_name_H-M "C 2/M"
_symmetry_group_IT_number 12
_symmetry_cell_setting 'monoclinic'
loop_
_space_group_symop_operation_xyz
x,y,z
-x,y,-z
-x,-y,-z
x,-y,z
1/2+x,1/2+y,z
1/2-x,1/2+y,-z
1/2-x,1/2-y,-z
1/2+x,1/2-y,z
loop_
_atom_site_type_symbol
_atom_site_label
_atom_site_fract_x
_atom_site_fract_y
_atom_site_fract_z
Si Si1 0.408131 0.289097 0.452942
Si Si2 0.654245 0.795081 0.129003
Si Si3 0.766012 0.203388 0.296586
Si Si4 0.617714 0.291276 0.299557
Si Si5 0.495008 0.294290 0.869946
Si Si6 0.171393 0.203660 0.997276
Si Si7 0.156635 0.793776 0.452551
O O1 0.500000 0.237538 0.500000
O O2 0.405114 0.500000 0.450294
O O3 0.350649 0.228643 0.366978
O O4 0.375339 0.228475 0.500407
O O5 0.721527 0.724754 0.212596
O O6 0.566702 0.738857 0.107181
O O7 0.674854 0.749006 0.070844
O O8 0.653991 0.000000 0.133648
O O9 0.701871 0.229676 0.316411
O O10 0.776329 0.000000 0.291640
O O11 0.618085 0.500000 0.298788
O O12 0.549210 0.230887 0.215494
O O13 0.613240 0.232875 0.367187
O O14 0.500614 0.500000 0.867583
O O15 0.585003 0.224675 0.927543
O O16 0.165588 0.000000 0.990238
O O17 0.250000 0.250000 0.000000
O O18 0.250000 0.750000 0.500000
O O19 0.147999 0.000000 0.448603
#
# Coordination Sequence:
#
# PCOD9172480 Si02
#       7
#     8   8   8   8   8   8   8
#     4   9  17  30  47  72 102 135 173 212 251 296
#     4  10  20  34  56  84 107 136 176 217 260 310
#     4   9  17  31  51  76 103 133 169 210 253 298
#     4   9  17  30  50  78 102 128 167 212 258 300
#     4   9  19  36  56  79 106 137 174 217 263 311
#     4  11  23  39  57  78 108 141 173 213 263 315
#     4  10  18  29  50  75 100 132 170 210 253 299
#
# _framework density 19.763553999999999
#
# number of rings (size 3 to 8) (size 9 to 14) (size 15 to 20)
#    0.000    2.429    1.429    1.286    0.000    3.429 
#    2.571    0.000    0.000    1.714    0.000    0.000 
#    0.000    0.000    0.000    0.000    0.000    0.000 
#
# Total GULP energy -156126.790552 kJ/mol
# GULP energy per Si atom -5575.956805 kJ/mol
# Density = 1.971857 g / cm^3
# Si number density = 19.763554 Si / 1000 Ang^3
#
#
#
# Elastic Constant Matrix: (Units=GPa)
#
#
# Indices 1 2 3 4 5 6 
#
# 1 126.0047 -12.9081 89.3414 0.0000 17.9023 0.0000
# 2 -12.9081 18.1163 -0.4246 0.0000 3.6023 0.0000
# 3 89.3414 -0.4246 154.9817 0.0000 16.2008 0.0000
# 4 0.0000 0.0000 0.0000 10.8156 0.0000 -1.7445
# 5 17.9023 3.6023 16.2008 0.0000 30.6496 0.0000
# 6 0.0000 0.0000 0.0000 -1.7445 0.0000 23.9195
#
#
#
# Elastic Compliance Matrix: (Units=1/GPa)
#
#
# Indices 1 2 3 4 5 6 
#
# 1 0.016320 0.012702 -0.008701 0.000000 -0.006426 0.000000
# 2 0.012702 0.066525 -0.005872 0.000000 -0.012134 0.000000
# 3 -0.008701 -0.005872 0.011483 0.000000 -0.000297 0.000000
# 4 0.000000 0.000000 0.000000 0.093560 0.000000 0.006824
# 5 -0.006426 -0.012134 -0.000297 0.000000 0.037964 0.000000
# 6 0.000000 0.000000 0.000000 0.006824 0.000000 0.042305
#
#
# Mechanical properties :
#
#
# Convention : Reuss Voigt Hill
#
# Bulk Modulus (GPa) = 11.03920 50.12444 30.58182
# Shear Modulus (GPa) = 16.55120 27.94988 22.25054
#
# Velocity S-wave (km/s) = 2.89703 3.76468 3.35899
# Velocity P-wave (km/s) = 4.09733 6.65689 5.52731
#
# Compressibility (1/GPa) = 0.09058631
#
# Stress axis : x y z
#
# Youngs Moduli (GPa) = 61.27477 15.03201 87.08235
#
# Poissons Ratio (x) = -0.19094 0.75773
# Poissons Ratio (y) = -0.77831 0.51131
# Poissons Ratio (z) = 0.53317 0.08826
#
# Static dielectric constant tensor:
#      x y z
#    x 1.519440 0.000000 0.093300 
#    y 0.000000 1.737340 0.000000 
#    z 0.093300 0.000000 1.699870 
# 
# From -- ./inp_files/314424.got.cif
#   From: 2010.05.17/outbox.cif.g08.bks.cpg/sg12_158_cif.got.tgz:314424.got - 2010.06.03 13:09:07.
