data_PCOD9172573
_publ_section_title
;
Structure prediction by ZEFSAII (Michael W. Deem and Ramdas Pophale) SiO2 
 PCOD9172573
Probable space group: C 2/M
;
_chemical_formula_sum "Si O2"
_cell_formula_units_Z 34
_cell_length_a 9.181772
_cell_length_b 24.200942
_cell_length_c 7.341271
_cell_angle_alpha 90.000000
_cell_angle_beta 44.851869
_cell_angle_gamma 90.000000
_cell_volume 1150.507123
_symmetry_space_group_name_H-M "C 2/M"
_symmetry_group_IT_number 12
_symmetry_cell_setting 'monoclinic'
loop_
_space_group_symop_operation_xyz
x,y,z
-x,y,-z
-x,-y,-z
x,-y,z
1/2+x,1/2+y,z
1/2-x,1/2+y,-z
1/2-x,1/2-y,-z
1/2+x,1/2-y,z
loop_
_atom_site_type_symbol
_atom_site_label
_atom_site_fract_x
_atom_site_fract_y
_atom_site_fract_z
Si Si1 0.551559 0.822452 0.241068
Si Si2 0.515787 0.705520 0.704522
Si Si3 0.827731 0.439000 0.848902
Si Si4 0.500000 0.500000 0.500000
Si Si5 0.349225 0.416120 0.378910
O O1 0.500000 0.822222 0.500000
O O2 0.437328 0.767722 0.264370
O O3 0.546907 0.886445 0.184681
O O4 0.794147 0.808621 0.991671
O O5 0.500000 0.708511 0.500000
O O6 0.649620 0.650445 0.617106
O O7 0.891982 0.500000 0.846034
O O8 0.794835 0.435432 0.658280
O O9 0.586386 0.432879 0.118601
O O10 0.337335 0.451255 0.571592
#
# Coordination Sequence:
#
# PCOD9172573 Si02
#       5
#     8   8   8   2   8
#     4   9  19  33  50  74 106 143 174 203 258 322
#     4   9  17  32  53  75  98 134 177 222 249 298
#     4  10  18  32  49  77 107 137 171 217 257 313
#     4  12  16  26  52  84 102 126 166 238 272 292
#     4  10  18  29  52  80 104 128 175 226 266 293
#
# _framework density 29.552185999999999
#
# number of rings (size 3 to 8) (size 9 to 14) (size 15 to 20)
#    0.000    2.353    3.529    0.706    0.000    0.471 
#    0.000    4.706    0.000    4.235    0.000    8.235 
#    0.000    0.000    0.000    0.000    0.000    0.000 
#
# Total GULP energy -94955.903908 kJ/mol
# GULP energy per Si atom -5585.641406 kJ/mol
# Density = 2.948492 g / cm^3
# Si number density = 29.552186 Si / 1000 Ang^3
#
#
#
# Elastic Constant Matrix: (Units=GPa)
#
#
# Indices 1 2 3 4 5 6 
#
# 1 155.0009 81.4158 38.9245 0.0000 -4.6262 0.0000
# 2 81.4158 381.5785 35.4890 0.0000 -18.3926 0.0000
# 3 38.9245 35.4890 124.0303 0.0000 10.0983 0.0000
# 4 0.0000 0.0000 0.0000 408.0819 0.0000 -318.8498
# 5 -4.6262 -18.3926 10.0983 0.0000 39.5449 0.0000
# 6 0.0000 0.0000 0.0000 -318.8498 0.0000 306.8579
#
#
#
# Elastic Compliance Matrix: (Units=1/GPa)
#
#
# Indices 1 2 3 4 5 6 
#
# 1 0.007745 -0.001421 -0.002088 0.000000 0.000778 0.000000
# 2 -0.001421 0.003041 -0.000537 0.000000 0.001385 0.000000
# 3 -0.002088 -0.000537 0.009101 0.000000 -0.002818 0.000000
# 4 0.000000 0.000000 0.000000 0.013026 0.000000 0.013535
# 5 0.000778 0.001385 -0.002818 0.000000 0.026743 0.000000
# 6 0.000000 0.000000 0.000000 0.013535 0.000000 0.017322
#
#
# Mechanical properties :
#
#
# Convention : Reuss Voigt Hill
#
# Bulk Modulus (GPa) = 84.77407 108.02980 96.40193
# Shear Modulus (GPa) = 56.17980 184.54898 120.36439
#
# Velocity S-wave (km/s) = 4.36482 7.91101 6.38889
# Velocity P-wave (km/s) = 7.35872 10.95812 9.33357
#
# Compressibility (1/GPa) = 0.01179606
#
# Stress axis : x y z
#
# Youngs Moduli (GPa) = 129.10901 328.88659 109.88153
#
# Poissons Ratio (x) = 0.46733 0.22938
# Poissons Ratio (y) = 0.18346 0.05899
# Poissons Ratio (z) = 0.26952 0.17656
#
# Static dielectric constant tensor:
#      x y z
#    x 2.334730 0.000000 -0.053160 
#    y 0.000000 2.301000 0.000000 
#    z -0.053160 0.000000 2.657540 
# 
# From -- ./inp_files/64309.got.cif
#   From: 2010.05.17/outbox.cif.g08.bks.cpg/sg12_33_cif.got.tgz:64309.got - 2010.06.03 13:09:07.
