data_PCOD9172613
_publ_section_title
;
Structure prediction by ZEFSAII (Michael W. Deem and Ramdas Pophale) SiO2 
 PCOD9172613
Probable space group: C 2/M
;
_chemical_formula_sum "Si O2"
_cell_formula_units_Z 56
_cell_length_a 19.617041
_cell_length_b 14.644963
_cell_length_c 22.359456
_cell_angle_alpha 90.000000
_cell_angle_beta 21.239075
_cell_angle_gamma 90.000000
_cell_volume 2327.039616
_symmetry_space_group_name_H-M "C 2/M"
_symmetry_group_IT_number 12
_symmetry_cell_setting 'monoclinic'
loop_
_space_group_symop_operation_xyz
x,y,z
-x,y,-z
-x,-y,-z
x,-y,z
1/2+x,1/2+y,z
1/2-x,1/2+y,-z
1/2-x,1/2-y,-z
1/2+x,1/2-y,z
loop_
_atom_site_type_symbol
_atom_site_label
_atom_site_fract_x
_atom_site_fract_y
_atom_site_fract_z
Si Si1 0.679833 0.852923 0.545270
Si Si2 0.076332 0.370243 0.135213
Si Si3 0.285231 0.808351 0.679884
Si Si4 0.683288 0.796903 0.213684
Si Si5 0.435781 0.662002 0.892551
Si Si6 0.240301 0.098021 0.335900
Si Si7 0.975665 0.097652 0.671572
O O1 0.750000 0.750000 0.500000
O O2 0.547598 0.893284 0.705552
O O3 0.526810 0.841550 0.618074
O O4 0.880574 0.900850 0.389155
O O5 0.056639 0.260480 0.145628
O O6 0.958870 0.404752 0.175739
O O7 0.293195 0.394562 0.967258
O O8 0.500000 0.839438 0.500000
O O9 0.227670 0.820475 0.795746
O O10 0.285755 0.697282 0.671652
O O11 0.145169 0.853911 0.746106
O O12 0.648785 0.688484 0.230864
O O13 0.812480 0.828659 0.053744
O O14 0.111324 0.101876 0.501484
O O15 0.200273 0.000000 0.338040
O O16 0.876098 0.000000 0.751999
#
# Coordination Sequence:
#
# PCOD9172613 Si02
#       7
#     8   8   8   8   8   8   8
#     4   8  15  26  46  68  90 115 155 198 235 270
#     4   8  15  30  47  66  85 119 154 196 235 270
#     4  11  20  30  44  68  95 125 161 186 222 284
#     4  10  18  30  43  66  95 129 152 191 235 279
#     4   9  18  30  47  64  92 119 153 198 237 269
#     4   9  17  29  47  69  94 125 160 194 225 274
#     4   9  16  28  46  68  93 122 157 196 236 276
#
# _framework density 24.064909
#
# number of rings (size 3 to 8) (size 9 to 14) (size 15 to 20)
#    0.000    2.857    1.429    0.429    2.000    0.857 
#    0.000    2.857    0.000    4.286    0.000    1.000 
#    0.000    8.000    0.000    0.000    0.000    0.000 
#
# Total GULP energy -156015.538842 kJ/mol
# GULP energy per Si atom -5571.983530 kJ/mol
# Density = 2.401014 g / cm^3
# Si number density = 24.064909 Si / 1000 Ang^3
#
#
#
# Elastic Constant Matrix: (Units=GPa)
#
#
# Indices 1 2 3 4 5 6 
#
# 1 60.3219 -3.6281 41.4022 -0.0102 -31.5075 0.0004
# 2 -3.6281 27.2184 -5.3928 -0.0336 1.2217 -0.0064
# 3 41.4022 -5.3928 136.8989 -0.0135 -21.9373 -0.0015
# 4 -0.0102 -0.0336 -0.0135 -6.2244 -0.0004 -0.8362
# 5 -31.5075 1.2217 -21.9373 -0.0004 50.5320 0.0023
# 6 0.0004 -0.0064 -0.0015 -0.8362 0.0023 -9.6590
#
#
#
# Elastic Compliance Matrix: (Units=1/GPa)
#
#
# Indices 1 2 3 4 5 6 
#
# 1 0.028968 0.001940 -0.006231 -0.000047 0.015310 0.000009
# 2 0.001940 0.037162 0.000996 -0.000205 0.000743 -0.000007
# 3 -0.006231 0.000996 0.009245 -0.000015 0.000104 -0.000001
# 4 -0.000047 -0.000205 -0.000015 -0.162546 -0.000033 0.014073
# 5 0.015310 0.000743 0.000104 -0.000033 0.029363 0.000010
# 6 0.000009 -0.000007 -0.000001 0.014073 0.000010 -0.104749
#
#
# Mechanical properties :
#
#
# Convention : Reuss Voigt Hill
#
# Bulk Modulus (GPa) = 14.53803 32.13352 23.33577
# Shear Modulus (GPa) = -37.58297 19.73357 -8.92470
#
# Velocity S-wave (km/s) = -3.95616 2.86670 -1.92786
# Velocity P-wave (km/s) = 3.84890 4.93347 2.18232
#
# Compressibility (1/GPa) = 0.06878512
#
# Stress axis : x y z
#
# Youngs Moduli (GPa) = 34.52114 26.90905 108.16595
#
# Poissons Ratio (x) = -0.05219 0.67398
# Poissons Ratio (y) = -0.06696 -0.10778
# Poissons Ratio (z) = 0.21510 -0.02681
#
# Static dielectric constant tensor:
#      x y z
#    x 1.979630 0.000000 -0.010050 
#    y 0.000000 1.905500 0.000000 
#    z -0.010050 0.000000 1.961490 
# 
# From -- ./inp_files/366713.got.cif
#   From: 2010.05.17/outbox.cif.g08.bks.cpg/sg12_184_cif.got.tgz:366713.got - 2010.06.03 13:09:07.
