data_PCOD9172822
_publ_section_title
;
Structure prediction by ZEFSAII (Michael W. Deem and Ramdas Pophale) SiO2 
 PCOD9172822
Probable space group: C 2/M
;
_chemical_formula_sum "Si O2"
_cell_formula_units_Z 48
_cell_length_a 28.480563
_cell_length_b 8.749395
_cell_length_c 12.184967
_cell_angle_alpha 90.000000
_cell_angle_beta 71.077718
_cell_angle_gamma 90.000000
_cell_volume 2872.257753
_symmetry_space_group_name_H-M "C 2/M"
_symmetry_group_IT_number 12
_symmetry_cell_setting 'monoclinic'
loop_
_space_group_symop_operation_xyz
x,y,z
-x,y,-z
-x,-y,-z
x,-y,z
1/2+x,1/2+y,z
1/2-x,1/2+y,-z
1/2-x,1/2-y,-z
1/2+x,1/2-y,z
loop_
_atom_site_type_symbol
_atom_site_label
_atom_site_fract_x
_atom_site_fract_y
_atom_site_fract_z
Si Si1 0.458708 0.821030 0.862558
Si Si2 0.872372 0.320129 0.102921
Si Si3 0.554627 0.184272 0.501835
Si Si4 0.610824 0.319217 0.261956
Si Si5 0.069433 0.685557 0.740687
Si Si6 0.695378 0.317165 0.030443
O O1 0.433926 0.720715 0.787004
O O2 0.515787 0.778449 0.833853
O O3 0.457635 0.000000 0.827556
O O4 0.423569 0.809479 0.994465
O O5 0.859143 0.500000 0.118347
O O6 0.886424 0.260571 0.213280
O O7 0.831346 0.235903 0.061488
O O8 0.500000 0.235417 0.500000
O O9 0.596529 0.238874 0.385771
O O10 0.566412 0.236709 0.616800
O O11 0.553275 0.000000 0.504076
O O12 0.614317 0.500000 0.276038
O O13 0.659844 0.266067 0.158677
O O14 0.073333 0.500000 0.737292
O O15 0.697125 0.500000 0.031279
O O16 0.750000 0.250000 0.000000
#
# Coordination Sequence:
#
# PCOD9172822 Si02
#       6
#     8   8   8   8   8   8
#     4   9  15  27  46  68  97 133 169 200 233 284
#     4   9  17  29  49  74  99 128 162 202 249 294
#     4  10  18  30  48  70 101 140 177 205 228 273
#     4  10  20  32  47  72 102 129 163 206 249 291
#     4   9  16  27  45  71 101 134 170 202 232 277
#     4  10  21  37  56  76  97 122 158 208 259 304
#
# _framework density 16.711590999999999
#
# number of rings (size 3 to 8) (size 9 to 14) (size 15 to 20)
#    0.000    2.500    1.667    1.500    0.000    4.333 
#    0.000    1.667    0.000    5.000    0.000    0.000 
#    0.000    0.000    0.000    0.000    0.000    0.000 
#
# Total GULP energy -133725.173076 kJ/mol
# GULP energy per Si atom -5571.882211 kJ/mol
# Density = 1.667355 g / cm^3
# Si number density = 16.711591 Si / 1000 Ang^3
#
#
#
# Elastic Constant Matrix: (Units=GPa)
#
#
# Indices 1 2 3 4 5 6 
#
# 1 126.6068 26.3177 68.2738 0.0000 7.0262 0.0000
# 2 26.3177 15.3646 24.3317 0.0000 3.4347 0.0000
# 3 68.2738 24.3317 84.4734 0.0000 16.0091 0.0000
# 4 0.0000 0.0000 0.0000 18.6673 0.0000 -3.5000
# 5 7.0262 3.4347 16.0091 0.0000 19.3978 0.0000
# 6 0.0000 0.0000 0.0000 -3.5000 0.0000 16.8554
#
#
#
# Elastic Compliance Matrix: (Units=1/GPa)
#
#
# Indices 1 2 3 4 5 6 
#
# 1 0.015479 -0.011653 -0.010056 0.000000 0.004755 0.000000
# 2 -0.011653 0.129670 -0.028901 0.000000 0.005113 0.000000
# 3 -0.010056 -0.028901 0.031567 0.000000 -0.017293 0.000000
# 4 0.000000 0.000000 0.000000 0.055740 0.000000 0.011574
# 5 0.004755 0.005113 -0.017293 0.000000 0.063196 0.000000
# 6 0.000000 0.000000 0.000000 0.011574 0.000000 0.061731
#
#
# Mechanical properties :
#
#
# Convention : Reuss Voigt Hill
#
# Bulk Modulus (GPa) = 13.24546 51.58792 32.41669
# Shear Modulus (GPa) = 10.33554 18.15223 14.24389
#
# Velocity S-wave (km/s) = 2.48959 3.29934 2.92265
# Velocity P-wave (km/s) = 4.02582 6.74172 5.55239
#
# Compressibility (1/GPa) = 0.07549755
#
# Stress axis : x y z
#
# Youngs Moduli (GPa) = 64.60172 7.71190 31.67866
#
# Poissons Ratio (x) = 0.08987 0.31855
# Poissons Ratio (y) = 0.75282 0.91553
# Poissons Ratio (z) = 0.64961 0.22288
#
# Static dielectric constant tensor:
#      x y z
#    x 1.549580 0.000000 0.010450 
#    y 0.000000 1.570240 0.000000 
#    z 0.010450 0.000000 1.592320 
# 
# From -- ./inp_files/173076.got.cif
#   From: 2010.05.17/outbox.cif.g08.bks.cpg/sg12_87_cif.got.tgz:173076.got - 2010.06.03 13:09:07.
