data_PCOD9172474
_publ_section_title
;
Structure prediction by ZEFSAII (Michael W. Deem and Ramdas Pophale) SiO2 
 PCOD9172474
Probable space group: C 2/M
;
_chemical_formula_sum "Si O2"
_cell_formula_units_Z 48
_cell_length_a 12.634815
_cell_length_b 13.952011
_cell_length_c 14.894541
_cell_angle_alpha 90.000000
_cell_angle_beta 101.792967
_cell_angle_gamma 90.000000
_cell_volume 2570.205302
_symmetry_space_group_name_H-M "C 2/M"
_symmetry_group_IT_number 12
_symmetry_cell_setting 'monoclinic'
loop_
_space_group_symop_operation_xyz
x,y,z
-x,y,-z
-x,-y,-z
x,-y,z
1/2+x,1/2+y,z
1/2-x,1/2+y,-z
1/2-x,1/2-y,-z
1/2+x,1/2-y,z
loop_
_atom_site_type_symbol
_atom_site_label
_atom_site_fract_x
_atom_site_fract_y
_atom_site_fract_z
Si Si1 0.579467 0.780668 0.427705
Si Si2 0.898713 0.612323 0.290547
Si Si3 0.273667 0.307872 0.869492
Si Si4 0.259968 0.610272 0.564832
Si Si5 0.485889 0.612122 0.896252
Si Si6 0.228807 0.890592 0.929503
O O1 0.500000 0.767249 0.500000
O O2 0.505344 0.831054 0.340007
O O3 0.638071 0.681387 0.412854
O O4 0.677740 0.850736 0.474168
O O5 0.920784 0.500000 0.274844
O O6 0.835360 0.664381 0.199731
O O7 0.813414 0.614430 0.358420
O O8 0.380739 0.341550 0.835792
O O9 0.288135 0.195668 0.891052
O O10 0.270161 0.364163 0.964346
O O11 0.290871 0.500000 0.554652
O O12 0.460088 0.500000 0.901422
O O13 0.604010 0.618151 0.875357
O O14 0.500000 0.653087 0.000000
O O15 0.264529 0.000000 0.922925
#
# Coordination Sequence:
#
# PCOD9172474 Si02
#       6
#     8   8   8   8   8   8
#     4   9  18  33  52  75 102 128 157 196 242 289
#     4  10  19  31  49  73  99 127 163 204 242 284
#     4  10  18  29  50  73  96 125 165 208 245 284
#     4   9  18  33  53  74  98 131 165 195 234 289
#     4   8  14  27  46  65  85 114 154 195 234 278
#     4   9  18  32  50  70  94 128 167 205 246 289
#
# _framework density 18.675550000000001
#
# number of rings (size 3 to 8) (size 9 to 14) (size 15 to 20)
#    0.000    2.833    0.000    3.000    0.000    3.667 
#    0.000    2.500    0.000   21.500    0.000    0.000 
#    0.000    0.000    0.000    0.000    0.000    0.000 
#
# Total GULP energy -133671.863422 kJ/mol
# GULP energy per Si atom -5569.660976 kJ/mol
# Density = 1.863304 g / cm^3
# Si number density = 18.675550 Si / 1000 Ang^3
#
#
#
# Elastic Constant Matrix: (Units=GPa)
#
#
# Indices 1 2 3 4 5 6 
#
# 1 47.6334 44.7987 25.7438 0.0000 24.2701 0.0000
# 2 44.7987 160.5980 38.4217 0.0000 18.6454 0.0000
# 3 25.7438 38.4217 60.8706 0.0000 31.9729 0.0000
# 4 0.0000 0.0000 0.0000 13.3517 0.0000 5.3764
# 5 24.2701 18.6454 31.9729 0.0000 24.7997 0.0000
# 6 0.0000 0.0000 0.0000 5.3764 0.0000 36.4230
#
#
#
# Elastic Compliance Matrix: (Units=1/GPa)
#
#
# Indices 1 2 3 4 5 6 
#
# 1 0.064814 -0.014583 0.028968 0.000000 -0.089813 0.000000
# 2 -0.014583 0.010631 -0.011898 0.000000 0.021618 0.000000
# 3 0.028968 -0.011898 0.067777 0.000000 -0.106785 0.000000
# 4 0.000000 0.000000 0.000000 0.079630 0.000000 -0.011754
# 5 -0.089813 0.021618 -0.106785 0.000000 0.249636 0.000000
# 6 0.000000 0.000000 0.000000 -0.011754 0.000000 0.029190
#
#
# Mechanical properties :
#
#
# Convention : Reuss Voigt Hill
#
# Bulk Modulus (GPa) = 6.74779 54.11448 30.43113
# Shear Modulus (GPa) = 9.15579 25.59074 17.37326
#
# Velocity S-wave (km/s) = 2.21657 3.70575 3.05334
# Velocity P-wave (km/s) = 3.18935 6.88107 5.36288
#
# Compressibility (1/GPa) = 0.14819677
#
# Stress axis : x y z
#
# Youngs Moduli (GPa) = 15.42878 94.06194 14.75434
#
# Poissons Ratio (x) = 1.37170 -0.42741
# Poissons Ratio (y) = 0.22500 0.17555
# Poissons Ratio (z) = -0.44695 1.11915
#
# Static dielectric constant tensor:
#      x y z
#    x 1.668900 0.000000 0.002050 
#    y 0.000000 1.641290 0.000000 
#    z 0.002050 0.000000 1.678210 
# 
# From -- ./inp_files/268211.got.cif
#   From: 2010.05.17/outbox.cif.g08.bks.cpg/sg12_135_cif.got.tgz:268211.got - 2010.06.03 13:09:07.
