data_PCOD9172829
_publ_section_title
;
Structure prediction by ZEFSAII (Michael W. Deem and Ramdas Pophale) SiO2 
 PCOD9172829
Probable space group: C 2/M
;
_chemical_formula_sum "Si O2"
_cell_formula_units_Z 56
_cell_length_a 20.537894
_cell_length_b 8.931168
_cell_length_c 22.426453
_cell_angle_alpha 90.000000
_cell_angle_beta 125.491719
_cell_angle_gamma 90.000000
_cell_volume 3349.311620
_symmetry_space_group_name_H-M "C 2/M"
_symmetry_group_IT_number 12
_symmetry_cell_setting 'monoclinic'
loop_
_space_group_symop_operation_xyz
x,y,z
-x,y,-z
-x,-y,-z
x,-y,z
1/2+x,1/2+y,z
1/2-x,1/2+y,-z
1/2-x,1/2-y,-z
1/2+x,1/2-y,z
loop_
_atom_site_type_symbol
_atom_site_label
_atom_site_fract_x
_atom_site_fract_y
_atom_site_fract_z
Si Si1 0.336397 0.680273 0.535611
Si Si2 0.595764 0.177495 0.548477
Si Si3 0.482797 0.678981 0.693433
Si Si4 0.572097 0.825881 0.843216
Si Si5 0.636962 0.320144 0.694913
Si Si6 0.320755 0.819114 0.997183
Si Si7 0.766584 0.324455 0.152232
O O1 0.332564 0.500000 0.533178
O O2 0.250000 0.750000 0.500000
O O3 0.370799 0.739069 0.491468
O O4 0.399219 0.727886 0.620489
O O5 0.500000 0.198843 0.500000
O O6 0.633084 0.245856 0.628291
O O7 0.611866 0.000000 0.553319
O O8 0.482992 0.500000 0.696430
O O9 0.505440 0.740210 0.770382
O O10 0.554484 0.721412 0.685898
O O11 0.598697 0.777501 0.923742
O O12 0.653412 0.813206 0.846718
O O13 0.550606 0.000000 0.834143
O O14 0.640512 0.500000 0.692706
O O15 0.708634 0.257833 0.773913
O O16 0.314458 0.000000 0.993609
O O17 0.250000 0.750000 0.000000
O O18 0.303934 0.753384 0.922969
O O19 0.750812 0.500000 0.152990
#
# Coordination Sequence:
#
# PCOD9172829 Si02
#       7
#     8   8   8   8   8   8   8
#     4  11  23  39  55  75 102 134 171 213 261 309
#     4  11  22  35  54  78 102 132 170 212 255 305
#     4   9  18  30  46  67  93 124 162 204 249 298
#     4   8  15  24  37  57  84 118 158 198 238 288
#     4  10  18  30  48  70  96 128 164 207 251 297
#     4   9  15  23  34  53  82 120 158 195 239 291
#     4   9  16  25  37  58  88 122 158 199 242 293
#
# _framework density 16.719853000000001
#
# number of rings (size 3 to 8) (size 9 to 14) (size 15 to 20)
#    0.000    2.429    1.429    3.000    0.000    6.286 
#    0.000    0.000    0.000    0.000    0.000    0.000 
#    0.000    1.143    0.000   12.000    0.000    9.429 
#
# Total GULP energy -156008.491987 kJ/mol
# GULP energy per Si atom -5571.731857 kJ/mol
# Density = 1.668180 g / cm^3
# Si number density = 16.719853 Si / 1000 Ang^3
#
#
#
# Elastic Constant Matrix: (Units=GPa)
#
#
# Indices 1 2 3 4 5 6 
#
# 1 32.8136 26.4665 37.2960 0.0000 6.8821 0.0000
# 2 26.4665 67.4740 65.3514 0.0000 0.0859 0.0000
# 3 37.2960 65.3514 199.6963 0.0000 -2.0185 0.0000
# 4 0.0000 0.0000 0.0000 35.4668 0.0000 -2.9158
# 5 6.8821 0.0859 -2.0185 0.0000 10.8895 0.0000
# 6 0.0000 0.0000 0.0000 -2.9158 0.0000 16.4269
#
#
#
# Elastic Compliance Matrix: (Units=1/GPa)
#
#
# Indices 1 2 3 4 5 6 
#
# 1 0.059222 -0.017705 -0.005654 0.000000 -0.038336 0.000000
# 2 -0.017705 0.027015 -0.005433 0.000000 0.009969 0.000000
# 3 -0.005654 -0.005433 0.007893 0.000000 0.005079 0.000000
# 4 0.000000 0.000000 0.000000 0.028613 0.000000 0.005079
# 5 -0.038336 0.009969 0.005079 0.000000 0.116922 0.000000
# 6 0.000000 0.000000 0.000000 0.005079 0.000000 0.061777
#
#
# Mechanical properties :
#
#
# Convention : Reuss Voigt Hill
#
# Bulk Modulus (GPa) = 27.36303 62.02352 44.69327
# Shear Modulus (GPa) = 13.46955 23.94799 18.70877
#
# Velocity S-wave (km/s) = 2.84139 3.78869 3.34871
# Velocity P-wave (km/s) = 5.21208 7.50434 6.46069
#
# Compressibility (1/GPa) = 0.03654566
#
# Stress axis : x y z
#
# Youngs Moduli (GPa) = 16.88567 37.01673 126.69420
#
# Poissons Ratio (x) = 0.65536 0.71634
# Poissons Ratio (y) = 0.29895 0.68838
# Poissons Ratio (z) = 0.09547 0.20113
#
# Static dielectric constant tensor:
#      x y z
#    x 1.538760 0.000000 -0.004340 
#    y 0.000000 1.557260 0.000000 
#    z -0.004340 0.000000 1.599600 
# 
# From -- ./inp_files/345651.got.cif
#   From: 2010.05.17/outbox.cif.g08.bks.cpg/sg12_173_cif.got.tgz:345651.got - 2010.06.03 13:09:07.
