data_PCOD9172304
_publ_section_title
;
Structure prediction by ZEFSAII (Michael W. Deem and Ramdas Pophale) SiO2 
 PCOD9172304
Probable space group: C 2/M
;
_chemical_formula_sum "Si O2"
_cell_formula_units_Z 58
_cell_length_a 20.278447
_cell_length_b 7.572546
_cell_length_c 26.306784
_cell_angle_alpha 90.000000
_cell_angle_beta 139.225793
_cell_angle_gamma 90.000000
_cell_volume 2638.217489
_symmetry_space_group_name_H-M "C 2/M"
_symmetry_group_IT_number 12
_symmetry_cell_setting 'monoclinic'
loop_
_space_group_symop_operation_xyz
x,y,z
-x,y,-z
-x,-y,-z
x,-y,z
1/2+x,1/2+y,z
1/2-x,1/2+y,-z
1/2-x,1/2-y,-z
1/2+x,1/2-y,z
loop_
_atom_site_type_symbol
_atom_site_label
_atom_site_fract_x
_atom_site_fract_y
_atom_site_fract_z
Si Si1 0.920220 0.214334 0.766874
Si Si2 0.891128 0.197405 0.563096
Si Si3 0.711654 0.208825 0.595250
Si Si4 0.784330 0.786531 0.224998
Si Si5 0.027037 0.215893 0.730753
Si Si6 0.057187 0.703916 0.102598
Si Si7 0.422517 0.796143 0.395350
Si Si8 0.000000 0.000000 0.000000
O O1 0.815184 0.276544 0.679734
O O2 0.937218 0.283161 0.833119
O O3 0.005372 0.265425 0.775687
O O4 0.917153 0.000000 0.767835
O O5 0.806453 0.266998 0.475220
O O6 0.936574 0.281615 0.640755
O O7 0.991373 0.197823 0.585770
O O8 0.860178 0.000000 0.558018
O O9 0.617110 0.274913 0.574028
O O10 0.711618 0.000000 0.604193
O O11 0.865936 0.730774 0.230476
O O12 0.669162 0.736087 0.148904
O O13 0.824794 0.710548 0.301694
O O14 0.786629 0.000000 0.230490
O O15 0.023517 0.000000 0.725781
O O16 0.039338 0.500000 0.078808
O O17 0.984426 0.843371 0.034282
O O18 0.457171 0.000000 0.420002
#
# Coordination Sequence:
#
# PCOD9172304 Si02
#       8
#     8   8   8   8   8   8   8   2
#     4  10  19  37  61  86 119 162 205 247 307 367
#     4  10  20  32  45  70 109 156 209 260 310 350
#     4  10  20  30  46  73 109 153 205 259 310 358
#     4   9  18  34  58  89 119 152 201 251 291 355
#     4   8  17  34  56  82 115 164 209 249 305 357
#     4  11  23  41  69 102 129 157 200 243 294 371
#     4  10  18  29  48  73 107 147 200 252 307 361
#     4  12  26  44  72 102 136 158 186 238 322 358
#
# _framework density 21.984539999999999
#
# number of rings (size 3 to 8) (size 9 to 14) (size 15 to 20)
#    0.000    2.207    2.069    2.276    0.966    3.862 
#    0.000    3.448    0.000    0.828    0.000    0.000 
#    0.000    0.000    0.000    0.000    0.000    0.000 
#
# Total GULP energy -161684.838276 kJ/mol
# GULP energy per Si atom -5575.339251 kJ/mol
# Density = 2.193450 g / cm^3
# Si number density = 21.984540 Si / 1000 Ang^3
#
#
#
# Elastic Constant Matrix: (Units=GPa)
#
#
# Indices 1 2 3 4 5 6 
#
# 1 107.1667 10.4749 31.6024 0.0001 -21.8369 0.0001
# 2 10.4749 74.6613 10.6952 0.0018 -5.6085 0.0015
# 3 31.6024 10.6952 68.5906 0.0000 -29.3727 0.0000
# 4 0.0001 0.0018 0.0000 -32.6082 -0.0001 -41.8995
# 5 -21.8369 -5.6085 -29.3727 -0.0001 25.2795 -0.0001
# 6 0.0001 0.0015 0.0000 -41.8995 -0.0001 -12.3472
#
#
#
# Elastic Compliance Matrix: (Units=1/GPa)
#
#
# Indices 1 2 3 4 5 6 
#
# 1 0.011514 -0.000770 -0.001988 0.000000 0.007465 0.000000
# 2 -0.000770 0.013767 -0.001530 0.000000 0.000611 0.000000
# 3 -0.001988 -0.001530 0.029563 0.000000 0.032293 0.000000
# 4 0.000000 0.000000 0.000000 0.009126 0.000000 -0.030969
# 5 0.007465 0.000611 0.032293 0.000000 0.083663 0.000000
# 6 0.000000 0.000000 0.000000 -0.030969 0.000000 0.024102
#
#
# Mechanical properties :
#
#
# Convention : Reuss Voigt Hill
#
# Bulk Modulus (GPa) = 21.61348 39.55150 30.58249
# Shear Modulus (GPa) = 25.54502 9.24122 17.39312
#
# Velocity S-wave (km/s) = 3.41244 2.05247 2.81579
# Velocity P-wave (km/s) = 5.03775 4.86277 4.95103
#
# Compressibility (1/GPa) = 0.04626743
#
# Stress axis : x y z
#
# Youngs Moduli (GPa) = 86.85147 72.63780 33.82662
#
# Poissons Ratio (x) = 0.05592 0.06725
# Poissons Ratio (y) = 0.06686 0.05176
# Poissons Ratio (z) = 0.17266 0.11114
#
# Static dielectric constant tensor:
#      x y z
#    x 1.837510 0.000000 0.028050 
#    y 0.000000 1.856620 0.000000 
#    z 0.028050 0.000000 1.842600 
# 
# From -- ./inp_files/346532.got.cif
#   From: 2010.05.17/outbox.cif.g08.bks.cpg/sg12_174_cif.got.tgz:346532.got - 2010.06.03 13:09:07.
