data_PCOD9172911
_publ_section_title
;
Structure prediction by ZEFSAII (Michael W. Deem and Ramdas Pophale) SiO2 
 PCOD9172911
Probable space group: C 2/M
;
_chemical_formula_sum "Si O2"
_cell_formula_units_Z 64
_cell_length_a 24.089985
_cell_length_b 7.217464
_cell_length_c 15.221097
_cell_angle_alpha 90.000000
_cell_angle_beta 64.404045
_cell_angle_gamma 90.000000
_cell_volume 2386.754188
_symmetry_space_group_name_H-M "C 2/M"
_symmetry_group_IT_number 12
_symmetry_cell_setting 'monoclinic'
loop_
_space_group_symop_operation_xyz
x,y,z
-x,y,-z
-x,-y,-z
x,-y,z
1/2+x,1/2+y,z
1/2-x,1/2+y,-z
1/2-x,1/2-y,-z
1/2+x,1/2-y,z
loop_
_atom_site_type_symbol
_atom_site_label
_atom_site_fract_x
_atom_site_fract_y
_atom_site_fract_z
Si Si1 0.600153 0.774160 0.686635
Si Si2 0.857871 0.722839 0.525679
Si Si3 0.551406 0.224418 0.896593
Si Si4 0.589577 0.790877 0.187163
Si Si5 0.275529 0.275202 0.833712
Si Si6 0.551178 0.225985 0.394563
Si Si7 0.229915 0.286579 0.675560
Si Si8 0.144988 0.275224 0.974864
O O1 0.600838 0.715499 0.584929
O O2 0.552482 0.714515 0.794683
O O3 0.667267 0.714598 0.677038
O O4 0.597318 0.000000 0.686205
O O5 0.859378 0.500000 0.524382
O O6 0.886561 0.784052 0.598356
O O7 0.787087 0.778826 0.569772
O O8 0.615368 0.272219 0.901488
O O9 0.547241 0.000000 0.897492
O O10 0.500000 0.288342 0.000000
O O11 0.659436 0.798453 0.177912
O O12 0.550767 0.709480 0.294415
O O13 0.565862 0.000000 0.189071
O O14 0.601499 0.707712 0.083375
O O15 0.280435 0.500000 0.831628
O O16 0.256479 0.211165 0.748843
O O17 0.215883 0.219154 0.931778
O O18 0.500000 0.280129 0.500000
O O19 0.549255 0.000000 0.390692
O O20 0.215249 0.500000 0.705782
O O21 0.144356 0.500000 0.980655
#
# Coordination Sequence:
#
# PCOD9172911 Si02
#       8
#     8   8   8   8   8   8   8   8
#     4   9  17  29  45  68  96 126 155 189 237 281
#     4  10  19  31  49  71  96 124 157 194 230 276
#     4   9  16  27  44  68  97 125 158 197 232 274
#     4  10  19  31  49  71  96 124 157 194 230 276
#     4  10  18  30  49  69  96 128 153 186 237 287
#     4   9  18  31  45  65  95 125 152 189 234 272
#     4  10  18  30  49  69  96 128 153 186 237 287
#     4   9  17  29  45  68  96 126 155 189 237 281
#
# _framework density 26.814658000000001
#
# number of rings (size 3 to 8) (size 9 to 14) (size 15 to 20)
#    0.000    2.500    2.500    0.750    0.000    1.000 
#    0.000    5.000    0.000    1.500    0.000    0.000 
#    0.000    7.000    0.000    0.000    0.000    0.000 
#
# Total GULP energy -178963.128257 kJ/mol
# GULP energy per Si atom -5592.597758 kJ/mol
# Density = 2.675363 g / cm^3
# Si number density = 26.814658 Si / 1000 Ang^3
#
#
#
# Elastic Constant Matrix: (Units=GPa)
#
#
# Indices 1 2 3 4 5 6 
#
# 1 59.0361 -9.4839 15.1121 0.0000 -3.0449 0.0001
# 2 -9.4839 133.0640 -6.4718 -0.0001 4.2968 0.0007
# 3 15.1121 -6.4718 211.2915 0.0000 0.6228 0.0001
# 4 0.0000 -0.0001 0.0000 -14.9772 0.0000 -3.3416
# 5 -3.0449 4.2968 0.6228 0.0000 54.5750 0.0000
# 6 0.0001 0.0007 0.0001 -3.3416 0.0000 5.0178
#
#
#
# Elastic Compliance Matrix: (Units=1/GPa)
#
#
# Indices 1 2 3 4 5 6 
#
# 1 0.017483 0.001158 -0.001218 0.000000 0.000898 -0.000001
# 2 0.001158 0.007622 0.000152 0.000000 -0.000537 -0.000001
# 3 -0.001218 0.000152 0.004825 0.000000 -0.000135 0.000000
# 4 0.000000 0.000000 0.000000 -0.058131 0.000000 -0.038712
# 5 0.000898 -0.000537 -0.000135 0.000000 0.018417 0.000000
# 6 -0.000001 -0.000001 0.000000 -0.038712 0.000000 0.173509
#
#
# Mechanical properties :
#
#
# Convention : Reuss Voigt Hill
#
# Bulk Modulus (GPa) = 33.20589 44.63385 38.91987
# Shear Modulus (GPa) = 28.80533 35.87214 32.33873
#
# Velocity S-wave (km/s) = 3.28111 3.66154 3.47653
# Velocity P-wave (km/s) = 5.17346 5.87854 5.53723
#
# Compressibility (1/GPa) = 0.03011514
#
# Stress axis : x y z
#
# Youngs Moduli (GPa) = 57.19912 131.19134 207.25626
#
# Poissons Ratio (x) = -0.15190 0.25235
# Poissons Ratio (y) = -0.06623 -0.03155
# Poissons Ratio (z) = 0.06965 -0.01997
#
# Static dielectric constant tensor:
#      x y z
#    x 2.061680 0.000000 -0.026410 
#    y 0.000000 2.368100 0.000000 
#    z -0.026410 0.000000 2.092400 
# 
# From -- ./inp_files/249064.got.cif
#   From: 2010.05.17/outbox.cif.g08.bks.cpg/sg12_125_cif.got.tgz:249064.got - 2010.06.03 13:09:07.
