data_PCOD9172740
_publ_section_title
;
Structure prediction by ZEFSAII (Michael W. Deem and Ramdas Pophale) SiO2 
 PCOD9172740
Probable space group: C 2/M
;
_chemical_formula_sum "Si O2"
_cell_formula_units_Z 56
_cell_length_a 27.088759
_cell_length_b 8.913943
_cell_length_c 17.627746
_cell_angle_alpha 90.000000
_cell_angle_beta 124.936159
_cell_angle_gamma 90.000000
_cell_volume 3489.463814
_symmetry_space_group_name_H-M "C 2/M"
_symmetry_group_IT_number 12
_symmetry_cell_setting 'monoclinic'
loop_
_space_group_symop_operation_xyz
x,y,z
-x,y,-z
-x,-y,-z
x,-y,z
1/2+x,1/2+y,z
1/2-x,1/2+y,-z
1/2-x,1/2-y,-z
1/2+x,1/2-y,z
loop_
_atom_site_type_symbol
_atom_site_label
_atom_site_fract_x
_atom_site_fract_y
_atom_site_fract_z
Si Si1 0.231377 0.325803 0.210490
Si Si2 0.587976 0.172423 0.111697
Si Si3 0.461452 0.322184 0.784048
Si Si4 0.732162 0.179042 0.604658
Si Si5 0.156718 0.819770 0.408439
Si Si6 0.788420 0.179138 0.966170
Si Si7 0.080584 0.678322 0.931115
O O1 0.247284 0.500000 0.213302
O O2 0.160337 0.320441 0.169190
O O3 0.266121 0.254949 0.311830
O O4 0.237058 0.236566 0.137046
O O5 0.565329 0.280955 0.156972
O O6 0.570767 0.000000 0.115458
O O7 0.565705 0.207179 0.007165
O O8 0.470963 0.500000 0.787018
O O9 0.409502 0.277591 0.678809
O O10 0.524540 0.236681 0.833434
O O11 0.794180 0.217130 0.613876
O O12 0.679328 0.239503 0.504125
O O13 0.729418 0.000000 0.609462
O O14 0.158816 0.000000 0.420544
O O15 0.787301 0.000000 0.968327
O O16 0.750000 0.250000 0.000000
O O17 0.857093 0.238561 0.031441
O O18 0.089467 0.500000 0.931502
#
# Coordination Sequence:
#
# PCOD9172740 Si02
#       7
#     8   8   8   8   8   8   8
#     4  10  19  32  51  74 102 134 167 206 253 299
#     4   9  18  30  44  64  95 133 168 203 241 290
#     4  11  20  30  45  68  98 134 172 208 248 292
#     4  10  18  30  47  69  96 133 176 214 251 293
#     4   9  19  31  43  65  99 136 174 214 251 291
#     4  11  22  38  58  79 102 127 161 205 253 301
#     4  10  21  35  49  70  98 130 167 204 247 299
#
# _framework density 16.048310000000001
#
# number of rings (size 3 to 8) (size 9 to 14) (size 15 to 20)
#    0.000    2.000    1.429    4.286    0.000    6.286 
#    0.000    0.000    0.000    0.000    0.000    1.000 
#    0.000    8.000    0.000    0.000    0.000    0.000 
#
# Total GULP energy -156286.318276 kJ/mol
# GULP energy per Si atom -5581.654224 kJ/mol
# Density = 1.601178 g / cm^3
# Si number density = 16.048310 Si / 1000 Ang^3
#
#
#
# Elastic Constant Matrix: (Units=GPa)
#
#
# Indices 1 2 3 4 5 6 
#
# 1 56.5341 44.8135 54.1579 0.0000 -3.5506 0.0000
# 2 44.8135 94.3937 70.4580 0.0000 -0.9746 0.0000
# 3 54.1579 70.4580 140.1805 0.0000 12.5552 0.0000
# 4 0.0000 0.0000 0.0000 29.8126 0.0000 0.4626
# 5 -3.5506 -0.9746 12.5552 0.0000 20.1910 0.0000
# 6 0.0000 0.0000 0.0000 0.4626 0.0000 23.8587
#
#
#
# Elastic Compliance Matrix: (Units=1/GPa)
#
#
# Indices 1 2 3 4 5 6 
#
# 1 0.035426 -0.009067 -0.010217 0.000000 0.012145 0.000000
# 2 -0.009067 0.020115 -0.006938 0.000000 0.003691 0.000000
# 3 -0.010217 -0.006938 0.015630 0.000000 -0.011850 0.000000
# 4 0.000000 0.000000 0.000000 0.033553 0.000000 -0.000651
# 5 0.012145 0.003691 -0.011850 0.000000 0.059210 0.000000
# 6 0.000000 0.000000 0.000000 -0.000651 0.000000 0.041926
#
#
# Mechanical properties :
#
#
# Convention : Reuss Voigt Hill
#
# Bulk Modulus (GPa) = 53.39939 69.99637 61.69788
# Shear Modulus (GPa) = 18.90028 22.88438 20.89233
#
# Velocity S-wave (km/s) = 3.43550 3.78030 3.61202
# Velocity P-wave (km/s) = 7.00595 7.92243 7.47824
#
# Compressibility (1/GPa) = 0.01872681
#
# Stress axis : x y z
#
# Youngs Moduli (GPa) = 28.22777 49.71354 63.98078
#
# Poissons Ratio (x) = 0.45074 0.65371
# Poissons Ratio (y) = 0.25593 0.44390
# Poissons Ratio (z) = 0.28841 0.34492
#
# Static dielectric constant tensor:
#      x y z
#    x 1.524210 0.000000 0.021020 
#    y 0.000000 1.533760 0.000000 
#    z 0.021020 0.000000 1.539360 
# 
# From -- ./inp_files/244305.got.cif
#   From: 2010.05.17/outbox.cif.g08.bks.cpg/sg12_123_cif.got.tgz:244305.got - 2010.06.03 13:09:07.
