data_PCOD9172182
_publ_section_title
;
Structure prediction by ZEFSAII (Michael W. Deem and Ramdas Pophale) SiO2 
 PCOD9172182
Probable space group: C 2/M
;
_chemical_formula_sum "Si O2"
_cell_formula_units_Z 64
_cell_length_a 25.564033
_cell_length_b 7.828404
_cell_length_c 15.834484
_cell_angle_alpha 90.000000
_cell_angle_beta 109.285927
_cell_angle_gamma 90.000000
_cell_volume 2991.054092
_symmetry_space_group_name_H-M "C 2/M"
_symmetry_group_IT_number 12
_symmetry_cell_setting 'monoclinic'
loop_
_space_group_symop_operation_xyz
x,y,z
-x,y,-z
-x,-y,-z
x,-y,z
1/2+x,1/2+y,z
1/2-x,1/2+y,-z
1/2-x,1/2-y,-z
1/2+x,1/2-y,z
loop_
_atom_site_type_symbol
_atom_site_label
_atom_site_fract_x
_atom_site_fract_y
_atom_site_fract_z
Si Si1 0.438303 0.293738 0.493865
Si Si2 0.600762 0.704608 0.180968
Si Si3 0.912350 0.306452 0.013100
Si Si4 0.343597 0.204352 0.311554
Si Si5 0.774738 0.807812 0.749309
Si Si6 0.083798 0.297510 0.800388
Si Si7 0.964337 0.207029 0.690282
Si Si8 0.220312 0.307100 0.068227
O O1 0.500000 0.236653 0.500000
O O2 0.437974 0.500000 0.488853
O O3 0.390635 0.231677 0.406407
O O4 0.431629 0.243681 0.588322
O O5 0.604968 0.500000 0.189643
O O6 0.576042 0.737368 0.074517
O O7 0.663975 0.773097 0.225818
O O8 0.563601 0.768095 0.238059
O O9 0.934047 0.500000 0.025011
O O10 0.845467 0.306442 0.981023
O O11 0.926711 0.222706 0.111117
O O12 0.283611 0.273795 0.308860
O O13 0.367306 0.270988 0.233970
O O14 0.336428 0.000000 0.297699
O O15 0.767221 0.812475 0.846570
O O16 0.778105 0.000000 0.715397
O O17 0.094731 0.500000 0.818486
O O18 0.026847 0.273484 0.719931
O O19 0.967049 0.000000 0.693539
O O20 0.236734 0.500000 0.099426
O O21 0.250000 0.250000 0.000000
#
# Coordination Sequence:
#
# PCOD9172182 Si02
#       8
#     8   8   8   8   8   8   8   8
#     4  10  20  36  56  78 106 137 169 211 264 315
#     4   9  19  36  56  75 101 140 180 213 253 304
#     4   9  19  34  50  72 105 140 175 215 257 302
#     4  10  20  34  55  81 108 134 168 216 263 312
#     4   9  18  34  53  74 102 136 173 214 259 307
#     4  10  20  33  51  77 106 137 171 212 262 308
#     4  10  21  37  55  76 103 136 174 217 260 309
#     4  10  18  29  47  71 102 139 177 217 259 306
#
# _framework density 21.397138000000002
#
# number of rings (size 3 to 8) (size 9 to 14) (size 15 to 20)
#    0.000    2.375    1.250    1.125    0.000    5.250 
#    0.000    4.375    0.000    0.000    0.000    0.000 
#    0.000    0.000    0.000    0.000    0.000    0.000 
#
# Total GULP energy -178415.170671 kJ/mol
# GULP energy per Si atom -5575.474083 kJ/mol
# Density = 2.134844 g / cm^3
# Si number density = 21.397138 Si / 1000 Ang^3
#
#
#
# Elastic Constant Matrix: (Units=GPa)
#
#
# Indices 1 2 3 4 5 6 
#
# 1 42.4514 -0.8286 11.5984 0.0000 0.8337 0.0000
# 2 -0.8286 35.4804 3.7084 0.0000 -3.2081 0.0000
# 3 11.5984 3.7084 92.7739 0.0000 1.2167 0.0000
# 4 0.0000 0.0000 0.0000 22.7384 0.0000 3.6992
# 5 0.8337 -3.2081 1.2167 0.0000 37.6621 0.0000
# 6 0.0000 0.0000 0.0000 3.6992 0.0000 8.0947
#
#
#
# Elastic Compliance Matrix: (Units=1/GPa)
#
#
# Indices 1 2 3 4 5 6 
#
# 1 0.024423 0.000859 -0.003083 0.000000 -0.000368 0.000000
# 2 0.000859 0.028561 -0.001281 0.000000 0.002455 0.000000
# 3 -0.003083 -0.001281 0.011221 0.000000 -0.000403 0.000000
# 4 0.000000 0.000000 0.000000 0.047511 0.000000 -0.021712
# 5 -0.000368 0.002455 -0.000403 0.000000 0.026782 0.000000
# 6 0.000000 0.000000 0.000000 -0.021712 0.000000 0.133460
#
#
# Mechanical properties :
#
#
# Convention : Reuss Voigt Hill
#
# Bulk Modulus (GPa) = 17.48420 22.18468 19.83444
# Shear Modulus (GPa) = 16.77675 24.11419 20.44547
#
# Velocity S-wave (km/s) = 2.80315 3.36070 3.09451
# Velocity P-wave (km/s) = 4.32041 5.04476 4.69657
#
# Compressibility (1/GPa) = 0.05719451
#
# Stress axis : x y z
#
# Youngs Moduli (GPa) = 40.94569 35.01327 89.12012
#
# Poissons Ratio (x) = -0.03009 0.27474
# Poissons Ratio (y) = -0.03519 0.11419
# Poissons Ratio (z) = 0.12623 0.04486
#
# Static dielectric constant tensor:
#      x y z
#    x 1.813080 0.000000 0.002070 
#    y 0.000000 1.816500 0.000000 
#    z 0.002070 0.000000 1.784820 
# 
# From -- ./inp_files/244173.got.cif
#   From: 2010.05.17/outbox.cif.g08.bks.cpg/sg12_123_cif.got.tgz:244173.got - 2010.06.03 13:09:07.
