data_PCOD9172197
_publ_section_title
;
Structure prediction by ZEFSAII (Michael W. Deem and Ramdas Pophale) SiO2 
 PCOD9172197
Probable space group: C 2/M
;
_chemical_formula_sum "Si O2"
_cell_formula_units_Z 64
_cell_length_a 20.151966
_cell_length_b 7.884606
_cell_length_c 21.135123
_cell_angle_alpha 90.000000
_cell_angle_beta 95.165816
_cell_angle_gamma 90.000000
_cell_volume 3344.526407
_symmetry_space_group_name_H-M "C 2/M"
_symmetry_group_IT_number 12
_symmetry_cell_setting 'monoclinic'
loop_
_space_group_symop_operation_xyz
x,y,z
-x,y,-z
-x,-y,-z
x,-y,z
1/2+x,1/2+y,z
1/2-x,1/2+y,-z
1/2-x,1/2-y,-z
1/2+x,1/2-y,z
loop_
_atom_site_type_symbol
_atom_site_label
_atom_site_fract_x
_atom_site_fract_y
_atom_site_fract_z
Si Si1 0.383005 0.297532 0.169081
Si Si2 0.267447 0.797685 0.072635
Si Si3 0.126612 0.704540 0.610083
Si Si4 0.483886 0.793618 0.653572
Si Si5 0.575187 0.197620 0.477441
Si Si6 0.830047 0.202037 0.826258
Si Si7 0.970459 0.797524 0.796855
Si Si8 0.715216 0.297933 0.729103
O O1 0.387787 0.500000 0.178238
O O2 0.339007 0.264390 0.103491
O O3 0.457886 0.228481 0.174831
O O4 0.340065 0.230649 0.225181
O O5 0.212831 0.729454 0.118351
O O6 0.267913 0.000000 0.077661
O O7 0.250000 0.750000 0.000000
O O8 0.123508 0.500000 0.606669
O O9 0.120904 0.770249 0.537406
O O10 0.189726 0.753308 0.657335
O O11 0.059104 0.760573 0.640895
O O12 0.434386 0.731197 0.593692
O O13 0.466431 0.732044 0.721433
O O14 0.483191 0.000000 0.652931
O O15 0.500000 0.199565 0.500000
O O16 0.594076 0.000000 0.471319
O O17 0.904098 0.272811 0.823961
O O18 0.785665 0.230780 0.759790
O O19 0.835555 0.000000 0.835843
O O20 0.970859 0.000000 0.808029
O O21 0.717578 0.500000 0.734804
#
# Coordination Sequence:
#
# PCOD9172197 Si02
#       8
#     8   8   8   8   8   8   8   8
#     4   9  18  32  51  75 102 131 161 196 240 286
#     4  10  20  36  58  80 101 129 164 198 234 280
#     4   9  15  25  44  67  94 128 167 206 246 297
#     4   9  16  26  44  69  97 129 165 204 248 295
#     4   7  12  23  38  61  92 126 163 203 245 292
#     4   9  20  36  53  73  99 133 168 196 234 295
#     4  10  19  33  51  73 103 133 162 202 247 291
#     4  10  18  29  47  72 100 127 161 210 256 288
#
# _framework density 19.135742
#
# number of rings (size 3 to 8) (size 9 to 14) (size 15 to 20)
#    0.000    2.875    1.250    2.250    0.000    2.000 
#    0.000    1.250    0.000    6.750    0.000    0.000 
#    0.000    0.000    0.000    0.000    0.000    0.000 
#
# Total GULP energy -178293.975066 kJ/mol
# GULP energy per Si atom -5571.686721 kJ/mol
# Density = 1.909219 g / cm^3
# Si number density = 19.135742 Si / 1000 Ang^3
#
#
#
# Elastic Constant Matrix: (Units=GPa)
#
#
# Indices 1 2 3 4 5 6 
#
# 1 116.1605 6.2406 52.7154 0.0000 15.1082 0.0000
# 2 6.2406 16.0395 -13.0910 0.0000 -4.0066 0.0000
# 3 52.7154 -13.0910 109.4531 0.0000 25.0827 0.0000
# 4 0.0000 0.0000 0.0000 21.4165 0.0000 1.3807
# 5 15.1082 -4.0066 25.0827 0.0000 18.5548 0.0000
# 6 0.0000 0.0000 0.0000 1.3807 0.0000 9.7453
#
#
#
# Elastic Compliance Matrix: (Units=1/GPa)
#
#
# Indices 1 2 3 4 5 6 
#
# 1 0.012706 -0.011284 -0.006577 0.000000 -0.003891 0.000000
# 2 -0.011284 0.079491 0.012899 0.000000 0.008916 0.000000
# 3 -0.006577 0.012899 0.017359 0.000000 -0.015325 0.000000
# 4 0.000000 0.000000 0.000000 0.047123 0.000000 -0.006677
# 5 -0.003891 0.008916 -0.015325 0.000000 0.079705 0.000000
# 6 0.000000 0.000000 0.000000 -0.006677 0.000000 0.103560
#
#
# Mechanical properties :
#
#
# Convention : Reuss Voigt Hill
#
# Bulk Modulus (GPa) = 10.03703 37.04256 23.53979
# Shear Modulus (GPa) = 13.05211 22.99585 18.02398
#
# Velocity S-wave (km/s) = 2.61450 3.47035 3.07237
# Velocity P-wave (km/s) = 3.79087 5.95462 4.99141
#
# Compressibility (1/GPa) = 0.09963104
#
# Stress axis : x y z
#
# Youngs Moduli (GPa) = 78.70297 12.58002 57.60723
#
# Poissons Ratio (x) = 0.14195 0.37891
# Poissons Ratio (y) = 0.88807 -0.74307
# Poissons Ratio (z) = 0.51767 -0.16227
#
# Static dielectric constant tensor:
#      x y z
#    x 1.683370 0.000000 0.012740 
#    y 0.000000 1.690060 0.000000 
#    z 0.012740 0.000000 1.684370 
# 
# From -- ./inp_files/319222.got.cif
#   From: 2010.05.17/outbox.cif.g08.bks.cpg/sg12_160_cif.got.tgz:319222.got - 2010.06.03 13:09:07.
