data_PCOD9172871
_publ_section_title
;
Structure prediction by ZEFSAII (Michael W. Deem and Ramdas Pophale) SiO2 
 PCOD9172871
Probable space group: C 2/M
;
_chemical_formula_sum "Si O2"
_cell_formula_units_Z 56
_cell_length_a 14.183358
_cell_length_b 14.031857
_cell_length_c 21.380979
_cell_angle_alpha 90.000000
_cell_angle_beta 133.266200
_cell_angle_gamma 90.000000
_cell_volume 3098.552682
_symmetry_space_group_name_H-M "C 2/M"
_symmetry_group_IT_number 12
_symmetry_cell_setting 'monoclinic'
loop_
_space_group_symop_operation_xyz
x,y,z
-x,y,-z
-x,-y,-z
x,-y,z
1/2+x,1/2+y,z
1/2-x,1/2+y,-z
1/2-x,1/2-y,-z
1/2+x,1/2-y,z
loop_
_atom_site_type_symbol
_atom_site_label
_atom_site_fract_x
_atom_site_fract_y
_atom_site_fract_z
Si Si1 0.557326 0.713956 0.768041
Si Si2 0.307617 0.111800 0.115152
Si Si3 0.766925 0.235488 0.611120
Si Si4 0.136923 0.716361 0.678062
Si Si5 0.871149 0.887348 0.851960
Si Si6 0.636489 0.886446 0.444575
Si Si7 0.852025 0.114689 0.071470
O O1 0.585286 0.821724 0.804845
O O2 0.404565 0.696956 0.699113
O O3 0.603141 0.708035 0.717138
O O4 0.638649 0.651502 0.853732
O O5 0.179393 0.124244 0.100079
O O6 0.341922 0.000000 0.132573
O O7 0.268462 0.141856 0.027387
O O8 0.672074 0.254917 0.625884
O O9 0.705005 0.156941 0.537179
O O10 0.800245 0.328635 0.584762
O O11 0.262569 0.661605 0.760516
O O12 0.013431 0.646352 0.619909
O O13 0.014037 0.852057 0.900364
O O14 0.869980 0.000000 0.839014
O O15 0.648075 0.000000 0.445101
O O16 0.851811 0.000000 0.071021
#
# Coordination Sequence:
#
# PCOD9172871 Si02
#       7
#     8   8   8   8   8   8   8
#     4  10  20  33  52  76 107 144 179 216 266 322
#     4   9  18  31  50  76 103 136 179 225 267 314
#     4  10  21  37  55  82 114 139 177 229 276 323
#     4  10  19  34  55  80 112 140 178 222 266 319
#     4   9  16  27  48  77 105 133 171 219 272 314
#     4  10  22  38  60  85 109 143 183 223 272 330
#     4  10  18  30  48  73 109 143 176 218 264 313
#
# _framework density 18.072953999999999
#
# number of rings (size 3 to 8) (size 9 to 14) (size 15 to 20)
#    0.000    2.286    1.429    1.714    0.000    7.429 
#    0.000    0.714    0.000   11.143    0.000    2.000 
#    0.000    0.000    0.000    0.000    0.000    0.000 
#
# Total GULP energy -156065.926567 kJ/mol
# GULP energy per Si atom -5573.783092 kJ/mol
# Density = 1.803182 g / cm^3
# Si number density = 18.072954 Si / 1000 Ang^3
#
#
#
# Elastic Constant Matrix: (Units=GPa)
#
#
# Indices 1 2 3 4 5 6 
#
# 1 68.6660 20.7811 30.7194 0.0000 -17.4926 0.0000
# 2 20.7811 30.1668 17.8209 0.0000 -4.2605 0.0000
# 3 30.7194 17.8209 92.8180 0.0000 -7.1006 0.0000
# 4 0.0000 0.0000 0.0000 16.1369 0.0000 5.2140
# 5 -17.4926 -4.2605 -7.1006 0.0000 29.3547 0.0000
# 6 0.0000 0.0000 0.0000 5.2140 0.0000 10.6298
#
#
#
# Elastic Compliance Matrix: (Units=1/GPa)
#
#
# Indices 1 2 3 4 5 6 
#
# 1 0.022835 -0.011533 -0.004514 0.000000 0.010842 0.000000
# 2 -0.011533 0.043626 -0.004687 0.000000 -0.001674 0.000000
# 3 -0.004514 -0.004687 0.013153 0.000000 -0.000189 0.000000
# 4 0.000000 0.000000 0.000000 0.073641 0.000000 -0.036122
# 5 0.010842 -0.001674 -0.000189 0.000000 0.040238 0.000000
# 6 0.000000 0.000000 0.000000 -0.036122 0.000000 0.111794
#
#
# Mechanical properties :
#
#
# Convention : Reuss Voigt Hill
#
# Bulk Modulus (GPa) = 26.21472 36.69931 31.45701
# Shear Modulus (GPa) = 13.90937 19.37956 16.64447
#
# Velocity S-wave (km/s) = 2.77722 3.27815 3.03802
# Velocity P-wave (km/s) = 4.98200 5.88885 5.45431
#
# Compressibility (1/GPa) = 0.03814651
#
# Stress axis : x y z
#
# Youngs Moduli (GPa) = 43.79292 22.92210 76.02684
#
# Poissons Ratio (x) = 0.26435 0.34318
# Poissons Ratio (y) = 0.50504 0.35636
# Poissons Ratio (z) = 0.19768 0.10744
#
# Static dielectric constant tensor:
#      x y z
#    x 1.636130 0.000000 -0.028940 
#    y 0.000000 1.603670 0.000000 
#    z -0.028940 0.000000 1.653500 
# 
# From -- ./inp_files/214223.got.cif
#   From: 2010.05.17/outbox.cif.g08.bks.cpg/sg12_108_cif.got.tgz:214223.got - 2010.06.03 13:09:07.
