data_PCOD9172478
_publ_section_title
;
Structure prediction by ZEFSAII (Michael W. Deem and Ramdas Pophale) SiO2 
 PCOD9172478
Probable space group: C 2/M
;
_chemical_formula_sum "Si O2"
_cell_formula_units_Z 50
_cell_length_a 18.910814
_cell_length_b 7.848223
_cell_length_c 13.896411
_cell_angle_alpha 90.000000
_cell_angle_beta 90.118100
_cell_angle_gamma 90.000000
_cell_volume 2062.449319
_symmetry_space_group_name_H-M "C 2/M"
_symmetry_group_IT_number 12
_symmetry_cell_setting 'monoclinic'
loop_
_space_group_symop_operation_xyz
x,y,z
-x,y,-z
-x,-y,-z
x,-y,z
1/2+x,1/2+y,z
1/2-x,1/2+y,-z
1/2-x,1/2-y,-z
1/2+x,1/2-y,z
loop_
_atom_site_type_symbol
_atom_site_label
_atom_site_fract_x
_atom_site_fract_y
_atom_site_fract_z
Si Si1 0.557772 0.680900 0.744576
Si Si2 0.091626 0.700571 0.098396
Si Si3 0.878876 0.500000 0.500985
Si Si4 0.345288 0.190887 0.103459
Si Si5 0.000000 0.000000 0.000000
Si Si6 0.785135 0.295243 0.770662
Si Si7 0.691347 0.303675 0.598587
Si Si8 0.992984 0.500000 0.657581
O O1 0.522715 0.500000 0.728755
O O2 0.596859 0.689280 0.846960
O O3 0.624119 0.693854 0.671468
O O4 0.506724 0.834975 0.721758
O O5 0.066812 0.500000 0.100565
O O6 0.136706 0.744502 0.193299
O O7 0.148521 0.703306 0.010085
O O8 0.037902 0.846893 0.066868
O O9 0.831783 0.666843 0.480539
O O10 0.918249 0.500000 0.603172
O O11 0.944000 0.500000 0.423314
O O12 0.270484 0.226865 0.150963
O O13 0.366429 0.000000 0.132925
O O14 0.778337 0.500000 0.771252
O O15 0.755842 0.241677 0.666431
O O16 0.700540 0.500000 0.567280
#
# Coordination Sequence:
#
# PCOD9172478 Si02
#       8
#     8   8   4   8   2   8   8   4
#     4   9  16  26  40  58  89 120 154 200 241 284
#     4  10  23  38  51  73  97 129 170 207 242 292
#     4   9  16  23  38  51  86 125 164 194 216 287
#     4  10  18  29  50  75 100 123 161 212 257 293
#     4  12  26  38  56  64  96 144 172 198 240 306
#     4   9  18  31  49  73 102 124 158 213 257 291
#     4   8  15  25  38  60  86 121 152 189 244 284
#     4   9  16  26  34  58  80 123 169 194 228 267
#
# _framework density 24.243017999999999
#
# number of rings (size 3 to 8) (size 9 to 14) (size 15 to 20)
#    0.000    2.720    0.800    2.160    6.720    0.640 
#    0.000    3.200    0.000    0.000    0.000    0.000 
#    0.000    0.000    0.000    5.760    0.000    4.800 
#
# Total GULP energy -139573.541182 kJ/mol
# GULP energy per Si atom -5582.941647 kJ/mol
# Density = 2.418784 g / cm^3
# Si number density = 24.243018 Si / 1000 Ang^3
#
#
#
# Elastic Constant Matrix: (Units=GPa)
#
#
# Indices 1 2 3 4 5 6 
#
# 1 105.7589 56.0401 57.9283 0.0000 10.7968 0.0000
# 2 56.0401 171.0429 76.9536 0.0000 57.9420 0.0000
# 3 57.9283 76.9536 109.2339 0.0000 44.8134 0.0000
# 4 0.0000 0.0000 0.0000 19.8467 0.0000 15.7352
# 5 10.7968 57.9420 44.8134 0.0000 63.1214 0.0000
# 6 0.0000 0.0000 0.0000 15.7352 0.0000 24.3605
#
#
#
# Elastic Compliance Matrix: (Units=1/GPa)
#
#
# Indices 1 2 3 4 5 6 
#
# 1 0.015126 -0.003416 -0.008240 0.000000 0.006398 0.000000
# 2 -0.003416 0.010645 -0.002707 0.000000 -0.007265 0.000000
# 3 -0.008240 -0.002707 0.019519 0.000000 -0.009963 0.000000
# 4 0.000000 0.000000 0.000000 0.103275 0.000000 -0.066709
# 5 0.006398 -0.007265 -0.009963 0.000000 0.028491 0.000000
# 6 0.000000 0.000000 0.000000 -0.066709 0.000000 0.084139
#
#
# Mechanical properties :
#
#
# Convention : Reuss Voigt Hill
#
# Bulk Modulus (GPa) = 60.37308 85.31995 72.84651
# Shear Modulus (GPa) = 16.92388 34.47330 25.69859
#
# Velocity S-wave (km/s) = 2.64501 3.77502 3.25936
# Velocity P-wave (km/s) = 5.85538 7.36689 6.65419
#
# Compressibility (1/GPa) = 0.01656367
#
# Stress axis : x y z
#
# Youngs Moduli (GPa) = 66.11296 93.94353 51.23293
#
# Poissons Ratio (x) = 0.32092 0.42214
# Poissons Ratio (y) = 0.22585 0.13868
# Poissons Ratio (z) = 0.54475 0.25429
#
# Static dielectric constant tensor:
#      x y z
#    x 1.958290 0.000000 -0.070120 
#    y 0.000000 1.921780 0.000000 
#    z -0.070120 0.000000 1.923210 
# 
# From -- ./inp_files/274554.got.cif
#   From: 2010.05.17/outbox.cif.g08.bks.cpg/sg12_138_cif.got.tgz:274554.got - 2010.06.03 13:09:07.
