data_PCOD9172916
_publ_section_title
;
Structure prediction by ZEFSAII (Michael W. Deem and Ramdas Pophale) SiO2 
 PCOD9172916
Probable space group: C 2/M
;
_chemical_formula_sum "Si O2"
_cell_formula_units_Z 56
_cell_length_a 5.327294
_cell_length_b 14.001286
_cell_length_c 31.929452
_cell_angle_alpha 90.000000
_cell_angle_beta 104.450072
_cell_angle_gamma 90.000000
_cell_volume 2306.244488
_symmetry_space_group_name_H-M "C 2/M"
_symmetry_group_IT_number 12
_symmetry_cell_setting 'monoclinic'
loop_
_space_group_symop_operation_xyz
x,y,z
-x,y,-z
-x,-y,-z
x,-y,z
1/2+x,1/2+y,z
1/2-x,1/2+y,-z
1/2-x,1/2-y,-z
1/2+x,1/2-y,z
loop_
_atom_site_type_symbol
_atom_site_label
_atom_site_fract_x
_atom_site_fract_y
_atom_site_fract_z
Si Si1 0.710048 0.616303 0.474239
Si Si2 0.205993 0.615928 0.771809
Si Si3 0.108285 0.116388 0.375973
Si Si4 0.721326 0.849927 0.082137
Si Si5 0.668654 0.636329 0.048038
Si Si6 0.966253 0.616425 0.674580
Si Si7 0.783149 0.615718 0.822677
O O1 0.500000 0.645477 0.500000
O O2 0.701098 0.500000 0.472335
O O3 0.644716 0.651212 0.424917
O O4 0.000000 0.641477 0.500000
O O5 0.789791 0.500000 0.828832
O O6 0.506939 0.640009 0.790392
O O7 0.084177 0.651449 0.723296
O O8 0.022485 0.642797 0.803032
O O9 0.346072 0.142847 0.355900
O O10 0.830386 0.144389 0.345595
O O11 0.107681 0.000000 0.377471
O O12 0.719191 0.749050 0.057872
O O13 0.458641 0.901332 0.057549
O O14 0.703578 0.838447 0.131038
O O15 0.992664 0.895402 0.079727
O O16 0.500000 0.619279 0.000000
O O17 0.967268 0.500000 0.676344
O O18 0.802833 0.500000 0.230112
#
# Coordination Sequence:
#
# PCOD9172916 Si02
#       7
#     8   8   8   8   8   8   8
#     4   9  15  21  27  36  53  75  99 135 190 251
#     4   9  17  28  40  55  77 106 134 161 198 244
#     4   9  15  21  30  43  56  76 110 151 192 235
#     4  10  18  30  49  70  89 111 140 171 204 243
#     4  10  19  33  53  71  88 111 141 177 207 234
#     4   9  15  23  34  46  61  83 117 156 187 225
#     4  10  19  30  44  63  88 114 137 163 203 257
#
# _framework density 24.281901999999999
#
# number of rings (size 3 to 8) (size 9 to 14) (size 15 to 20)
#    0.000    2.571    0.000    4.714    0.000    6.857 
#    0.000    0.000    0.000    4.714    0.000    0.000 
#    0.000    0.000    0.000    0.000    0.000    0.000 
#
# Total GULP energy -156689.926359 kJ/mol
# GULP energy per Si atom -5596.068799 kJ/mol
# Density = 2.422664 g / cm^3
# Si number density = 24.281902 Si / 1000 Ang^3
#
#
#
# Elastic Constant Matrix: (Units=GPa)
#
#
# Indices 1 2 3 4 5 6 
#
# 1 110.3177 -11.0987 -25.3545 0.0000 -4.6061 0.0000
# 2 -11.0987 99.8868 -9.1174 0.0000 0.9392 0.0000
# 3 -25.3545 -9.1174 82.8560 0.0000 2.6279 0.0000
# 4 0.0000 0.0000 0.0000 9.9904 0.0000 -6.5360
# 5 -4.6061 0.9392 2.6279 0.0000 47.4114 0.0000
# 6 0.0000 0.0000 0.0000 -6.5360 0.0000 -23.6585
#
#
#
# Elastic Compliance Matrix: (Units=1/GPa)
#
#
# Indices 1 2 3 4 5 6 
#
# 1 0.009967 0.001390 0.003179 0.000000 0.000765 0.000000
# 2 0.001390 0.010310 0.001565 0.000000 -0.000156 0.000000
# 3 0.003179 0.001565 0.013229 0.000000 -0.000455 0.000000
# 4 0.000000 0.000000 0.000000 0.084774 0.000000 -0.023420
# 5 0.000765 -0.000156 -0.000455 0.000000 0.021195 0.000000
# 6 0.000000 0.000000 0.000000 -0.023420 0.000000 -0.035798
#
#
# Mechanical properties :
#
#
# Convention : Reuss Voigt Hill
#
# Bulk Modulus (GPa) = 21.84645 22.43548 22.14096
# Shear Modulus (GPa) = 46.87506 29.32405 38.09956
#
# Velocity S-wave (km/s) = 4.39846 3.47890 3.96542
# Velocity P-wave (km/s) = 5.90015 5.03951 5.48673
#
# Compressibility (1/GPa) = 0.04577403
#
# Stress axis : x y z
#
# Youngs Moduli (GPa) = 100.32994 96.99191 75.59430
#
# Poissons Ratio (x) = -0.13486 -0.24030
# Poissons Ratio (y) = -0.13950 -0.11830
# Poissons Ratio (z) = -0.31892 -0.15179
#
# Static dielectric constant tensor:
#      x y z
#    x 1.902380 0.000000 -0.002030 
#    y 0.000000 1.857660 0.000000 
#    z -0.002030 0.000000 1.851690 
# 
# From -- ./inp_files/331192.got.cif
#   From: 2010.05.17/outbox.cif.g08.bks.cpg/sg12_166_cif.got.tgz:331192.got - 2010.06.03 13:09:07.
