data_PCOD9172861
_publ_section_title
;
Structure prediction by ZEFSAII (Michael W. Deem and Ramdas Pophale) SiO2 
 PCOD9172861
Probable space group: C 2/M
;
_chemical_formula_sum "Si O2"
_cell_formula_units_Z 40
_cell_length_a 25.195259
_cell_length_b 8.616820
_cell_length_c 22.244994
_cell_angle_alpha 90.000000
_cell_angle_beta 29.962411
_cell_angle_gamma 90.000000
_cell_volume 2411.983185
_symmetry_space_group_name_H-M "C 2/M"
_symmetry_group_IT_number 12
_symmetry_cell_setting 'monoclinic'
loop_
_space_group_symop_operation_xyz
x,y,z
-x,y,-z
-x,-y,-z
x,-y,z
1/2+x,1/2+y,z
1/2-x,1/2+y,-z
1/2-x,1/2-y,-z
1/2+x,1/2-y,z
loop_
_atom_site_type_symbol
_atom_site_label
_atom_site_fract_x
_atom_site_fract_y
_atom_site_fract_z
Si Si1 0.894007 0.810672 0.070413
Si Si2 0.664834 0.186449 0.341800
Si Si3 0.399145 0.814978 0.805059
Si Si4 0.154275 0.812884 0.017097
Si Si5 0.002864 0.815722 0.589896
O O1 0.785307 0.764256 0.210393
O O2 0.894758 0.000000 0.069510
O O3 0.886888 0.762688 0.007702
O O4 0.000000 0.757493 0.000000
O O5 0.611834 0.254950 0.453645
O O6 0.590186 0.241832 0.360115
O O7 0.660391 0.000000 0.348428
O O8 0.405647 0.760071 0.867404
O O9 0.480980 0.736789 0.679157
O O10 0.408807 0.000000 0.791589
O O11 0.279245 0.771837 0.901159
O O12 0.147372 0.000000 0.027868
O O13 0.997741 0.000000 0.589482
#
# Coordination Sequence:
#
# PCOD9172861 Si02
#       5
#     8   8   8   8   8
#     4   9  17  31  52  75 100 130 164 199 238 289
#     4  10  18  31  49  72 100 130 164 200 242 293
#     4  10  18  30  48  72  99 130 160 200 249 295
#     4   9  17  30  47  72 100 128 161 198 242 292
#     4  11  20  30  47  72 101 131 161 203 250 291
#
# _framework density 16.583862
#
# number of rings (size 3 to 8) (size 9 to 14) (size 15 to 20)
#    0.000    2.200    2.000    4.200    0.000    0.800 
#    0.000    0.000    0.000    6.600    0.000    0.000 
#    0.000    0.000    0.000    0.000    0.000    0.000 
#
# Total GULP energy -111560.748030 kJ/mol
# GULP energy per Si atom -5578.037401 kJ/mol
# Density = 1.654612 g / cm^3
# Si number density = 16.583862 Si / 1000 Ang^3
#
#
#
# Elastic Constant Matrix: (Units=GPa)
#
#
# Indices 1 2 3 4 5 6 
#
# 1 96.9453 14.3162 73.0393 0.0008 11.2282 -0.0008
# 2 14.3162 35.3946 31.7561 -0.0001 8.0335 -0.0002
# 3 73.0393 31.7561 144.7105 -0.0004 24.0273 0.0005
# 4 0.0008 -0.0001 -0.0004 7.0523 0.0006 15.0875
# 5 11.2282 8.0335 24.0273 0.0006 29.7410 -0.0006
# 6 -0.0008 -0.0002 0.0005 15.0875 -0.0006 16.0732
#
#
#
# Elastic Compliance Matrix: (Units=1/GPa)
#
#
# Indices 1 2 3 4 5 6 
#
# 1 0.016679 0.000958 -0.008708 0.000005 0.000480 -0.000003
# 2 0.000958 0.035604 -0.007669 0.000001 -0.003784 0.000000
# 3 -0.008708 -0.007669 0.013973 -0.000005 -0.005930 0.000003
# 4 0.000005 0.000001 -0.000005 -0.140647 0.000007 0.132022
# 5 0.000480 -0.003784 -0.005930 0.000007 0.039255 -0.000005
# 6 -0.000003 0.000000 0.000003 0.132022 -0.000005 -0.061711
#
#
# Mechanical properties :
#
#
# Convention : Reuss Voigt Hill
#
# Bulk Modulus (GPa) = 28.23360 57.25262 42.74311
# Shear Modulus (GPa) = -92.24532 21.10254 -35.57139
#
# Velocity S-wave (km/s) = -7.46621 3.57105 -4.63637
# Velocity P-wave (km/s) = 7.56730 7.18340 1.68268
#
# Compressibility (1/GPa) = 0.03541879
#
# Stress axis : x y z
#
# Youngs Moduli (GPa) = 59.95616 28.08641 71.56695
#
# Poissons Ratio (x) = -0.02691 0.62321
# Poissons Ratio (y) = -0.05744 0.54881
# Poissons Ratio (z) = 0.52211 0.21538
#
# Static dielectric constant tensor:
#      x y z
#    x 1.542420 0.000000 0.014640 
#    y 0.000000 1.555400 0.000000 
#    z 0.014640 0.000000 1.563610 
# 
# From -- ./inp_files/171873.got.cif
#   From: 2010.05.17/outbox.cif.g08.bks.cpg/sg12_86_cif.got.tgz:171873.got - 2010.06.03 13:09:07.
