data_PCOD9172185
_publ_section_title
;
Structure prediction by ZEFSAII (Michael W. Deem and Ramdas Pophale) SiO2 
 PCOD9172185
Probable space group: C 2/M
;
_chemical_formula_sum "Si O2"
_cell_formula_units_Z 40
_cell_length_a 14.522966
_cell_length_b 10.705999
_cell_length_c 16.000318
_cell_angle_alpha 90.000000
_cell_angle_beta 132.791289
_cell_angle_gamma 90.000000
_cell_volume 1825.611921
_symmetry_space_group_name_H-M "C 2/M"
_symmetry_group_IT_number 12
_symmetry_cell_setting 'monoclinic'
loop_
_space_group_symop_operation_xyz
x,y,z
-x,y,-z
-x,-y,-z
x,-y,z
1/2+x,1/2+y,z
1/2-x,1/2+y,-z
1/2-x,1/2-y,-z
1/2+x,1/2-y,z
loop_
_atom_site_type_symbol
_atom_site_label
_atom_site_fract_x
_atom_site_fract_y
_atom_site_fract_z
Si Si1 0.928378 0.261992 0.254118
Si Si2 0.886372 0.355676 0.498102
Si Si3 0.707079 0.251767 0.258686
Si Si4 0.854502 0.000000 0.151436
Si Si5 0.120350 0.500000 0.134804
Si Si6 0.113627 0.000000 0.134051
Si Si7 0.314128 0.000000 0.115352
O O1 0.816627 0.254218 0.254882
O O2 0.892402 0.372120 0.167500
O O3 0.052235 0.300745 0.380760
O O4 0.930618 0.126466 0.214138
O O5 0.845970 0.500000 0.484182
O O6 0.778597 0.272370 0.389877
O O7 0.000000 0.358653 0.500000
O O8 0.632905 0.124158 0.198197
O O9 0.620951 0.372360 0.189514
O O10 0.740199 0.000000 0.147216
O O11 0.786553 0.000000 0.020283
O O12 0.000000 0.500000 0.000000
O O13 0.239459 0.000000 0.156334
O O14 0.000000 0.000000 0.000000
#
# Coordination Sequence:
#
# PCOD9172185 Si02
#       7
#     8   8   8   4   4   4   4
#     4   9  17  28  45  68  94 120 151 190 233 275
#     4   9  14  25  45  68  93 118 146 191 242 275
#     4   9  17  28  45  68  93 119 152 190 232 276
#     4  10  20  31  45  69  95 124 159 188 224 276
#     4  10  20  33  45  65  97 128 153 188 232 274
#     4  10  18  29  47  71  93 120 155 190 224 268
#     4  10  18  31  47  67  95 126 153 188 228 272
#
# _framework density 21.910461999999999
#
# number of rings (size 3 to 8) (size 9 to 14) (size 15 to 20)
#    0.000    2.600    2.000    1.200    0.000    0.800 
#    0.000    4.000    0.000    0.000    0.000    8.400 
#    0.000    0.000    0.000    0.000    0.000    0.000 
#
# Total GULP energy -111748.157738 kJ/mol
# GULP energy per Si atom -5587.407887 kJ/mol
# Density = 2.186059 g / cm^3
# Si number density = 21.910462 Si / 1000 Ang^3
#
#
#
# Elastic Constant Matrix: (Units=GPa)
#
#
# Indices 1 2 3 4 5 6 
#
# 1 77.1437 9.2458 -14.3151 0.0000 -1.8622 0.0000
# 2 9.2458 243.7379 127.5809 0.0000 8.1882 0.0000
# 3 -14.3151 127.5809 188.5627 0.0000 12.6413 0.0000
# 4 0.0000 0.0000 0.0000 40.4046 0.0000 1.4807
# 5 -1.8622 8.1882 12.6413 0.0000 18.9377 0.0000
# 6 0.0000 0.0000 0.0000 1.4807 0.0000 -16.8428
#
#
#
# Elastic Compliance Matrix: (Units=1/GPa)
#
#
# Indices 1 2 3 4 5 6 
#
# 1 0.013561 -0.001629 0.002089 0.000000 0.000644 0.000000
# 2 -0.001629 0.006549 -0.004558 0.000000 0.000051 0.000000
# 3 0.002089 -0.004558 0.008793 0.000000 -0.003694 0.000000
# 4 0.000000 0.000000 0.000000 0.024670 0.000000 0.002169
# 5 0.000644 0.000051 -0.003694 0.000000 0.055311 0.000000
# 6 0.000000 0.000000 0.000000 0.002169 0.000000 -0.059182
#
#
# Mechanical properties :
#
#
# Convention : Reuss Voigt Hill
#
# Bulk Modulus (GPa) = 48.29454 83.82972 66.06213
# Shear Modulus (GPa) = 77.15796 34.29542 55.72669
#
# Velocity S-wave (km/s) = 5.94067 3.96062 5.04867
# Velocity P-wave (km/s) = 8.31535 7.69796 8.01260
#
# Compressibility (1/GPa) = 0.02070627
#
# Stress axis : x y z
#
# Youngs Moduli (GPa) = 73.73945 152.70378 113.72266
#
# Poissons Ratio (x) = 0.24882 -0.23755
# Poissons Ratio (y) = 0.12015 0.51833
# Poissons Ratio (z) = -0.15403 0.69601
#
# Static dielectric constant tensor:
#      x y z
#    x 1.878460 0.000000 -0.013330 
#    y 0.000000 1.767170 0.000000 
#    z -0.013330 0.000000 1.737640 
# 
# From -- ./inp_files/163573.got.cif
#   From: 2010.05.17/outbox.cif.g08.bks.cpg/sg12_82_cif.got.tgz:163573.got - 2010.06.03 13:09:07.
