data_PCOD9172068
_publ_section_title
;
Structure prediction by ZEFSAII (Michael W. Deem and Ramdas Pophale) SiO2 
 PCOD9172068
Probable space group: C 2/M
;
_chemical_formula_sum "Si O2"
_cell_formula_units_Z 64
_cell_length_a 24.083834
_cell_length_b 8.402359
_cell_length_c 22.133916
_cell_angle_alpha 90.000000
_cell_angle_beta 58.475980
_cell_angle_gamma 90.000000
_cell_volume 3818.029488
_symmetry_space_group_name_H-M "C 2/M"
_symmetry_group_IT_number 12
_symmetry_cell_setting 'monoclinic'
loop_
_space_group_symop_operation_xyz
x,y,z
-x,y,-z
-x,-y,-z
x,-y,z
1/2+x,1/2+y,z
1/2-x,1/2+y,-z
1/2-x,1/2-y,-z
1/2+x,1/2-y,z
loop_
_atom_site_type_symbol
_atom_site_label
_atom_site_fract_x
_atom_site_fract_y
_atom_site_fract_z
Si Si1 0.063235 0.808601 0.642193
Si Si2 0.352307 0.190467 0.927760
Si Si3 0.729264 0.190948 0.918865
Si Si4 0.709651 0.692923 0.581432
Si Si5 0.194746 0.306005 0.368269
Si Si6 0.939952 0.692418 0.491982
Si Si7 0.192250 0.690572 0.231341
Si Si8 0.930516 0.809637 0.777579
O O1 0.134913 0.750919 0.620915
O O2 0.053771 0.762357 0.578022
O O3 0.000963 0.750365 0.715512
O O4 0.063948 0.000000 0.646833
O O5 0.290044 0.247117 0.924115
O O6 0.412558 0.258250 0.855929
O O7 0.644651 0.000000 0.076034
O O8 0.334949 0.238874 0.006466
O O9 0.745479 0.256020 0.843597
O O10 0.731716 0.000000 0.915800
O O11 0.709890 0.500000 0.579959
O O12 0.750000 0.750000 0.500000
O O13 0.746634 0.744540 0.621314
O O14 0.195262 0.500000 0.366436
O O15 0.127517 0.257676 0.438566
O O16 0.196469 0.251775 0.297953
O O17 0.939746 0.500000 0.487419
O O18 0.000000 0.739429 0.500000
O O19 0.189592 0.500000 0.232652
O O20 0.126706 0.749683 0.234836
O O21 0.929292 0.000000 0.775631
#
# Coordination Sequence:
#
# PCOD9172068 Si02
#       8
#     8   8   8   8   8   8   8   8
#     4  10  21  33  47  68  92 119 152 192 237 275
#     4   9  16  26  42  64  90 123 157 183 215 266
#     4   9  16  26  41  64  94 123 150 184 223 264
#     4  10  19  35  53  68  87 115 155 199 237 274
#     4   9  18  31  47  67  90 117 151 192 231 266
#     4  10  19  31  48  68  91 121 154 185 223 275
#     4  10  18  29  46  68  93 123 155 185 223 274
#     4  10  19  30  43  65  97 125 149 185 230 272
#
# _framework density 16.762574000000001
#
# number of rings (size 3 to 8) (size 9 to 14) (size 15 to 20)
#    0.000    2.375    1.250    3.750    0.000    3.750 
#    0.000    2.500    0.000    0.000    0.000    0.875 
#    0.000    7.000    0.000    0.000    0.000    0.000 
#
# Total GULP energy -178317.365157 kJ/mol
# GULP energy per Si atom -5572.417661 kJ/mol
# Density = 1.672442 g / cm^3
# Si number density = 16.762574 Si / 1000 Ang^3
#
#
#
# Elastic Constant Matrix: (Units=GPa)
#
#
# Indices 1 2 3 4 5 6 
#
# 1 88.6248 11.4515 62.2350 0.0000 -19.3044 0.0006
# 2 11.4515 22.6878 20.6504 0.0005 -3.0518 0.0023
# 3 62.2350 20.6504 183.9387 0.0002 -14.4839 0.0000
# 4 0.0000 0.0005 0.0002 25.8058 -0.0001 2.0500
# 5 -19.3044 -3.0518 -14.4839 -0.0001 7.2773 0.0000
# 6 0.0006 0.0023 0.0000 2.0500 0.0000 4.3683
#
#
#
# Elastic Compliance Matrix: (Units=1/GPa)
#
#
# Indices 1 2 3 4 5 6 
#
# 1 0.029675 -0.001656 -0.004400 0.000001 0.069267 -0.000003
# 2 -0.001656 0.049997 -0.004444 0.000001 0.007728 -0.000027
# 3 -0.004400 -0.004444 0.007540 0.000000 0.001471 0.000003
# 4 0.000001 0.000001 0.000000 0.040252 0.000003 -0.018890
# 5 0.069267 0.007728 0.001471 0.000003 0.327326 -0.000012
# 6 -0.000003 -0.000027 0.000003 -0.018890 -0.000012 0.237788
#
#
# Mechanical properties :
#
#
# Convention : Reuss Voigt Hill
#
# Bulk Modulus (GPa) = 15.10313 53.76946 34.43630
# Shear Modulus (GPa) = 6.79671 20.88458 13.84064
#
# Velocity S-wave (km/s) = 2.01581 3.53357 2.87659
# Velocity P-wave (km/s) = 3.80100 6.98533 5.62328
#
# Compressibility (1/GPa) = 0.06621143
#
# Stress axis : x y z
#
# Youngs Moduli (GPa) = 33.69787 20.00122 132.62279
#
# Poissons Ratio (x) = 0.03312 0.58358
# Poissons Ratio (y) = 0.05581 0.58940
# Poissons Ratio (z) = 0.14828 0.08889
#
# Static dielectric constant tensor:
#      x y z
#    x 1.483300 0.000000 -0.012180 
#    y 0.000000 1.568140 0.000000 
#    z -0.012180 0.000000 1.602780 
# 
# From -- ./inp_files/348515.got.cif
#   From: 2010.05.17/outbox.cif.g08.bks.cpg/sg12_175_cif.got.tgz:348515.got - 2010.06.03 13:09:07.
