data_PCOD9172328
_publ_section_title
;
Structure prediction by ZEFSAII (Michael W. Deem and Ramdas Pophale) SiO2 
 PCOD9172328
Probable space group: C 2/M
;
_chemical_formula_sum "Si O2"
_cell_formula_units_Z 48
_cell_length_a 29.099830
_cell_length_b 8.534575
_cell_length_c 11.507248
_cell_angle_alpha 90.000000
_cell_angle_beta 102.458138
_cell_angle_gamma 90.000000
_cell_volume 2790.586964
_symmetry_space_group_name_H-M "C 2/M"
_symmetry_group_IT_number 12
_symmetry_cell_setting 'monoclinic'
loop_
_space_group_symop_operation_xyz
x,y,z
-x,y,-z
-x,-y,-z
x,-y,z
1/2+x,1/2+y,z
1/2-x,1/2+y,-z
1/2-x,1/2-y,-z
1/2+x,1/2-y,z
loop_
_atom_site_type_symbol
_atom_site_label
_atom_site_fract_x
_atom_site_fract_y
_atom_site_fract_z
Si Si1 0.157065 0.688017 0.272051
Si Si2 0.859707 0.810105 0.476118
Si Si3 0.045133 0.189181 0.602430
Si Si4 0.019347 0.315523 0.837905
Si Si5 0.930120 0.184589 0.912266
Si Si6 0.741628 0.688471 0.625526
O O1 0.153979 0.500000 0.262533
O O2 0.144152 0.739020 0.396868
O O3 0.119837 0.763483 0.164972
O O4 0.211526 0.738565 0.280186
O O5 0.907068 0.762425 0.436534
O O6 0.812261 0.765470 0.378822
O O7 0.860302 0.000000 0.488721
O O8 0.039466 0.262547 0.725872
O O9 0.000000 0.231656 0.500000
O O10 0.045815 0.000000 0.614323
O O11 0.010136 0.500000 0.834296
O O12 0.970512 0.227708 0.840572
O O13 0.054563 0.271887 0.961813
O O14 0.931298 0.000000 0.934239
O O15 0.742720 0.500000 0.625189
O O16 0.750000 0.750000 0.500000
#
# Coordination Sequence:
#
# PCOD9172328 Si02
#       6
#     8   8   8   8   8   8
#     4  10  18  29  48  75 103 128 163 208 250 287
#     4   9  17  30  48  71 102 138 170 199 240 293
#     4  10  20  33  50  73 102 135 167 197 234 287
#     4  11  22  36  53  74 100 127 160 201 245 288
#     4  11  21  35  54  73  97 128 163 200 242 294
#     4   8  15  27  44  68  98 131 164 202 244 286
#
# _framework density 17.200680999999999
#
# number of rings (size 3 to 8) (size 9 to 14) (size 15 to 20)
#    0.000    2.167    0.000    5.500    0.000    3.000 
#    0.000    0.000    0.000    1.000    0.000    0.000 
#    0.000    0.000    0.000    0.000    0.000    0.000 
#
# Total GULP energy -133834.262198 kJ/mol
# GULP energy per Si atom -5576.427592 kJ/mol
# Density = 1.716153 g / cm^3
# Si number density = 17.200681 Si / 1000 Ang^3
#
#
#
# Elastic Constant Matrix: (Units=GPa)
#
#
# Indices 1 2 3 4 5 6 
#
# 1 123.6203 5.1195 40.4145 0.0000 20.9615 0.0000
# 2 5.1195 18.2529 1.0786 0.0000 -1.8656 0.0000
# 3 40.4145 1.0786 43.4175 0.0000 10.1566 0.0000
# 4 0.0000 0.0000 0.0000 305.3884 0.0000 114.3652
# 5 20.9615 -1.8656 10.1566 0.0000 32.6981 0.0000
# 6 0.0000 0.0000 0.0000 114.3652 0.0000 61.6592
#
#
#
# Elastic Compliance Matrix: (Units=1/GPa)
#
#
# Indices 1 2 3 4 5 6 
#
# 1 0.012454 -0.003389 -0.010347 0.000000 -0.004963 0.000000
# 2 -0.003389 0.056238 0.000538 0.000000 0.005214 0.000000
# 3 -0.010347 0.000538 0.033528 0.000000 -0.003750 0.000000
# 4 0.000000 0.000000 0.000000 0.010722 0.000000 -0.019887
# 5 -0.004963 0.005214 -0.003750 0.000000 0.035227 0.000000
# 6 0.000000 0.000000 0.000000 -0.019887 0.000000 0.053105
#
#
# Mechanical properties :
#
#
# Convention : Reuss Voigt Hill
#
# Bulk Modulus (GPa) = 13.18874 30.94619 22.06747
# Shear Modulus (GPa) = 19.76713 89.19436 54.48074
#
# Velocity S-wave (km/s) = 3.39367 7.20886 5.63404
# Velocity P-wave (km/s) = 4.80002 9.34455 7.42835
#
# Compressibility (1/GPa) = 0.07582225
#
# Stress axis : x y z
#
# Youngs Moduli (GPa) = 80.29544 17.78170 29.82590
#
# Poissons Ratio (x) = 0.06026 0.30862
# Poissons Ratio (y) = 0.27211 -0.01604
# Poissons Ratio (z) = 0.83085 -0.00956
#
# Static dielectric constant tensor:
#      x y z
#    x 1.611230 0.000000 0.033720 
#    y 0.000000 1.576050 0.000000 
#    z 0.033720 0.000000 1.553930 
# 
# From -- ./inp_files/179220.got.cif
#   From: 2010.05.17/outbox.cif.g08.bks.cpg/sg12_90_cif.got.tgz:179220.got - 2010.06.03 13:09:07.
