data_PCOD9172864
_publ_section_title
;
Structure prediction by ZEFSAII (Michael W. Deem and Ramdas Pophale) SiO2 
 PCOD9172864
Probable space group: C 2/M
;
_chemical_formula_sum "Si O2"
_cell_formula_units_Z 64
_cell_length_a 18.833192
_cell_length_b 9.271145
_cell_length_c 32.801988
_cell_angle_alpha 90.000000
_cell_angle_beta 144.786268
_cell_angle_gamma 90.000000
_cell_volume 3302.579708
_symmetry_space_group_name_H-M "C 2/M"
_symmetry_group_IT_number 12
_symmetry_cell_setting 'monoclinic'
loop_
_space_group_symop_operation_xyz
x,y,z
-x,y,-z
-x,-y,-z
x,-y,z
1/2+x,1/2+y,z
1/2-x,1/2+y,-z
1/2-x,1/2-y,-z
1/2+x,1/2-y,z
loop_
_atom_site_type_symbol
_atom_site_label
_atom_site_fract_x
_atom_site_fract_y
_atom_site_fract_z
Si Si1 0.037083 0.667431 0.450937
Si Si2 0.388658 0.669593 0.317088
Si Si3 0.200113 0.331080 0.599729
Si Si4 0.727900 0.326950 0.822073
Si Si5 0.928215 0.166441 0.119725
Si Si6 0.481203 0.334078 0.930673
Si Si7 0.254217 0.328900 0.915587
Si Si8 0.347188 0.169792 0.733612
O O1 0.057492 0.500000 0.450955
O O2 0.997769 0.751343 0.392185
O O3 0.918651 0.674021 0.425757
O O4 0.151018 0.717748 0.532441
O O5 0.415639 0.500000 0.328530
O O6 0.355189 0.717163 0.255649
O O7 0.264946 0.687648 0.286484
O O8 0.237234 0.500000 0.614946
O O9 0.300420 0.232848 0.668700
O O10 0.723441 0.500000 0.823944
O O11 0.695351 0.247447 0.848700
O O12 0.867330 0.273821 0.879053
O O13 0.965275 0.169364 0.089946
O O14 0.808970 0.258635 0.074918
O O15 0.039488 0.238648 0.196756
O O16 0.909922 0.000000 0.123034
O O17 0.439578 0.500000 0.919425
O O18 0.599150 0.301436 0.014112
O O19 0.235932 0.500000 0.906599
O O20 0.375843 0.000000 0.744678
#
# Coordination Sequence:
#
# PCOD9172864 Si02
#       8
#     8   8   8   8   8   8   8   8
#     4   8  14  24  41  65  97 134 171 210 256 305
#     4   9  18  30  46  71 103 136 173 215 258 305
#     4   8  14  25  40  65  99 134 170 211 256 305
#     4  11  22  37  56  80 109 142 179 219 264 316
#     4  11  22  37  57  80 105 139 178 218 268 321
#     4  10  22  39  59  81 105 136 175 220 270 321
#     4  11  24  40  56  78 108 138 175 223 269 318
#     4  10  18  30  48  73 103 138 175 215 261 308
#
# _framework density 19.378792000000001
#
# number of rings (size 3 to 8) (size 9 to 14) (size 15 to 20)
#    0.000    2.250    1.250    3.000    0.000    5.000 
#    0.000    2.500    0.000    0.000    0.000    0.875 
#    0.000    0.000    0.000    0.000    0.000    0.000 
#
# Total GULP energy -178580.637982 kJ/mol
# GULP energy per Si atom -5580.644937 kJ/mol
# Density = 1.933468 g / cm^3
# Si number density = 19.378792 Si / 1000 Ang^3
#
#
#
# Elastic Constant Matrix: (Units=GPa)
#
#
# Indices 1 2 3 4 5 6 
#
# 1 33.8964 18.5490 7.4200 0.0000 -14.7670 0.0000
# 2 18.5490 62.5445 42.9396 0.0000 -15.0827 0.0001
# 3 7.4200 42.9396 119.1578 0.0000 -35.7010 0.0000
# 4 0.0000 0.0000 0.0000 30.7470 0.0000 -1.5915
# 5 -14.7670 -15.0827 -35.7010 0.0000 21.5480 0.0000
# 6 0.0000 0.0001 0.0000 -1.5915 0.0000 22.5011
#
#
#
# Elastic Compliance Matrix: (Units=1/GPa)
#
#
# Indices 1 2 3 4 5 6 
#
# 1 0.066081 -0.018870 0.024416 0.000000 0.072530 0.000000
# 2 -0.018870 0.026839 -0.013389 0.000000 -0.016328 0.000000
# 3 0.024416 -0.013389 0.027605 0.000000 0.053097 0.000000
# 4 0.000000 0.000000 0.000000 0.032643 0.000000 0.002309
# 5 0.072530 -0.016328 0.053097 0.000000 0.172657 0.000000
# 6 0.000000 0.000000 0.000000 0.002309 0.000000 0.044605
#
#
# Mechanical properties :
#
#
# Convention : Reuss Voigt Hill
#
# Bulk Modulus (GPa) = 9.53831 39.26844 24.40337
# Shear Modulus (GPa) = 11.87471 24.73856 18.30663
#
# Velocity S-wave (km/s) = 2.47810 3.57680 3.07689
# Velocity P-wave (km/s) = 3.62225 6.11274 5.02426
#
# Compressibility (1/GPa) = 0.10484036
#
# Stress axis : x y z
#
# Youngs Moduli (GPa) = 15.13299 37.25874 36.22503
#
# Poissons Ratio (x) = 0.70306 -0.88446
# Poissons Ratio (y) = 0.28555 0.48501
# Poissons Ratio (z) = -0.36948 0.49885
#
# Static dielectric constant tensor:
#      x y z
#    x 1.714220 0.000000 -0.011590 
#    y 0.000000 1.639640 0.000000 
#    z -0.011590 0.000000 1.683960 
# 
# From -- ./inp_files/378300.got.cif
#   From: 2010.05.17/outbox.cif.g08.bks.cpg/sg12_190_cif.got.tgz:378300.got - 2010.06.03 13:09:07.
