data_PCOD9172563
_publ_section_title
;
Structure prediction by ZEFSAII (Michael W. Deem and Ramdas Pophale) SiO2 
 PCOD9172563
Probable space group: C 2/M
;
_chemical_formula_sum "Si O2"
_cell_formula_units_Z 64
_cell_length_a 21.747799
_cell_length_b 8.025168
_cell_length_c 21.705848
_cell_angle_alpha 90.000000
_cell_angle_beta 60.772356
_cell_angle_gamma 90.000000
_cell_volume 3306.012604
_symmetry_space_group_name_H-M "C 2/M"
_symmetry_group_IT_number 12
_symmetry_cell_setting 'monoclinic'
loop_
_space_group_symop_operation_xyz
x,y,z
-x,y,-z
-x,-y,-z
x,-y,z
1/2+x,1/2+y,z
1/2-x,1/2+y,-z
1/2-x,1/2-y,-z
1/2+x,1/2-y,z
loop_
_atom_site_type_symbol
_atom_site_label
_atom_site_fract_x
_atom_site_fract_y
_atom_site_fract_z
Si Si1 0.469807 0.795670 0.828091
Si Si2 0.798290 0.201812 0.167139
Si Si3 0.781962 0.698401 0.670160
Si Si4 0.793159 0.301030 0.418857
Si Si5 0.546263 0.201414 0.663947
Si Si6 0.907245 0.807136 0.680924
Si Si7 0.540258 0.200666 0.919898
Si Si8 0.168347 0.692097 0.161201
O O1 0.515886 0.747113 0.745897
O O2 0.504568 0.738203 0.874225
O O3 0.389499 0.735340 0.856929
O O4 0.468147 0.000000 0.828774
O O5 0.767290 0.257228 0.248627
O O6 0.877740 0.256024 0.119266
O O7 0.744430 0.265391 0.140631
O O8 0.795411 0.000000 0.167959
O O9 0.787897 0.500000 0.671420
O O10 0.746304 0.742784 0.623391
O O11 0.859759 0.771592 0.644551
O O12 0.796807 0.500000 0.414539
O O13 0.750000 0.250000 0.500000
O O14 0.873893 0.238417 0.382370
O O15 0.489658 0.264183 0.641580
O O16 0.545807 0.000000 0.662146
O O17 0.872295 0.699045 0.752982
O O18 0.898914 0.000000 0.701866
O O19 0.534245 0.000000 0.922228
O O20 0.500000 0.263691 0.000000
O O21 0.179280 0.500000 0.137887
#
# Coordination Sequence:
#
# PCOD9172563 Si02
#       8
#     8   8   8   8   8   8   8   8
#     4   8  14  29  52  72  93 127 169 206 243 298
#     4   9  18  32  52  75  97 127 166 210 257 304
#     4  10  20  36  57  80 107 138 174 215 261 314
#     4  11  23  38  56  79 109 144 179 216 260 309
#     4   9  18  34  55  76 101 137 175 211 259 314
#     4  10  18  29  51  82 109 131 164 214 264 309
#     4  10  20  32  47  70 101 136 172 211 255 305
#     4   8  15  30  50  71  96 128 167 208 255 309
#
# _framework density 19.358668000000002
#
# number of rings (size 3 to 8) (size 9 to 14) (size 15 to 20)
#    0.000    2.625    0.000    4.125    0.000    4.750 
#    0.000    5.000    0.000    3.750    0.000    0.000 
#    0.000    0.000    0.000    0.000    0.000    0.000 
#
# Total GULP energy -178402.376196 kJ/mol
# GULP energy per Si atom -5575.074256 kJ/mol
# Density = 1.931461 g / cm^3
# Si number density = 19.358668 Si / 1000 Ang^3
#
#
#
# Elastic Constant Matrix: (Units=GPa)
#
#
# Indices 1 2 3 4 5 6 
#
# 1 234.8936 12.3845 90.9239 0.0002 -15.5436 0.0006
# 2 12.3845 31.0427 10.2452 0.0008 0.3024 0.0022
# 3 90.9239 10.2452 85.3271 -0.0001 -9.3383 -0.0001
# 4 0.0002 0.0008 -0.0001 13.1061 -0.0003 -3.0979
# 5 -15.5436 0.3024 -9.3383 -0.0003 -5.0706 0.0000
# 6 0.0006 0.0022 -0.0001 -3.0979 0.0000 23.3126
#
#
#
# Elastic Compliance Matrix: (Units=1/GPa)
#
#
# Indices 1 2 3 4 5 6 
#
# 1 0.006986 -0.000037 -0.008143 0.000000 -0.006422 0.000000
# 2 -0.000037 0.033173 -0.003091 -0.000003 0.007785 -0.000003
# 3 -0.008143 -0.003091 0.019541 0.000000 -0.011210 0.000001
# 4 0.000000 -0.000003 0.000000 0.078774 -0.000004 0.010468
# 5 -0.006422 0.007785 -0.011210 -0.000004 -0.156419 -0.000001
# 6 0.000000 -0.000003 0.000001 0.010468 -0.000001 0.044286
#
#
# Mechanical properties :
#
#
# Convention : Reuss Voigt Hill
#
# Bulk Modulus (GPa) = 26.91266 64.26340 45.58803
# Shear Modulus (GPa) = 81.60505 22.11694 51.86100
#
# Velocity S-wave (km/s) = 6.49968 3.38373 5.18148
# Velocity P-wave (km/s) = 8.38212 6.96667 7.70696
#
# Compressibility (1/GPa) = 0.03715724
#
# Stress axis : x y z
#
# Youngs Moduli (GPa) = 143.13884 30.14504 51.17489
#
# Poissons Ratio (x) = 0.00112 0.41671
# Poissons Ratio (y) = 0.00532 0.15820
# Poissons Ratio (z) = 1.16555 0.09319
#
# Static dielectric constant tensor:
#      x y z
#    x 1.716690 0.000000 0.000130 
#    y 0.000000 1.708590 0.000000 
#    z 0.000130 0.000000 1.632420 
# 
# From -- ./inp_files/319793.got.cif
#   From: 2010.05.17/outbox.cif.g08.bks.cpg/sg12_160_cif.got.tgz:319793.got - 2010.06.03 13:09:07.
