data_PCOD9172663
_publ_section_title
;
Structure prediction by ZEFSAII (Michael W. Deem and Ramdas Pophale) SiO2 
 PCOD9172663
Probable space group: C 2/M
;
_chemical_formula_sum "Si O2"
_cell_formula_units_Z 40
_cell_length_a 12.657488
_cell_length_b 27.001552
_cell_length_c 10.680162
_cell_angle_alpha 90.000000
_cell_angle_beta 144.416781
_cell_angle_gamma 90.000000
_cell_volume 2123.983338
_symmetry_space_group_name_H-M "C 2/M"
_symmetry_group_IT_number 12
_symmetry_cell_setting 'monoclinic'
loop_
_space_group_symop_operation_xyz
x,y,z
-x,y,-z
-x,-y,-z
x,-y,z
1/2+x,1/2+y,z
1/2-x,1/2+y,-z
1/2-x,1/2-y,-z
1/2+x,1/2-y,z
loop_
_atom_site_type_symbol
_atom_site_label
_atom_site_fract_x
_atom_site_fract_y
_atom_site_fract_z
Si Si1 0.034412 0.713664 0.742913
Si Si2 0.692094 0.000000 0.342877
Si Si3 0.513790 0.580387 0.362019
Si Si4 0.801247 0.269001 0.848490
Si Si5 0.333515 0.316505 0.535562
Si Si6 0.220856 0.500000 0.066849
O O1 0.163660 0.724829 0.750197
O O2 0.856065 0.679811 0.571193
O O3 0.944314 0.767917 0.681337
O O4 0.158552 0.702084 0.983105
O O5 0.702163 0.000000 0.200485
O O6 0.807565 0.047697 0.494569
O O7 0.482951 0.000000 0.180446
O O8 0.500000 0.583832 0.500000
O O9 0.546803 0.634849 0.342346
O O10 0.340486 0.548536 0.150812
O O11 0.723835 0.303673 0.664068
O O12 0.000000 0.251172 0.000000
#
# Coordination Sequence:
#
# PCOD9172663 Si02
#       6
#     8   4   8   8   8   4
#     4   9  18  30  42  63  93 114 160 202 223 260
#     4   8  15  29  40  61  89 114 149 196 226 263
#     4   9  16  27  44  62  87 120 162 188 221 277
#     4   9  17  30  43  61  87 120 158 190 230 268
#     4  10  18  30  46  64  89 130 160 189 228 269
#     4   8  15  29  40  61  89 114 149 196 225 268
#
# _framework density 18.832540000000002
#
# number of rings (size 3 to 8) (size 9 to 14) (size 15 to 20)
#    0.000    3.000    0.000    3.000    0.000    0.000 
#   32.400    0.000    0.000    0.000    0.000    0.000 
#    0.000    0.000    0.000  223.200    0.000  157.600 
#
# Total GULP energy -111373.316429 kJ/mol
# GULP energy per Si atom -5568.665821 kJ/mol
# Density = 1.878968 g / cm^3
# Si number density = 18.832540 Si / 1000 Ang^3
#
#
#
# Elastic Constant Matrix: (Units=GPa)
#
#
# Indices 1 2 3 4 5 6 
#
# 1 82.6795 23.1341 27.4237 0.0000 37.6974 0.0000
# 2 23.1341 83.9417 22.5293 0.0000 15.5226 0.0000
# 3 27.4237 22.5293 72.4277 0.0000 27.3471 0.0000
# 4 0.0000 0.0000 0.0000 3.6090 0.0000 2.3704
# 5 37.6974 15.5226 27.3471 0.0000 38.6434 0.0000
# 6 0.0000 0.0000 0.0000 2.3704 0.0000 21.2965
#
#
#
# Elastic Compliance Matrix: (Units=1/GPa)
#
#
# Indices 1 2 3 4 5 6 
#
# 1 0.022183 -0.002310 0.000191 0.000000 -0.020847 0.000000
# 2 -0.002310 0.013539 -0.002912 0.000000 -0.001124 0.000000
# 3 0.000191 -0.002912 0.019472 0.000000 -0.012796 0.000000
# 4 0.000000 0.000000 0.000000 0.298940 0.000000 -0.033273
# 5 -0.020847 -0.001124 -0.012796 0.000000 0.055721 0.000000
# 6 0.000000 0.000000 0.000000 -0.033273 0.000000 0.050659
#
#
# Mechanical properties :
#
#
# Convention : Reuss Voigt Hill
#
# Bulk Modulus (GPa) = 22.15758 42.80256 32.48007
# Shear Modulus (GPa) = 10.29607 23.77390 17.03499
#
# Velocity S-wave (km/s) = 2.34073 3.55686 3.01084
# Velocity P-wave (km/s) = 4.36996 6.29648 5.41951
#
# Compressibility (1/GPa) = 0.04513128
#
# Stress axis : x y z
#
# Youngs Moduli (GPa) = 45.07935 73.85988 51.35534
#
# Poissons Ratio (x) = 0.17059 -0.00978
# Poissons Ratio (y) = 0.10412 0.14957
# Poissons Ratio (z) = -0.00859 0.21511
#
# Static dielectric constant tensor:
#      x y z
#    x 1.739710 0.000000 0.020330 
#    y 0.000000 1.645350 0.000000 
#    z 0.020330 0.000000 1.709900 
# 
# From -- ./inp_files/64340.got.cif
#   From: 2010.05.17/outbox.cif.g08.bks.cpg/sg12_33_cif.got.tgz:64340.got - 2010.06.03 13:09:07.
