data_PCOD9172710
_publ_section_title
;
Structure prediction by ZEFSAII (Michael W. Deem and Ramdas Pophale) SiO2 
 PCOD9172710
Probable space group: C 2/M
;
_chemical_formula_sum "Si O2"
_cell_formula_units_Z 36
_cell_length_a 21.230776
_cell_length_b 8.724685
_cell_length_c 10.234134
_cell_angle_alpha 90.000000
_cell_angle_beta 135.223202
_cell_angle_gamma 90.000000
_cell_volume 1335.221373
_symmetry_space_group_name_H-M "C 2/M"
_symmetry_group_IT_number 12
_symmetry_cell_setting 'monoclinic'
loop_
_space_group_symop_operation_xyz
x,y,z
-x,y,-z
-x,-y,-z
x,-y,z
1/2+x,1/2+y,z
1/2-x,1/2+y,-z
1/2-x,1/2-y,-z
1/2+x,1/2-y,z
loop_
_atom_site_type_symbol
_atom_site_label
_atom_site_fract_x
_atom_site_fract_y
_atom_site_fract_z
Si Si1 0.226147 0.666522 0.622725
Si Si2 0.933921 0.167719 0.027559
Si Si3 0.158204 0.321772 0.812291
Si Si4 0.274386 0.500000 0.372029
Si Si5 0.403021 0.500000 0.306044
Si Si6 0.067228 0.500000 0.977068
O O1 0.206947 0.500000 0.530575
O O2 0.167703 0.665867 0.669661
O O3 0.205038 0.834489 0.531020
O O4 0.329941 0.666987 0.824663
O O5 0.949381 0.335467 0.112741
O O6 0.950655 0.000000 0.113226
O O7 0.000000 0.168791 0.000000
O O8 0.146440 0.500000 0.838638
O O9 0.102239 0.170340 0.762150
O O10 0.250000 0.250000 0.000000
O O11 0.329612 0.500000 0.316516
O O12 0.169904 0.500000 0.178376
O O13 0.500000 0.500000 0.500000
O O14 0.000000 0.500000 0.000000
#
# Coordination Sequence:
#
# PCOD9172710 Si02
#       6
#     8   8   8   4   4   4
#     4   8  14  22  34  53  75 103 139 168 207 255
#     4   8  12  18  28  44  69 100 130 153 199 257
#     4  10  18  30  47  65  87 118 158 190 228 271
#     4   8  14  24  36  52  78 109 135 167 213 258
#     4  10  20  32  46  66  91 121 155 191 229 269
#     4   8  12  18  30  48  70 100 131 158 198 257
#
# _framework density 26.961822000000002
#
# number of rings (size 3 to 8) (size 9 to 14) (size 15 to 20)
#    0.000    3.333    1.111    0.000    0.000    0.444 
#    0.000    0.000    0.000    0.000    0.000    0.000 
#    0.000    0.000    0.000   72.000   63.556    2.000 
#
# Total GULP energy -100363.958537 kJ/mol
# GULP energy per Si atom -5575.775474 kJ/mol
# Density = 2.690046 g / cm^3
# Si number density = 26.961822 Si / 1000 Ang^3
#
#
#
# Elastic Constant Matrix: (Units=GPa)
#
#
# Indices 1 2 3 4 5 6 
#
# 1 98.4908 110.6904 7.6275 0.0000 10.6000 0.0000
# 2 110.6904 470.8333 25.9864 0.0000 -11.8647 0.0000
# 3 7.6275 25.9864 18.0152 0.0000 7.8436 0.0000
# 4 0.0000 0.0000 0.0000 36.7646 0.0000 -13.3237
# 5 10.6000 -11.8647 7.8436 0.0000 22.3342 0.0000
# 6 0.0000 0.0000 0.0000 -13.3237 0.0000 94.6715
#
#
#
# Elastic Compliance Matrix: (Units=1/GPa)
#
#
# Indices 1 2 3 4 5 6 
#
# 1 0.015790 -0.004235 0.004327 0.000000 -0.011263 0.000000
# 2 -0.004235 0.003605 -0.006040 0.000000 0.006046 0.000000
# 3 0.004327 -0.006040 0.076355 0.000000 -0.032078 0.000000
# 4 0.000000 0.000000 0.000000 0.028662 0.000000 0.004034
# 5 -0.011263 0.006046 -0.032078 0.000000 0.064597 0.000000
# 6 0.000000 0.000000 0.000000 0.004034 0.000000 0.011131
#
#
# Mechanical properties :
#
#
# Convention : Reuss Voigt Hill
#
# Bulk Modulus (GPa) = 11.92535 97.32754 54.62645
# Shear Modulus (GPa) = 20.83452 60.28973 40.56212
#
# Velocity S-wave (km/s) = 2.78284 4.73389 3.88290
# Velocity P-wave (km/s) = 3.84165 8.12750 6.35667
#
# Compressibility (1/GPa) = 0.08385499
#
# Stress axis : x y z
#
# Youngs Moduli (GPa) = 63.33314 277.38051 13.09669
#
# Poissons Ratio (x) = 1.17462 -0.05667
# Poissons Ratio (y) = 0.26820 0.07910
# Poissons Ratio (z) = -0.27405 1.67533
#
# Static dielectric constant tensor:
#      x y z
#    x 2.224500 0.000000 -0.068870 
#    y 0.000000 2.110020 0.000000 
#    z -0.068870 0.000000 2.007950 
# 
# From -- ./inp_files/161926.got.cif
#   From: 2010.05.17/outbox.cif.g08.bks.cpg/sg12_81_cif.got.tgz:161926.got - 2010.06.03 13:09:07.
