data_PCOD9172488
_publ_section_title
;
Structure prediction by ZEFSAII (Michael W. Deem and Ramdas Pophale) SiO2 
 PCOD9172488
Probable space group: C 2/M
;
_chemical_formula_sum "Si O2"
_cell_formula_units_Z 40
_cell_length_a 21.033557
_cell_length_b 8.566685
_cell_length_c 22.136480
_cell_angle_alpha 90.000000
_cell_angle_beta 144.369626
_cell_angle_gamma 90.000000
_cell_volume 2323.647383
_symmetry_space_group_name_H-M "C 2/M"
_symmetry_group_IT_number 12
_symmetry_cell_setting 'monoclinic'
loop_
_space_group_symop_operation_xyz
x,y,z
-x,y,-z
-x,-y,-z
x,-y,z
1/2+x,1/2+y,z
1/2-x,1/2+y,-z
1/2-x,1/2-y,-z
1/2+x,1/2-y,z
loop_
_atom_site_type_symbol
_atom_site_label
_atom_site_fract_x
_atom_site_fract_y
_atom_site_fract_z
Si Si1 0.522701 0.313063 0.449242
Si Si2 0.245159 0.312639 0.564565
Si Si3 0.183515 0.811869 0.006449
Si Si4 0.514823 0.311147 0.219357
Si Si5 0.882163 0.687399 0.233135
O O1 0.500000 0.260124 0.500000
O O2 0.524947 0.500000 0.449765
O O3 0.638487 0.251195 0.514935
O O4 0.430499 0.255514 0.331641
O O5 0.239633 0.500000 0.558537
O O6 0.250000 0.250000 0.500000
O O7 0.358829 0.265450 0.684260
O O8 0.059438 0.763992 0.895621
O O9 0.185441 0.000000 0.007763
O O10 0.250000 0.750000 0.000000
O O11 0.257883 0.762624 0.120547
O O12 0.510506 0.500000 0.221024
O O13 0.458380 0.243224 0.236171
O O14 0.886725 0.500000 0.239207
#
# Coordination Sequence:
#
# PCOD9172488 Si02
#       5
#     8   8   8   8   8
#     4  11  24  39  53  71 101 141 180 218 262 309
#     4  11  21  33  54  80 107 137 170 212 258 308
#     4   8  15  27  44  71 102 131 163 201 250 304
#     4   9  17  30  49  74 106 136 163 202 254 310
#     4  10  18  29  50  76 102 132 169 213 255 304
#
# _framework density 17.214316
#
# number of rings (size 3 to 8) (size 9 to 14) (size 15 to 20)
#    0.000    2.200    2.000    1.800    0.000    3.200 
#    0.000    0.000    0.000    1.200    0.000    8.400 
#    0.000    0.000    0.000    0.000    0.000    0.000 
#
# Total GULP energy -111444.659157 kJ/mol
# GULP energy per Si atom -5572.232958 kJ/mol
# Density = 1.717514 g / cm^3
# Si number density = 17.214316 Si / 1000 Ang^3
#
#
#
# Elastic Constant Matrix: (Units=GPa)
#
#
# Indices 1 2 3 4 5 6 
#
# 1 87.5330 20.3362 74.6531 0.0000 -6.1233 0.0000
# 2 20.3362 24.2944 36.5863 0.0000 -0.6701 0.0000
# 3 74.6531 36.5863 221.3825 0.0000 -1.9211 0.0000
# 4 0.0000 0.0000 0.0000 21.9437 0.0000 -1.2473
# 5 -6.1233 -0.6701 -1.9211 0.0000 17.7193 0.0000
# 6 0.0000 0.0000 0.0000 -1.2473 0.0000 19.4885
#
#
#
# Elastic Compliance Matrix: (Units=1/GPa)
#
#
# Indices 1 2 3 4 5 6 
#
# 1 0.017466 -0.007555 -0.004596 0.000000 0.005252 0.000000
# 2 -0.007555 0.058089 -0.007063 0.000000 -0.001179 0.000000
# 3 -0.004596 -0.007063 0.007225 0.000000 -0.001072 0.000000
# 4 0.000000 0.000000 0.000000 0.045738 0.000000 0.002927
# 5 0.005252 -0.001179 -0.001072 0.000000 0.058090 0.000000
# 6 0.000000 0.000000 0.000000 0.002927 0.000000 0.051500
#
#
# Mechanical properties :
#
#
# Convention : Reuss Voigt Hill
#
# Bulk Modulus (GPa) = 22.54594 66.26236 44.40415
# Shear Modulus (GPa) = 17.16336 25.27258 21.21797
#
# Velocity S-wave (km/s) = 3.16102 3.83575 3.51462
# Velocity P-wave (km/s) = 5.14280 7.62847 6.50545
#
# Compressibility (1/GPa) = 0.04435388
#
# Stress axis : x y z
#
# Youngs Moduli (GPa) = 57.25282 17.21493 138.41342
#
# Poissons Ratio (x) = 0.13005 0.63612
# Poissons Ratio (y) = 0.43253 0.97757
# Poissons Ratio (z) = 0.26312 0.12158
#
# Static dielectric constant tensor:
#      x y z
#    x 1.528190 0.000000 0.007320 
#    y 0.000000 1.579790 0.000000 
#    z 0.007320 0.000000 1.655910 
# 
# From -- ./inp_files/162400.got.cif
#   From: 2010.05.17/outbox.cif.g08.bks.cpg/sg12_82_cif.got.tgz:162400.got - 2010.06.03 13:09:07.
