data_PCOD9172774
_publ_section_title
;
Structure prediction by ZEFSAII (Michael W. Deem and Ramdas Pophale) SiO2 
 PCOD9172774
Probable space group: C 2/M
;
_chemical_formula_sum "Si O2"
_cell_formula_units_Z 58
_cell_length_a 26.492811
_cell_length_b 12.723978
_cell_length_c 8.531569
_cell_angle_alpha 90.000000
_cell_angle_beta 106.240555
_cell_angle_gamma 90.000000
_cell_volume 2761.178640
_symmetry_space_group_name_H-M "C 2/M"
_symmetry_group_IT_number 12
_symmetry_cell_setting 'monoclinic'
loop_
_space_group_symop_operation_xyz
x,y,z
-x,y,-z
-x,-y,-z
x,-y,z
1/2+x,1/2+y,z
1/2-x,1/2+y,-z
1/2-x,1/2-y,-z
1/2+x,1/2-y,z
loop_
_atom_site_type_symbol
_atom_site_label
_atom_site_fract_x
_atom_site_fract_y
_atom_site_fract_z
Si Si1 0.371175 0.781071 0.373101
Si Si2 0.082147 0.883510 0.820567
Si Si3 0.537436 0.114975 0.380794
Si Si4 0.312430 0.332663 0.908149
Si Si5 0.701068 0.880395 0.954160
Si Si6 0.000000 0.000000 0.500000
Si Si7 0.972017 0.159893 0.757803
Si Si8 0.853366 0.881777 0.622332
O O1 0.409615 0.709145 0.297764
O O2 0.404874 0.864152 0.499447
O O3 0.330801 0.838300 0.224296
O O4 0.346595 0.700339 0.476198
O O5 0.029496 0.868980 0.878216
O O6 0.075822 0.000000 0.735682
O O7 0.135253 0.878527 0.965689
O O8 0.500000 0.118024 0.500000
O O9 0.525766 0.214882 0.263552
O O10 0.532556 0.000000 0.302557
O O11 0.262246 0.372562 0.960860
O O12 0.312954 0.365008 0.728529
O O13 0.311864 0.206167 0.925451
O O14 0.687220 0.000000 0.980684
O O15 0.977756 0.093480 0.601550
O O16 0.911866 0.134473 0.748421
O O17 0.849761 0.000000 0.558579
#
# Coordination Sequence:
#
# PCOD9172774 Si02
#       8
#     8   8   8   8   8   2   8   8
#     4  10  21  33  58  89 110 149 199 238 293 350
#     4  11  19  33  54  83 114 156 197 235 273 353
#     4  10  18  30  47  76 112 141 185 238 279 331
#     4  10  24  40  59  86 116 150 199 241 297 360
#     4  10  21  44  66  81 108 154 201 252 296 348
#     4  12  16  32  46  82 116 160 188 236 276 364
#     4  11  20  30  53  81 120 161 192 226 295 350
#     4  11  21  36  56  90 129 157 180 242 307 350
#
# _framework density 21.005521999999999
#
# number of rings (size 3 to 8) (size 9 to 14) (size 15 to 20)
#    0.000    1.517    3.448    2.897    0.000    1.103 
#    0.000    5.517    0.000    0.000    0.000    5.793 
#    0.000    0.000    0.000    0.000    0.000    0.000 
#
# Total GULP energy -161637.653979 kJ/mol
# GULP energy per Si atom -5573.712206 kJ/mol
# Density = 2.095771 g / cm^3
# Si number density = 21.005522 Si / 1000 Ang^3
#
#
#
# Elastic Constant Matrix: (Units=GPa)
#
#
# Indices 1 2 3 4 5 6 
#
# 1 55.0298 8.4191 -5.5662 0.0000 5.3025 0.0000
# 2 8.4191 165.7602 -0.7826 0.0000 1.6225 0.0000
# 3 -5.5662 -0.7826 3.6087 0.0000 0.3771 0.0000
# 4 0.0000 0.0000 0.0000 4.7625 0.0000 1.7128
# 5 5.3025 1.6225 0.3771 0.0000 29.5009 0.0000
# 6 0.0000 0.0000 0.0000 1.7128 0.0000 21.3652
#
#
#
# Elastic Compliance Matrix: (Units=1/GPa)
#
#
# Indices 1 2 3 4 5 6 
#
# 1 0.022230 -0.000923 0.034547 0.000000 -0.004387 0.000000
# 2 -0.000923 0.006081 -0.000087 0.000000 -0.000167 0.000000
# 3 0.034547 -0.000087 0.331469 0.000000 -0.010442 0.000000
# 4 0.000000 0.000000 0.000000 0.216208 0.000000 -0.017333
# 5 -0.004387 -0.000167 -0.010442 0.000000 0.034828 0.000000
# 6 0.000000 0.000000 0.000000 -0.017333 0.000000 0.048195
#
#
# Mechanical properties :
#
#
# Convention : Reuss Voigt Hill
#
# Bulk Modulus (GPa) = 2.34272 25.39323 13.86798
# Shear Modulus (GPa) = 6.80993 25.94762 16.37877
#
# Velocity S-wave (km/s) = 1.80250 3.51846 2.79541
# Velocity P-wave (km/s) = 2.33446 5.34988 4.12740
#
# Compressibility (1/GPa) = 0.42685390
#
# Stress axis : x y z
#
# Youngs Moduli (GPa) = 44.98372 164.44880 3.01687
#
# Poissons Ratio (x) = 0.15179 -0.10422
# Poissons Ratio (y) = 0.04152 0.00026
# Poissons Ratio (z) = -1.55406 0.01438
#
# Static dielectric constant tensor:
#      x y z
#    x 1.771910 0.000000 -0.007680 
#    y 0.000000 1.754940 0.000000 
#    z -0.007680 0.000000 1.629350 
# 
# From -- ./inp_files/110039.got.cif
#   From: 2010.05.17/outbox.cif.g08.bks.cpg/sg12_56_cif.got.tgz:110039.got - 2010.06.03 13:09:07.
