data_PCOD9172702
_publ_section_title
;
Structure prediction by ZEFSAII (Michael W. Deem and Ramdas Pophale) SiO2 
 PCOD9172702
Probable space group: C 2/M
;
_chemical_formula_sum "Si O2"
_cell_formula_units_Z 44
_cell_length_a 24.424006
_cell_length_b 9.282780
_cell_length_c 17.247074
_cell_angle_alpha 90.000000
_cell_angle_beta 42.535446
_cell_angle_gamma 90.000000
_cell_volume 2643.545289
_symmetry_space_group_name_H-M "C 2/M"
_symmetry_group_IT_number 12
_symmetry_cell_setting 'monoclinic'
loop_
_space_group_symop_operation_xyz
x,y,z
-x,y,-z
-x,-y,-z
x,-y,z
1/2+x,1/2+y,z
1/2-x,1/2+y,-z
1/2-x,1/2-y,-z
1/2+x,1/2-y,z
loop_
_atom_site_type_symbol
_atom_site_label
_atom_site_fract_x
_atom_site_fract_y
_atom_site_fract_z
Si Si1 0.188053 0.174465 0.122572
Si Si2 0.316040 0.669510 0.697800
Si Si3 0.500000 0.233931 0.500000
Si Si4 0.623155 0.665878 0.631180
Si Si5 0.479223 0.163894 0.699215
Si Si6 0.776184 0.332584 0.354701
O O1 0.206409 0.218727 0.192642
O O2 0.098321 0.236830 0.202866
O O3 0.189542 0.000000 0.115230
O O4 0.250000 0.250000 0.000000
O O5 0.301238 0.500000 0.710615
O O6 0.412783 0.687493 0.584858
O O7 0.261090 0.729997 0.686030
O O8 0.492762 0.159807 0.591697
O O9 0.596804 0.500000 0.668392
O O10 0.555126 0.762724 0.661854
O O11 0.700077 0.664823 0.493008
O O12 0.654821 0.737227 0.677497
O O13 0.466642 0.000000 0.738834
O O14 0.802656 0.500000 0.318237
#
# Coordination Sequence:
#
# PCOD9172702 Si02
#       6
#     8   8   4   8   8   8
#     4  10  21  37  56  77 102 135 174 215 258 306
#     4   9  17  30  52  76 103 137 171 208 253 308
#     4  10  18  30  46  76 107 136 167 210 253 306
#     4  10  19  31  48  73 104 140 174 207 250 303
#     4  11  21  33  51  76 106 138 170 212 257 305
#     4   9  17  31  48  72 104 139 173 207 247 302
#
# _framework density 16.644314999999999
#
# number of rings (size 3 to 8) (size 9 to 14) (size 15 to 20)
#    0.000    2.182    1.818    2.182    0.000    2.182 
#    0.000    1.818    0.000    1.091    0.000    7.636 
#    0.000    0.000    0.000    0.000    0.000    0.000 
#
# Total GULP energy -122485.828801 kJ/mol
# GULP energy per Si atom -5567.537673 kJ/mol
# Density = 1.660643 g / cm^3
# Si number density = 16.644315 Si / 1000 Ang^3
#
#
#
# Elastic Constant Matrix: (Units=GPa)
#
#
# Indices 1 2 3 4 5 6 
#
# 1 142.6095 51.7497 29.3363 0.0000 0.7887 0.0000
# 2 51.7497 82.2529 27.0894 -0.0007 1.5055 0.0005
# 3 29.3363 27.0894 76.5976 0.0000 7.3809 0.0000
# 4 0.0000 -0.0007 0.0000 13.9488 0.0001 0.9902
# 5 0.7887 1.5055 7.3809 0.0001 13.9806 0.0000
# 6 0.0000 0.0005 0.0000 0.9902 0.0000 20.6588
#
#
#
# Elastic Compliance Matrix: (Units=1/GPa)
#
#
# Indices 1 2 3 4 5 6 
#
# 1 0.009288 -0.005273 -0.001788 0.000000 0.000988 0.000000
# 2 -0.005273 0.016771 -0.003968 0.000001 0.000586 0.000000
# 3 -0.001788 -0.003968 0.015901 0.000000 -0.007867 0.000000
# 4 0.000000 0.000001 0.000000 0.071936 0.000000 -0.003448
# 5 0.000988 0.000586 -0.007867 0.000000 0.075562 0.000000
# 6 0.000000 0.000000 0.000000 -0.003448 0.000000 0.048571
#
#
# Mechanical properties :
#
#
# Convention : Reuss Voigt Hill
#
# Bulk Modulus (GPa) = 50.24382 57.53455 53.88918
# Shear Modulus (GPa) = 18.74621 22.60327 20.67474
#
# Velocity S-wave (km/s) = 3.35965 3.68913 3.52824
# Velocity P-wave (km/s) = 6.73068 7.26556 7.00323
#
# Compressibility (1/GPa) = 0.01990294
#
# Stress axis : x y z
#
# Youngs Moduli (GPa) = 107.66818 59.62577 62.88782
#
# Poissons Ratio (x) = 0.31440 0.11241
# Poissons Ratio (y) = 0.56771 0.24956
# Poissons Ratio (z) = 0.19246 0.23662
#
# Static dielectric constant tensor:
#      x y z
#    x 1.592910 0.000000 0.020100 
#    y 0.000000 1.569500 0.000000 
#    z 0.020100 0.000000 1.535210 
# 
# From -- ./inp_files/237141.got.cif
#   From: 2010.05.17/outbox.cif.g08.bks.cpg/sg12_119_cif.got.tgz:237141.got - 2010.06.03 13:09:07.
