data_PCOD9172694
_publ_section_title
;
Structure prediction by ZEFSAII (Michael W. Deem and Ramdas Pophale) SiO2 
 PCOD9172694
Probable space group: C 2/M
;
_chemical_formula_sum "Si O2"
_cell_formula_units_Z 64
_cell_length_a 26.887592
_cell_length_b 25.525205
_cell_length_c 17.165419
_cell_angle_alpha 90.000000
_cell_angle_beta 20.016338
_cell_angle_gamma 90.000000
_cell_volume 4032.434651
_symmetry_space_group_name_H-M "C 2/M"
_symmetry_group_IT_number 12
_symmetry_cell_setting 'monoclinic'
loop_
_space_group_symop_operation_xyz
x,y,z
-x,y,-z
-x,-y,-z
x,-y,z
1/2+x,1/2+y,z
1/2-x,1/2+y,-z
1/2-x,1/2-y,-z
1/2+x,1/2-y,z
loop_
_atom_site_type_symbol
_atom_site_label
_atom_site_fract_x
_atom_site_fract_y
_atom_site_fract_z
Si Si1 0.798143 0.203785 0.870823
Si Si2 0.632826 0.358297 0.086671
Si Si3 0.315795 0.779926 0.711314
Si Si4 0.372987 0.810499 0.370648
Si Si5 0.001291 0.651157 0.325507
Si Si6 0.609185 0.217139 0.904741
Si Si7 0.847413 0.187508 0.439760
Si Si8 0.882074 0.560821 0.743315
O O1 0.851431 0.229861 0.712652
O O2 0.750000 0.250000 0.000000
O O3 0.888966 0.165419 0.793833
O O4 0.648666 0.174118 0.072737
O O5 0.743570 0.321186 0.875973
O O6 0.725628 0.411893 0.955276
O O7 0.481923 0.349565 0.263056
O O8 0.444903 0.809061 0.475855
O O9 0.197491 0.760430 0.822771
O O10 0.385842 0.847333 0.426146
O O11 0.229028 0.819536 0.531469
O O12 0.385182 0.750015 0.383089
O O13 0.507239 0.814925 0.113316
O O14 0.043300 0.595949 0.299887
O O15 0.725727 0.183124 0.685875
O O16 0.500000 0.240391 0.000000
O O17 0.862574 0.500000 0.791554
O O18 0.000000 0.564208 0.500000
#
# Coordination Sequence:
#
# PCOD9172694 Si02
#       8
#     8   8   8   8   8   8   8   8
#     4   9  19  28  39  63  99 127 165 200 233 292
#     4  10  19  33  47  70  96 133 171 201 246 303
#     4  11  18  27  42  68 101 135 163 198 232 294
#     4  10  18  30  46  70 104 137 172 200 234 300
#     4  11  19  31  48  71  96 141 169 204 249 294
#     4  10  19  29  43  66 105 146 171 194 228 279
#     4  10  19  30  45  70 105 139 169 199 236 299
#     4  10  21  37  55  73  95 127 173 223 260 294
#
# _framework density 15.871305
#
# number of rings (size 3 to 8) (size 9 to 14) (size 15 to 20)
#    0.000    1.875    5.000    0.750    0.000    0.000 
#    0.000    0.000    0.000    0.750    0.000    3.500 
#    0.000    3.000    0.000    0.000    0.000    0.000 
#
# Total GULP energy -178205.079532 kJ/mol
# GULP energy per Si atom -5568.908735 kJ/mol
# Density = 1.583518 g / cm^3
# Si number density = 15.871305 Si / 1000 Ang^3
#
#
#
# Elastic Constant Matrix: (Units=GPa)
#
#
# Indices 1 2 3 4 5 6 
#
# 1 104.7117 52.1175 35.8184 -0.0009 -11.4163 0.0018
# 2 52.1175 90.2198 35.6342 -0.0038 -11.8657 0.0034
# 3 35.8184 35.6342 77.2123 -0.0031 -6.8653 0.0024
# 4 -0.0009 -0.0038 -0.0031 19.6699 0.0009 -1.0694
# 5 -11.4163 -11.8657 -6.8653 0.0009 28.2673 -0.0012
# 6 0.0018 0.0034 0.0024 -1.0694 -0.0012 10.1397
#
#
#
# Elastic Compliance Matrix: (Units=1/GPa)
#
#
# Indices 1 2 3 4 5 6 
#
# 1 0.014221 -0.006606 -0.003357 -0.000001 0.002155 0.000001
# 2 -0.006606 0.017145 -0.004544 0.000002 0.003426 -0.000003
# 3 -0.003357 -0.004544 0.016675 0.000002 0.000787 -0.000002
# 4 -0.000001 0.000002 0.000002 0.051132 -0.000001 0.005393
# 5 0.002155 0.003426 0.000787 -0.000001 0.037876 0.000003
# 6 0.000001 -0.000003 -0.000002 0.005393 0.000003 0.099191
#
#
# Mechanical properties :
#
#
# Convention : Reuss Voigt Hill
#
# Bulk Modulus (GPa) = 52.55106 57.69822 55.12464
# Shear Modulus (GPa) = 18.40965 21.52030 19.96497
#
# Velocity S-wave (km/s) = 3.40947 3.68628 3.55058
# Velocity P-wave (km/s) = 6.97725 7.38586 7.18446
#
# Compressibility (1/GPa) = 0.01902911
#
# Stress axis : x y z
#
# Youngs Moduli (GPa) = 70.31771 58.32527 59.96844
#
# Poissons Ratio (x) = 0.38529 0.20130
# Poissons Ratio (y) = 0.46451 0.27248
# Poissons Ratio (z) = 0.23604 0.26501
#
# Static dielectric constant tensor:
#      x y z
#    x 1.596580 0.000000 -0.010000 
#    y 0.000000 1.501570 0.000000 
#    z -0.010000 0.000000 1.594840 
# 
# From -- ./inp_files/184975.got.cif
#   From: 2010.05.17/outbox.cif.g08.bks.cpg/sg12_93_cif.got.tgz:184975.got - 2010.06.03 13:09:07.
