data_PCOD9172565
_publ_section_title
;
Structure prediction by ZEFSAII (Michael W. Deem and Ramdas Pophale) SiO2 
 PCOD9172565
Probable space group: C 2/M
;
_chemical_formula_sum "Si O2"
_cell_formula_units_Z 64
_cell_length_a 22.009063
_cell_length_b 8.657436
_cell_length_c 21.155675
_cell_angle_alpha 90.000000
_cell_angle_beta 125.430109
_cell_angle_gamma 90.000000
_cell_volume 3284.589901
_symmetry_space_group_name_H-M "C 2/M"
_symmetry_group_IT_number 12
_symmetry_cell_setting 'monoclinic'
loop_
_space_group_symop_operation_xyz
x,y,z
-x,y,-z
-x,-y,-z
x,-y,z
1/2+x,1/2+y,z
1/2-x,1/2+y,-z
1/2-x,1/2-y,-z
1/2+x,1/2-y,z
loop_
_atom_site_type_symbol
_atom_site_label
_atom_site_fract_x
_atom_site_fract_y
_atom_site_fract_z
Si Si1 0.228464 0.314138 0.585583
Si Si2 0.066524 0.319544 0.163734
Si Si3 0.582390 0.316921 0.974512
Si Si4 0.364809 0.317012 0.578540
Si Si5 0.503270 0.178761 0.268846
Si Si6 0.228813 0.816648 0.250783
Si Si7 0.145894 0.684643 0.883112
Si Si8 0.776683 0.681849 0.884107
O O1 0.229352 0.500000 0.586217
O O2 0.303266 0.261280 0.593259
O O3 0.159589 0.256579 0.502418
O O4 0.232444 0.264580 0.660721
O O5 0.082041 0.500000 0.159036
O O6 0.036774 0.309792 0.218048
O O7 0.141090 0.219962 0.205599
O O8 0.999581 0.256421 0.079974
O O9 0.577528 0.500000 0.980431
O O10 0.621540 0.274969 0.931056
O O11 0.638571 0.241835 0.058512
O O12 0.357383 0.500000 0.568953
O O13 0.445740 0.274477 0.653263
O O14 0.416945 0.221435 0.207584
O O15 0.507642 0.000000 0.290688
O O16 0.252887 0.727393 0.202695
O O17 0.239753 0.000000 0.248731
O O18 0.142344 0.500000 0.893661
O O19 0.225477 0.733435 0.904755
O O20 0.774587 0.500000 0.893513
#
# Coordination Sequence:
#
# PCOD9172565 Si02
#       8
#     8   8   8   8   8   8   8   8
#     4   9  19  33  50  77 112 147 179 218 266 321
#     4  10  20  35  55  82 113 146 181 224 275 329
#     4  11  22  38  60  84 110 142 181 231 278 323
#     4  10  18  29  51  82 112 143 180 220 264 318
#     4   9  18  32  54  81 112 143 175 220 273 323
#     4  11  22  38  57  79 111 149 186 225 271 330
#     4  10  21  39  60  84 110 142 183 230 278 323
#     4  12  25  40  57  80 108 145 187 228 275 328
#
# _framework density 19.484928
#
# number of rings (size 3 to 8) (size 9 to 14) (size 15 to 20)
#    0.000    1.750    1.250    4.875    0.000    4.500 
#    0.000    2.500    0.000    0.750    0.000    5.250 
#    0.000    0.000    0.000    0.000    0.000    0.000 
#
# Total GULP energy -178810.013195 kJ/mol
# GULP energy per Si atom -5587.812912 kJ/mol
# Density = 1.944058 g / cm^3
# Si number density = 19.484928 Si / 1000 Ang^3
#
#
#
# Elastic Constant Matrix: (Units=GPa)
#
#
# Indices 1 2 3 4 5 6 
#
# 1 25.2584 -7.4094 1.2454 0.0000 3.2862 0.0000
# 2 -7.4094 40.9275 20.0015 0.0000 0.9501 0.0000
# 3 1.2454 20.0015 114.5454 0.0000 -3.7087 0.0000
# 4 0.0000 0.0000 0.0000 32.3743 0.0000 1.6017
# 5 3.2862 0.9501 -3.7087 0.0000 23.5769 0.0000
# 6 0.0000 0.0000 0.0000 1.6017 0.0000 21.0471
#
#
#
# Elastic Compliance Matrix: (Units=1/GPa)
#
#
# Indices 1 2 3 4 5 6 
#
# 1 0.043251 0.009100 -0.002278 0.000000 -0.006753 0.000000
# 2 0.009100 0.028706 -0.005216 0.000000 -0.003246 0.000000
# 3 -0.002278 -0.005216 0.009732 0.000000 0.002059 0.000000
# 4 0.000000 0.000000 0.000000 0.031005 0.000000 -0.002359
# 5 -0.006753 -0.003246 0.002059 0.000000 0.043810 0.000000
# 6 0.000000 0.000000 0.000000 -0.002359 0.000000 0.047692
#
#
# Mechanical properties :
#
#
# Convention : Reuss Voigt Hill
#
# Bulk Modulus (GPa) = 11.77848 23.15625 17.46736
# Shear Modulus (GPa) = 21.80685 26.52593 24.16639
#
# Velocity S-wave (km/s) = 3.34902 3.69366 3.52555
# Velocity P-wave (km/s) = 4.58395 5.48642 5.05537
#
# Compressibility (1/GPa) = 0.08490063
#
# Stress axis : x y z
#
# Youngs Moduli (GPa) = 23.12071 34.83649 102.74894
#
# Poissons Ratio (x) = -0.31702 0.23406
# Poissons Ratio (y) = -0.21040 0.53599
# Poissons Ratio (z) = 0.05267 0.18172
#
# Static dielectric constant tensor:
#      x y z
#    x 1.682640 0.000000 -0.014510 
#    y 0.000000 1.646230 0.000000 
#    z -0.014510 0.000000 1.700490 
# 
# From -- ./inp_files/295637.got.cif
#   From: 2010.05.17/outbox.cif.g08.bks.cpg/sg12_148_cif.got.tgz:295637.got - 2010.06.03 13:09:07.
