data_PCOD9172294
_publ_section_title
;
Structure prediction by ZEFSAII (Michael W. Deem and Ramdas Pophale) SiO2 
 PCOD9172294
Probable space group: C 2/M
;
_chemical_formula_sum "Si O2"
_cell_formula_units_Z 64
_cell_length_a 24.361661
_cell_length_b 8.511239
_cell_length_c 17.489763
_cell_angle_alpha 90.000000
_cell_angle_beta 84.019155
_cell_angle_gamma 90.000000
_cell_volume 3606.726333
_symmetry_space_group_name_H-M "C 2/M"
_symmetry_group_IT_number 12
_symmetry_cell_setting 'monoclinic'
loop_
_space_group_symop_operation_xyz
x,y,z
-x,y,-z
-x,-y,-z
x,-y,z
1/2+x,1/2+y,z
1/2-x,1/2+y,-z
1/2-x,1/2-y,-z
1/2+x,1/2-y,z
loop_
_atom_site_type_symbol
_atom_site_label
_atom_site_fract_x
_atom_site_fract_y
_atom_site_fract_z
Si Si1 0.977823 0.184942 0.168693
Si Si2 0.933904 0.188117 0.731091
Si Si3 0.489579 0.188756 0.416207
Si Si4 0.800921 0.686921 0.233321
Si Si5 0.120246 0.810821 0.913998
Si Si6 0.183090 0.687510 0.215892
Si Si7 0.808865 0.311611 0.961457
Si Si8 0.098211 0.687764 0.686992
O O1 0.940904 0.246408 0.103351
O O2 0.936646 0.213651 0.246245
O O3 0.035123 0.248485 0.195428
O O4 0.985831 0.000000 0.153193
O O5 0.871326 0.243181 0.738226
O O6 0.967722 0.247692 0.652839
O O7 0.936676 0.000000 0.732035
O O8 0.500000 0.249307 0.500000
O O9 0.428603 0.222892 0.390936
O O10 0.495599 0.000000 0.416892
O O11 0.796691 0.500000 0.223776
O O12 0.835725 0.753951 0.156349
O O13 0.740544 0.758959 0.244007
O O14 0.838269 0.718890 0.302817
O O15 0.120100 0.000000 0.913967
O O16 0.142641 0.750287 0.991134
O O17 0.180054 0.500000 0.217848
O O18 0.184037 0.739870 0.127020
O O19 0.807968 0.500000 0.964428
O O20 0.750000 0.250000 0.000000
O O21 0.089097 0.500000 0.703233
#
# Coordination Sequence:
#
# PCOD9172294 Si02
#       8
#     8   8   8   8   8   8   8   8
#     4   8  16  30  48  70  96 128 164 204 251 297
#     4  10  20  35  54  76 103 134 169 208 249 299
#     4   9  17  32  56  83 110 137 162 195 244 299
#     4  10  18  29  48  72  99 131 169 211 251 292
#     4  10  18  30  49  72  98 127 165 213 257 301
#     4  11  23  36  50  70  99 135 172 211 257 307
#     4  11  22  34  49  70  98 131 171 217 262 304
#     4   8  15  27  46  75 103 128 163 203 241 288
#
# _framework density 17.744624999999999
#
# number of rings (size 3 to 8) (size 9 to 14) (size 15 to 20)
#    0.000    2.375    1.250    1.875    0.000    3.250 
#    0.000    0.625    0.000    4.500    0.000    0.000 
#    0.000    0.000    0.000    0.000    0.000    0.000 
#
# Total GULP energy -178306.674489 kJ/mol
# GULP energy per Si atom -5572.083578 kJ/mol
# Density = 1.770424 g / cm^3
# Si number density = 17.744625 Si / 1000 Ang^3
#
#
#
# Elastic Constant Matrix: (Units=GPa)
#
#
# Indices 1 2 3 4 5 6 
#
# 1 114.3084 14.9521 47.4346 0.0000 15.9548 0.0000
# 2 14.9521 20.3837 17.5044 0.0000 5.1866 0.0000
# 3 47.4346 17.5044 70.3056 0.0000 21.1159 0.0000
# 4 0.0000 0.0000 0.0000 16.4243 0.0000 2.1910
# 5 15.9548 5.1866 21.1159 0.0000 24.9651 0.0000
# 6 0.0000 0.0000 0.0000 2.1910 0.0000 18.2630
#
#
#
# Elastic Compliance Matrix: (Units=1/GPa)
#
#
# Indices 1 2 3 4 5 6 
#
# 1 0.012266 -0.002410 -0.007335 0.000000 -0.001134 0.000000
# 2 -0.002410 0.062875 -0.014167 0.000000 0.000460 0.000000
# 3 -0.007335 -0.014167 0.027357 0.000000 -0.015509 0.000000
# 4 0.000000 0.000000 0.000000 0.061875 0.000000 -0.007423
# 5 -0.001134 0.000460 -0.015509 0.000000 0.053803 0.000000
# 6 0.000000 0.000000 0.000000 -0.007423 0.000000 0.055646
#
#
# Mechanical properties :
#
#
# Convention : Reuss Voigt Hill
#
# Bulk Modulus (GPa) = 18.28973 40.53108 29.41040
# Shear Modulus (GPa) = 14.71151 20.27092 17.49122
#
# Velocity S-wave (km/s) = 2.88248 3.38356 3.14302
# Velocity P-wave (km/s) = 4.62686 6.17702 5.45726
#
# Compressibility (1/GPa) = 0.05467550
#
# Stress axis : x y z
#
# Youngs Moduli (GPa) = 81.52941 15.90457 36.55317
#
# Poissons Ratio (x) = 0.03833 0.26811
# Poissons Ratio (y) = 0.19647 0.51783
# Poissons Ratio (z) = 0.59800 0.22531
#
# Static dielectric constant tensor:
#      x y z
#    x 1.637070 0.000000 0.046690 
#    y 0.000000 1.608510 0.000000 
#    z 0.046690 0.000000 1.593770 
# 
# From -- ./inp_files/287508.got.cif
#   From: 2010.05.17/outbox.cif.g08.bks.cpg/sg12_144_cif.got.tgz:287508.got - 2010.06.03 13:09:07.
