data_PCOD9172983
_publ_section_title
;
Structure prediction by ZEFSAII (Michael W. Deem and Ramdas Pophale) SiO2 
 PCOD9172983
Probable space group: C 2/M
;
_chemical_formula_sum "Si O2"
_cell_formula_units_Z 56
_cell_length_a 19.754487
_cell_length_b 9.314717
_cell_length_c 22.148495
_cell_angle_alpha 90.000000
_cell_angle_beta 124.625296
_cell_angle_gamma 90.000000
_cell_volume 3353.660510
_symmetry_space_group_name_H-M "C 2/M"
_symmetry_group_IT_number 12
_symmetry_cell_setting 'monoclinic'
loop_
_space_group_symop_operation_xyz
x,y,z
-x,y,-z
-x,-y,-z
x,-y,z
1/2+x,1/2+y,z
1/2-x,1/2+y,-z
1/2-x,1/2-y,-z
1/2+x,1/2-y,z
loop_
_atom_site_type_symbol
_atom_site_label
_atom_site_fract_x
_atom_site_fract_y
_atom_site_fract_z
Si Si1 0.711270 0.830133 0.815709
Si Si2 0.044925 0.171470 0.710922
Si Si3 0.234580 0.329517 0.684465
Si Si4 0.067765 0.172265 0.583109
Si Si5 0.583242 0.672325 0.254376
Si Si6 0.864248 0.670800 0.942998
Si Si7 0.491493 0.170693 0.897125
O O1 0.622991 0.755027 0.777434
O O2 0.736402 0.806818 0.757971
O O3 0.781194 0.758487 0.891989
O O4 0.705799 0.000000 0.823377
O O5 0.963310 0.205983 0.707129
O O6 0.039386 0.206587 0.637137
O O7 0.059681 0.000000 0.723186
O O8 0.224566 0.500000 0.669407
O O9 0.155877 0.246447 0.619416
O O10 0.321709 0.281617 0.701415
O O11 0.000000 0.217451 0.500000
O O12 0.077295 0.000000 0.583798
O O13 0.582635 0.500000 0.245974
O O14 0.533484 0.743514 0.174514
O O15 0.847488 0.500000 0.937123
O O16 0.922740 0.694937 0.914189
O O17 0.920794 0.710342 0.028934
O O18 0.492715 0.000000 0.885718
#
# Coordination Sequence:
#
# PCOD9172983 Si02
#       7
#     8   8   8   8   8   8   8
#     4  10  18  30  49  73  98 126 167 212 244 284
#     4   9  19  34  52  71  98 134 163 196 246 296
#     4   9  18  31  49  74 100 127 159 197 243 291
#     4   9  18  34  55  77  98 125 164 201 233 282
#     4  10  19  33  50  72 101 131 164 201 246 296
#     4   9  17  30  47  70  98 129 166 205 249 293
#     4   9  18  30  47  71  99 130 164 206 248 289
#
# _framework density 16.698172
#
# number of rings (size 3 to 8) (size 9 to 14) (size 15 to 20)
#    0.000    2.714    1.429    1.286    0.000    2.571 
#    0.000    2.857    0.000    0.000    0.000    0.000 
#    0.000    0.000    0.000    0.000    0.000    0.000 
#
# Total GULP energy -156093.779094 kJ/mol
# GULP energy per Si atom -5574.777825 kJ/mol
# Density = 1.666017 g / cm^3
# Si number density = 16.698172 Si / 1000 Ang^3
#
#
#
# Elastic Constant Matrix: (Units=GPa)
#
#
# Indices 1 2 3 4 5 6 
#
# 1 109.5569 38.2513 60.8319 0.0000 18.8209 0.0000
# 2 38.2513 24.4137 46.0831 0.0000 9.2308 0.0000
# 3 60.8319 46.0831 135.1332 0.0000 21.6474 0.0000
# 4 0.0000 0.0000 0.0000 26.6500 0.0000 4.6959
# 5 18.8209 9.2308 21.6474 0.0000 17.4100 0.0000
# 6 0.0000 0.0000 0.0000 4.6959 0.0000 20.4288
#
#
#
# Elastic Compliance Matrix: (Units=1/GPa)
#
#
# Indices 1 2 3 4 5 6 
#
# 1 0.022310 -0.043028 0.006043 0.000000 -0.008818 0.000000
# 2 -0.043028 0.201280 -0.049483 0.000000 0.001322 0.000000
# 3 0.006043 -0.049483 0.022974 0.000000 -0.008862 0.000000
# 4 0.000000 0.000000 0.000000 0.039107 0.000000 -0.008989
# 5 -0.008818 0.001322 -0.008862 0.000000 0.077290 0.000000
# 6 0.000000 0.000000 0.000000 -0.008989 0.000000 0.051017
#
#
# Mechanical properties :
#
#
# Convention : Reuss Voigt Hill
#
# Bulk Modulus (GPa) = 13.58163 62.15960 37.87062
# Shear Modulus (GPa) = 8.17719 21.16027 14.66873
#
# Velocity S-wave (km/s) = 2.21533 3.56367 2.96710
# Velocity P-wave (km/s) = 3.83339 7.36472 5.87086
#
# Compressibility (1/GPa) = 0.07362887
#
# Stress axis : x y z
#
# Youngs Moduli (GPa) = 44.82237 4.96821 43.52694
#
# Poissons Ratio (x) = 0.21377 -0.26302
# Poissons Ratio (y) = 1.92860 2.15384
# Poissons Ratio (z) = -0.27085 0.24584
#
# Static dielectric constant tensor:
#      x y z
#    x 1.566120 0.000000 -0.002860 
#    y 0.000000 1.549400 0.000000 
#    z -0.002860 0.000000 1.538850 
# 
# From -- ./inp_files/280419.got.cif
#   From: 2010.05.17/outbox.cif.g08.bks.cpg/sg12_141_cif.got.tgz:280419.got - 2010.06.03 13:09:07.
