data_PCOD9172105
_publ_section_title
;
Structure prediction by ZEFSAII (Michael W. Deem and Ramdas Pophale) SiO2 
 PCOD9172105
Probable space group: C 2/M
;
_chemical_formula_sum "Si O2"
_cell_formula_units_Z 64
_cell_length_a 25.225552
_cell_length_b 7.763687
_cell_length_c 15.701355
_cell_angle_alpha 90.000000
_cell_angle_beta 71.152838
_cell_angle_gamma 90.000000
_cell_volume 2910.134545
_symmetry_space_group_name_H-M "C 2/M"
_symmetry_group_IT_number 12
_symmetry_cell_setting 'monoclinic'
loop_
_space_group_symop_operation_xyz
x,y,z
-x,y,-z
-x,-y,-z
x,-y,z
1/2+x,1/2+y,z
1/2-x,1/2+y,-z
1/2-x,1/2-y,-z
1/2+x,1/2-y,z
loop_
_atom_site_type_symbol
_atom_site_label
_atom_site_fract_x
_atom_site_fract_y
_atom_site_fract_z
Si Si1 0.089755 0.699881 0.700883
Si Si2 0.279497 0.306474 0.751409
Si Si3 0.905100 0.794034 0.675776
Si Si4 0.085942 0.305303 0.517770
Si Si5 0.971933 0.795400 0.804055
Si Si6 0.219951 0.694063 0.430457
Si Si7 0.938974 0.292561 0.001207
Si Si8 0.658907 0.212586 0.821026
O O1 0.104537 0.500000 0.676164
O O2 0.075366 0.779819 0.615630
O O3 0.137925 0.770308 0.737810
O O4 0.032301 0.708250 0.783482
O O5 0.283726 0.500000 0.784757
O O6 0.341503 0.224361 0.722670
O O7 0.268536 0.313270 0.655597
O O8 0.221272 0.227706 0.813765
O O9 0.928624 0.763335 0.568521
O O10 0.944154 0.730285 0.731217
O O11 0.900671 0.000000 0.685819
O O12 0.063627 0.500000 0.532007
O O13 0.153565 0.305129 0.480399
O O14 0.933906 0.758421 0.905350
O O15 0.980915 0.000000 0.793042
O O16 0.236545 0.500000 0.398895
O O17 0.250000 0.750000 0.500000
O O18 0.939834 0.500000 0.005917
O O19 0.888251 0.233219 0.087089
O O20 0.000000 0.227751 0.000000
O O21 0.659985 0.000000 0.818533
#
# Coordination Sequence:
#
# PCOD9172105 Si02
#       8
#     8   8   8   8   8   8   8   8
#     4  10  19  34  54  79 107 136 175 222 266 309
#     4   9  17  33  55  75  99 136 176 214 257 306
#     4   9  20  37  54  73 106 147 180 210 255 313
#     4   9  19  33  52  76 103 137 181 226 259 296
#     4  11  23  37  53  77 108 142 175 213 262 317
#     4  10  18  29  46  71 103 138 175 215 260 308
#     4  10  19  36  60  82 104 133 171 215 264 316
#     4   9  17  32  57  83 105 131 170 217 264 314
#
# _framework density 21.99211
#
# number of rings (size 3 to 8) (size 9 to 14) (size 15 to 20)
#    0.000    2.375    1.250    1.500    0.000    4.750 
#    0.000    5.625    0.000    0.000    0.000    0.000 
#    0.000    0.000    0.000    0.000    0.000    0.000 
#
# Total GULP energy -178464.874129 kJ/mol
# GULP energy per Si atom -5577.027317 kJ/mol
# Density = 2.194206 g / cm^3
# Si number density = 21.992110 Si / 1000 Ang^3
#
#
#
# Elastic Constant Matrix: (Units=GPa)
#
#
# Indices 1 2 3 4 5 6 
#
# 1 63.1463 -2.7112 11.2756 0.0000 -7.8472 0.0000
# 2 -2.7112 42.7771 -2.2126 0.0000 -1.5262 0.0000
# 3 11.2756 -2.2126 87.0188 0.0000 -5.2739 0.0000
# 4 0.0000 0.0000 0.0000 10.9104 0.0000 -3.2139
# 5 -7.8472 -1.5262 -5.2739 0.0000 38.4892 0.0000
# 6 0.0000 0.0000 0.0000 -3.2139 0.0000 5.2844
#
#
#
# Elastic Compliance Matrix: (Units=1/GPa)
#
#
# Indices 1 2 3 4 5 6 
#
# 1 0.016621 0.001066 -0.001935 0.000000 0.003166 0.000000
# 2 0.001066 0.023516 0.000534 0.000000 0.001223 0.000000
# 3 -0.001935 0.000534 0.011832 0.000000 0.001248 0.000000
# 4 0.000000 0.000000 0.000000 0.111659 0.000000 0.067909
# 5 0.003166 0.001223 0.001248 0.000000 0.026846 0.000000
# 6 0.000000 0.000000 0.000000 0.067909 0.000000 0.230535
#
#
# Mechanical properties :
#
#
# Convention : Reuss Voigt Hill
#
# Bulk Modulus (GPa) = 19.49341 22.84954 21.17147
# Shear Modulus (GPa) = 11.39528 23.37617 17.38573
#
# Velocity S-wave (km/s) = 2.27877 3.26380 2.81471
# Velocity P-wave (km/s) = 3.97577 4.96142 4.49569
#
# Compressibility (1/GPa) = 0.05129939
#
# Stress axis : x y z
#
# Youngs Moduli (GPa) = 60.16515 42.52455 84.51894
#
# Poissons Ratio (x) = -0.04534 0.16352
# Poissons Ratio (y) = -0.06415 -0.04512
# Poissons Ratio (z) = 0.11640 -0.02270
#
# Static dielectric constant tensor:
#      x y z
#    x 1.834160 0.000000 -0.010780 
#    y 0.000000 1.825560 0.000000 
#    z -0.010780 0.000000 1.825500 
# 
# From -- ./inp_files/243966.got.cif
#   From: 2010.05.17/outbox.cif.g08.bks.cpg/sg12_122_cif.got.tgz:243966.got - 2010.06.03 13:09:07.
