data_PCOD9172512
_publ_section_title
;
Structure prediction by ZEFSAII (Michael W. Deem and Ramdas Pophale) SiO2 
 PCOD9172512
Probable space group: C 2/M
;
_chemical_formula_sum "Si O2"
_cell_formula_units_Z 56
_cell_length_a 19.367637
_cell_length_b 9.339569
_cell_length_c 17.816564
_cell_angle_alpha 90.000000
_cell_angle_beta 66.621970
_cell_angle_gamma 90.000000
_cell_volume 2958.189778
_symmetry_space_group_name_H-M "C 2/M"
_symmetry_group_IT_number 12
_symmetry_cell_setting 'monoclinic'
loop_
_space_group_symop_operation_xyz
x,y,z
-x,y,-z
-x,-y,-z
x,-y,z
1/2+x,1/2+y,z
1/2-x,1/2+y,-z
1/2-x,1/2-y,-z
1/2+x,1/2-y,z
loop_
_atom_site_type_symbol
_atom_site_label
_atom_site_fract_x
_atom_site_fract_y
_atom_site_fract_z
Si Si1 0.599149 0.668435 0.820448
Si Si2 0.803267 0.835505 0.367929
Si Si3 0.943682 0.832681 0.419522
Si Si4 0.056464 0.328005 0.145927
Si Si5 0.589598 0.829516 0.299823
Si Si6 0.660784 0.669149 0.399414
Si Si7 0.408679 0.164354 0.030489
O O1 0.583477 0.500000 0.835436
O O2 0.661850 0.686290 0.729820
O O3 0.523255 0.747419 0.825429
O O4 0.621475 0.735995 0.890638
O O5 0.872182 0.817810 0.395338
O O6 0.734812 0.728254 0.408094
O O7 0.776537 0.000000 0.386018
O O8 0.911108 0.803018 0.516158
O O9 0.009461 0.731001 0.362860
O O10 0.968527 0.000000 0.405715
O O11 0.042542 0.500000 0.148361
O O12 0.094483 0.296445 0.209118
O O13 0.103394 0.291301 0.050669
O O14 0.649775 0.751607 0.326338
O O15 0.593770 0.000000 0.307682
O O16 0.666100 0.500000 0.386116
O O17 0.384534 0.000000 0.051870
O O18 0.500000 0.167049 0.000000
#
# Coordination Sequence:
#
# PCOD9172512 Si02
#       7
#     8   8   8   8   8   8   8
#     4  10  18  29  50  79 107 136 171 215 264 310
#     4  10  21  37  56  78 109 142 176 221 267 314
#     4  10  21  39  58  79 107 139 177 224 272 316
#     4   9  18  32  50  75 105 140 176 212 258 311
#     4  11  22  36  57  81 108 142 181 221 264 317
#     4  11  24  38  55  78 107 143 181 221 269 321
#     4   8  15  28  46  71 106 138 168 211 259 308
#
# _framework density 18.930496999999999
#
# number of rings (size 3 to 8) (size 9 to 14) (size 15 to 20)
#    0.000    2.143    1.429    3.000    0.000    7.714 
#    0.000    0.000    0.000    0.857    0.000    0.000 
#    0.000    0.000    0.000    0.000    0.000    0.000 
#
# Total GULP energy -156298.441218 kJ/mol
# GULP energy per Si atom -5582.087186 kJ/mol
# Density = 1.888741 g / cm^3
# Si number density = 18.930497 Si / 1000 Ang^3
#
#
#
# Elastic Constant Matrix: (Units=GPa)
#
#
# Indices 1 2 3 4 5 6 
#
# 1 33.9975 15.0147 9.8104 0.0000 12.3907 0.0000
# 2 15.0147 45.0711 35.9354 0.0000 9.7610 0.0000
# 3 9.8104 35.9354 82.0622 0.0000 30.7059 0.0000
# 4 0.0000 0.0000 0.0000 27.0473 0.0000 2.1171
# 5 12.3907 9.7610 30.7059 0.0000 23.2520 0.0000
# 6 0.0000 0.0000 0.0000 2.1171 0.0000 25.4432
#
#
#
# Elastic Compliance Matrix: (Units=1/GPa)
#
#
# Indices 1 2 3 4 5 6 
#
# 1 0.050150 -0.023937 0.021204 0.000000 -0.044678 0.000000
# 2 -0.023937 0.046911 -0.029821 0.000000 0.032443 0.000000
# 3 0.021204 -0.029821 0.043990 0.000000 -0.056874 0.000000
# 4 0.000000 0.000000 0.000000 0.037215 0.000000 -0.003097
# 5 -0.044678 0.032443 -0.056874 0.000000 0.128302 0.000000
# 6 0.000000 0.000000 0.000000 -0.003097 0.000000 0.039561
#
#
# Mechanical properties :
#
#
# Convention : Reuss Voigt Hill
#
# Bulk Modulus (GPa) = 13.16745 31.40575 22.28660
# Shear Modulus (GPa) = 11.45342 21.83986 16.64664
#
# Velocity S-wave (km/s) = 2.46239 3.40028 2.96861
# Velocity P-wave (km/s) = 3.88011 5.66056 4.85269
#
# Compressibility (1/GPa) = 0.07594486
#
# Stress axis : x y z
#
# Youngs Moduli (GPa) = 19.94017 21.31682 22.73223
#
# Poissons Ratio (x) = 0.51026 -0.48202
# Poissons Ratio (y) = 0.47731 0.67789
# Poissons Ratio (z) = -0.42282 0.63568
#
# Static dielectric constant tensor:
#      x y z
#    x 1.659650 0.000000 0.035070 
#    y 0.000000 1.628590 0.000000 
#    z 0.035070 0.000000 1.680970 
# 
# From -- ./inp_files/275127.got.cif
#   From: 2010.05.17/outbox.cif.g08.bks.cpg/sg12_138_cif.got.tgz:275127.got - 2010.06.03 13:09:07.
