data_PCOD9172925
_publ_section_title
;
Structure prediction by ZEFSAII (Michael W. Deem and Ramdas Pophale) SiO2 
 PCOD9172925
Probable space group: C 2/M
;
_chemical_formula_sum "Si O2"
_cell_formula_units_Z 64
_cell_length_a 24.859083
_cell_length_b 7.744210
_cell_length_c 24.911760
_cell_angle_alpha 90.000000
_cell_angle_beta 133.332475
_cell_angle_gamma 90.000000
_cell_volume 3488.432581
_symmetry_space_group_name_H-M "C 2/M"
_symmetry_group_IT_number 12
_symmetry_cell_setting 'monoclinic'
loop_
_space_group_symop_operation_xyz
x,y,z
-x,y,-z
-x,-y,-z
x,-y,z
1/2+x,1/2+y,z
1/2-x,1/2+y,-z
1/2-x,1/2-y,-z
1/2+x,1/2-y,z
loop_
_atom_site_type_symbol
_atom_site_label
_atom_site_fract_x
_atom_site_fract_y
_atom_site_fract_z
Si Si1 0.215517 0.792927 0.845466
Si Si2 0.023586 0.790355 0.404599
Si Si3 0.237377 0.803770 0.429720
Si Si4 0.418829 0.790660 0.165847
Si Si5 0.857931 0.198851 0.431199
Si Si6 0.183049 0.292522 0.994725
Si Si7 0.072397 0.296948 0.318763
Si Si8 0.853968 0.788944 0.309264
O O1 0.142288 0.760137 0.831492
O O2 0.199442 0.725837 0.774842
O O3 0.223772 0.000000 0.847943
O O4 0.286548 0.725781 0.927436
O O5 0.073367 0.726142 0.488241
O O6 0.056377 0.726472 0.370979
O O7 0.938216 0.741947 0.352226
O O8 0.027582 0.000000 0.406046
O O9 0.250000 0.750000 0.500000
O O10 0.288190 0.701431 0.423117
O O11 0.150537 0.787180 0.358705
O O12 0.261832 0.000000 0.441094
O O13 0.388850 0.730497 0.087123
O O14 0.499880 0.728862 0.238311
O O15 0.420643 0.000000 0.166946
O O16 0.840104 0.272513 0.360427
O O17 0.879451 0.000000 0.435480
O O18 0.176434 0.500000 0.994362
O O19 0.250000 0.250000 0.000000
O O20 0.079856 0.500000 0.312600
O O21 0.849354 0.000000 0.304921
#
# Coordination Sequence:
#
# PCOD9172925 Si02
#       8
#     8   8   8   8   8   8   8   8
#     4   9  15  25  44  68  95 128 161 190 224 277
#     4  10  18  30  49  70  96 128 161 193 230 278
#     4  12  24  38  54  71  92 120 158 202 244 285
#     4   9  17  28  42  65  97 127 156 193 237 279
#     4  10  20  34  51  70  95 128 162 198 236 279
#     4   8  14  24  39  62  93 126 156 188 228 274
#     4  11  21  32  49  71  96 127 161 198 240 282
#     4   9  17  29  47  73 100 128 163 194 229 279
#
# _framework density 18.346347999999999
#
# number of rings (size 3 to 8) (size 9 to 14) (size 15 to 20)
#    0.000    2.250    2.500    1.875    0.000    2.000 
#    0.000    1.250    0.000    1.500    0.000    0.875 
#    0.000    7.000    0.000    0.000    0.000    0.000 
#
# Total GULP energy -178396.802297 kJ/mol
# GULP energy per Si atom -5574.900072 kJ/mol
# Density = 1.830459 g / cm^3
# Si number density = 18.346348 Si / 1000 Ang^3
#
#
#
# Elastic Constant Matrix: (Units=GPa)
#
#
# Indices 1 2 3 4 5 6 
#
# 1 27.3412 -9.4786 29.6843 0.0000 -9.9390 0.0000
# 2 -9.4786 33.2268 1.6003 0.0000 -0.0716 0.0000
# 3 29.6843 1.6003 194.0182 0.0000 -10.5905 0.0000
# 4 0.0000 0.0000 0.0000 9.1130 0.0000 -0.4795
# 5 -9.9390 -0.0716 -10.5905 0.0000 20.2525 0.0000
# 6 0.0000 0.0000 0.0000 -0.4795 0.0000 13.4622
#
#
#
# Elastic Compliance Matrix: (Units=1/GPa)
#
#
# Indices 1 2 3 4 5 6 
#
# 1 0.060829 0.017796 -0.008050 0.000000 0.025705 0.000000
# 2 0.017796 0.035314 -0.002605 0.000000 0.007496 0.000000
# 3 -0.008050 -0.002605 0.006373 0.000000 -0.000627 0.000000
# 4 0.000000 0.000000 0.000000 0.109939 0.000000 0.003916
# 5 0.025705 0.007496 -0.000627 0.000000 0.061690 0.000000
# 6 0.000000 0.000000 0.000000 0.003916 0.000000 0.074422
#
#
# Mechanical properties :
#
#
# Convention : Reuss Voigt Hill
#
# Bulk Modulus (GPa) = 8.56184 33.13313 20.84748
# Shear Modulus (GPa) = 13.39701 24.08423 18.74062
#
# Velocity S-wave (km/s) = 2.70520 3.62712 3.19954
# Velocity P-wave (km/s) = 3.79926 5.96996 5.00374
#
# Compressibility (1/GPa) = 0.11679734
#
# Stress axis : x y z
#
# Youngs Moduli (GPa) = 16.43963 28.31703 156.91012
#
# Poissons Ratio (x) = -0.50392 1.26317
# Poissons Ratio (y) = -0.29256 0.40872
# Poissons Ratio (z) = 0.13234 0.07376
#
# Static dielectric constant tensor:
#      x y z
#    x 1.412250 0.000000 0.067340 
#    y 0.000000 1.674310 0.000000 
#    z 0.067340 0.000000 1.673650 
# 
# From -- ./inp_files/350958.got.cif
#   From: 2010.05.17/outbox.cif.g08.bks.cpg/sg12_176_cif.got.tgz:350958.got - 2010.06.03 13:09:07.
