data_PCOD9172809
_publ_section_title
;
Structure prediction by ZEFSAII (Michael W. Deem and Ramdas Pophale) SiO2 
 PCOD9172809
Probable space group: C 2/M
;
_chemical_formula_sum "Si O2"
_cell_formula_units_Z 64
_cell_length_a 20.082200
_cell_length_b 9.206359
_cell_length_c 24.184471
_cell_angle_alpha 90.000000
_cell_angle_beta 58.357045
_cell_angle_gamma 90.000000
_cell_volume 3806.586411
_symmetry_space_group_name_H-M "C 2/M"
_symmetry_group_IT_number 12
_symmetry_cell_setting 'monoclinic'
loop_
_space_group_symop_operation_xyz
x,y,z
-x,y,-z
-x,-y,-z
x,-y,z
1/2+x,1/2+y,z
1/2-x,1/2+y,-z
1/2-x,1/2-y,-z
1/2+x,1/2-y,z
loop_
_atom_site_type_symbol
_atom_site_label
_atom_site_fract_x
_atom_site_fract_y
_atom_site_fract_z
Si Si1 0.209611 0.667715 0.434948
Si Si2 0.094054 0.669686 0.955974
Si Si3 0.208160 0.667945 0.695503
Si Si4 0.124957 0.827671 0.828091
Si Si5 0.533278 0.329317 0.174536
Si Si6 0.372345 0.667352 0.434518
Si Si7 0.833244 0.825457 0.969893
Si Si8 0.546088 0.833366 0.695241
O O1 0.190390 0.500000 0.432410
O O2 0.228052 0.755697 0.371227
O O3 0.291076 0.668716 0.434583
O O4 0.146531 0.744699 0.501688
O O5 0.117504 0.500000 0.948417
O O6 0.121801 0.743047 0.887031
O O7 0.127029 0.759402 0.992996
O O8 0.000000 0.675608 0.000000
O O9 0.226910 0.500000 0.699103
O O10 0.188262 0.758502 0.758979
O O11 0.127497 0.668640 0.694789
O O12 0.040714 0.808607 0.834475
O O13 0.137127 0.000000 0.830333
O O14 0.534689 0.500000 0.188236
O O15 0.610820 0.292000 0.106738
O O16 0.516939 0.237519 0.236464
O O17 0.391248 0.500000 0.437644
O O18 0.436100 0.742797 0.367610
O O19 0.827080 0.000000 0.976710
O O20 0.750000 0.750000 0.000000
O O21 0.527883 0.000000 0.690387
#
# Coordination Sequence:
#
# PCOD9172809 Si02
#       8
#     8   8   8   8   8   8   8   8
#     4   9  15  22  32  47  71 106 147 187 229 278
#     4  11  22  35  54  78 102 129 165 208 252 299
#     4   9  16  25  36  55  82 112 148 190 237 284
#     4  10  18  30  48  69  93 122 159 201 246 292
#     4   9  18  31  47  66  91 122 156 196 244 294
#     4   9  15  22  32  47  71 105 145 187 230 277
#     4  11  23  39  56  76 102 133 167 206 254 306
#     4   9  16  24  37  56  79 108 147 192 234 279
#
# _framework density 16.812963
#
# number of rings (size 3 to 8) (size 9 to 14) (size 15 to 20)
#    0.000    2.375    1.250    2.625    0.000    8.000 
#    0.000    0.000    0.000    0.000    0.000    0.000 
#    0.000    0.000    0.000    1.125    0.000   21.250 
#
# Total GULP energy -178439.482251 kJ/mol
# GULP energy per Si atom -5576.233820 kJ/mol
# Density = 1.677470 g / cm^3
# Si number density = 16.812963 Si / 1000 Ang^3
#
#
#
# Elastic Constant Matrix: (Units=GPa)
#
#
# Indices 1 2 3 4 5 6 
#
# 1 23.3190 25.4360 26.4049 0.0000 -6.1290 0.0002
# 2 25.4360 146.3934 109.4109 0.0000 -7.6516 0.0005
# 3 26.4049 109.4109 181.5187 0.0000 -4.6064 0.0000
# 4 0.0000 0.0000 0.0000 37.6416 0.0000 1.8657
# 5 -6.1290 -7.6516 -4.6064 0.0000 6.8968 0.0000
# 6 0.0002 0.0005 0.0000 1.8657 0.0000 13.8479
#
#
#
# Elastic Compliance Matrix: (Units=1/GPa)
#
#
# Indices 1 2 3 4 5 6 
#
# 1 0.068140 -0.004955 -0.005623 0.000000 0.051301 -0.000001
# 2 -0.004955 0.013357 -0.007188 0.000000 0.005615 0.000000
# 3 -0.005623 -0.007188 0.010509 0.000000 -0.005953 0.000000
# 4 0.000000 0.000000 0.000000 0.026745 0.000000 -0.003603
# 5 0.051301 0.005615 -0.005953 0.000000 0.192839 -0.000001
# 6 -0.000001 0.000000 0.000000 -0.003603 -0.000001 0.072698
#
#
# Mechanical properties :
#
#
# Convention : Reuss Voigt Hill
#
# Bulk Modulus (GPa) = 17.70765 74.85941 46.28353
# Shear Modulus (GPa) = 11.39873 24.34254 17.87063
#
# Velocity S-wave (km/s) = 2.60662 3.80918 3.26376
# Velocity P-wave (km/s) = 4.42880 7.99800 6.46460
#
# Compressibility (1/GPa) = 0.05647277
#
# Stress axis : x y z
#
# Youngs Moduli (GPa) = 14.67569 74.86457 95.16031
#
# Poissons Ratio (x) = 0.37097 0.53513
# Poissons Ratio (y) = 0.07272 0.68401
# Poissons Ratio (z) = 0.08253 0.53812
#
# Static dielectric constant tensor:
#      x y z
#    x 1.548440 0.000000 -0.006750 
#    y 0.000000 1.560970 0.000000 
#    z -0.006750 0.000000 1.560070 
# 
# From -- ./inp_files/348537.got.cif
#   From: 2010.05.17/outbox.cif.g08.bks.cpg/sg12_175_cif.got.tgz:348537.got - 2010.06.03 13:09:07.
