data_PCOD9172581
_publ_section_title
;
Structure prediction by ZEFSAII (Michael W. Deem and Ramdas Pophale) SiO2 
 PCOD9172581
Probable space group: C 2/M
;
_chemical_formula_sum "Si O2"
_cell_formula_units_Z 52
_cell_length_a 32.659567
_cell_length_b 8.088978
_cell_length_c 24.643611
_cell_angle_alpha 90.000000
_cell_angle_beta 25.174871
_cell_angle_gamma 90.000000
_cell_volume 2769.414407
_symmetry_space_group_name_H-M "C 2/M"
_symmetry_group_IT_number 12
_symmetry_cell_setting 'monoclinic'
loop_
_space_group_symop_operation_xyz
x,y,z
-x,y,-z
-x,-y,-z
x,-y,z
1/2+x,1/2+y,z
1/2-x,1/2+y,-z
1/2-x,1/2-y,-z
1/2+x,1/2-y,z
loop_
_atom_site_type_symbol
_atom_site_label
_atom_site_fract_x
_atom_site_fract_y
_atom_site_fract_z
Si Si1 0.296450 0.186181 0.999952
Si Si2 0.258344 0.500000 0.727336
Si Si3 0.957201 0.677982 0.395748
Si Si4 0.171711 0.801907 0.639190
Si Si5 0.998022 0.807762 0.230698
Si Si6 0.689249 0.500000 0.214922
Si Si7 0.270527 0.309028 0.310042
Si Si8 0.513282 0.500000 0.574961
O O1 0.387601 0.289166 0.910557
O O2 0.333196 0.000000 0.944365
O O3 0.250000 0.250000 0.000000
O O4 0.220886 0.154783 0.139076
O O5 0.252683 0.500000 0.798998
O O6 0.214830 0.666171 0.752340
O O7 0.374710 0.500000 0.576346
O O8 0.998489 0.500000 0.362551
O O9 0.966403 0.704129 0.320738
O O10 0.844689 0.678721 0.545068
O O11 0.002005 0.836322 0.370728
O O12 0.250000 0.750000 0.500000
O O13 0.066625 0.754702 0.742642
O O14 0.191916 0.746249 0.676315
O O15 0.177480 0.000000 0.635480
O O16 0.974536 0.000000 0.269672
O O17 0.574908 0.500000 0.361247
O O18 0.304394 0.500000 0.258380
#
# Coordination Sequence:
#
# PCOD9172581 Si02
#       8
#     8   4   8   8   8   4   8   4
#     4  10  22  38  58  79 112 148 191 240 290 342
#     4  10  21  38  63  84 113 157 197 238 298 345
#     4  10  18  29  52  82 116 156 184 223 290 361
#     4  10  20  30  50  83 124 153 188 237 293 354
#     4  11  20  32  52  80 119 157 193 233 295 345
#     4  10  23  40  59  82 113 147 205 248 283 354
#     4   9  19  35  52  84 120 155 187 230 291 353
#     4  10  19  36  60  82 118 144 191 248 296 335
#
# _framework density 18.776532
#
# number of rings (size 3 to 8) (size 9 to 14) (size 15 to 20)
#    0.462    1.538    2.308    2.077    1.077    0.615 
#    0.000    3.077    0.000    5.538    0.000    3.231 
#    0.000    0.000    0.000    0.000    0.000    0.000 
#
# Total GULP energy -144795.121296 kJ/mol
# GULP energy per Si atom -5569.043127 kJ/mol
# Density = 1.873380 g / cm^3
# Si number density = 18.776532 Si / 1000 Ang^3
#
#
#
# Elastic Constant Matrix: (Units=GPa)
#
#
# Indices 1 2 3 4 5 6 
#
# 1 140.6302 42.8453 24.6338 0.0029 -4.5764 -0.0027
# 2 42.8453 93.2631 8.8798 -0.0052 2.4625 0.0066
# 3 24.6338 8.8798 28.0235 -0.0040 -3.7073 0.0067
# 4 0.0029 -0.0052 -0.0040 1.2751 0.0037 5.8860
# 5 -4.5764 2.4625 -3.7073 0.0037 27.4365 -0.0018
# 6 -0.0027 0.0066 0.0067 5.8860 -0.0018 19.3141
#
#
#
# Elastic Compliance Matrix: (Units=1/GPa)
#
#
# Indices 1 2 3 4 5 6 
#
# 1 0.009513 -0.003724 -0.007054 0.000210 0.000968 -0.000059
# 2 -0.003724 0.012574 -0.000959 -0.000206 -0.001879 0.000058
# 3 -0.007054 -0.000959 0.042810 -0.000495 0.004694 0.000136
# 4 0.000210 -0.000206 -0.000495 -1.927850 0.000283 0.587516
# 5 0.000968 -0.001879 0.004694 0.000283 0.037412 -0.000083
# 6 -0.000059 0.000058 0.000136 0.587516 -0.000083 -0.127271
#
#
# Mechanical properties :
#
#
# Convention : Reuss Voigt Hill
#
# Bulk Modulus (GPa) = 24.14179 46.07049 35.10614
# Shear Modulus (GPa) = -2.61024 21.97566 9.68271
#
# Velocity S-wave (km/s) = -1.18033 3.42479 2.27333
# Velocity P-wave (km/s) = 3.32081 6.34259 5.06242
#
# Compressibility (1/GPa) = 0.04142195
#
# Stress axis : x y z
#
# Youngs Moduli (GPa) = 105.12481 79.52834 23.35912
#
# Poissons Ratio (x) = 0.29616 0.16477
# Poissons Ratio (y) = 0.39148 0.02241
# Poissons Ratio (z) = 0.74153 0.07631
#
# Static dielectric constant tensor:
#      x y z
#    x 1.661310 0.000000 -0.018870 
#    y 0.000000 1.714630 0.000000 
#    z -0.018870 0.000000 1.656180 
# 
# From -- ./inp_files/352865.got.cif
#   From: 2010.05.17/outbox.cif.g08.bks.cpg/sg12_177_cif.got.tgz:352865.got - 2010.06.03 13:09:07.
