data_PCOD9172338
_publ_section_title
;
Structure prediction by ZEFSAII (Michael W. Deem and Ramdas Pophale) SiO2 
 PCOD9172338
Probable space group: C 2/M
;
_chemical_formula_sum "Si O2"
_cell_formula_units_Z 40
_cell_length_a 20.848174
_cell_length_b 8.701687
_cell_length_c 27.049360
_cell_angle_alpha 90.000000
_cell_angle_beta 152.147585
_cell_angle_gamma 90.000000
_cell_volume 2292.594710
_symmetry_space_group_name_H-M "C 2/M"
_symmetry_group_IT_number 12
_symmetry_cell_setting 'monoclinic'
loop_
_space_group_symop_operation_xyz
x,y,z
-x,y,-z
-x,-y,-z
x,-y,z
1/2+x,1/2+y,z
1/2-x,1/2+y,-z
1/2-x,1/2-y,-z
1/2+x,1/2-y,z
loop_
_atom_site_type_symbol
_atom_site_label
_atom_site_fract_x
_atom_site_fract_y
_atom_site_fract_z
Si Si1 0.587079 0.816397 0.789691
Si Si2 0.383889 0.816201 0.563924
Si Si3 0.925144 0.816808 0.774017
Si Si4 0.669194 0.183523 0.992728
Si Si5 0.369049 0.683248 0.444739
O O1 0.513541 0.784297 0.687719
O O2 0.490780 0.748099 0.767642
O O3 0.737958 0.744531 0.899147
O O4 0.594595 0.000000 0.801955
O O5 0.250000 0.750000 0.500000
O O6 0.395019 0.741410 0.517925
O O7 0.369362 0.000000 0.549224
O O8 0.768406 0.763998 0.668664
O O9 0.937173 0.000000 0.781867
O O10 0.016727 0.747897 0.880896
O O11 0.669351 0.000000 0.991502
O O12 0.750000 0.250000 0.000000
O O13 0.500000 0.717234 0.500000
O O14 0.346244 0.500000 0.429861
#
# Coordination Sequence:
#
# PCOD9172338 Si02
#       5
#     8   8   8   8   8
#     4  10  19  32  51  79 112 142 178 224 274 325
#     4  11  22  35  57  83 113 147 183 229 276 328
#     4  11  20  32  53  78 108 144 182 226 274 327
#     4  10  18  29  48  75 108 142 178 222 272 324
#     4  11  24  40  57  79 111 149 188 230 277 331
#
# _framework density 17.447479000000001
#
# number of rings (size 3 to 8) (size 9 to 14) (size 15 to 20)
#    0.000    1.400    2.000    7.800    0.000    4.000 
#    0.000    0.000    0.000    1.200    0.000    8.400 
#    0.000    0.000    0.000    0.000    0.000    0.000 
#
# Total GULP energy -111685.986417 kJ/mol
# GULP energy per Si atom -5584.299321 kJ/mol
# Density = 1.740777 g / cm^3
# Si number density = 17.447479 Si / 1000 Ang^3
#
#
#
# Elastic Constant Matrix: (Units=GPa)
#
#
# Indices 1 2 3 4 5 6 
#
# 1 70.1375 42.5214 50.7717 -0.0001 -2.4342 0.0000
# 2 42.5214 131.2429 92.0783 0.0000 1.5132 0.0000
# 3 50.7717 92.0783 181.0177 -0.0002 -1.0143 0.0000
# 4 -0.0001 0.0000 -0.0002 35.3416 0.0000 -0.7725
# 5 -2.4342 1.5132 -1.0143 0.0000 14.3275 0.0000
# 6 0.0000 0.0000 0.0000 -0.7725 0.0000 20.1721
#
#
#
# Elastic Compliance Matrix: (Units=1/GPa)
#
#
# Indices 1 2 3 4 5 6 
#
# 1 0.019180 -0.003876 -0.003389 0.000000 0.003428 0.000000
# 2 -0.003876 0.012671 -0.005372 0.000000 -0.002377 0.000000
# 3 -0.003389 -0.005372 0.009211 0.000000 0.000644 0.000000
# 4 0.000000 0.000000 0.000000 0.028319 0.000000 0.001085
# 5 0.003428 -0.002377 0.000644 0.000000 0.070675 0.000000
# 6 0.000000 0.000000 0.000000 0.001085 0.000000 0.049615
#
#
# Mechanical properties :
#
#
# Convention : Reuss Voigt Hill
#
# Bulk Modulus (GPa) = 63.33563 83.68232 73.50898
# Shear Modulus (GPa) = 22.70596 27.10336 24.90466
#
# Velocity S-wave (km/s) = 3.61139 3.94563 3.78220
# Velocity P-wave (km/s) = 7.33274 8.29601 7.82921
#
# Compressibility (1/GPa) = 0.01578890
#
# Stress axis : x y z
#
# Youngs Moduli (GPa) = 52.13883 78.91773 108.56835
#
# Poissons Ratio (x) = 0.30590 0.36789
# Poissons Ratio (y) = 0.20210 0.58320
# Poissons Ratio (z) = 0.17668 0.42392
#
# Static dielectric constant tensor:
#      x y z
#    x 1.557510 0.000000 -0.005680 
#    y 0.000000 1.582820 0.000000 
#    z -0.005680 0.000000 1.643300 
# 
# From -- ./inp_files/362588.got.cif
#   From: 2010.05.17/outbox.cif.g08.bks.cpg/sg12_182_cif.got.tgz:362588.got - 2010.06.03 13:09:07.
