data_PCOD9172657
_publ_section_title
;
Structure prediction by ZEFSAII (Michael W. Deem and Ramdas Pophale) SiO2 
 PCOD9172657
Probable space group: C 2/M
;
_chemical_formula_sum "Si O2"
_cell_formula_units_Z 56
_cell_length_a 27.989918
_cell_length_b 8.658424
_cell_length_c 18.125125
_cell_angle_alpha 90.000000
_cell_angle_beta 126.298004
_cell_angle_gamma 90.000000
_cell_volume 3540.209765
_symmetry_space_group_name_H-M "C 2/M"
_symmetry_group_IT_number 12
_symmetry_cell_setting 'monoclinic'
loop_
_space_group_symop_operation_xyz
x,y,z
-x,y,-z
-x,-y,-z
x,-y,z
1/2+x,1/2+y,z
1/2-x,1/2+y,-z
1/2-x,1/2-y,-z
1/2+x,1/2-y,z
loop_
_atom_site_type_symbol
_atom_site_label
_atom_site_fract_x
_atom_site_fract_y
_atom_site_fract_z
Si Si1 0.212282 0.314274 0.032896
Si Si2 0.843201 0.313711 0.599064
Si Si3 0.539824 0.813665 0.210602
Si Si4 0.909024 0.681405 0.902205
Si Si5 0.917753 0.818303 0.068164
Si Si6 0.768957 0.813064 0.402405
Si Si7 0.731784 0.817379 0.213506
O O1 0.214177 0.500000 0.035204
O O2 0.237100 0.255691 0.135172
O O3 0.250000 0.250000 0.000000
O O4 0.143731 0.263109 0.965994
O O5 0.842888 0.500000 0.595998
O O6 0.907776 0.264249 0.686286
O O7 0.821819 0.248216 0.501468
O O8 0.792306 0.268004 0.611852
O O9 0.561622 0.773016 0.147778
O O10 0.475396 0.742506 0.163512
O O11 0.535742 0.000000 0.209496
O O12 0.922472 0.500000 0.928621
O O13 0.837963 0.694464 0.830552
O O14 0.927410 0.776151 0.990686
O O15 0.911204 0.000000 0.071117
O O16 0.767029 0.754880 0.316331
O O17 0.770321 0.000000 0.402719
O O18 0.745569 0.000000 0.221832
#
# Coordination Sequence:
#
# PCOD9172657 Si02
#       7
#     8   8   8   8   8   8   8
#     4  10  20  36  56  74  94 119 152 192 238 285
#     4   9  17  27  42  64  92 126 164 199 228 264
#     4  10  18  30  46  63  90 131 169 194 227 278
#     4   9  16  29  46  63  88 127 167 194 225 274
#     4  11  22  32  44  67  96 122 155 196 237 280
#     4   9  15  27  44  64  91 124 162 195 227 267
#     4   8  14  27  48  69  90 123 159 189 224 278
#
# _framework density 15.818270999999999
#
# number of rings (size 3 to 8) (size 9 to 14) (size 15 to 20)
#    0.000    2.571    1.429    3.000    0.000    2.857 
#    0.000    3.571    0.000    0.000    0.000    1.000 
#    0.000    8.000    0.000    0.000    0.000    0.000 
#
# Total GULP energy -156034.355669 kJ/mol
# GULP energy per Si atom -5572.655560 kJ/mol
# Density = 1.578227 g / cm^3
# Si number density = 15.818271 Si / 1000 Ang^3
#
#
#
# Elastic Constant Matrix: (Units=GPa)
#
#
# Indices 1 2 3 4 5 6 
#
# 1 75.4711 22.7429 66.2840 0.0000 -10.1964 0.0000
# 2 22.7429 28.9074 33.3656 0.0000 1.3052 0.0000
# 3 66.2840 33.3656 141.3144 0.0000 3.6908 0.0000
# 4 0.0000 0.0000 0.0000 22.9493 0.0000 0.4363
# 5 -10.1964 1.3052 3.6908 0.0000 17.3667 0.0000
# 6 0.0000 0.0000 0.0000 0.4363 0.0000 18.9592
#
#
#
# Elastic Compliance Matrix: (Units=1/GPa)
#
#
# Indices 1 2 3 4 5 6 
#
# 1 0.029813 -0.010485 -0.012053 0.000000 0.020853 0.000000
# 2 -0.010485 0.051264 -0.006963 0.000000 -0.008529 0.000000
# 3 -0.012053 -0.006963 0.014626 0.000000 -0.009661 0.000000
# 4 0.000000 0.000000 0.000000 0.043593 0.000000 -0.001003
# 5 0.020853 -0.008529 -0.009661 0.000000 0.072519 0.000000
# 6 0.000000 0.000000 0.000000 -0.001003 0.000000 0.052768
#
#
# Mechanical properties :
#
#
# Convention : Reuss Voigt Hill
#
# Bulk Modulus (GPa) = 27.24700 54.49755 40.87227
# Shear Modulus (GPa) = 14.88896 20.07507 17.48201
#
# Velocity S-wave (km/s) = 3.07131 3.56632 3.32803
# Velocity P-wave (km/s) = 5.46257 7.17532 6.37671
#
# Compressibility (1/GPa) = 0.03670129
#
# Stress axis : x y z
#
# Youngs Moduli (GPa) = 33.54284 19.50670 68.37047
#
# Poissons Ratio (x) = 0.20453 0.82405
# Poissons Ratio (y) = 0.35170 0.47608
# Poissons Ratio (z) = 0.40428 0.13583
#
# Static dielectric constant tensor:
#      x y z
#    x 1.505920 0.000000 -0.003020 
#    y 0.000000 1.536270 0.000000 
#    z -0.003020 0.000000 1.557320 
# 
# From -- ./inp_files/291813.got.cif
#   From: 2010.05.17/outbox.cif.g08.bks.cpg/sg12_146_cif.got.tgz:291813.got - 2010.06.03 13:09:07.
