data_PCOD9172493
_publ_section_title
;
Structure prediction by ZEFSAII (Michael W. Deem and Ramdas Pophale) SiO2 
 PCOD9172493
Probable space group: C 2/M
;
_chemical_formula_sum "Si O2"
_cell_formula_units_Z 64
_cell_length_a 30.409118
_cell_length_b 8.457876
_cell_length_c 15.955629
_cell_angle_alpha 90.000000
_cell_angle_beta 119.173004
_cell_angle_gamma 90.000000
_cell_volume 3583.181796
_symmetry_space_group_name_H-M "C 2/M"
_symmetry_group_IT_number 12
_symmetry_cell_setting 'monoclinic'
loop_
_space_group_symop_operation_xyz
x,y,z
-x,y,-z
-x,-y,-z
x,-y,z
1/2+x,1/2+y,z
1/2-x,1/2+y,-z
1/2-x,1/2-y,-z
1/2+x,1/2-y,z
loop_
_atom_site_type_symbol
_atom_site_label
_atom_site_fract_x
_atom_site_fract_y
_atom_site_fract_z
Si Si1 0.885149 0.192287 0.349354
Si Si2 0.332250 0.815720 0.543775
Si Si3 0.433158 0.691219 0.571709
Si Si4 0.318652 0.684795 0.711648
Si Si5 0.217195 0.813389 0.667802
Si Si6 0.544454 0.690597 0.732872
Si Si7 0.471605 0.809811 0.099928
Si Si8 0.923366 0.691363 0.878329
O O1 0.918049 0.233256 0.462238
O O2 0.827920 0.244333 0.313659
O O3 0.912490 0.248193 0.290829
O O4 0.883863 0.000000 0.346236
O O5 0.391152 0.770365 0.591223
O O6 0.313694 0.776061 0.619026
O O7 0.304490 0.716921 0.445839
O O8 0.324975 0.000000 0.518750
O O9 0.429190 0.500000 0.575789
O O10 0.489456 0.739608 0.647504
O O11 0.319052 0.500000 0.693354
O O12 0.270435 0.727657 0.722915
O O13 0.371007 0.735037 0.802066
O O14 0.224431 0.000000 0.686771
O O15 0.545266 0.500000 0.731707
O O16 0.548939 0.745221 0.832282
O O17 0.529484 0.759303 0.136397
O O18 0.471945 0.000000 0.103255
O O19 0.439565 0.765079 0.988020
O O20 0.919544 0.500000 0.870453
#
# Coordination Sequence:
#
# PCOD9172493 Si02
#       8
#     8   8   8   8   8   8   8   8
#     4   8  16  31  50  71  98 134 172 207 244 288
#     4  11  21  33  49  72 104 137 169 204 244 292
#     4   9  17  30  48  72 103 137 171 205 243 289
#     4  12  23  34  51  76 102 128 164 207 251 297
#     4  10  20  36  54  71  97 134 173 209 246 289
#     4  10  18  29  50  77 102 131 168 207 246 294
#     4   9  19  35  54  76 103 132 161 199 246 297
#     4   9  19  37  56  74 100 133 165 197 243 299
#
# _framework density 17.861219999999999
#
# number of rings (size 3 to 8) (size 9 to 14) (size 15 to 20)
#    0.000    2.250    0.000    5.625    0.000    5.000 
#    0.000    4.375    0.000    4.500    0.000    0.000 
#    0.000    0.000    0.000    0.000    0.000    0.000 
#
# Total GULP energy -178627.770479 kJ/mol
# GULP energy per Si atom -5582.117827 kJ/mol
# Density = 1.782057 g / cm^3
# Si number density = 17.861220 Si / 1000 Ang^3
#
#
#
# Elastic Constant Matrix: (Units=GPa)
#
#
# Indices 1 2 3 4 5 6 
#
# 1 116.1672 2.5502 37.2112 0.0000 -9.8519 0.0000
# 2 2.5502 12.4848 -3.7803 0.0000 -1.4196 0.0000
# 3 37.2112 -3.7803 33.7405 0.0000 -6.4563 0.0000
# 4 0.0000 0.0000 0.0000 19.9989 0.0000 -0.2191
# 5 -9.8519 -1.4196 -6.4563 0.0000 29.3738 0.0000
# 6 0.0000 0.0000 0.0000 -0.2191 0.0000 21.4035
#
#
#
# Elastic Compliance Matrix: (Units=1/GPa)
#
#
# Indices 1 2 3 4 5 6 
#
# 1 0.014025 -0.007676 -0.016179 0.000000 0.000777 0.000000
# 2 -0.007676 0.088248 0.019496 0.000000 0.005976 0.000000
# 3 -0.016179 0.019496 0.050951 0.000000 0.006715 0.000000
# 4 0.000000 0.000000 0.000000 0.050008 0.000000 0.000512
# 5 0.000777 0.005976 0.006715 0.000000 0.036069 0.000000
# 6 0.000000 0.000000 0.000000 0.000512 0.000000 0.046727
#
#
# Mechanical properties :
#
#
# Convention : Reuss Voigt Hill
#
# Bulk Modulus (GPa) = 6.92014 26.03942 16.47978
# Shear Modulus (GPa) = 14.58089 22.58265 18.58177
#
# Velocity S-wave (km/s) = 2.86027 3.55961 3.22893
# Velocity P-wave (km/s) = 3.84591 5.61292 4.81123
#
# Compressibility (1/GPa) = 0.14450565
#
# Stress axis : x y z
#
# Youngs Moduli (GPa) = 71.29970 11.33175 19.62679
#
# Poissons Ratio (x) = 0.08698 0.31755
# Poissons Ratio (y) = 0.54726 -0.38264
# Poissons Ratio (z) = 1.15358 -0.22092
#
# Static dielectric constant tensor:
#      x y z
#    x 1.630930 0.000000 0.002790 
#    y 0.000000 1.605990 0.000000 
#    z 0.002790 0.000000 1.585610 
# 
# From -- ./inp_files/249177.got.cif
#   From: 2010.05.17/outbox.cif.g08.bks.cpg/sg12_125_cif.got.tgz:249177.got - 2010.06.03 13:09:07.
