data_PCOD9172277
_publ_section_title
;
Structure prediction by ZEFSAII (Michael W. Deem and Ramdas Pophale) SiO2 
 PCOD9172277
Probable space group: C 2/M
;
_chemical_formula_sum "Si O2"
_cell_formula_units_Z 64
_cell_length_a 8.461057
_cell_length_b 30.175361
_cell_length_c 13.237517
_cell_angle_alpha 90.000000
_cell_angle_beta 87.412239
_cell_angle_gamma 90.000000
_cell_volume 3376.296066
_symmetry_space_group_name_H-M "C 2/M"
_symmetry_group_IT_number 12
_symmetry_cell_setting 'monoclinic'
loop_
_space_group_symop_operation_xyz
x,y,z
-x,y,-z
-x,-y,-z
x,-y,z
1/2+x,1/2+y,z
1/2-x,1/2+y,-z
1/2-x,1/2-y,-z
1/2+x,1/2-y,z
loop_
_atom_site_type_symbol
_atom_site_label
_atom_site_fract_x
_atom_site_fract_y
_atom_site_fract_z
Si Si1 0.684760 0.400002 0.484457
Si Si2 0.194707 0.187718 0.386256
Si Si3 0.194373 0.551830 0.720440
Si Si4 0.693941 0.143028 0.813983
Si Si5 0.616018 0.804551 0.212965
Si Si6 0.807294 0.801131 0.004412
Si Si7 0.107770 0.548475 0.394764
Si Si8 0.097430 0.233577 0.676117
O O1 0.500000 0.398322 0.500000
O O2 0.743322 0.351069 0.458646
O O3 0.723431 0.431435 0.386513
O O4 0.761181 0.416075 0.585876
O O5 0.198976 0.165234 0.275125
O O6 0.320634 0.226559 0.385432
O O7 0.020324 0.207264 0.391311
O O8 0.233338 0.500000 0.740608
O O9 0.219289 0.590040 0.803571
O O10 0.009121 0.553666 0.694726
O O11 0.517046 0.157276 0.782791
O O12 0.738818 0.168044 0.916175
O O13 0.758008 0.796184 0.287880
O O14 0.507596 0.759153 0.232649
O O15 0.716074 0.813810 0.109222
O O16 0.750000 0.750000 0.000000
O O17 0.000000 0.803537 0.000000
O O18 0.182401 0.500000 0.388601
O O19 0.000000 0.549850 0.500000
#
# Coordination Sequence:
#
# PCOD9172277 Si02
#       8
#     8   8   8   8   8   8   8   8
#     4  10  19  30  50  80 105 127 166 218 266 312
#     4   9  18  32  46  68 101 137 175 215 256 300
#     4   9  19  37  57  75 100 133 167 209 262 317
#     4  10  20  32  51  78 102 131 171 212 258 307
#     4  10  18  29  48  72 101 134 171 212 249 289
#     4  12  21  31  50  79 111 139 169 207 251 295
#     4   8  15  30  51  73  95 120 155 202 257 310
#     4   9  17  32  50  69 101 142 179 213 249 298
#
# _framework density 18.955684999999999
#
# number of rings (size 3 to 8) (size 9 to 14) (size 15 to 20)
#    0.000    2.375    0.000    6.000    0.000    2.000 
#    0.000    4.375    0.000    1.875    0.000    0.000 
#    0.000    0.000    0.000    0.000    0.000    0.000 
#
# Total GULP energy -178170.959917 kJ/mol
# GULP energy per Si atom -5567.842497 kJ/mol
# Density = 1.891254 g / cm^3
# Si number density = 18.955685 Si / 1000 Ang^3
#
#
#
# Elastic Constant Matrix: (Units=GPa)
#
#
# Indices 1 2 3 4 5 6 
#
# 1 73.9436 26.3263 17.0164 0.0000 -1.3767 0.0000
# 2 26.3263 121.7228 38.1336 0.0000 0.4270 0.0000
# 3 17.0164 38.1336 52.4887 0.0000 -3.9519 0.0000
# 4 0.0000 0.0000 0.0000 44.0790 0.0000 4.1966
# 5 -1.3767 0.4270 -3.9519 0.0000 6.4609 0.0000
# 6 0.0000 0.0000 0.0000 4.1966 0.0000 12.3199
#
#
#
# Elastic Compliance Matrix: (Units=1/GPa)
#
#
# Indices 1 2 3 4 5 6 
#
# 1 0.015084 -0.002291 -0.003115 0.000000 0.001460 0.000000
# 2 -0.002291 0.011188 -0.007839 0.000000 -0.006022 0.000000
# 3 -0.003115 -0.007839 0.026988 0.000000 0.016362 0.000000
# 4 0.000000 0.000000 0.000000 0.023447 0.000000 -0.007987
# 5 0.001460 -0.006022 0.016362 0.000000 0.165494 0.000000
# 6 0.000000 0.000000 0.000000 -0.007987 0.000000 0.083890
#
#
# Mechanical properties :
#
#
# Convention : Reuss Voigt Hill
#
# Bulk Modulus (GPa) = 37.35638 45.67860 41.51749
# Shear Modulus (GPa) = 13.83108 23.68390 18.75749
#
# Velocity S-wave (km/s) = 2.70414 3.53857 3.14912
# Velocity P-wave (km/s) = 5.43137 6.39102 5.93064
#
# Compressibility (1/GPa) = 0.02676919
#
# Stress axis : x y z
#
# Youngs Moduli (GPa) = 66.29644 89.38299 37.05298
#
# Poissons Ratio (x) = 0.20482 0.11543
# Poissons Ratio (y) = 0.15192 0.29044
# Poissons Ratio (z) = 0.20653 0.70064
#
# Static dielectric constant tensor:
#      x y z
#    x 1.708590 0.000000 -0.010830 
#    y 0.000000 1.715330 0.000000 
#    z -0.010830 0.000000 1.723370 
# 
# From -- ./inp_files/199879.got.cif
#   From: 2010.05.17/outbox.cif.g08.bks.cpg/sg12_100_cif.got.tgz:199879.got - 2010.06.03 13:09:07.
