data_PCOD9172459
_publ_section_title
;
Structure prediction by ZEFSAII (Michael W. Deem and Ramdas Pophale) SiO2 
 PCOD9172459
Probable space group: C 2/M
;
_chemical_formula_sum "Si O2"
_cell_formula_units_Z 38
_cell_length_a 13.902985
_cell_length_b 18.430118
_cell_length_c 14.756984
_cell_angle_alpha 90.000000
_cell_angle_beta 28.592040
_cell_angle_gamma 90.000000
_cell_volume 1809.585615
_symmetry_space_group_name_H-M "C 2/M"
_symmetry_group_IT_number 12
_symmetry_cell_setting 'monoclinic'
loop_
_space_group_symop_operation_xyz
x,y,z
-x,y,-z
-x,-y,-z
x,-y,z
1/2+x,1/2+y,z
1/2-x,1/2+y,-z
1/2-x,1/2-y,-z
1/2+x,1/2-y,z
loop_
_atom_site_type_symbol
_atom_site_label
_atom_site_fract_x
_atom_site_fract_y
_atom_site_fract_z
Si Si1 0.000000 0.126219 0.000000
Si Si2 0.204336 0.871189 0.006714
Si Si3 0.000000 0.000000 0.500000
Si Si4 0.561067 0.231664 0.718940
Si Si5 0.725144 0.742451 0.281458
Si Si6 0.220882 0.600542 0.856728
O O1 0.173974 0.181129 0.822806
O O2 0.903393 0.090643 0.989995
O O3 0.251040 0.915149 0.059815
O O4 0.057186 0.805265 0.158721
O O5 0.410111 0.829724 0.807987
O O6 0.886564 0.062281 0.657046
O O7 0.750000 0.250000 0.500000
O O8 0.653108 0.204936 0.737665
O O9 0.500000 0.751888 0.500000
O O10 0.746378 0.687274 0.181330
O O11 0.000000 0.582734 0.000000
#
# Coordination Sequence:
#
# PCOD9172459 Si02
#       6
#     4   8   2   8   8   8
#     4  10  20  34  52  92 120 152 176 208 258 370
#     4  10  20  33  54  79 118 148 183 219 276 337
#     4  12  30  40  60  80 102 142 212 256 300 322
#     4  10  18  29  49  85 116 158 180 208 262 353
#     4  11  18  30  53  79 120 151 182 212 273 331
#     4  12  22  41  57  80 109 150 189 248 290 330
#
# _framework density 20.999283999999999
#
# number of rings (size 3 to 8) (size 9 to 14) (size 15 to 20)
#    0.000    1.263    4.211    5.368    0.000    0.000 
#    0.000    0.000    0.000    0.632    0.000    1.474 
#    0.000    0.000    0.000    0.000    0.000    0.000 
#
# Total GULP energy -105807.257054 kJ/mol
# GULP energy per Si atom -5568.803003 kJ/mol
# Density = 2.095149 g / cm^3
# Si number density = 20.999284 Si / 1000 Ang^3
#
#
#
# Elastic Constant Matrix: (Units=GPa)
#
#
# Indices 1 2 3 4 5 6 
#
# 1 210.9778 17.8871 45.3165 -0.0032 15.7563 0.0013
# 2 17.8871 50.4440 21.4644 -0.0146 1.5871 0.0051
# 3 45.3165 21.4644 153.4574 -0.0220 -5.5159 0.0152
# 4 -0.0032 -0.0146 -0.0220 30.4719 0.0080 3.6188
# 5 15.7563 1.5871 -5.5159 0.0080 30.2052 -0.0028
# 6 0.0013 0.0051 0.0152 3.6188 -0.0028 -16.7691
#
#
#
# Elastic Compliance Matrix: (Units=1/GPa)
#
#
# Indices 1 2 3 4 5 6 
#
# 1 0.005396 -0.001163 -0.001540 0.000000 -0.003035 -0.000001
# 2 -0.001163 0.021412 -0.002688 0.000008 -0.001009 0.000006
# 3 -0.001540 -0.002688 0.007430 0.000003 0.002301 0.000006
# 4 0.000000 0.000008 0.000003 0.031997 -0.000008 0.006905
# 5 -0.003035 -0.001009 0.002301 -0.000008 0.035163 -0.000006
# 6 -0.000001 0.000006 0.000006 0.006905 -0.000006 -0.058143
#
#
# Mechanical properties :
#
#
# Convention : Reuss Voigt Hill
#
# Bulk Modulus (GPa) = 42.63173 64.91279 53.77226
# Shear Modulus (GPa) = 80.83564 30.79568 55.81566
#
# Velocity S-wave (km/s) = 6.21112 3.83366 5.16115
# Velocity P-wave (km/s) = 8.47248 7.11161 7.82170
#
# Compressibility (1/GPa) = 0.02345671
#
# Stress axis : x y z
#
# Youngs Moduli (GPa) = 185.32930 46.70345 134.59194
#
# Poissons Ratio (x) = 0.05430 0.20725
# Poissons Ratio (y) = 0.21547 0.36176
# Poissons Ratio (z) = 0.28538 0.12553
#
# Static dielectric constant tensor:
#      x y z
#    x 1.893040 0.000010 0.034200 
#    y 0.000010 1.756200 0.000010 
#    z 0.034200 0.000010 1.763490 
# 
# From -- ./inp_files/218063.got.cif
#   From: 2010.05.17/outbox.cif.g08.bks.cpg/sg12_110_cif.got.tgz:218063.got - 2010.06.03 13:09:07.
