data_PCOD9172029
_publ_section_title
;
Structure prediction by ZEFSAII (Michael W. Deem and Ramdas Pophale) SiO2 
 PCOD9172029
Probable space group: C 2/M
;
_chemical_formula_sum "Si O2"
_cell_formula_units_Z 48
_cell_length_a 8.683217
_cell_length_b 20.489208
_cell_length_c 19.045351
_cell_angle_alpha 90.000000
_cell_angle_beta 53.346203
_cell_angle_gamma 90.000000
_cell_volume 2718.369490
_symmetry_space_group_name_H-M "C 2/M"
_symmetry_group_IT_number 12
_symmetry_cell_setting 'monoclinic'
loop_
_space_group_symop_operation_xyz
x,y,z
-x,y,-z
-x,-y,-z
x,-y,z
1/2+x,1/2+y,z
1/2-x,1/2+y,-z
1/2-x,1/2-y,-z
1/2+x,1/2-y,z
loop_
_atom_site_type_symbol
_atom_site_label
_atom_site_fract_x
_atom_site_fract_y
_atom_site_fract_z
Si Si1 0.126238 0.816402 0.033229
Si Si2 0.212430 0.341444 0.765135
Si Si3 0.563214 0.074024 0.063779
Si Si4 0.535140 0.806171 0.410370
Si Si5 0.330446 0.339355 0.588206
Si Si6 0.436555 0.700353 0.231836
O O1 0.005066 0.824998 0.137526
O O2 0.250000 0.750000 0.000000
O O3 0.253696 0.879707 0.985739
O O4 0.000000 0.807409 0.000000
O O5 0.268570 0.374309 0.676265
O O6 0.396140 0.314661 0.757979
O O7 0.089735 0.277953 0.774659
O O8 0.095638 0.389351 0.846631
O O9 0.596148 0.000000 0.078808
O O10 0.500000 0.072231 0.000000
O O11 0.500000 0.831208 0.500000
O O12 0.569995 0.728347 0.411479
O O13 0.351034 0.821425 0.411836
O O14 0.734169 0.826298 0.317745
O O15 0.500000 0.374117 0.500000
#
# Coordination Sequence:
#
# PCOD9172029 Si02
#       6
#     8   8   8   8   8   8
#     4  12  23  36  60  86 116 147 190 235 282 335
#     4  11  20  33  55  81 112 145 190 230 282 335
#     4  11  24  42  58  79 114 154 191 235 286 339
#     4  10  18  29  45  74 116 148 175 222 282 340
#     4  10  18  29  48  75 109 146 182 224 277 336
#     4  11  20  31  52  84 109 146 184 231 279 330
#
# _framework density 17.657643
#
# number of rings (size 3 to 8) (size 9 to 14) (size 15 to 20)
#    0.000    1.167    3.333    8.500    2.333    0.333 
#    0.000    0.000    0.000    0.500    0.000    0.000 
#    0.000    3.333    0.000    0.000    0.000    0.000 
#
# Total GULP energy -133838.258490 kJ/mol
# GULP energy per Si atom -5576.594104 kJ/mol
# Density = 1.761745 g / cm^3
# Si number density = 17.657643 Si / 1000 Ang^3
#
#
#
# Elastic Constant Matrix: (Units=GPa)
#
#
# Indices 1 2 3 4 5 6 
#
# 1 94.5167 51.2749 71.1567 0.0000 11.1160 0.0000
# 2 51.2749 73.1612 39.1293 0.0000 -11.3898 0.0000
# 3 71.1567 39.1293 196.8064 0.0000 -2.2828 0.0000
# 4 0.0000 0.0000 0.0000 1.6315 0.0000 0.9462
# 5 11.1160 -11.3898 -2.2828 0.0000 34.8779 0.0000
# 6 0.0000 0.0000 0.0000 0.9462 0.0000 4.7738
#
#
#
# Elastic Compliance Matrix: (Units=1/GPa)
#
#
# Indices 1 2 3 4 5 6 
#
# 1 0.026505 -0.017488 -0.006275 0.000000 -0.014569 0.000000
# 2 -0.017488 0.027680 0.000990 0.000000 0.014678 0.000000
# 3 -0.006275 0.000990 0.007186 0.000000 0.002793 0.000000
# 4 0.000000 0.000000 0.000000 0.692548 0.000000 -0.137262
# 5 -0.014569 0.014678 0.002793 0.000000 0.038291 0.000000
# 6 0.000000 0.000000 0.000000 -0.137262 0.000000 0.236682
#
#
# Mechanical properties :
#
#
# Convention : Reuss Voigt Hill
#
# Bulk Modulus (GPa) = 63.19357 76.40068 69.79712
# Shear Modulus (GPa) = 4.63086 21.78485 13.20786
#
# Velocity S-wave (km/s) = 1.62120 3.51627 2.73792
# Velocity P-wave (km/s) = 6.27457 7.73610 7.04335
#
# Compressibility (1/GPa) = 0.01582440
#
# Stress axis : x y z
#
# Youngs Moduli (GPa) = 37.72905 36.12652 139.16806
#
# Poissons Ratio (x) = 0.63177 0.87328
# Poissons Ratio (y) = 0.65980 -0.13772
# Poissons Ratio (z) = 0.23675 -0.03575
#
# Static dielectric constant tensor:
#      x y z
#    x 1.596450 0.000000 -0.017860 
#    y 0.000000 1.608780 0.000000 
#    z -0.017860 0.000000 1.711350 
# 
# From -- ./inp_files/256461.got.cif
#   From: 2010.05.17/outbox.cif.g08.bks.cpg/sg12_129_cif.got.tgz:256461.got - 2010.06.03 13:09:07.
