data_PCOD9172928
_publ_section_title
;
Structure prediction by ZEFSAII (Michael W. Deem and Ramdas Pophale) SiO2 
 PCOD9172928
Probable space group: C 2/M
;
_chemical_formula_sum "Si O2"
_cell_formula_units_Z 64
_cell_length_a 27.760883
_cell_length_b 13.388336
_cell_length_c 11.637391
_cell_angle_alpha 90.000000
_cell_angle_beta 138.406881
_cell_angle_gamma 90.000000
_cell_volume 2871.286755
_symmetry_space_group_name_H-M "C 2/M"
_symmetry_group_IT_number 12
_symmetry_cell_setting 'monoclinic'
loop_
_space_group_symop_operation_xyz
x,y,z
-x,y,-z
-x,-y,-z
x,-y,z
1/2+x,1/2+y,z
1/2-x,1/2+y,-z
1/2-x,1/2-y,-z
1/2+x,1/2-y,z
loop_
_atom_site_type_symbol
_atom_site_label
_atom_site_fract_x
_atom_site_fract_y
_atom_site_fract_z
Si Si1 0.625681 0.614050 0.964473
Si Si2 0.529787 0.879131 0.680369
Si Si3 0.182003 0.881203 0.450962
Si Si4 0.388002 0.889007 0.534364
Si Si5 0.760542 0.786534 0.679053
Si Si6 0.317422 0.609399 0.177080
Si Si7 0.835790 0.667869 0.200696
Si Si8 0.482765 0.621038 0.840067
O O1 0.638774 0.500000 0.031585
O O2 0.692582 0.679329 0.129323
O O3 0.626749 0.607001 0.829742
O O4 0.549024 0.649640 0.876418
O O5 0.500000 0.852850 0.500000
O O6 0.470145 0.847430 0.668520
O O7 0.609936 0.834464 0.811644
O O8 0.535130 0.000000 0.697616
O O9 0.195452 0.829544 0.351345
O O10 0.243181 0.830577 0.639349
O O11 0.099719 0.855934 0.342007
O O12 0.188944 0.000000 0.454433
O O13 0.319741 0.834981 0.469193
O O14 0.364893 0.895523 0.358879
O O15 0.392934 0.000000 0.593018
O O16 0.322062 0.500000 0.245351
O O17 0.330034 0.720916 0.246753
O O18 0.238659 0.622210 0.978095
O O19 0.484448 0.500000 0.847089
O O20 0.500000 0.657423 0.000000
#
# Coordination Sequence:
#
# PCOD9172928 Si02
#       8
#     8   8   8   8   8   8   8   8
#     4  10  18  31  53  77 101 128 169 214 250 292
#     4   8  15  27  46  70  93 121 155 200 247 283
#     4  10  21  35  50  77 109 133 163 206 253 303
#     4  10  18  31  53  75  96 123 166 211 246 288
#     4  11  20  31  54  78 100 133 168 208 253 295
#     4  10  20  31  47  71  98 129 165 210 249 293
#     4  10  18  30  49  70  97 127 162 207 252 295
#     4   9  16  29  51  75 101 131 162 204 253 294
#
# _framework density 22.289656999999998
#
# number of rings (size 3 to 8) (size 9 to 14) (size 15 to 20)
#    0.000    2.250    2.500    3.000    0.000    1.000 
#    0.000    0.625    0.000    3.375    0.000    8.750 
#    0.000    0.000    0.000    0.000    0.000    0.000 
#
# Total GULP energy -178390.817306 kJ/mol
# GULP energy per Si atom -5574.713041 kJ/mol
# Density = 2.223893 g / cm^3
# Si number density = 22.289657 Si / 1000 Ang^3
#
#
#
# Elastic Constant Matrix: (Units=GPa)
#
#
# Indices 1 2 3 4 5 6 
#
# 1 97.1399 7.0292 7.9434 0.0000 41.0296 0.0000
# 2 7.0292 113.4379 25.4500 0.0000 13.7090 0.0000
# 3 7.9434 25.4500 35.3792 0.0000 15.8323 0.0000
# 4 0.0000 0.0000 0.0000 26.6114 0.0000 7.4474
# 5 41.0296 13.7090 15.8323 0.0000 31.7826 0.0000
# 6 0.0000 0.0000 0.0000 7.4474 0.0000 22.3627
#
#
#
# Elastic Compliance Matrix: (Units=1/GPa)
#
#
# Indices 1 2 3 4 5 6 
#
# 1 0.026013 0.000604 0.011413 0.000000 -0.039527 0.000000
# 2 0.000604 0.010550 -0.006871 0.000000 -0.001908 0.000000
# 3 0.011413 -0.006871 0.046215 0.000000 -0.034791 0.000000
# 4 0.000000 0.000000 0.000000 0.041440 0.000000 -0.013801
# 5 -0.039527 -0.001908 -0.034791 0.000000 0.100645 0.000000
# 6 0.000000 0.000000 0.000000 -0.013801 0.000000 0.049313
#
#
# Mechanical properties :
#
#
# Convention : Reuss Voigt Hill
#
# Bulk Modulus (GPa) = 10.74455 36.31136 23.52795
# Shear Modulus (GPa) = 16.95457 29.85364 23.40411
#
# Velocity S-wave (km/s) = 2.76098 3.66368 3.24388
# Velocity P-wave (km/s) = 3.87232 5.85003 4.96073
#
# Compressibility (1/GPa) = 0.09307048
#
# Stress axis : x y z
#
# Youngs Moduli (GPa) = 38.44289 94.78619 21.63822
#
# Poissons Ratio (x) = -0.05729 -0.24696
# Poissons Ratio (y) = -0.02324 0.14868
# Poissons Ratio (z) = -0.43876 0.65127
#
# Static dielectric constant tensor:
#      x y z
#    x 1.892480 0.000000 0.026710 
#    y 0.000000 1.893930 0.000000 
#    z 0.026710 0.000000 1.828580 
# 
# From -- ./inp_files/250894.got.cif
#   From: 2010.05.17/outbox.cif.g08.bks.cpg/sg12_126_cif.got.tgz:250894.got - 2010.06.03 13:09:07.
