data_PCOD9172273
_publ_section_title
;
Structure prediction by ZEFSAII (Michael W. Deem and Ramdas Pophale) SiO2 
 PCOD9172273
Probable space group: C 2/M
;
_chemical_formula_sum "Si O2"
_cell_formula_units_Z 40
_cell_length_a 13.982065
_cell_length_b 20.524072
_cell_length_c 5.464580
_cell_angle_alpha 90.000000
_cell_angle_beta 81.073094
_cell_angle_gamma 90.000000
_cell_volume 1549.169547
_symmetry_space_group_name_H-M "C 2/M"
_symmetry_group_IT_number 12
_symmetry_cell_setting 'monoclinic'
loop_
_space_group_symop_operation_xyz
x,y,z
-x,y,-z
-x,-y,-z
x,-y,z
1/2+x,1/2+y,z
1/2-x,1/2+y,-z
1/2-x,1/2-y,-z
1/2+x,1/2-y,z
loop_
_atom_site_type_symbol
_atom_site_label
_atom_site_fract_x
_atom_site_fract_y
_atom_site_fract_z
Si Si1 0.100277 0.265090 0.510743
Si Si2 0.637115 0.750703 0.005674
Si Si3 0.056000 0.921137 0.727199
Si Si4 0.889104 0.405737 0.012021
Si Si5 0.783719 0.395383 0.555288
O O1 0.102436 0.226552 0.760275
O O2 0.185767 0.318245 0.473545
O O3 0.000000 0.303290 0.500000
O O4 0.102931 0.220654 0.271453
O O5 0.607306 0.826562 0.000400
O O6 0.750000 0.750000 0.000000
O O7 0.170555 0.904288 0.651446
O O8 0.000000 0.902927 0.500000
O O9 0.054758 0.000000 0.738302
O O10 0.000000 0.899749 0.000000
O O11 0.824138 0.421715 0.278048
O O12 0.840579 0.422953 0.771130
O O13 0.000000 0.427646 0.000000
#
# Coordination Sequence:
#
# PCOD9172273 Si02
#       5
#     8   8   8   8   8
#     4  10  19  33  53  75  99 134 172 207 258 317
#     4  10  18  29  48  71  98 131 170 210 246 293
#     4  10  21  37  57  80 105 138 178 216 258 308
#     4  10  19  33  55  80 104 137 174 209 260 320
#     4  10  18  32  56  78 102 136 173 214 254 308
#
# _framework density 25.820285999999999
#
# number of rings (size 3 to 8) (size 9 to 14) (size 15 to 20)
#    0.000    2.000    0.000    7.800    0.000    0.000 
#    0.000    0.000    0.000   69.000    0.000    0.000 
#    0.000    0.000    0.000    0.000    0.000    0.000 
#
# Total GULP energy -111752.236506 kJ/mol
# GULP energy per Si atom -5587.611825 kJ/mol
# Density = 2.576152 g / cm^3
# Si number density = 25.820286 Si / 1000 Ang^3
#
#
#
# Elastic Constant Matrix: (Units=GPa)
#
#
# Indices 1 2 3 4 5 6 
#
# 1 234.4812 20.4185 115.5720 0.0000 3.4633 0.0000
# 2 20.4185 92.4295 28.6273 0.0000 -7.6646 0.0000
# 3 115.5720 28.6273 342.2976 0.0000 5.6638 0.0000
# 4 0.0000 0.0000 0.0000 -5.5026 0.0000 -10.6711
# 5 3.4633 -7.6646 5.6638 0.0000 54.6018 0.0000
# 6 0.0000 0.0000 0.0000 -10.6711 0.0000 4.8507
#
#
#
# Elastic Compliance Matrix: (Units=1/GPa)
#
#
# Indices 1 2 3 4 5 6 
#
# 1 0.005153 -0.000637 -0.001683 0.000000 -0.000242 0.000000
# 2 -0.000637 0.011338 -0.000761 0.000000 0.001711 0.000000
# 3 -0.001683 -0.000761 0.003559 0.000000 -0.000369 0.000000
# 4 0.000000 0.000000 0.000000 -0.034509 0.000000 -0.075916
# 5 -0.000242 0.001711 -0.000369 0.000000 0.018608 0.000000
# 6 0.000000 0.000000 0.000000 -0.075916 0.000000 0.039146
#
#
# Mechanical properties :
#
#
# Convention : Reuss Voigt Hill
#
# Bulk Modulus (GPa) = 72.00689 110.93822 91.47255
# Shear Modulus (GPa) = 92.44301 44.42936 68.43618
#
# Velocity S-wave (km/s) = 5.99001 4.15265 5.15387
# Velocity P-wave (km/s) = 8.70566 8.12721 8.42140
#
# Compressibility (1/GPa) = 0.01388756
#
# Stress axis : x y z
#
# Youngs Moduli (GPa) = 194.05738 88.20276 280.95279
#
# Poissons Ratio (x) = 0.05621 0.47273
# Poissons Ratio (y) = 0.12367 0.21390
# Poissons Ratio (z) = 0.32652 0.06715
#
# Static dielectric constant tensor:
#      x y z
#    x 2.063450 0.000000 -0.116860 
#    y 0.000000 2.035480 0.000000 
#    z -0.116860 0.000000 2.221270 
# 
# From -- ./inp_files/7674.got.cif
#   From: 2010.05.17/outbox.cif.g08.bks.cpg/sg12_4_cif.got.tgz:7674.got - 2010.06.03 13:09:07.
