data_PCOD9172226
_publ_section_title
;
Structure prediction by ZEFSAII (Michael W. Deem and Ramdas Pophale) SiO2 
 PCOD9172226
Probable space group: C 2/M
;
_chemical_formula_sum "Si O2"
_cell_formula_units_Z 64
_cell_length_a 17.065166
_cell_length_b 13.781083
_cell_length_c 14.908758
_cell_angle_alpha 90.000000
_cell_angle_beta 99.753646
_cell_angle_gamma 90.000000
_cell_volume 3455.508085
_symmetry_space_group_name_H-M "C 2/M"
_symmetry_group_IT_number 12
_symmetry_cell_setting 'monoclinic'
loop_
_space_group_symop_operation_xyz
x,y,z
-x,y,-z
-x,-y,-z
x,-y,z
1/2+x,1/2+y,z
1/2-x,1/2+y,-z
1/2-x,1/2-y,-z
1/2+x,1/2-y,z
loop_
_atom_site_type_symbol
_atom_site_label
_atom_site_fract_x
_atom_site_fract_y
_atom_site_fract_z
Si Si1 0.787114 0.385908 0.256988
Si Si2 0.663212 0.390819 0.823320
Si Si3 0.265105 0.112192 0.530070
Si Si4 0.966119 0.884675 0.360073
Si Si5 0.406627 0.388983 0.989370
Si Si6 0.732423 0.274342 0.099560
Si Si7 0.139524 0.888963 0.341445
Si Si8 0.649460 0.246567 0.584284
O O1 0.796555 0.500000 0.276350
O O2 0.786052 0.360272 0.152386
O O3 0.699693 0.353682 0.276740
O O4 0.847059 0.323375 0.328608
O O5 0.693422 0.500000 0.820349
O O6 0.596399 0.377110 0.734478
O O7 0.620651 0.381453 0.912196
O O8 0.736511 0.316765 0.837546
O O9 0.195559 0.110197 0.440384
O O10 0.335221 0.174427 0.496916
O O11 0.224358 0.178137 0.597921
O O12 0.283361 0.000000 0.555634
O O13 0.926344 0.816157 0.426880
O O14 0.052988 0.848196 0.346467
O O15 0.969863 0.000000 0.386620
O O16 0.388492 0.500000 0.956530
O O17 0.500000 0.374164 0.000000
O O18 0.357064 0.313104 0.921306
O O19 0.750000 0.250000 0.000000
O O20 0.121509 0.000000 0.312373
#
# Coordination Sequence:
#
# PCOD9172226 Si02
#       8
#     8   8   8   8   8   8   8   8
#     4  10  19  33  52  76 101 130 167 207 250 297
#     4   9  18  31  45  68 103 131 162 203 238 289
#     4   9  18  33  50  74 103 130 166 206 248 297
#     4  10  18  29  47  74 104 132 162 201 250 297
#     4   9  18  30  48  75 102 127 156 200 255 299
#     4  10  19  32  49  72 103 132 168 197 243 298
#     4   8  17  30  47  73 104 131 158 202 256 307
#     4  10  18  30  50  74 102 130 166 202 247 298
#
# _framework density 18.521155
#
# number of rings (size 3 to 8) (size 9 to 14) (size 15 to 20)
#    0.000    2.625    1.250    1.875    1.750    1.000 
#    0.000    1.875    0.000    0.375    0.000   43.750 
#    0.000    0.000    0.000    0.000    0.000    0.000 
#
# Total GULP energy -178142.094200 kJ/mol
# GULP energy per Si atom -5566.940444 kJ/mol
# Density = 1.847900 g / cm^3
# Si number density = 18.521155 Si / 1000 Ang^3
#
#
#
# Elastic Constant Matrix: (Units=GPa)
#
#
# Indices 1 2 3 4 5 6 
#
# 1 73.4999 42.6010 5.5261 0.0000 2.4028 0.0000
# 2 42.6010 111.9390 17.1806 0.0000 -0.2643 0.0000
# 3 5.5261 17.1806 50.8581 0.0000 9.3381 0.0000
# 4 0.0000 0.0000 0.0000 22.0571 0.0000 -4.0764
# 5 2.4028 -0.2643 9.3381 0.0000 15.8431 0.0000
# 6 0.0000 0.0000 0.0000 -4.0764 0.0000 21.3450
#
#
#
# Elastic Compliance Matrix: (Units=1/GPa)
#
#
# Indices 1 2 3 4 5 6 
#
# 1 0.017622 -0.006873 0.001030 0.000000 -0.003394 0.000000
# 2 -0.006873 0.012176 -0.004032 0.000000 0.003622 0.000000
# 3 0.001030 -0.004032 0.023496 0.000000 -0.014072 0.000000
# 4 0.000000 0.000000 0.000000 0.046996 0.000000 0.008975
# 5 -0.003394 0.003622 -0.014072 0.000000 0.071988 0.000000
# 6 0.000000 0.000000 0.000000 0.008975 0.000000 0.048563
#
#
# Mechanical properties :
#
#
# Convention : Reuss Voigt Hill
#
# Bulk Modulus (GPa) = 29.80901 40.76806 35.28853
# Shear Modulus (GPa) = 19.85913 23.24832 21.55373
#
# Velocity S-wave (km/s) = 3.27806 3.54677 3.41506
# Velocity P-wave (km/s) = 5.51879 6.23154 5.88597
#
# Compressibility (1/GPa) = 0.03354690
#
# Stress axis : x y z
#
# Youngs Moduli (GPa) = 56.74565 82.12640 42.55978
#
# Poissons Ratio (x) = 0.56444 -0.04384
# Poissons Ratio (y) = 0.39000 0.17158
# Poissons Ratio (z) = -0.05846 0.33110
#
# Static dielectric constant tensor:
#      x y z
#    x 1.634310 0.000000 -0.029660 
#    y 0.000000 1.677950 0.000000 
#    z -0.029660 0.000000 1.722140 
# 
# From -- ./inp_files/276533.got.cif
#   From: 2010.05.17/outbox.cif.g08.bks.cpg/sg12_139_cif.got.tgz:276533.got - 2010.06.03 13:09:07.
