data_PCOD9172021
_publ_section_title
;
Structure prediction by ZEFSAII (Michael W. Deem and Ramdas Pophale) SiO2 
 PCOD9172021
Probable space group: C 2/M
;
_chemical_formula_sum "Si O2"
_cell_formula_units_Z 64
_cell_length_a 20.985305
_cell_length_b 14.576614
_cell_length_c 8.976680
_cell_angle_alpha 90.000000
_cell_angle_beta 75.216993
_cell_angle_gamma 90.000000
_cell_volume 2655.026389
_symmetry_space_group_name_H-M "C 2/M"
_symmetry_group_IT_number 12
_symmetry_cell_setting 'monoclinic'
loop_
_space_group_symop_operation_xyz
x,y,z
-x,y,-z
-x,-y,-z
x,-y,z
1/2+x,1/2+y,z
1/2-x,1/2+y,-z
1/2-x,1/2-y,-z
1/2+x,1/2-y,z
loop_
_atom_site_type_symbol
_atom_site_label
_atom_site_fract_x
_atom_site_fract_y
_atom_site_fract_z
Si Si1 0.190317 0.106848 0.498590
Si Si2 0.214223 0.612204 0.313289
Si Si3 0.983803 0.901486 0.185209
Si Si4 0.338878 0.224846 0.918739
Si Si5 0.504110 0.201770 0.172038
Si Si6 0.589140 0.102620 0.582106
Si Si7 0.814101 0.397937 0.202688
Si Si8 0.375733 0.395025 0.739984
O O1 0.221259 0.145097 0.632321
O O2 0.251234 0.111290 0.346823
O O3 0.130734 0.139045 0.427948
O O4 0.178356 0.000000 0.537881
O O5 0.216033 0.500000 0.303578
O O6 0.204098 0.662276 0.165047
O O7 0.147588 0.639704 0.443276
O O8 0.960650 0.796474 0.209005
O O9 0.049851 0.898801 0.245129
O O10 0.950164 0.000000 0.240358
O O11 0.000000 0.906903 0.000000
O O12 0.417534 0.211285 0.852445
O O13 0.333536 0.330712 0.874085
O O14 0.321454 0.187062 0.089849
O O15 0.478988 0.147474 0.331045
O O16 0.500000 0.169570 0.000000
O O17 0.623921 0.100325 0.723940
O O18 0.577357 0.000000 0.535024
O O19 0.811786 0.500000 0.130607
O O20 0.351933 0.500000 0.758909
#
# Coordination Sequence:
#
# PCOD9172021 Si02
#       8
#     8   8   8   8   8   8   8   8
#     4   8  16  33  52  68  95 134 163 189 233 295
#     4   9  19  34  49  70  99 130 163 196 236 282
#     4   8  15  28  47  71  97 122 151 199 248 280
#     4  11  20  29  49  75  96 124 163 210 242 269
#     4  10  18  29  45  70  98 126 163 198 236 287
#     4   9  18  32  48  66  98 138 162 185 232 295
#     4   9  17  30  48  71  99 129 160 194 238 285
#     4   9  18  32  50  72  96 127 164 195 238 297
#
# _framework density 24.105222000000001
#
# number of rings (size 3 to 8) (size 9 to 14) (size 15 to 20)
#    0.000    2.875    1.250    1.875    0.000    2.750 
#    0.000    1.250    0.000    0.750    0.000    6.125 
#    0.000    0.000    0.000    0.000    0.000    0.000 
#
# Total GULP energy -178320.975463 kJ/mol
# GULP energy per Si atom -5572.530483 kJ/mol
# Density = 2.405036 g / cm^3
# Si number density = 24.105222 Si / 1000 Ang^3
#
#
#
# Elastic Constant Matrix: (Units=GPa)
#
#
# Indices 1 2 3 4 5 6 
#
# 1 68.8427 -14.7712 19.9223 0.0000 8.4302 0.0000
# 2 -14.7712 52.5386 19.8003 0.0000 0.9683 0.0000
# 3 19.9223 19.8003 61.0963 0.0000 11.6972 0.0000
# 4 0.0000 0.0000 0.0000 17.4283 0.0000 9.6588
# 5 8.4302 0.9683 11.6972 0.0000 34.5910 0.0000
# 6 0.0000 0.0000 0.0000 9.6588 0.0000 10.4819
#
#
#
# Elastic Compliance Matrix: (Units=1/GPa)
#
#
# Indices 1 2 3 4 5 6 
#
# 1 0.019144 0.008691 -0.008681 0.000000 -0.001973 0.000000
# 2 0.008691 0.025743 -0.011369 0.000000 0.001006 0.000000
# 3 -0.008681 -0.011369 0.023969 0.000000 -0.005671 0.000000
# 4 0.000000 0.000000 0.000000 0.117261 0.000000 -0.108053
# 5 -0.001973 0.001006 -0.005671 0.000000 0.031280 0.000000
# 6 0.000000 0.000000 0.000000 -0.108053 0.000000 0.194971
#
#
# Mechanical properties :
#
#
# Convention : Reuss Voigt Hill
#
# Bulk Modulus (GPa) = 21.67495 25.82006 23.74751
# Shear Modulus (GPa) = 11.09961 23.00200 17.05080
#
# Velocity S-wave (km/s) = 2.14817 3.09242 2.66249
# Velocity P-wave (km/s) = 3.89412 4.84617 4.39600
#
# Compressibility (1/GPa) = 0.04613621
#
# Stress axis : x y z
#
# Youngs Moduli (GPa) = 52.23449 38.84523 41.72093
#
# Poissons Ratio (x) = -0.33759 0.36219
# Poissons Ratio (y) = -0.45394 0.47434
# Poissons Ratio (z) = 0.45346 0.44164
#
# Static dielectric constant tensor:
#      x y z
#    x 2.007340 0.000000 0.015030 
#    y 0.000000 2.006920 0.000000 
#    z 0.015030 0.000000 1.910280 
# 
# From -- ./inp_files/96889.got.cif
#   From: 2010.05.17/outbox.cif.g08.bks.cpg/sg12_49_cif.got.tgz:96889.got - 2010.06.03 13:09:07.
