data_PCOD9172999
_publ_section_title
;
Structure prediction by ZEFSAII (Michael W. Deem and Ramdas Pophale) SiO2 
 PCOD9172999
Probable space group: C 2/M
;
_chemical_formula_sum "Si O2"
_cell_formula_units_Z 64
_cell_length_a 24.663576
_cell_length_b 13.596467
_cell_length_c 11.504515
_cell_angle_alpha 90.000000
_cell_angle_beta 102.607415
_cell_angle_gamma 90.000000
_cell_volume 3764.875712
_symmetry_space_group_name_H-M "C 2/M"
_symmetry_group_IT_number 12
_symmetry_cell_setting 'monoclinic'
loop_
_space_group_symop_operation_xyz
x,y,z
-x,y,-z
-x,-y,-z
x,-y,z
1/2+x,1/2+y,z
1/2-x,1/2+y,-z
1/2-x,1/2-y,-z
1/2+x,1/2-y,z
loop_
_atom_site_type_symbol
_atom_site_label
_atom_site_fract_x
_atom_site_fract_y
_atom_site_fract_z
Si Si1 0.424658 0.113960 0.707925
Si Si2 0.064959 0.615029 0.019440
Si Si3 0.725179 0.384434 0.879752
Si Si4 0.468559 0.118286 0.369452
Si Si5 0.275406 0.615799 0.394854
Si Si6 0.830249 0.704880 0.047523
Si Si7 0.157932 0.382417 0.702283
Si Si8 0.672768 0.212909 0.467853
O O1 0.489356 0.137392 0.715922
O O2 0.386057 0.181904 0.611839
O O3 0.415999 0.000000 0.665554
O O4 0.412327 0.119357 0.837996
O O5 0.066069 0.500000 0.980461
O O6 0.107429 0.676821 0.961199
O O7 0.000000 0.643601 0.000000
O O8 0.724093 0.500000 0.906728
O O9 0.712554 0.373213 0.736592
O O10 0.683106 0.319164 0.936845
O O11 0.786278 0.340901 0.936440
O O12 0.500000 0.153059 0.500000
O O13 0.406221 0.154484 0.328355
O O14 0.463607 0.000000 0.376754
O O15 0.270779 0.500000 0.417775
O O16 0.319427 0.673192 0.496162
O O17 0.218236 0.671553 0.399541
O O18 0.816877 0.655215 0.165921
O O19 0.159224 0.500000 0.701403
O O20 0.183424 0.341990 0.595488
#
# Coordination Sequence:
#
# PCOD9172999 Si02
#       8
#     8   8   8   8   8   8   8   8
#     4  10  18  30  49  74 105 140 168 198 246 309
#     4  10  20  34  53  79 112 145 173 209 260 320
#     4  10  21  38  56  74 101 140 182 221 262 310
#     4   9  16  26  42  68 105 135 158 192 243 301
#     4  10  21  37  52  70 100 134 172 215 255 306
#     4  11  21  34  54  78 103 137 180 218 262 310
#     4  11  19  29  46  76 109 133 161 209 255 302
#     4  11  20  31  51  76  99 133 171 204 258 310
#
# _framework density 16.999233
#
# number of rings (size 3 to 8) (size 9 to 14) (size 15 to 20)
#    0.000    1.750    2.500    3.750    0.000    4.000 
#    0.000    0.000    0.000    0.375    0.000    4.375 
#    0.000    0.000    0.000    0.000    0.000    0.000 
#
# Total GULP energy -178460.387416 kJ/mol
# GULP energy per Si atom -5576.887107 kJ/mol
# Density = 1.696054 g / cm^3
# Si number density = 16.999233 Si / 1000 Ang^3
#
#
#
# Elastic Constant Matrix: (Units=GPa)
#
#
# Indices 1 2 3 4 5 6 
#
# 1 73.0716 32.8358 10.4129 0.0000 -6.9444 0.0000
# 2 32.8358 96.0874 25.2496 0.0000 -3.9670 0.0000
# 3 10.4129 25.2496 51.8441 0.0000 -2.5339 0.0000
# 4 0.0000 0.0000 0.0000 23.6370 0.0000 -1.5029
# 5 -6.9444 -3.9670 -2.5339 0.0000 27.4937 0.0000
# 6 0.0000 0.0000 0.0000 -1.5029 0.0000 21.4672
#
#
#
# Elastic Compliance Matrix: (Units=1/GPa)
#
#
# Indices 1 2 3 4 5 6 
#
# 1 0.016486 -0.005354 -0.000540 0.000000 0.003342 0.000000
# 2 -0.005354 0.013712 -0.005598 0.000000 0.000110 0.000000
# 3 -0.000540 -0.005598 0.022177 0.000000 0.001100 0.000000
# 4 0.000000 0.000000 0.000000 0.042496 0.000000 0.002975
# 5 0.003342 0.000110 0.001100 0.000000 0.037333 0.000000
# 6 0.000000 0.000000 0.000000 0.002975 0.000000 0.046791
#
#
# Mechanical properties :
#
#
# Convention : Reuss Voigt Hill
#
# Bulk Modulus (GPa) = 34.02335 39.77773 36.90054
# Shear Modulus (GPa) = 23.60997 24.68658 24.14828
#
# Velocity S-wave (km/s) = 3.73082 3.81493 3.77311
# Velocity P-wave (km/s) = 6.21424 6.54641 6.38248
#
# Compressibility (1/GPa) = 0.02939158
#
# Stress axis : x y z
#
# Youngs Moduli (GPa) = 60.65932 72.92817 45.09166
#
# Poissons Ratio (x) = 0.39043 0.02437
# Poissons Ratio (y) = 0.32475 0.25240
# Poissons Ratio (z) = 0.03278 0.40822
#
# Static dielectric constant tensor:
#      x y z
#    x 1.600950 0.000000 -0.003460 
#    y 0.000000 1.566450 0.000000 
#    z -0.003460 0.000000 1.613050 
# 
# From -- ./inp_files/174693.got.cif
#   From: 2010.05.17/outbox.cif.g08.bks.cpg/sg12_88_cif.got.tgz:174693.got - 2010.06.03 13:09:07.
