data_PCOD9172604
_publ_section_title
;
Structure prediction by ZEFSAII (Michael W. Deem and Ramdas Pophale) SiO2 
 PCOD9172604
Probable space group: C 2/M
;
_chemical_formula_sum "Si O2"
_cell_formula_units_Z 44
_cell_length_a 28.222532
_cell_length_b 9.273634
_cell_length_c 7.406264
_cell_angle_alpha 90.000000
_cell_angle_beta 110.094395
_cell_angle_gamma 90.000000
_cell_volume 1820.412638
_symmetry_space_group_name_H-M "C 2/M"
_symmetry_group_IT_number 12
_symmetry_cell_setting 'monoclinic'
loop_
_space_group_symop_operation_xyz
x,y,z
-x,y,-z
-x,-y,-z
x,-y,z
1/2+x,1/2+y,z
1/2-x,1/2+y,-z
1/2-x,1/2-y,-z
1/2+x,1/2-y,z
loop_
_atom_site_type_symbol
_atom_site_label
_atom_site_fract_x
_atom_site_fract_y
_atom_site_fract_z
Si Si1 0.202855 0.500000 0.655012
Si Si2 0.908750 0.671448 0.217083
Si Si3 0.668803 0.262750 0.166285
Si Si4 0.784899 0.000000 0.028108
Si Si5 0.756214 0.500000 0.656498
Si Si6 0.516547 0.172537 0.216069
Si Si7 0.872332 0.763335 0.517490
O O1 0.226043 0.500000 0.884867
O O2 0.247991 0.500000 0.565985
O O3 0.168061 0.635458 0.566904
O O4 0.903238 0.500000 0.264500
O O5 0.885149 0.789097 0.323660
O O6 0.968119 0.699702 0.277630
O O7 0.880128 0.688521 0.989402
O O8 0.691699 0.364806 0.043897
O O9 0.710806 0.141778 0.259105
O O10 0.651788 0.333637 0.334539
O O11 0.787444 0.000000 0.248988
O O12 0.571013 0.225427 0.345632
O O13 0.521161 0.000000 0.209151
O O14 0.500000 0.231335 0.000000
#
# Coordination Sequence:
#
# PCOD9172604 Si02
#       7
#     4   8   8   4   4   8   8
#     4  10  22  36  59  85 120 160 203 254 298 360
#     4  11  20  33  61  92 127 161 198 248 310 360
#     4  11  24  40  63  89 124 163 205 259 303 363
#     4  12  26  44  60  88 124 169 209 250 313 364
#     4  10  22  40  65  85 117 153 213 258 313 348
#     4  10  18  29  55  90 131 156 188 249 313 364
#     4  11  20  36  57  90 125 158 201 247 309 364
#
# _framework density 24.170342999999999
#
# number of rings (size 3 to 8) (size 9 to 14) (size 15 to 20)
#    0.000    1.273    4.545    2.182    0.000    5.818 
#    0.000    0.000    0.000    2.182    0.000    2.545 
#    0.000    0.000    0.000    0.000    0.000    0.000 
#
# Total GULP energy -122733.241482 kJ/mol
# GULP energy per Si atom -5578.783704 kJ/mol
# Density = 2.411533 g / cm^3
# Si number density = 24.170343 Si / 1000 Ang^3
#
#
#
# Elastic Constant Matrix: (Units=GPa)
#
#
# Indices 1 2 3 4 5 6 
#
# 1 105.6553 19.7720 11.1967 0.0000 -8.9922 0.0000
# 2 19.7720 36.1341 -5.6656 0.0000 -3.5726 0.0000
# 3 11.1967 -5.6656 104.8131 0.0000 -10.0893 0.0000
# 4 0.0000 0.0000 0.0000 -76.5207 0.0000 198.8935
# 5 -8.9922 -3.5726 -10.0893 0.0000 55.7980 0.0000
# 6 0.0000 0.0000 0.0000 198.8935 0.0000 -486.6105
#
#
#
# Elastic Compliance Matrix: (Units=1/GPa)
#
#
# Indices 1 2 3 4 5 6 
#
# 1 0.010834 -0.006034 -0.001377 0.000000 0.001111 0.000000
# 2 -0.006034 0.031515 0.002492 0.000000 0.001496 0.000000
# 3 -0.001377 0.002492 0.009990 0.000000 0.001744 0.000000
# 4 0.000000 0.000000 0.000000 0.209490 0.000000 0.085625
# 5 0.001111 0.001496 0.001744 0.000000 0.018512 0.000000
# 6 0.000000 0.000000 0.000000 0.085625 0.000000 0.032943
#
#
# Mechanical properties :
#
#
# Convention : Reuss Voigt Hill
#
# Bulk Modulus (GPa) = 23.52816 33.02320 28.27568
# Shear Modulus (GPa) = 14.82404 -86.71334 -35.94465
#
# Velocity S-wave (km/s) = 2.47921 -5.99615 -3.86053
# Velocity P-wave (km/s) = 4.23683 5.85201 2.85441
#
# Compressibility (1/GPa) = 0.04250227
#
# Stress axis : x y z
#
# Youngs Moduli (GPa) = 92.29822 31.73062 100.09552
#
# Poissons Ratio (x) = 0.19148 0.13780
# Poissons Ratio (y) = 0.55697 -0.24946
# Poissons Ratio (z) = 0.12706 -0.07908
#
# Static dielectric constant tensor:
#      x y z
#    x 1.952400 0.000000 -0.065550 
#    y 0.000000 1.903360 0.000000 
#    z -0.065550 0.000000 1.958730 
# 
# From -- ./inp_files/94619.got.cif
#   From: 2010.05.17/outbox.cif.g08.bks.cpg/sg12_48_cif.got.tgz:94619.got - 2010.06.03 13:09:07.
