data_PCOD9172139
_publ_section_title
;
Structure prediction by ZEFSAII (Michael W. Deem and Ramdas Pophale) SiO2 
 PCOD9172139
Probable space group: C 2/M
;
_chemical_formula_sum "Si O2"
_cell_formula_units_Z 48
_cell_length_a 31.438361
_cell_length_b 7.796918
_cell_length_c 10.339575
_cell_angle_alpha 90.000000
_cell_angle_beta 97.214267
_cell_angle_gamma 90.000000
_cell_volume 2514.396486
_symmetry_space_group_name_H-M "C 2/M"
_symmetry_group_IT_number 12
_symmetry_cell_setting 'monoclinic'
loop_
_space_group_symop_operation_xyz
x,y,z
-x,y,-z
-x,-y,-z
x,-y,z
1/2+x,1/2+y,z
1/2-x,1/2+y,-z
1/2-x,1/2-y,-z
1/2+x,1/2-y,z
loop_
_atom_site_type_symbol
_atom_site_label
_atom_site_fract_x
_atom_site_fract_y
_atom_site_fract_z
Si Si1 0.886365 0.709700 0.216799
Si Si2 0.299491 0.300200 0.863217
Si Si3 0.980703 0.198342 0.857263
Si Si4 0.971665 0.301637 0.375402
Si Si5 0.606947 0.199451 0.080164
Si Si6 0.792531 0.291134 0.162539
O O1 0.887832 0.500000 0.214865
O O2 0.925291 0.772845 0.319804
O O3 0.838200 0.757686 0.241074
O O4 0.893022 0.764177 0.069227
O O5 0.303231 0.500000 0.832798
O O6 0.344794 0.215828 0.847774
O O7 0.253118 0.234998 0.796025
O O8 0.295352 0.277961 0.017093
O O9 0.929611 0.210029 0.851436
O O10 0.000315 0.295832 0.743978
O O11 0.993821 0.000000 0.848859
O O12 0.000000 0.264326 0.000000
O O13 0.963545 0.500000 0.409579
O O14 0.000000 0.220891 0.500000
O O15 0.595456 0.000000 0.071558
O O16 0.791177 0.500000 0.153691
#
# Coordination Sequence:
#
# PCOD9172139 Si02
#       6
#     8   8   8   8   8   8
#     4   8  14  26  44  66  91 123 161 196 232 280
#     4   9  15  23  37  61  93 121 153 196 238 283
#     4  11  22  34  50  73  99 127 163 204 248 292
#     4  10  20  34  52  73  98 131 169 203 237 284
#     4  10  18  29  47  67  93 127 160 195 241 291
#     4   8  14  24  38  58  88 127 159 188 235 288
#
# _framework density 19.090067000000001
#
# number of rings (size 3 to 8) (size 9 to 14) (size 15 to 20)
#    0.000    2.667    1.667    2.500    0.000    1.667 
#    0.000    0.000    0.000    0.000    0.000    1.167 
#    0.000    0.000    0.000    0.000    0.000    0.000 
#
# Total GULP energy -133653.975580 kJ/mol
# GULP energy per Si atom -5568.915649 kJ/mol
# Density = 1.904662 g / cm^3
# Si number density = 19.090067 Si / 1000 Ang^3
#
#
#
# Elastic Constant Matrix: (Units=GPa)
#
#
# Indices 1 2 3 4 5 6 
#
# 1 165.6643 -1.9365 35.3439 0.0000 31.0058 0.0000
# 2 -1.9365 30.1539 -0.9243 0.0000 3.1955 0.0000
# 3 35.3439 -0.9243 46.1419 0.0000 18.9926 0.0000
# 4 0.0000 0.0000 0.0000 4.7545 0.0000 -2.6129
# 5 31.0058 3.1955 18.9926 0.0000 20.3350 0.0000
# 6 0.0000 0.0000 0.0000 -2.6129 0.0000 46.5924
#
#
#
# Elastic Compliance Matrix: (Units=1/GPa)
#
#
# Indices 1 2 3 4 5 6 
#
# 1 0.008640 0.001760 -0.001700 0.000000 -0.011862 0.000000
# 2 0.001760 0.034706 0.004381 0.000000 -0.012229 0.000000
# 3 -0.001700 0.004381 0.036192 0.000000 -0.031900 0.000000
# 4 0.000000 0.000000 0.000000 0.217013 0.000000 0.012170
# 5 -0.011862 -0.012229 -0.031900 0.000000 0.098979 0.000000
# 6 0.000000 0.000000 0.000000 0.012170 0.000000 0.022145
#
#
# Mechanical properties :
#
#
# Convention : Reuss Voigt Hill
#
# Bulk Modulus (GPa) = 11.30970 34.10293 22.70632
# Shear Modulus (GPa) = 11.40856 28.30152 19.85504
#
# Velocity S-wave (km/s) = 2.44727 3.85454 3.22851
# Velocity P-wave (km/s) = 3.73133 6.14109 5.08113
#
# Compressibility (1/GPa) = 0.08841967
#
# Stress axis : x y z
#
# Youngs Moduli (GPa) = 115.74487 28.81314 27.63009
#
# Poissons Ratio (x) = -0.05071 0.04697
# Poissons Ratio (y) = -0.20369 -0.12104
# Poissons Ratio (z) = 0.19676 -0.12622
#
# Static dielectric constant tensor:
#      x y z
#    x 1.742210 0.000000 0.041300 
#    y 0.000000 1.692000 0.000000 
#    z 0.041300 0.000000 1.627490 
# 
# From -- ./inp_files/185500.got.cif
#   From: 2010.05.17/outbox.cif.g08.bks.cpg/sg12_93_cif.got.tgz:185500.got - 2010.06.03 13:09:07.
