data_PCOD9172448
_publ_section_title
;
Structure prediction by ZEFSAII (Michael W. Deem and Ramdas Pophale) SiO2 
 PCOD9172448
Probable space group: C 2/M
;
_chemical_formula_sum "Si O2"
_cell_formula_units_Z 44
_cell_length_a 26.355420
_cell_length_b 7.600079
_cell_length_c 14.840782
_cell_angle_alpha 90.000000
_cell_angle_beta 44.488137
_cell_angle_gamma 90.000000
_cell_volume 2083.123949
_symmetry_space_group_name_H-M "C 2/M"
_symmetry_group_IT_number 12
_symmetry_cell_setting 'monoclinic'
loop_
_space_group_symop_operation_xyz
x,y,z
-x,y,-z
-x,-y,-z
x,-y,z
1/2+x,1/2+y,z
1/2-x,1/2+y,-z
1/2-x,1/2-y,-z
1/2+x,1/2-y,z
loop_
_atom_site_type_symbol
_atom_site_label
_atom_site_fract_x
_atom_site_fract_y
_atom_site_fract_z
Si Si1 0.854948 0.209699 0.767104
Si Si2 0.098647 0.288910 0.094659
Si Si3 0.500000 0.750109 0.500000
Si Si4 0.290268 0.709198 0.541482
Si Si5 0.780488 0.714384 0.184589
Si Si6 0.045655 0.292079 0.631883
O O1 0.856913 0.242357 0.871018
O O2 0.922823 0.311582 0.638069
O O3 0.781814 0.258487 0.808996
O O4 0.868118 0.000000 0.735052
O O5 0.096840 0.500000 0.090170
O O6 0.016027 0.233984 0.219208
O O7 0.143037 0.222519 0.952323
O O8 0.531799 0.687925 0.556603
O O9 0.294832 0.500000 0.545550
O O10 0.250000 0.750000 0.500000
O O11 0.245689 0.777353 0.684708
O O12 0.372654 0.775104 0.438942
O O13 0.783586 0.500000 0.184431
O O14 0.033712 0.500000 0.625274
#
# Coordination Sequence:
#
# PCOD9172448 Si02
#       6
#     8   8   4   8   8   8
#     4  10  18  29  49  79 114 149 185 222 271 330
#     4   9  19  34  53  79 113 147 181 222 273 334
#     4  10  18  30  52  84 118 150 184 222 274 332
#     4  11  23  41  62  83 108 145 190 238 278 326
#     4   9  18  35  55  77 107 146 187 226 273 330
#     4  10  20  35  56  84 114 146 184 229 277 328
#
# _framework density 21.122123999999999
#
# number of rings (size 3 to 8) (size 9 to 14) (size 15 to 20)
#    0.000    2.182    1.818    1.636    0.000    3.636 
#    0.000    2.727    0.000    5.455    0.000    0.000 
#    0.000    0.000    0.000    0.000    0.000    0.000 
#
# Total GULP energy -122544.507518 kJ/mol
# GULP energy per Si atom -5570.204887 kJ/mol
# Density = 2.107405 g / cm^3
# Si number density = 21.122124 Si / 1000 Ang^3
#
#
#
# Elastic Constant Matrix: (Units=GPa)
#
#
# Indices 1 2 3 4 5 6 
#
# 1 133.7565 5.1722 100.2654 0.0004 -15.4977 -0.0003
# 2 5.1722 63.3660 7.6624 0.0028 -9.8796 -0.0021
# 3 100.2654 7.6624 206.9296 0.0002 -17.9598 -0.0005
# 4 0.0004 0.0028 0.0002 2.7928 -0.0001 -0.0638
# 5 -15.4977 -9.8796 -17.9598 -0.0001 14.9719 0.0000
# 6 -0.0003 -0.0021 -0.0005 -0.0638 0.0000 11.7622
#
#
#
# Elastic Compliance Matrix: (Units=1/GPa)
#
#
# Indices 1 2 3 4 5 6 
#
# 1 0.012262 0.000693 -0.005387 -0.000002 0.006689 0.000000
# 2 0.000693 0.017660 0.000094 -0.000017 0.012483 0.000003
# 3 -0.005387 0.000094 0.007770 0.000000 0.003806 0.000000
# 4 -0.000002 -0.000017 0.000000 0.358102 -0.000010 0.001943
# 5 0.006689 0.012483 0.003806 -0.000010 0.086518 0.000002
# 6 0.000000 0.000003 0.000000 0.001943 0.000002 0.085028
#
#
# Mechanical properties :
#
#
# Convention : Reuss Voigt Hill
#
# Bulk Modulus (GPa) = 35.09765 70.02801 52.56283
# Shear Modulus (GPa) = 8.53188 25.30220 16.91704
#
# Velocity S-wave (km/s) = 2.01198 3.46482 2.83312
# Velocity P-wave (km/s) = 4.69575 7.01659 5.97003
#
# Compressibility (1/GPa) = 0.02849194
#
# Stress axis : x y z
#
# Youngs Moduli (GPa) = 81.54977 56.62606 128.70819
#
# Poissons Ratio (x) = -0.03926 0.69332
# Poissons Ratio (y) = -0.05654 -0.01204
# Poissons Ratio (z) = 0.43929 -0.00530
#
# Static dielectric constant tensor:
#      x y z
#    x 1.730390 0.000000 -0.004290 
#    y 0.000000 1.788420 0.000000 
#    z -0.004290 0.000000 1.800770 
# 
# From -- ./inp_files/180458.got.cif
#   From: 2010.05.17/outbox.cif.g08.bks.cpg/sg12_91_cif.got.tgz:180458.got - 2010.06.03 13:09:07.
