data_PCOD9172300
_publ_section_title
;
Structure prediction by ZEFSAII (Michael W. Deem and Ramdas Pophale) SiO2 
 PCOD9172300
Probable space group: C 2/M
;
_chemical_formula_sum "Si O2"
_cell_formula_units_Z 48
_cell_length_a 16.370839
_cell_length_b 13.504655
_cell_length_c 15.154257
_cell_angle_alpha 90.000000
_cell_angle_beta 51.931350
_cell_angle_gamma 90.000000
_cell_volume 2637.631817
_symmetry_space_group_name_H-M "C 2/M"
_symmetry_group_IT_number 12
_symmetry_cell_setting 'monoclinic'
loop_
_space_group_symop_operation_xyz
x,y,z
-x,y,-z
-x,-y,-z
x,-y,z
1/2+x,1/2+y,z
1/2-x,1/2+y,-z
1/2-x,1/2-y,-z
1/2+x,1/2-y,z
loop_
_atom_site_type_symbol
_atom_site_label
_atom_site_fract_x
_atom_site_fract_y
_atom_site_fract_z
Si Si1 0.332827 0.385646 0.052885
Si Si2 0.015422 0.886536 0.210416
Si Si3 0.894771 0.384439 0.620192
Si Si4 0.462220 0.883000 0.125754
Si Si5 0.112487 0.310221 0.181100
Si Si6 0.173611 0.799099 0.751391
O O1 0.299573 0.500000 0.077535
O O2 0.234958 0.322643 0.085360
O O3 0.355434 0.350721 0.136182
O O4 0.428362 0.379561 0.922849
O O5 0.077142 0.802606 0.222320
O O6 0.897619 0.851319 0.274754
O O7 0.023146 0.000000 0.235257
O O8 0.871066 0.500000 0.617929
O O9 0.910590 0.370498 0.714369
O O10 0.795141 0.319461 0.659254
O O11 0.000000 0.357753 0.500000
O O12 0.549697 0.850712 0.138561
O O13 0.363915 0.813809 0.213535
O O14 0.442176 0.000000 0.146824
O O15 0.500000 0.863482 0.000000
#
# Coordination Sequence:
#
# PCOD9172300 Si02
#       6
#     8   8   8   8   8   8
#     4  10  18  29  48  73 102 136 172 206 244 295
#     4  10  19  29  46  75 107 135 160 196 253 314
#     4  10  21  38  59  77  93 124 175 228 268 298
#     4  10  20  33  51  78 112 146 172 195 238 307
#     4  10  19  34  52  72 102 135 173 211 245 295
#     4  10  18  32  52  74 102 131 169 217 258 296
#
# _framework density 18.198142000000001
#
# number of rings (size 3 to 8) (size 9 to 14) (size 15 to 20)
#    0.000    2.000    0.000    7.000    0.000    2.667 
#    0.000   10.000    0.000    4.000    0.000    0.000 
#    0.000    0.000    0.000    0.000    0.000    0.000 
#
# Total GULP energy -133891.038820 kJ/mol
# GULP energy per Si atom -5578.793284 kJ/mol
# Density = 1.815672 g / cm^3
# Si number density = 18.198142 Si / 1000 Ang^3
#
#
#
# Elastic Constant Matrix: (Units=GPa)
#
#
# Indices 1 2 3 4 5 6 
#
# 1 100.1558 42.6883 25.1140 0.0000 -22.5832 0.0000
# 2 42.6883 125.6237 18.9175 0.0000 -23.3831 0.0000
# 3 25.1140 18.9175 52.0284 0.0000 -18.1627 0.0000
# 4 0.0000 0.0000 0.0000 16.3534 0.0000 -4.4974
# 5 -22.5832 -23.3831 -18.1627 0.0000 21.4117 0.0000
# 6 0.0000 0.0000 0.0000 -4.4974 0.0000 19.8105
#
#
#
# Elastic Compliance Matrix: (Units=1/GPa)
#
#
# Indices 1 2 3 4 5 6 
#
# 1 0.013876 -0.002520 -0.002320 0.000000 0.009914 0.000000
# 2 -0.002520 0.010451 0.000672 0.000000 0.009325 0.000000
# 3 -0.002320 0.000672 0.027701 0.000000 0.021783 0.000000
# 4 0.000000 0.000000 0.000000 0.065222 0.000000 0.014807
# 5 0.009914 0.009325 0.021783 0.000000 0.085822 0.000000
# 6 0.000000 0.000000 0.000000 0.014807 0.000000 0.053840
#
#
# Mechanical properties :
#
#
# Convention : Reuss Voigt Hill
#
# Bulk Modulus (GPa) = 22.88862 50.13860 36.51361
# Shear Modulus (GPa) = 17.86911 24.25431 21.06171
#
# Velocity S-wave (km/s) = 3.13696 3.65470 3.40568
# Velocity P-wave (km/s) = 5.07202 6.73947 5.96430
#
# Compressibility (1/GPa) = 0.04368984
#
# Stress axis : x y z
#
# Youngs Moduli (GPa) = 72.06666 95.68177 36.10038
#
# Poissons Ratio (x) = 0.24115 0.08377
# Poissons Ratio (y) = 0.18163 -0.02425
# Poissons Ratio (z) = 0.16723 -0.06428
#
# Static dielectric constant tensor:
#      x y z
#    x 1.629880 0.000000 -0.007970 
#    y 0.000000 1.654310 0.000000 
#    z -0.007970 0.000000 1.620010 
# 
# From -- ./inp_files/214665.got.cif
#   From: 2010.05.17/outbox.cif.g08.bks.cpg/sg12_108_cif.got.tgz:214665.got - 2010.06.03 13:09:07.
