data_PCOD9172738
_publ_section_title
;
Structure prediction by ZEFSAII (Michael W. Deem and Ramdas Pophale) SiO2 
 PCOD9172738
Probable space group: C 2/M
;
_chemical_formula_sum "Si O2"
_cell_formula_units_Z 64
_cell_length_a 28.104257
_cell_length_b 8.735160
_cell_length_c 26.864300
_cell_angle_alpha 90.000000
_cell_angle_beta 146.758893
_cell_angle_gamma 90.000000
_cell_volume 3615.168573
_symmetry_space_group_name_H-M "C 2/M"
_symmetry_group_IT_number 12
_symmetry_cell_setting 'monoclinic'
loop_
_space_group_symop_operation_xyz
x,y,z
-x,y,-z
-x,-y,-z
x,-y,z
1/2+x,1/2+y,z
1/2-x,1/2+y,-z
1/2-x,1/2-y,-z
1/2+x,1/2-y,z
loop_
_atom_site_type_symbol
_atom_site_label
_atom_site_fract_x
_atom_site_fract_y
_atom_site_fract_z
Si Si1 0.806985 0.182160 0.380458
Si Si2 0.578341 0.183795 0.786502
Si Si3 0.989906 0.327692 0.551230
Si Si4 0.163336 0.816931 0.950700
Si Si5 0.884383 0.683931 0.610401
Si Si6 0.750946 0.817225 0.116392
Si Si7 0.673425 0.683876 0.716204
Si Si8 0.725045 0.682785 0.400697
O O1 0.902641 0.232826 0.482871
O O2 0.801115 0.231963 0.317452
O O3 0.736930 0.256050 0.355584
O O4 0.800271 0.000000 0.376460
O O5 0.587831 0.240588 0.851990
O O6 0.482881 0.226279 0.683708
O O7 0.656262 0.263793 0.824952
O O8 0.589687 0.000000 0.794130
O O9 0.978693 0.500000 0.561159
O O10 0.000000 0.334748 0.500000
O O11 0.080105 0.256226 0.647810
O O12 0.161286 0.000000 0.944868
O O13 0.250000 0.750000 0.000000
O O14 0.176612 0.764746 0.019128
O O15 0.881423 0.500000 0.610967
O O16 0.811897 0.732813 0.507126
O O17 0.854283 0.751777 0.636831
O O18 0.757742 0.778588 0.180659
O O19 0.743031 0.000000 0.103388
O O20 0.662319 0.500000 0.705811
O O21 0.721817 0.500000 0.397786
#
# Coordination Sequence:
#
# PCOD9172738 Si02
#       8
#     8   8   8   8   8   8   8   8
#     4  10  19  32  48  65  92 128 162 196 238 282
#     4  10  19  32  50  71  96 127 160 195 237 285
#     4   9  17  28  42  61  87 119 157 198 233 269
#     4  10  18  30  47  69  96 126 157 192 237 285
#     4   9  20  36  51  70  95 124 159 199 241 286
#     4  10  19  31  47  70  99 129 162 196 233 278
#     4   9  19  32  45  66  94 127 164 196 230 281
#     4  10  20  34  51  72  96 123 160 203 243 280
#
# _framework density 17.703185999999999
#
# number of rings (size 3 to 8) (size 9 to 14) (size 15 to 20)
#    0.000    2.375    0.000    4.500    1.750    4.500 
#    0.000    0.000    0.000    0.000    0.000    0.875 
#    0.000    7.000    0.000    0.000    0.000    0.000 
#
# Total GULP energy -178462.599043 kJ/mol
# GULP energy per Si atom -5576.956220 kJ/mol
# Density = 1.766289 g / cm^3
# Si number density = 17.703186 Si / 1000 Ang^3
#
#
#
# Elastic Constant Matrix: (Units=GPa)
#
#
# Indices 1 2 3 4 5 6 
#
# 1 66.4159 7.0825 1.6069 0.0000 -10.7015 0.0000
# 2 7.0825 33.1374 3.4352 0.0000 -3.0556 0.0000
# 3 1.6069 3.4352 33.7051 0.0000 -13.8477 0.0000
# 4 0.0000 0.0000 0.0000 19.3842 0.0000 -1.2870
# 5 -10.7015 -3.0556 -13.8477 0.0000 24.8456 0.0000
# 6 0.0000 0.0000 0.0000 -1.2870 0.0000 21.7444
#
#
#
# Elastic Compliance Matrix: (Units=1/GPa)
#
#
# Indices 1 2 3 4 5 6 
#
# 1 0.016680 -0.003095 0.003003 0.000000 0.008478 0.000000
# 2 -0.003095 0.031206 -0.002599 0.000000 0.001056 0.000000
# 3 0.003003 -0.002599 0.039158 0.000000 0.022799 0.000000
# 4 0.000000 0.000000 0.000000 0.051792 0.000000 0.003065
# 5 0.008478 0.001056 0.022799 0.000000 0.056737 0.000000
# 6 0.000000 0.000000 0.000000 0.003065 0.000000 0.046170
#
#
# Mechanical properties :
#
#
# Convention : Reuss Voigt Hill
#
# Bulk Modulus (GPa) = 12.24554 17.50086 14.87320
# Shear Modulus (GPa) = 18.22531 21.27043 19.74787
#
# Velocity S-wave (km/s) = 3.21205 3.47003 3.34353
# Velocity P-wave (km/s) = 4.54846 5.09529 4.82962
#
# Compressibility (1/GPa) = 0.08166241
#
# Stress axis : x y z
#
# Youngs Moduli (GPa) = 59.95209 32.04548 25.53785
#
# Poissons Ratio (x) = 0.09917 -0.07670
# Poissons Ratio (y) = 0.18553 0.06637
# Poissons Ratio (z) = -0.18005 0.08329
#
# Static dielectric constant tensor:
#      x y z
#    x 1.635820 0.000000 -0.048020 
#    y 0.000000 1.594720 0.000000 
#    z -0.048020 0.000000 1.630390 
# 
# From -- ./inp_files/384632.got.cif
#   From: 2010.05.17/outbox.cif.g08.bks.cpg/sg12_193_cif.got.tgz:384632.got - 2010.06.03 13:09:07.
