data_PCOD9172431
_publ_section_title
;
Structure prediction by ZEFSAII (Michael W. Deem and Ramdas Pophale) SiO2 
 PCOD9172431
Probable space group: C 2/M
;
_chemical_formula_sum "Si O2"
_cell_formula_units_Z 64
_cell_length_a 20.107074
_cell_length_b 8.068766
_cell_length_c 18.170037
_cell_angle_alpha 90.000000
_cell_angle_beta 113.758947
_cell_angle_gamma 90.000000
_cell_volume 2698.055451
_symmetry_space_group_name_H-M "C 2/M"
_symmetry_group_IT_number 12
_symmetry_cell_setting 'monoclinic'
loop_
_space_group_symop_operation_xyz
x,y,z
-x,y,-z
-x,-y,-z
x,-y,z
1/2+x,1/2+y,z
1/2-x,1/2+y,-z
1/2-x,1/2-y,-z
1/2+x,1/2-y,z
loop_
_atom_site_type_symbol
_atom_site_label
_atom_site_fract_x
_atom_site_fract_y
_atom_site_fract_z
Si Si1 0.336777 0.190110 0.330431
Si Si2 0.099200 0.798204 0.191563
Si Si3 0.228284 0.200365 0.151874
Si Si4 0.155380 0.809489 0.898172
Si Si5 0.541647 0.195531 0.947548
Si Si6 0.957498 0.680977 0.265162
Si Si7 0.923177 0.804119 0.500922
Si Si8 0.604970 0.685353 0.351401
O O1 0.280039 0.253154 0.243996
O O2 0.412819 0.188864 0.320446
O O3 0.357384 0.281695 0.414203
O O4 0.315760 0.000000 0.337772
O O5 0.149566 0.746411 0.145409
O O6 0.019364 0.726295 0.142282
O O7 0.133075 0.744802 0.285691
O O8 0.096044 0.000000 0.190866
O O9 0.263692 0.266249 0.092267
O O10 0.230375 0.000000 0.148539
O O11 0.104684 0.698616 0.823287
O O12 0.117511 0.779624 0.959725
O O13 0.143887 0.000000 0.874431
O O14 0.553945 0.000000 0.961982
O O15 0.500000 0.264991 0.000000
O O16 0.992663 0.500000 0.274628
O O17 0.018866 0.818041 0.293998
O O18 0.897755 0.733070 0.569048
O O19 0.000000 0.740023 0.500000
O O20 0.935833 0.000000 0.519639
O O21 0.635827 0.500000 0.372293
#
# Coordination Sequence:
#
# PCOD9172431 Si02
#       8
#     8   8   8   8   8   8   8   8
#     4   9  18  31  48  72 105 146 193 239 288 341
#     4  10  21  39  63  87 115 153 196 240 289 349
#     4   9  20  39  60  84 115 154 198 245 294 341
#     4  11  21  35  59  89 117 150 194 235 280 341
#     4  11  24  41  63  93 127 155 183 229 284 336
#     4  10  18  29  49  77 108 143 182 234 288 335
#     4  10  19  29  44  72 111 148 187 243 302 346
#     4  10  19  31  49  77 108 145 190 239 293 342
#
# _framework density 23.720789
#
# number of rings (size 3 to 8) (size 9 to 14) (size 15 to 20)
#    0.000    2.000    2.500    2.625    0.000    4.250 
#    0.000    1.250    0.000    0.000    0.000    0.000 
#    0.000    0.000    0.000    0.000    0.000    0.000 
#
# Total GULP energy -178461.206923 kJ/mol
# GULP energy per Si atom -5576.912716 kJ/mol
# Density = 2.366680 g / cm^3
# Si number density = 23.720789 Si / 1000 Ang^3
#
#
#
# Elastic Constant Matrix: (Units=GPa)
#
#
# Indices 1 2 3 4 5 6 
#
# 1 110.0883 8.4163 31.9615 0.0000 -25.2028 0.0000
# 2 8.4163 45.8265 -0.8424 0.0000 -9.3853 0.0000
# 3 31.9615 -0.8424 114.5864 0.0000 -30.3641 0.0000
# 4 0.0000 0.0000 0.0000 4.5145 0.0000 -11.5753
# 5 -25.2028 -9.3853 -30.3641 0.0000 41.8716 0.0000
# 6 0.0000 0.0000 0.0000 -11.5753 0.0000 7.9175
#
#
#
# Elastic Compliance Matrix: (Units=1/GPa)
#
#
# Indices 1 2 3 4 5 6 
#
# 1 0.010806 -0.000977 -0.001678 0.000000 0.005068 0.000000
# 2 -0.000977 0.023295 0.002069 0.000000 0.006134 0.000000
# 3 -0.001678 0.002069 0.011222 0.000000 0.007592 0.000000
# 4 0.000000 0.000000 0.000000 -0.080590 0.000000 -0.117822
# 5 0.005068 0.006134 0.007592 0.000000 0.033813 0.000000
# 6 0.000000 0.000000 0.000000 -0.117822 0.000000 -0.045952
#
#
# Mechanical properties :
#
#
# Convention : Reuss Voigt Hill
#
# Bulk Modulus (GPa) = 22.65005 38.84135 30.74570
# Shear Modulus (GPa) = -158.64417 26.25844 -66.19286
#
# Velocity S-wave (km/s) = -8.18688 3.33074 -5.28825
# Velocity P-wave (km/s) = 8.93293 5.58585 4.92928
#
# Compressibility (1/GPa) = 0.04415001
#
# Stress axis : x y z
#
# Youngs Moduli (GPa) = 92.54276 42.92738 89.11021
#
# Poissons Ratio (x) = 0.04196 0.14955
# Poissons Ratio (y) = 0.09046 -0.18439
# Poissons Ratio (z) = 0.15531 -0.08883
#
# Static dielectric constant tensor:
#      x y z
#    x 1.899650 0.000000 -0.058960 
#    y 0.000000 1.857250 0.000000 
#    z -0.058960 0.000000 2.014540 
# 
# From -- ./inp_files/281419.got.cif
#   From: 2010.05.17/outbox.cif.g08.bks.cpg/sg12_141_cif.got.tgz:281419.got - 2010.06.03 13:09:07.
