data_PCOD9172682
_publ_section_title
;
Structure prediction by ZEFSAII (Michael W. Deem and Ramdas Pophale) SiO2 
 PCOD9172682
Probable space group: C 2/M
;
_chemical_formula_sum "Si O2"
_cell_formula_units_Z 48
_cell_length_a 22.356367
_cell_length_b 13.066803
_cell_length_c 12.275653
_cell_angle_alpha 90.000000
_cell_angle_beta 38.157600
_cell_angle_gamma 90.000000
_cell_volume 2215.551420
_symmetry_space_group_name_H-M "C 2/M"
_symmetry_group_IT_number 12
_symmetry_cell_setting 'monoclinic'
loop_
_space_group_symop_operation_xyz
x,y,z
-x,y,-z
-x,-y,-z
x,-y,z
1/2+x,1/2+y,z
1/2-x,1/2+y,-z
1/2-x,1/2-y,-z
1/2+x,1/2-y,z
loop_
_atom_site_type_symbol
_atom_site_label
_atom_site_fract_x
_atom_site_fract_y
_atom_site_fract_z
Si Si1 0.857818 0.115982 0.534532
Si Si2 0.641436 0.615362 0.885730
Si Si3 0.422405 0.300217 0.227762
Si Si4 0.624475 0.115411 0.861064
Si Si5 0.656639 0.220402 0.022471
Si Si6 0.144475 0.119957 0.211943
O O1 0.892733 0.195039 0.394655
O O2 0.741346 0.117043 0.698034
O O3 0.888306 0.132156 0.615970
O O4 0.889978 0.000000 0.457858
O O5 0.658761 0.500000 0.891897
O O6 0.528814 0.647945 0.067531
O O7 0.700284 0.693543 0.876532
O O8 0.649992 0.631524 0.744072
O O9 0.410709 0.192623 0.181869
O O10 0.597102 0.000000 0.879766
O O11 0.595719 0.152505 0.024586
O O12 0.606316 0.292333 0.184938
O O13 0.740342 0.148740 0.951349
O O14 0.129644 0.000000 0.203182
#
# Coordination Sequence:
#
# PCOD9172682 Si02
#       6
#     8   8   8   8   8   8
#     4   9  16  28  47  69  94 123 152 189 235 275
#     4  10  19  30  45  68  96 123 156 195 230 273
#     4  10  18  30  46  66  95 128 156 185 231 280
#     4   9  18  31  48  70  94 120 156 199 234 271
#     4   9  17  30  47  66  91 121 151 188 236 273
#     4   9  17  30  49  71  94 119 154 197 232 271
#
# _framework density 21.665035
#
# number of rings (size 3 to 8) (size 9 to 14) (size 15 to 20)
#    0.000    2.667    0.000    4.500    0.000    0.000 
#    0.000    8.333    0.000   13.000    0.000    0.000 
#    0.000   49.333    0.000    0.000    0.000    0.000 
#
# Total GULP energy -133758.535039 kJ/mol
# GULP energy per Si atom -5573.272293 kJ/mol
# Density = 2.161572 g / cm^3
# Si number density = 21.665035 Si / 1000 Ang^3
#
#
#
# Elastic Constant Matrix: (Units=GPa)
#
#
# Indices 1 2 3 4 5 6 
#
# 1 87.9243 13.9899 31.9385 0.0000 9.3230 0.0000
# 2 13.9899 148.4958 36.8573 0.0000 16.1535 0.0000
# 3 31.9385 36.8573 84.3837 0.0000 36.2744 0.0000
# 4 0.0000 0.0000 0.0000 18.4878 0.0000 12.2313
# 5 9.3230 16.1535 36.2744 0.0000 31.2268 0.0000
# 6 0.0000 0.0000 0.0000 12.2313 0.0000 16.6795
#
#
#
# Elastic Compliance Matrix: (Units=1/GPa)
#
#
# Indices 1 2 3 4 5 6 
#
# 1 0.013406 -0.000013 -0.006693 0.000000 0.003779 0.000000
# 2 -0.000013 0.007553 -0.003228 0.000000 -0.000153 0.000000
# 3 -0.006693 -0.003228 0.028398 0.000000 -0.029320 0.000000
# 4 0.000000 0.000000 0.000000 0.105060 0.000000 -0.077042
# 5 0.003779 -0.000153 -0.029320 0.000000 0.065034 0.000000
# 6 0.000000 0.000000 0.000000 -0.077042 0.000000 0.116450
#
#
# Mechanical properties :
#
#
# Convention : Reuss Voigt Hill
#
# Bulk Modulus (GPa) = 33.91124 54.04169 43.97646
# Shear Modulus (GPa) = 13.67620 29.14669 21.41144
#
# Velocity S-wave (km/s) = 2.51521 3.67186 3.14713
# Velocity P-wave (km/s) = 4.91137 6.55554 5.79209
#
# Compressibility (1/GPa) = 0.02948875
#
# Stress axis : x y z
#
# Youngs Moduli (GPa) = 74.59372 132.39086 35.21390
#
# Poissons Ratio (x) = 0.00170 0.23568
# Poissons Ratio (y) = 0.00096 0.11369
# Poissons Ratio (z) = 0.49925 0.42742
#
# Static dielectric constant tensor:
#      x y z
#    x 1.867130 0.000000 0.020850 
#    y 0.000000 1.806810 0.000000 
#    z 0.020850 0.000000 1.834200 
# 
# From -- ./inp_files/164040.got.cif
#   From: 2010.05.17/outbox.cif.g08.bks.cpg/sg12_83_cif.got.tgz:164040.got - 2010.06.03 13:09:07.
