data_PCOD9172117
_publ_section_title
;
Structure prediction by ZEFSAII (Michael W. Deem and Ramdas Pophale) SiO2 
 PCOD9172117
Probable space group: C 2/M
;
_chemical_formula_sum "Si O2"
_cell_formula_units_Z 56
_cell_length_a 15.642488
_cell_length_b 18.069024
_cell_length_c 19.567410
_cell_angle_alpha 90.000000
_cell_angle_beta 145.226693
_cell_angle_gamma 90.000000
_cell_volume 3154.284114
_symmetry_space_group_name_H-M "C 2/M"
_symmetry_group_IT_number 12
_symmetry_cell_setting 'monoclinic'
loop_
_space_group_symop_operation_xyz
x,y,z
-x,y,-z
-x,-y,-z
x,-y,z
1/2+x,1/2+y,z
1/2-x,1/2+y,-z
1/2-x,1/2-y,-z
1/2+x,1/2-y,z
loop_
_atom_site_type_symbol
_atom_site_label
_atom_site_fract_x
_atom_site_fract_y
_atom_site_fract_z
Si Si1 0.594634 0.913633 0.353914
Si Si2 0.312692 0.588273 0.289974
Si Si3 0.878589 0.588061 0.475851
Si Si4 0.525506 0.835542 0.175303
Si Si5 0.605675 0.326681 0.457005
Si Si6 0.356468 0.917323 0.956392
Si Si7 0.342158 0.290672 0.662435
O O1 0.558551 0.892348 0.407805
O O2 0.506580 0.870837 0.237713
O O3 0.769585 0.891593 0.462931
O O4 0.574294 0.000000 0.330809
O O5 0.327911 0.500000 0.316536
O O6 0.172874 0.623708 0.239430
O O7 0.459029 0.638749 0.394455
O O8 0.276704 0.592742 0.184866
O O9 0.856194 0.500000 0.460102
O O10 0.723686 0.630136 0.361881
O O11 0.000000 0.609189 0.500000
O O12 0.561341 0.750564 0.216688
O O13 0.391232 0.856519 0.036327
O O14 0.583796 0.298512 0.364276
O O15 0.694457 0.261222 0.553778
O O16 0.348168 0.000000 0.981974
O O17 0.500000 0.917580 0.000000
#
# Coordination Sequence:
#
# PCOD9172117 Si02
#       7
#     8   8   8   8   8   8   8
#     4   9  16  27  44  66  95 124 149 186 227 277
#     4  10  19  30  49  74  98 129 162 194 228 277
#     4   9  18  31  47  64  86 120 161 195 230 281
#     4  10  18  29  46  72  98 130 153 189 237 283
#     4   9  18  31  43  66  97 128 151 186 233 284
#     4   8  15  29  46  66  98 130 160 190 222 274
#     4   9  19  31  45  65  96 124 154 191 242 277
#
# _framework density 17.753632
#
# number of rings (size 3 to 8) (size 9 to 14) (size 15 to 20)
#    0.000    2.857    0.000    3.429    2.000    2.286 
#    0.000    4.286    0.000    0.000    0.000    0.000 
#    0.000    6.286    0.000    7.857    0.000    0.000 
#
# Total GULP energy -155914.197075 kJ/mol
# GULP energy per Si atom -5568.364181 kJ/mol
# Density = 1.771322 g / cm^3
# Si number density = 17.753632 Si / 1000 Ang^3
#
#
#
# Elastic Constant Matrix: (Units=GPa)
#
#
# Indices 1 2 3 4 5 6 
#
# 1 35.8802 12.8911 11.2275 0.0012 -11.4576 0.0004
# 2 12.8911 35.7469 12.1877 0.0004 -12.4458 0.0002
# 3 11.2275 12.1877 42.4444 0.0024 -19.4214 0.0011
# 4 0.0012 0.0004 0.0024 22.6734 0.0008 -4.5904
# 5 -11.4576 -12.4458 -19.4214 0.0008 22.8399 0.0002
# 6 0.0004 0.0002 0.0011 -4.5904 0.0002 19.9714
#
#
#
# Elastic Compliance Matrix: (Units=1/GPa)
#
#
# Indices 1 2 3 4 5 6 
#
# 1 0.035016 -0.007952 -0.001513 -0.000002 0.011946 -0.000001
# 2 -0.007952 0.036449 -0.001800 -0.000001 0.014342 0.000000
# 3 -0.001513 -0.001800 0.038764 -0.000006 0.031222 -0.000004
# 4 -0.000002 -0.000001 -0.000006 0.046257 -0.000008 0.010632
# 5 0.011946 0.014342 0.031222 -0.000008 0.084140 -0.000005
# 6 -0.000001 0.000000 -0.000004 0.010632 -0.000005 0.052515
#
#
# Mechanical properties :
#
#
# Convention : Reuss Voigt Hill
#
# Bulk Modulus (GPa) = 11.40284 20.74268 16.07276
# Shear Modulus (GPa) = 14.49677 18.28129 16.38903
#
# Velocity S-wave (km/s) = 2.86064 3.21241 3.04161
# Velocity P-wave (km/s) = 4.16506 5.04662 4.62689
#
# Compressibility (1/GPa) = 0.08769745
#
# Stress axis : x y z
#
# Youngs Moduli (GPa) = 28.55861 27.43538 25.79735
#
# Poissons Ratio (x) = 0.21818 0.03903
# Poissons Ratio (y) = 0.22711 0.04644
# Poissons Ratio (z) = 0.04320 0.04939
#
# Static dielectric constant tensor:
#      x y z
#    x 1.620120 0.000000 -0.015220 
#    y 0.000000 1.642150 0.000000 
#    z -0.015220 0.000000 1.651340 
# 
# From -- ./inp_files/177178.got.cif
#   From: 2010.05.17/outbox.cif.g08.bks.cpg/sg12_89_cif.got.tgz:177178.got - 2010.06.03 13:09:07.
