data_PCOD9172164
_publ_section_title
;
Structure prediction by ZEFSAII (Michael W. Deem and Ramdas Pophale) SiO2 
 PCOD9172164
Probable space group: C 2/M
;
_chemical_formula_sum "Si O2"
_cell_formula_units_Z 56
_cell_length_a 28.284038
_cell_length_b 17.477667
_cell_length_c 22.562707
_cell_angle_alpha 90.000000
_cell_angle_beta 18.268530
_cell_angle_gamma 90.000000
_cell_volume 3496.337523
_symmetry_space_group_name_H-M "C 2/M"
_symmetry_group_IT_number 12
_symmetry_cell_setting 'monoclinic'
loop_
_space_group_symop_operation_xyz
x,y,z
-x,y,-z
-x,-y,-z
x,-y,z
1/2+x,1/2+y,z
1/2-x,1/2+y,-z
1/2-x,1/2-y,-z
1/2+x,1/2-y,z
loop_
_atom_site_type_symbol
_atom_site_label
_atom_site_fract_x
_atom_site_fract_y
_atom_site_fract_z
Si Si1 0.835114 0.787548 0.185412
Si Si2 0.219853 0.722621 0.968972
Si Si3 0.813421 0.909777 0.316922
Si Si4 0.978802 0.753184 0.457816
Si Si5 0.623495 0.353355 0.995156
Si Si6 0.979245 0.586966 0.754314
Si Si7 0.423390 0.082607 0.681182
O O1 0.822428 0.857610 0.247261
O O2 0.689485 0.733886 0.365662
O O3 0.833927 0.817857 0.119467
O O4 0.000000 0.751917 0.000000
O O5 0.384368 0.714088 0.743430
O O6 0.250000 0.750000 0.000000
O O7 0.135617 0.787069 0.030129
O O8 0.118362 0.647155 0.093228
O O9 0.656397 0.892987 0.537265
O O10 0.959382 0.889627 0.182288
O O11 0.813084 0.000000 0.302174
O O12 0.996105 0.660027 0.435671
O O13 0.000000 0.778415 0.500000
O O14 0.754820 0.411829 0.856757
O O15 0.965897 0.500000 0.792213
O O16 0.922083 0.587747 0.754037
O O17 0.492928 0.000000 0.582728
#
# Coordination Sequence:
#
# PCOD9172164 Si02
#       7
#     8   8   8   8   8   8   8
#     4  10  19  31  45  72 107 136 170 201 245 306
#     4  11  19  34  56  74 101 136 174 225 265 299
#     4  10  20  33  48  73 115 148 169 203 247 304
#     4  11  19  33  49  74 101 133 176 216 258 304
#     4  10  20  31  48  74 102 139 178 208 241 304
#     4  10  20  34  51  73 101 137 173 212 262 310
#     4  10  18  29  47  70 102 136 170 203 243 302
#
# _framework density 16.016760999999999
#
# number of rings (size 3 to 8) (size 9 to 14) (size 15 to 20)
#    0.000    1.714    7.143    0.429    0.000    4.000 
#    0.000    0.000    0.000    0.429    0.000    0.000 
#    0.000    5.714    0.000    0.000    0.000    0.000 
#
# Total GULP energy -156050.352876 kJ/mol
# GULP energy per Si atom -5573.226888 kJ/mol
# Density = 1.598031 g / cm^3
# Si number density = 16.016761 Si / 1000 Ang^3
#
#
#
# Elastic Constant Matrix: (Units=GPa)
#
#
# Indices 1 2 3 4 5 6 
#
# 1 66.4355 11.2837 48.2004 0.0028 -13.4571 0.0008
# 2 11.2837 37.1988 20.8004 0.0054 6.5312 -0.0012
# 3 48.2004 20.8004 113.5492 0.0165 -12.0188 -0.0031
# 4 0.0028 0.0054 0.0165 5.6898 -0.0036 3.0087
# 5 -13.4571 6.5312 -12.0188 -0.0036 35.2853 0.0000
# 6 0.0008 -0.0012 -0.0031 3.0087 0.0000 11.0158
#
#
#
# Elastic Compliance Matrix: (Units=1/GPa)
#
#
# Indices 1 2 3 4 5 6 
#
# 1 0.023125 -0.003415 -0.008497 0.000027 0.006557 -0.000012
# 2 -0.003415 0.032611 -0.005499 -0.000024 -0.009212 0.000009
# 3 -0.008497 -0.005499 0.013679 -0.000036 0.002437 0.000014
# 4 0.000027 -0.000024 -0.000036 0.205424 0.000023 -0.056107
# 5 0.006557 -0.009212 0.002437 0.000023 0.033376 -0.000007
# 6 -0.000012 0.000009 0.000014 -0.056107 -0.000007 0.106103
#
#
# Mechanical properties :
#
#
# Convention : Reuss Voigt Hill
#
# Bulk Modulus (GPa) = 28.90756 41.97251 35.44004
# Shear Modulus (GPa) = 10.85376 19.52478 15.18927
#
# Velocity S-wave (km/s) = 2.60599 3.49524 3.08285
# Velocity P-wave (km/s) = 5.20984 6.52313 5.90312
#
# Compressibility (1/GPa) = 0.03459303
#
# Stress axis : x y z
#
# Youngs Moduli (GPa) = 43.24331 30.66471 73.10587
#
# Poissons Ratio (x) = 0.10472 0.62116
# Poissons Ratio (y) = 0.14767 0.40203
# Poissons Ratio (z) = 0.36742 0.16863
#
# Static dielectric constant tensor:
#      x y z
#    x 1.538690 0.000000 -0.027200 
#    y 0.000000 1.530360 0.000000 
#    z -0.027200 0.000000 1.568250 
# 
# From -- ./inp_files/76891.got.cif
#   From: 2010.05.17/outbox.cif.g08.bks.cpg/sg12_39_cif.got.tgz:76891.got - 2010.06.03 13:09:07.
