data_PCOD9172275
_publ_section_title
;
Structure prediction by ZEFSAII (Michael W. Deem and Ramdas Pophale) SiO2 
 PCOD9172275
Probable space group: C 2/M
;
_chemical_formula_sum "Si O2"
_cell_formula_units_Z 48
_cell_length_a 5.434761
_cell_length_b 19.394750
_cell_length_c 26.136475
_cell_angle_alpha 90.000000
_cell_angle_beta 59.196886
_cell_angle_gamma 90.000000
_cell_volume 2366.303614
_symmetry_space_group_name_H-M "C 2/M"
_symmetry_group_IT_number 12
_symmetry_cell_setting 'monoclinic'
loop_
_space_group_symop_operation_xyz
x,y,z
-x,y,-z
-x,-y,-z
x,-y,z
1/2+x,1/2+y,z
1/2-x,1/2+y,-z
1/2-x,1/2-y,-z
1/2+x,1/2-y,z
loop_
_atom_site_type_symbol
_atom_site_label
_atom_site_fract_x
_atom_site_fract_y
_atom_site_fract_z
Si Si1 0.411287 0.134402 0.066662
Si Si2 0.654497 0.420718 0.538803
Si Si3 0.238710 0.000000 0.150204
Si Si4 0.923460 0.204790 0.630538
Si Si5 0.307983 0.350938 0.108989
Si Si6 0.632325 0.790715 0.766858
Si Si7 0.245518 0.500000 0.147643
O O1 0.339802 0.067299 0.108464
O O2 0.673287 0.169009 0.069147
O O3 0.115754 0.177132 0.093565
O O4 0.500000 0.116165 0.000000
O O5 0.500000 0.412960 0.500000
O O6 0.598502 0.500000 0.561748
O O7 0.531695 0.361420 0.588343
O O8 0.000000 0.412704 0.500000
O O9 0.405709 0.000000 0.184967
O O10 0.899571 0.000000 0.185406
O O11 0.193695 0.251444 0.621068
O O12 0.759528 0.182311 0.700027
O O13 0.350998 0.433574 0.105222
O O14 0.068454 0.338060 0.177265
O O15 0.403951 0.732483 0.772206
#
# Coordination Sequence:
#
# PCOD9172275 Si02
#       7
#     8   8   4   8   8   8   4
#     4  10  18  29  48  72 100 130 165 211 265 329
#     4  10  21  37  58  88 128 164 192 228 286 346
#     4   8  15  26  42  66  96 128 152 187 253 316
#     4  10  21  37  59  87 115 149 204 249 276 326
#     4  10  19  33  51  73 101 130 168 214 269 326
#     4  10  21  38  58  76 100 139 183 226 269 315
#     4   8  16  28  45  72  98 118 154 205 249 314
#
# _framework density 20.284803
#
# number of rings (size 3 to 8) (size 9 to 14) (size 15 to 20)
#    0.000    2.333    0.000    2.750    0.000    2.000 
#    1.500    5.000    0.000   10.000    0.000    0.000 
#    0.000    0.000    0.000    0.000    0.000    0.000 
#
# Total GULP energy -133660.374965 kJ/mol
# GULP energy per Si atom -5569.182290 kJ/mol
# Density = 2.023863 g / cm^3
# Si number density = 20.284803 Si / 1000 Ang^3
#
#
#
# Elastic Constant Matrix: (Units=GPa)
#
#
# Indices 1 2 3 4 5 6 
#
# 1 184.3215 0.3425 20.8307 0.0000 -6.5658 0.0000
# 2 0.3425 63.8702 37.5475 0.0000 6.1508 0.0000
# 3 20.8307 37.5475 81.4299 0.0000 -2.7078 0.0000
# 4 0.0000 0.0000 0.0000 13.7076 0.0000 -4.9162
# 5 -6.5658 6.1508 -2.7078 0.0000 24.7694 0.0000
# 6 0.0000 0.0000 0.0000 -4.9162 0.0000 9.6371
#
#
#
# Elastic Compliance Matrix: (Units=1/GPa)
#
#
# Indices 1 2 3 4 5 6 
#
# 1 0.005671 0.000960 -0.001858 0.000000 0.001062 0.000000
# 2 0.000960 0.022716 -0.010939 0.000000 -0.006582 0.000000
# 3 -0.001858 -0.010939 0.017939 0.000000 0.004185 0.000000
# 4 0.000000 0.000000 0.000000 0.089289 0.000000 0.045549
# 5 0.001062 -0.006582 0.004185 0.000000 0.042746 0.000000
# 6 0.000000 0.000000 0.000000 0.045549 0.000000 0.127002
#
#
# Mechanical properties :
#
#
# Convention : Reuss Voigt Hill
#
# Bulk Modulus (GPa) = 44.14636 49.67366 46.91001
# Shear Modulus (GPa) = 14.85495 27.68287 21.26891
#
# Velocity S-wave (km/s) = 2.70908 3.69821 3.24159
# Velocity P-wave (km/s) = 5.62103 6.54041 6.09807
#
# Compressibility (1/GPa) = 0.02265193
#
# Stress axis : x y z
#
# Youngs Moduli (GPa) = 176.32592 44.02164 55.74498
#
# Poissons Ratio (x) = -0.04224 0.10357
# Poissons Ratio (y) = -0.16919 0.60978
# Poissons Ratio (z) = 0.32760 0.48154
#
# Static dielectric constant tensor:
#      x y z
#    x 1.850480 0.000000 -0.022050 
#    y 0.000000 1.742070 0.000000 
#    z -0.022050 0.000000 1.664160 
# 
# From -- ./inp_files/355040.got.cif
#   From: 2010.05.17/outbox.cif.g08.bks.cpg/sg12_178_cif.got.tgz:355040.got - 2010.06.03 13:09:07.
