data_PCOD9172706
_publ_section_title
;
Structure prediction by ZEFSAII (Michael W. Deem and Ramdas Pophale) SiO2 
 PCOD9172706
Probable space group: C 2/M
;
_chemical_formula_sum "Si O2"
_cell_formula_units_Z 56
_cell_length_a 28.328243
_cell_length_b 9.203231
_cell_length_c 18.217547
_cell_angle_alpha 90.000000
_cell_angle_beta 129.099708
_cell_angle_gamma 90.000000
_cell_volume 3685.864384
_symmetry_space_group_name_H-M "C 2/M"
_symmetry_group_IT_number 12
_symmetry_cell_setting 'monoclinic'
loop_
_space_group_symop_operation_xyz
x,y,z
-x,y,-z
-x,-y,-z
x,-y,z
1/2+x,1/2+y,z
1/2-x,1/2+y,-z
1/2-x,1/2-y,-z
1/2+x,1/2-y,z
loop_
_atom_site_type_symbol
_atom_site_label
_atom_site_fract_x
_atom_site_fract_y
_atom_site_fract_z
Si Si1 0.042143 0.171036 0.204519
Si Si2 0.531565 0.675447 0.359123
Si Si3 0.072028 0.333114 0.091020
Si Si4 0.185035 0.326672 0.938123
Si Si5 0.093423 0.328037 0.717002
Si Si6 0.572569 0.332742 0.553208
Si Si7 0.399240 0.671470 0.025403
O O1 0.055261 0.212329 0.301483
O O2 0.075431 0.263606 0.174934
O O3 0.055327 0.000000 0.206931
O O4 0.969263 0.188496 0.121147
O O5 0.522670 0.500000 0.353090
O O6 0.466584 0.750461 0.309118
O O7 0.574752 0.713674 0.470293
O O8 0.092515 0.500000 0.109468
O O9 0.103460 0.237723 0.058891
O O10 0.000000 0.331849 0.000000
O O11 0.190802 0.500000 0.953925
O O12 0.144362 0.257691 0.962693
O O13 0.250000 0.250000 0.000000
O O14 0.148842 0.301104 0.826566
O O15 0.082295 0.500000 0.702214
O O16 0.103233 0.264656 0.645217
O O17 0.500000 0.329669 0.500000
O O18 0.592545 0.500000 0.579841
O O19 0.385450 0.500000 0.012094
#
# Coordination Sequence:
#
# PCOD9172706 Si02
#       7
#     8   8   8   8   8   8   8
#     4   9  16  26  42  63  87 116 149 178 210 256
#     4   9  16  27  42  62  87 117 148 176 209 256
#     4   9  17  27  40  60  87 115 144 178 215 258
#     4  11  23  35  47  64  85 113 151 191 227 263
#     4  10  19  29  42  60  84 111 143 183 223 258
#     4   8  15  26  41  59  82 113 146 174 208 257
#     4  10  18  30  47  62  82 114 148 183 222 260
#
# _framework density 15.19318
#
# number of rings (size 3 to 8) (size 9 to 14) (size 15 to 20)
#    0.000    2.571    1.429    2.571    0.000    7.143 
#    0.000    0.000    0.000    0.000    0.000    0.000 
#    0.000    1.143    0.000    3.429    0.000    5.286 
#
# Total GULP energy -156000.019103 kJ/mol
# GULP energy per Si atom -5571.429254 kJ/mol
# Density = 1.515860 g / cm^3
# Si number density = 15.193180 Si / 1000 Ang^3
#
#
#
# Elastic Constant Matrix: (Units=GPa)
#
#
# Indices 1 2 3 4 5 6 
#
# 1 60.8731 48.9672 56.9510 0.0000 -29.0895 0.0000
# 2 48.9672 82.8087 60.8220 0.0000 -16.9238 0.0000
# 3 56.9510 60.8220 86.5690 0.0000 -34.6274 0.0000
# 4 0.0000 0.0000 0.0000 21.9823 0.0000 -5.9826
# 5 -29.0895 -16.9238 -34.6274 0.0000 33.3543 0.0000
# 6 0.0000 0.0000 0.0000 -5.9826 0.0000 22.6324
#
#
#
# Elastic Compliance Matrix: (Units=1/GPa)
#
#
# Indices 1 2 3 4 5 6 
#
# 1 0.055838 -0.017006 -0.014978 0.000000 0.024520 0.000000
# 2 -0.017006 0.032015 -0.018367 0.000000 -0.017656 0.000000
# 3 -0.014978 -0.018367 0.043364 0.000000 0.022637 0.000000
# 4 0.000000 0.000000 0.000000 0.049017 0.000000 0.012957
# 5 0.024520 -0.017656 0.022637 0.000000 0.065908 0.000000
# 6 0.000000 0.000000 0.000000 0.012957 0.000000 0.047610
#
#
# Mechanical properties :
#
#
# Convention : Reuss Voigt Hill
#
# Bulk Modulus (GPa) = 32.77205 62.63678 47.70442
# Shear Modulus (GPa) = 12.35708 19.82784 16.09246
#
# Velocity S-wave (km/s) = 2.85499 3.61647 3.25805
# Velocity P-wave (km/s) = 5.69956 7.66517 6.75425
#
# Compressibility (1/GPa) = 0.03051381
#
# Stress axis : x y z
#
# Youngs Moduli (GPa) = 17.90903 31.23572 23.06045
#
# Poissons Ratio (x) = 0.53121 0.34539
# Poissons Ratio (y) = 0.30457 0.42356
# Poissons Ratio (z) = 0.26823 0.57372
#
# Static dielectric constant tensor:
#      x y z
#    x 1.487500 0.000000 -0.034910 
#    y 0.000000 1.506480 0.000000 
#    z -0.034910 0.000000 1.510020 
# 
# From -- ./inp_files/288457.got.cif
#   From: 2010.05.17/outbox.cif.g08.bks.cpg/sg12_145_cif.got.tgz:288457.got - 2010.06.03 13:09:07.
