data_PCOD9172361
_publ_section_title
;
Structure prediction by ZEFSAII (Michael W. Deem and Ramdas Pophale) SiO2 
 PCOD9172361
Probable space group: C 2/M
;
_chemical_formula_sum "Si O2"
_cell_formula_units_Z 56
_cell_length_a 15.610576
_cell_length_b 14.708685
_cell_length_c 22.109759
_cell_angle_alpha 90.000000
_cell_angle_beta 33.872244
_cell_angle_gamma 90.000000
_cell_volume 2829.432267
_symmetry_space_group_name_H-M "C 2/M"
_symmetry_group_IT_number 12
_symmetry_cell_setting 'monoclinic'
loop_
_space_group_symop_operation_xyz
x,y,z
-x,y,-z
-x,-y,-z
x,-y,z
1/2+x,1/2+y,z
1/2-x,1/2+y,-z
1/2-x,1/2-y,-z
1/2+x,1/2-y,z
loop_
_atom_site_type_symbol
_atom_site_label
_atom_site_fract_x
_atom_site_fract_y
_atom_site_fract_z
Si Si1 0.484775 0.103840 0.648031
Si Si2 0.150917 0.395840 0.141338
Si Si3 0.046842 0.787711 0.039334
Si Si4 0.929671 0.602615 0.155257
Si Si5 0.684182 0.599970 0.393639
Si Si6 0.320894 0.395429 0.256516
Si Si7 0.653079 0.787396 0.453767
O O1 0.437360 0.121902 0.744428
O O2 0.327699 0.108142 0.700516
O O3 0.600984 0.172390 0.547817
O O4 0.542530 0.000000 0.609061
O O5 0.216592 0.500000 0.107431
O O6 0.036005 0.395862 0.152571
O O7 0.277669 0.318406 0.057002
O O8 0.995879 0.682636 0.075302
O O9 0.952250 0.838983 0.146611
O O10 0.000000 0.820567 0.000000
O O11 0.932555 0.500000 0.127983
O O12 0.759935 0.620145 0.283456
O O13 0.500000 0.593707 0.500000
O O14 0.743556 0.500000 0.377273
O O15 0.717184 0.685349 0.416621
O O16 0.365363 0.500000 0.237885
O O17 0.271016 0.351425 0.349001
O O18 0.500000 0.786047 0.500000
#
# Coordination Sequence:
#
# PCOD9172361 Si02
#       7
#     8   8   8   8   8   8   8
#     4   9  17  30  50  78 110 143 177 214 270 337
#     4  10  21  37  57  82 115 151 186 227 279 341
#     4  12  22  34  57  83 111 147 189 237 275 329
#     4  10  22  40  57  79 111 149 191 233 283 334
#     4   9  17  31  54  77 101 137 187 233 268 316
#     4  10  18  29  48  79 112 139 174 226 277 326
#     4   9  16  28  49  76 108 136 173 223 278 324
#
# _framework density 19.791957
#
# number of rings (size 3 to 8) (size 9 to 14) (size 15 to 20)
#    0.000    2.143    2.857    1.286    0.000    2.571 
#    0.000    0.714    0.000    0.857    0.000    0.000 
#    0.000    0.000    0.000    0.000    0.000    0.000 
#
# Total GULP energy -156216.255037 kJ/mol
# GULP energy per Si atom -5579.151966 kJ/mol
# Density = 1.974691 g / cm^3
# Si number density = 19.791957 Si / 1000 Ang^3
#
#
#
# Elastic Constant Matrix: (Units=GPa)
#
#
# Indices 1 2 3 4 5 6 
#
# 1 20.0586 -6.0824 8.5945 0.0002 -2.9442 0.0001
# 2 -6.0824 127.6934 63.6957 0.0007 4.3096 -0.0003
# 3 8.5945 63.6957 104.5300 0.0023 5.3833 -0.0012
# 4 0.0002 0.0007 0.0023 33.5943 -0.0012 -2.6800
# 5 -2.9442 4.3096 5.3833 -0.0012 20.8075 0.0005
# 6 0.0001 -0.0003 -0.0012 -2.6800 0.0005 8.9621
#
#
#
# Elastic Compliance Matrix: (Units=1/GPa)
#
#
# Indices 1 2 3 4 5 6 
#
# 1 0.057492 0.007216 -0.009594 0.000000 0.009123 -0.000002
# 2 0.007216 0.012163 -0.008035 0.000000 0.000581 -0.000001
# 3 -0.009594 -0.008035 0.015442 -0.000001 -0.003688 0.000002
# 4 0.000000 0.000000 -0.000001 0.030494 0.000002 0.009119
# 5 0.009123 0.000581 -0.003688 0.000002 0.050184 -0.000003
# 6 -0.000002 -0.000001 0.000002 0.009119 -0.000003 0.114308
#
#
# Mechanical properties :
#
#
# Convention : Reuss Voigt Hill
#
# Bulk Modulus (GPa) = 15.55902 42.74416 29.15159
# Shear Modulus (GPa) = 15.51190 25.07773 20.29482
#
# Velocity S-wave (km/s) = 2.80259 3.56345 3.20567
# Velocity P-wave (km/s) = 4.28381 6.21084 5.33505
#
# Compressibility (1/GPa) = 0.06427139
#
# Stress axis : x y z
#
# Youngs Moduli (GPa) = 17.39372 82.21378 64.76019
#
# Poissons Ratio (x) = -0.59328 0.62132
# Poissons Ratio (y) = -0.12552 0.52035
# Poissons Ratio (z) = 0.16688 0.66059
#
# Static dielectric constant tensor:
#      x y z
#    x 1.701790 0.000000 -0.027520 
#    y 0.000000 1.737750 0.000000 
#    z -0.027520 0.000000 1.683760 
# 
# From -- ./inp_files/143742.got.cif
#   From: 2010.05.17/outbox.cif.g08.bks.cpg/sg12_72_cif.got.tgz:143742.got - 2010.06.03 13:09:07.
