data_PCOD9172802
_publ_section_title
;
Structure prediction by ZEFSAII (Michael W. Deem and Ramdas Pophale) SiO2 
 PCOD9172802
Probable space group: C 2/M
;
_chemical_formula_sum "Si O2"
_cell_formula_units_Z 52
_cell_length_a 19.174178
_cell_length_b 7.498945
_cell_length_c 14.110396
_cell_angle_alpha 90.000000
_cell_angle_beta 72.493962
_cell_angle_gamma 90.000000
_cell_volume 1934.911892
_symmetry_space_group_name_H-M "C 2/M"
_symmetry_group_IT_number 12
_symmetry_cell_setting 'monoclinic'
loop_
_space_group_symop_operation_xyz
x,y,z
-x,y,-z
-x,-y,-z
x,-y,z
1/2+x,1/2+y,z
1/2-x,1/2+y,-z
1/2-x,1/2-y,-z
1/2+x,1/2-y,z
loop_
_atom_site_type_symbol
_atom_site_label
_atom_site_fract_x
_atom_site_fract_y
_atom_site_fract_z
Si Si1 0.860518 0.189581 0.946921
Si Si2 0.674220 0.295267 0.329916
Si Si3 0.733264 0.000000 0.098079
Si Si4 0.859767 0.705936 0.452334
Si Si5 0.983191 0.707285 0.130104
Si Si6 0.170944 0.720371 0.750507
Si Si7 0.982460 0.785204 0.664873
O O1 0.830330 0.345565 0.894232
O O2 0.943174 0.222138 0.949345
O O3 0.863791 0.000000 0.891976
O O4 0.798837 0.153438 0.051032
O O5 0.674984 0.500000 0.299050
O O6 0.677473 0.295737 0.442843
O O7 0.747988 0.207410 0.259015
O O8 0.596118 0.215984 0.336206
O O9 0.839126 0.500000 0.465003
O O10 0.841057 0.771864 0.354787
O O11 0.947541 0.722871 0.423097
O O12 0.976906 0.500000 0.109705
O O13 0.004204 0.727346 0.232838
O O14 0.900858 0.782911 0.164864
O O15 0.171814 0.500000 0.754679
O O16 0.982617 0.000000 0.658246
#
# Coordination Sequence:
#
# PCOD9172802 Si02
#       7
#     8   8   4   8   8   8   8
#     4   9  15  27  45  70 104 130 155 188 232 275
#     4  10  19  32  47  61  85 117 155 198 236 281
#     4   8  16  26  44  74 102 128 154 192 226 274
#     4  10  19  31  47  64  83 111 149 199 249 285
#     4  10  18  30  48  68  96 126 151 188 234 280
#     4   8  17  31  45  64  87 117 155 191 236 286
#     4  10  20  31  44  64  87 118 157 191 234 287
#
# _framework density 26.874609
#
# number of rings (size 3 to 8) (size 9 to 14) (size 15 to 20)
#    0.462    2.154    0.769    3.231    0.000    3.077 
#    0.000    3.846    0.000    0.000    0.000    0.000 
#    0.000    7.385    0.000    0.000    0.000    0.000 
#
# Total GULP energy -144939.162514 kJ/mol
# GULP energy per Si atom -5574.583174 kJ/mol
# Density = 2.681344 g / cm^3
# Si number density = 26.874609 Si / 1000 Ang^3
#
#
#
# Elastic Constant Matrix: (Units=GPa)
#
#
# Indices 1 2 3 4 5 6 
#
# 1 217.8451 11.4771 55.2697 0.0000 -51.3783 0.0000
# 2 11.4771 112.3544 -14.2432 0.0000 -3.0869 0.0000
# 3 55.2697 -14.2432 140.2936 0.0000 -31.0763 0.0000
# 4 0.0000 0.0000 0.0000 -4.2083 0.0000 -26.7849
# 5 -51.3783 -3.0869 -31.0763 0.0000 55.2751 0.0000
# 6 0.0000 0.0000 0.0000 -26.7849 0.0000 8.2218
#
#
#
# Elastic Compliance Matrix: (Units=1/GPa)
#
#
# Indices 1 2 3 4 5 6 
#
# 1 0.006131 -0.000670 -0.001404 0.000000 0.004872 0.000000
# 2 -0.000670 0.009156 0.001335 0.000000 0.000639 0.000000
# 3 -0.001404 0.001335 0.008617 0.000000 0.003614 0.000000
# 4 0.000000 0.000000 0.000000 -0.010933 0.000000 -0.035617
# 5 0.004872 0.000639 0.003614 0.000000 0.024687 0.000000
# 6 0.000000 0.000000 0.000000 -0.035617 0.000000 0.005596
#
#
# Mechanical properties :
#
#
# Convention : Reuss Voigt Hill
#
# Bulk Modulus (GPa) = 44.59351 63.94448 54.26900
# Shear Modulus (GPa) = 95.77001 39.72367 67.74684
#
# Velocity S-wave (km/s) = 5.97605 3.84879 5.02625
# Velocity P-wave (km/s) = 8.01541 6.60274 7.34313
#
# Compressibility (1/GPa) = 0.02242479
#
# Stress axis : x y z
#
# Youngs Moduli (GPa) = 163.10442 109.22157 116.04674
#
# Poissons Ratio (x) = 0.07323 0.16296
# Poissons Ratio (y) = 0.10935 -0.15494
# Poissons Ratio (z) = 0.22904 -0.14583
#
# Static dielectric constant tensor:
#      x y z
#    x 2.151040 0.000000 0.041760 
#    y 0.000000 2.107220 0.000000 
#    z 0.041760 0.000000 2.155530 
# 
# From -- ./inp_files/313242.got.cif
#   From: 2010.05.17/outbox.cif.g08.bks.cpg/sg12_157_cif.got.tgz:313242.got - 2010.06.03 13:09:07.
