data_PCOD9172485
_publ_section_title
;
Structure prediction by ZEFSAII (Michael W. Deem and Ramdas Pophale) SiO2 
 PCOD9172485
Probable space group: C 2/M
;
_chemical_formula_sum "Si O2"
_cell_formula_units_Z 56
_cell_length_a 30.369608
_cell_length_b 18.541781
_cell_length_c 9.550415
_cell_angle_alpha 90.000000
_cell_angle_beta 35.324656
_cell_angle_gamma 90.000000
_cell_volume 3109.550095
_symmetry_space_group_name_H-M "C 2/M"
_symmetry_group_IT_number 12
_symmetry_cell_setting 'monoclinic'
loop_
_space_group_symop_operation_xyz
x,y,z
-x,y,-z
-x,-y,-z
x,-y,z
1/2+x,1/2+y,z
1/2-x,1/2+y,-z
1/2-x,1/2-y,-z
1/2+x,1/2-y,z
loop_
_atom_site_type_symbol
_atom_site_label
_atom_site_fract_x
_atom_site_fract_y
_atom_site_fract_z
Si Si1 0.733534 0.194136 0.870554
Si Si2 0.526546 0.298554 0.583815
Si Si3 0.769152 0.083332 0.551689
Si Si4 0.707584 0.082224 0.400739
Si Si5 0.321755 0.340106 0.912229
Si Si6 0.886445 0.718275 0.402150
Si Si7 0.069623 0.161557 0.915385
O O1 0.725239 0.131984 0.779106
O O2 0.757633 0.161705 0.956989
O O3 0.807291 0.240082 0.633828
O O4 0.672084 0.257134 0.048361
O O5 0.500000 0.273631 0.500000
O O6 0.596512 0.353960 0.369695
O O7 0.561021 0.239427 0.602110
O O8 0.459226 0.334247 0.850381
O O9 0.725001 0.086903 0.520034
O O10 0.853433 0.116861 0.308345
O O11 0.775657 0.000000 0.578614
O O12 0.638041 0.135882 0.547210
O O13 0.692104 0.000000 0.401364
O O14 0.785141 0.109395 0.123507
O O15 0.916542 0.757861 0.184165
O O16 0.000000 0.132397 0.000000
#
# Coordination Sequence:
#
# PCOD9172485 Si02
#       7
#     8   8   8   8   8   8   8
#     4   8  16  31  50  70  94 123 159 204 244 277
#     4  10  18  29  50  75  96 123 161 200 237 286
#     4  10  20  32  48  74 102 129 165 200 233 282
#     4  10  20  33  50  72  99 129 160 201 249 288
#     4   9  17  31  49  72  99 124 155 197 244 290
#     4   8  17  33  50  69  93 124 163 203 243 282
#     4   9  18  33  51  71  98 131 162 194 236 284
#
# _framework density 18.009035999999998
#
# number of rings (size 3 to 8) (size 9 to 14) (size 15 to 20)
#    0.000    2.857    0.000    2.571    0.000    7.143 
#    0.000    0.714    0.000    6.857    0.000    0.000 
#    0.000    0.000    0.000    0.000    0.000    0.000 
#
# Total GULP energy -155873.961344 kJ/mol
# GULP energy per Si atom -5566.927191 kJ/mol
# Density = 1.796805 g / cm^3
# Si number density = 18.009036 Si / 1000 Ang^3
#
#
#
# Elastic Constant Matrix: (Units=GPa)
#
#
# Indices 1 2 3 4 5 6 
#
# 1 39.8300 16.8270 -2.5255 0.0000 14.4979 0.0000
# 2 16.8270 81.0509 1.0141 0.0000 21.8751 0.0000
# 3 -2.5255 1.0141 57.4367 0.0000 27.1152 0.0000
# 4 0.0000 0.0000 0.0000 4.4801 0.0000 2.7553
# 5 14.4979 21.8751 27.1152 0.0000 30.3504 0.0000
# 6 0.0000 0.0000 0.0000 2.7553 0.0000 20.5807
#
#
#
# Elastic Compliance Matrix: (Units=1/GPa)
#
#
# Indices 1 2 3 4 5 6 
#
# 1 0.039065 0.001605 0.019101 0.000000 -0.036883 0.000000
# 2 0.001605 0.018265 0.010938 0.000000 -0.023704 0.000000
# 3 0.019101 0.010938 0.045114 0.000000 -0.057313 0.000000
# 4 0.000000 0.000000 0.000000 0.243240 0.000000 -0.032565
# 5 -0.036883 -0.023704 -0.057313 0.000000 0.118855 0.000000
# 6 0.000000 0.000000 0.000000 -0.032565 0.000000 0.052949
#
#
# Mechanical properties :
#
#
# Convention : Reuss Voigt Hill
#
# Bulk Modulus (GPa) = 6.03377 23.21654 14.62515
# Shear Modulus (GPa) = 9.81463 21.94903 15.88183
#
# Velocity S-wave (km/s) = 2.33702 3.49489 2.97287
# Velocity P-wave (km/s) = 3.26189 5.40419 4.46347
#
# Compressibility (1/GPa) = 0.16573389
#
# Stress axis : x y z
#
# Youngs Moduli (GPa) = 25.59844 54.74843 22.16597
#
# Poissons Ratio (x) = -0.08788 -0.42340
# Poissons Ratio (y) = -0.04109 -0.24246
# Poissons Ratio (z) = -0.48896 -0.59886
#
# Static dielectric constant tensor:
#      x y z
#    x 1.647510 0.000000 -0.003940 
#    y 0.000000 1.619940 0.000000 
#    z -0.003940 0.000000 1.678930 
# 
# From -- ./inp_files/112614.got.cif
#   From: 2010.05.17/outbox.cif.g08.bks.cpg/sg12_57_cif.got.tgz:112614.got - 2010.06.03 13:09:07.
