data_PCOD9172269
_publ_section_title
;
Structure prediction by ZEFSAII (Michael W. Deem and Ramdas Pophale) SiO2 
 PCOD9172269
Probable space group: C 2/M
;
_chemical_formula_sum "Si O2"
_cell_formula_units_Z 56
_cell_length_a 20.931943
_cell_length_b 16.329765
_cell_length_c 10.349019
_cell_angle_alpha 90.000000
_cell_angle_beta 137.916931
_cell_angle_gamma 90.000000
_cell_volume 2370.815942
_symmetry_space_group_name_H-M "C 2/M"
_symmetry_group_IT_number 12
_symmetry_cell_setting 'monoclinic'
loop_
_space_group_symop_operation_xyz
x,y,z
-x,y,-z
-x,-y,-z
x,-y,z
1/2+x,1/2+y,z
1/2-x,1/2+y,-z
1/2-x,1/2-y,-z
1/2+x,1/2-y,z
loop_
_atom_site_type_symbol
_atom_site_label
_atom_site_fract_x
_atom_site_fract_y
_atom_site_fract_z
Si Si1 0.897606 0.409425 0.698604
Si Si2 0.217424 0.589650 0.746855
Si Si3 0.923920 0.768920 0.689507
Si Si4 0.887189 0.737749 0.342243
Si Si5 0.384707 0.587049 0.332521
Si Si6 0.198369 0.910420 0.501744
Si Si7 0.558004 0.408659 0.951614
O O1 0.944898 0.500000 0.781406
O O2 0.842811 0.410390 0.477861
O O3 0.948270 0.320696 0.781489
O O4 0.811847 0.404484 0.673177
O O5 0.202835 0.500000 0.782434
O O6 0.175957 0.659119 0.777810
O O7 0.328461 0.599508 0.878906
O O8 0.878611 0.752250 0.482632
O O9 0.844759 0.830023 0.632608
O O10 0.013542 0.829740 0.814343
O O11 0.857837 0.824296 0.236243
O O12 0.000000 0.720829 0.500000
O O13 0.500000 0.587894 0.500000
O O14 0.353484 0.500000 0.227184
O O15 0.346633 0.585589 0.422969
O O16 0.177273 0.000000 0.407401
O O17 0.537420 0.500000 0.864744
O O18 0.500000 0.407672 0.000000
#
# Coordination Sequence:
#
# PCOD9172269 Si02
#       7
#     8   8   8   8   8   8   8
#     4   9  17  29  46  70  97 125 161 204 247 290
#     4   9  18  32  49  71 100 128 158 202 250 295
#     4  10  18  29  48  71  96 128 163 201 245 294
#     4   9  18  32  50  73  97 126 166 208 247 287
#     4   8  14  24  38  59  88 118 147 185 232 278
#     4   9  15  23  39  64  91 117 151 195 239 284
#     4  10  20  33  50  74 104 133 159 195 247 302
#
# _framework density 23.620560000000001
#
# number of rings (size 3 to 8) (size 9 to 14) (size 15 to 20)
#    0.000    2.857    0.000    1.714    0.000    5.429 
#    0.000    0.714    0.000    1.286    0.000    0.000 
#    0.000    0.000    0.000    0.000    0.000    0.000 
#
# Total GULP energy -155940.246562 kJ/mol
# GULP energy per Si atom -5569.294520 kJ/mol
# Density = 2.356680 g / cm^3
# Si number density = 23.620560 Si / 1000 Ang^3
#
#
#
# Elastic Constant Matrix: (Units=GPa)
#
#
# Indices 1 2 3 4 5 6 
#
# 1 44.3796 52.9843 -9.6078 0.0000 2.2523 0.0000
# 2 52.9843 280.3037 44.9278 0.0000 25.6054 0.0000
# 3 -9.6078 44.9278 50.7943 0.0000 1.3694 0.0000
# 4 0.0000 0.0000 0.0000 8.4064 0.0000 12.6867
# 5 2.2523 25.6054 1.3694 0.0000 20.8127 0.0000
# 6 0.0000 0.0000 0.0000 12.6867 0.0000 23.6109
#
#
#
# Elastic Compliance Matrix: (Units=1/GPa)
#
#
# Indices 1 2 3 4 5 6 
#
# 1 0.038327 -0.010586 0.016403 0.000000 0.007797 0.000000
# 2 -0.010586 0.007643 -0.008555 0.000000 -0.007694 0.000000
# 3 0.016403 -0.008555 0.030174 0.000000 0.006764 0.000000
# 4 0.000000 0.000000 0.000000 0.629108 0.000000 -0.338035
# 5 0.007797 -0.007694 0.006764 0.000000 0.056224 0.000000
# 6 0.000000 0.000000 0.000000 -0.338035 0.000000 0.223988
#
#
# Mechanical properties :
#
#
# Convention : Reuss Voigt Hill
#
# Bulk Modulus (GPa) = 14.15079 61.34290 37.74684
# Shear Modulus (GPa) = 4.92855 29.71089 17.31972
#
# Velocity S-wave (km/s) = 1.44606 3.55045 2.71079
# Velocity P-wave (km/s) = 2.96513 6.54478 5.08066
#
# Compressibility (1/GPa) = 0.07066744
#
# Stress axis : x y z
#
# Youngs Moduli (GPa) = 26.09145 130.84531 33.14075
#
# Poissons Ratio (x) = 1.38513 -0.54360
# Poissons Ratio (y) = 0.27620 0.28351
# Poissons Ratio (z) = -0.42797 1.11936
#
# Static dielectric constant tensor:
#      x y z
#    x 2.107040 0.000000 -0.077280 
#    y 0.000000 2.027770 0.000000 
#    z -0.077280 0.000000 1.915480 
# 
# From -- ./inp_files/240465.got.cif
#   From: 2010.05.17/outbox.cif.g08.bks.cpg/sg12_121_cif.got.tgz:240465.got - 2010.06.03 13:09:07.
