data_PCOD9172720
_publ_section_title
;
Structure prediction by ZEFSAII (Michael W. Deem and Ramdas Pophale) SiO2 
 PCOD9172720
Probable space group: C 2/M
;
_chemical_formula_sum "Si O2"
_cell_formula_units_Z 56
_cell_length_a 35.654613
_cell_length_b 9.012817
_cell_length_c 14.804992
_cell_angle_alpha 90.000000
_cell_angle_beta 131.174800
_cell_angle_gamma 90.000000
_cell_volume 3581.038533
_symmetry_space_group_name_H-M "C 2/M"
_symmetry_group_IT_number 12
_symmetry_cell_setting 'monoclinic'
loop_
_space_group_symop_operation_xyz
x,y,z
-x,y,-z
-x,-y,-z
x,-y,z
1/2+x,1/2+y,z
1/2-x,1/2+y,-z
1/2-x,1/2-y,-z
1/2+x,1/2-y,z
loop_
_atom_site_type_symbol
_atom_site_label
_atom_site_fract_x
_atom_site_fract_y
_atom_site_fract_z
Si Si1 0.318590 0.323061 0.533863
Si Si2 0.141374 0.822601 0.849807
Si Si3 0.296844 0.822466 0.684865
Si Si4 0.443360 0.678200 0.428864
Si Si5 0.786522 0.326771 0.176451
Si Si6 0.684802 0.177823 0.082149
Si Si7 0.625188 0.828099 0.536063
O O1 0.322893 0.500000 0.540475
O O2 0.321479 0.259797 0.639582
O O3 0.262316 0.284854 0.410627
O O4 0.358301 0.253084 0.528868
O O5 0.092471 0.786433 0.713078
O O6 0.187620 0.755657 0.866350
O O7 0.145876 0.000000 0.863150
O O8 0.143625 0.748897 0.951579
O O9 0.319102 0.785555 0.817944
O O10 0.300416 0.000000 0.677165
O O11 0.500000 0.723740 0.500000
O O12 0.441996 0.500000 0.438244
O O13 0.419315 0.752468 0.478874
O O14 0.776897 0.500000 0.140085
O O15 0.737096 0.245514 0.131109
O O16 0.827198 0.320287 0.321151
O O17 0.685581 0.000000 0.074146
O O18 0.614277 0.000000 0.501472
#
# Coordination Sequence:
#
# PCOD9172720 Si02
#       7
#     8   8   8   8   8   8   8
#     4  10  18  30  47  67  93 127 165 200 234 274
#     4  10  20  32  47  67  92 121 156 194 234 282
#     4   9  19  31  44  64  93 129 165 200 233 268
#     4   9  19  36  55  73  94 121 155 197 242 287
#     4  10  19  30  44  64  92 127 163 194 227 270
#     4  11  20  31  45  64  94 129 162 193 230 274
#     4  10  19  30  48  72  98 126 158 197 238 283
#
# _framework density 15.637922
#
# number of rings (size 3 to 8) (size 9 to 14) (size 15 to 20)
#    0.000    2.143    1.429    2.571    0.000    3.714 
#    0.000    0.000    0.000    0.000    0.000    1.000 
#    0.000    8.000    0.000    0.000    0.000    0.000 
#
# Total GULP energy -156232.117978 kJ/mol
# GULP energy per Si atom -5579.718499 kJ/mol
# Density = 1.560233 g / cm^3
# Si number density = 15.637922 Si / 1000 Ang^3
#
#
#
# Elastic Constant Matrix: (Units=GPa)
#
#
# Indices 1 2 3 4 5 6 
#
# 1 120.8267 57.9045 66.5032 0.0000 -15.8414 0.0000
# 2 57.9045 68.1407 49.0656 0.0000 -16.1653 0.0000
# 3 66.5032 49.0656 81.4855 0.0000 -23.9301 0.0000
# 4 0.0000 0.0000 0.0000 23.3613 0.0000 -6.9413
# 5 -15.8414 -16.1653 -23.9301 0.0000 26.9045 0.0000
# 6 0.0000 0.0000 0.0000 -6.9413 0.0000 24.7099
#
#
#
# Elastic Compliance Matrix: (Units=1/GPa)
#
#
# Indices 1 2 3 4 5 6 
#
# 1 0.017463 -0.008262 -0.010444 0.000000 -0.003971 0.000000
# 2 -0.008262 0.029922 -0.010048 0.000000 0.004177 0.000000
# 3 -0.010444 -0.010048 0.031493 0.000000 0.015825 0.000000
# 4 0.000000 0.000000 0.000000 0.046704 0.000000 0.013120
# 5 -0.003971 0.004177 0.015825 0.000000 0.051416 0.000000
# 6 0.000000 0.000000 0.000000 0.013120 0.000000 0.044155
#
#
# Mechanical properties :
#
#
# Convention : Reuss Voigt Hill
#
# Bulk Modulus (GPa) = 46.79072 68.59994 57.69533
# Shear Modulus (GPa) = 17.49566 21.46044 19.47805
#
# Velocity S-wave (km/s) = 3.34847 3.70852 3.53309
# Velocity P-wave (km/s) = 6.70343 7.89306 7.32244
#
# Compressibility (1/GPa) = 0.02137176
#
# Stress axis : x y z
#
# Youngs Moduli (GPa) = 57.26280 33.41989 31.75263
#
# Poissons Ratio (x) = 0.27611 0.33162
# Poissons Ratio (y) = 0.47309 0.31905
# Poissons Ratio (z) = 0.59804 0.33581
#
# Static dielectric constant tensor:
#      x y z
#    x 1.490520 0.000000 -0.010170 
#    y 0.000000 1.520980 0.000000 
#    z -0.010170 0.000000 1.538240 
# 
# From -- ./inp_files/242997.got.cif
#   From: 2010.05.17/outbox.cif.g08.bks.cpg/sg12_122_cif.got.tgz:242997.got - 2010.06.03 13:09:07.
