data_PCOD9172491
_publ_section_title
;
Structure prediction by ZEFSAII (Michael W. Deem and Ramdas Pophale) SiO2 
 PCOD9172491
Probable space group: C 2/M
;
_chemical_formula_sum "Si O2"
_cell_formula_units_Z 40
_cell_length_a 18.516535
_cell_length_b 7.715907
_cell_length_c 26.715668
_cell_angle_alpha 90.000000
_cell_angle_beta 149.251563
_cell_angle_gamma 90.000000
_cell_volume 1951.473906
_symmetry_space_group_name_H-M "C 2/M"
_symmetry_group_IT_number 12
_symmetry_cell_setting 'monoclinic'
loop_
_space_group_symop_operation_xyz
x,y,z
-x,y,-z
-x,-y,-z
x,-y,z
1/2+x,1/2+y,z
1/2-x,1/2+y,-z
1/2-x,1/2-y,-z
1/2+x,1/2-y,z
loop_
_atom_site_type_symbol
_atom_site_label
_atom_site_fract_x
_atom_site_fract_y
_atom_site_fract_z
Si Si1 0.148793 0.703280 0.293009
Si Si2 0.804825 0.295834 0.284057
Si Si3 0.169271 0.291085 0.900813
Si Si4 0.837021 0.212143 0.902934
Si Si5 0.579664 0.709168 0.496106
O O1 0.133763 0.500000 0.295810
O O2 0.225174 0.715644 0.284484
O O3 0.260607 0.774021 0.400590
O O4 0.991567 0.777321 0.196331
O O5 0.776746 0.500000 0.270420
O O6 0.741968 0.230587 0.194512
O O7 0.973232 0.268632 0.389712
O O8 0.162904 0.500000 0.894198
O O9 0.256968 0.229188 0.905061
O O10 0.250000 0.250000 0.000000
O O11 0.835310 0.000000 0.902062
O O12 0.000000 0.266244 0.000000
O O13 0.500000 0.761378 0.500000
O O14 0.582392 0.500000 0.496168
#
# Coordination Sequence:
#
# PCOD9172491 Si02
#       5
#     8   8   8   8   8
#     4   9  18  32  50  71  97 131 163 193 236 287
#     4  10  18  29  50  76  98 124 161 202 238 276
#     4  10  20  35  53  72  96 126 162 200 239 286
#     4   9  18  32  49  70  97 127 156 192 243 294
#     4   8  15  29  47  68  97 131 162 191 232 285
#
# _framework density 20.497329000000001
#
# number of rings (size 3 to 8) (size 9 to 14) (size 15 to 20)
#    0.000    2.800    0.000    3.000    0.000    6.000 
#    0.000    3.000    0.000    5.400    0.000    0.000 
#    0.000    0.000    0.000    0.000    0.000    0.000 
#
# Total GULP energy -111510.900510 kJ/mol
# GULP energy per Si atom -5575.545026 kJ/mol
# Density = 2.045068 g / cm^3
# Si number density = 20.497329 Si / 1000 Ang^3
#
#
#
# Elastic Constant Matrix: (Units=GPa)
#
#
# Indices 1 2 3 4 5 6 
#
# 1 90.4080 -7.7872 95.9130 0.0000 4.5716 -0.0002
# 2 -7.7872 28.2294 4.5376 -0.0001 4.8660 -0.0008
# 3 95.9130 4.5376 250.3360 0.0000 2.6403 0.0001
# 4 0.0000 -0.0001 0.0000 21.8913 0.0000 -7.5332
# 5 4.5716 4.8660 2.6403 0.0000 34.9444 0.0000
# 6 -0.0002 -0.0008 0.0001 -7.5332 0.0000 -0.3295
#
#
#
# Elastic Compliance Matrix: (Units=1/GPa)
#
#
# Indices 1 2 3 4 5 6 
#
# 1 0.020143 0.007342 -0.007818 -0.000001 -0.003067 -0.000004
# 2 0.007342 0.039063 -0.003456 -0.000004 -0.006139 -0.000011
# 3 -0.007818 -0.003456 0.007042 0.000001 0.000972 0.000002
# 4 -0.000001 -0.000004 0.000001 0.005152 0.000001 -0.117775
# 5 -0.003067 -0.006139 0.000972 0.000001 0.029799 0.000002
# 6 -0.000004 -0.000011 0.000002 -0.117775 0.000002 -0.342253
#
#
# Mechanical properties :
#
#
# Convention : Reuss Voigt Hill
#
# Bulk Modulus (GPa) = 17.12830 61.58892 39.35861
# Shear Modulus (GPa) = -23.39424 29.72191 3.16384
#
# Velocity S-wave (km/s) = -3.38202 3.81207 1.24374
# Velocity P-wave (km/s) = 2.62227 7.03479 4.61585
#
# Compressibility (1/GPa) = 0.05838290
#
# Stress axis : x y z
#
# Youngs Moduli (GPa) = 49.64617 25.59963 141.99649
#
# Poissons Ratio (x) = -0.18795 1.11014
# Poissons Ratio (y) = -0.36449 0.49077
# Poissons Ratio (z) = 0.38814 0.08848
#
# Static dielectric constant tensor:
#      x y z
#    x 1.690140 0.000000 0.011900 
#    y 0.000000 1.765860 0.000000 
#    z 0.011900 0.000000 1.770840 
# 
# From -- ./inp_files/179664.got.cif
#   From: 2010.05.17/outbox.cif.g08.bks.cpg/sg12_90_cif.got.tgz:179664.got - 2010.06.03 13:09:07.
