data_PCOD9172704
_publ_section_title
;
Structure prediction by ZEFSAII (Michael W. Deem and Ramdas Pophale) SiO2 
 PCOD9172704
Probable space group: C 2/M
;
_chemical_formula_sum "Si O2"
_cell_formula_units_Z 48
_cell_length_a 9.594243
_cell_length_b 24.853710
_cell_length_c 16.985011
_cell_angle_alpha 90.000000
_cell_angle_beta 133.934802
_cell_angle_gamma 90.000000
_cell_volume 2916.611313
_symmetry_space_group_name_H-M "C 2/M"
_symmetry_group_IT_number 12
_symmetry_cell_setting 'monoclinic'
loop_
_space_group_symop_operation_xyz
x,y,z
-x,y,-z
-x,-y,-z
x,-y,z
1/2+x,1/2+y,z
1/2-x,1/2+y,-z
1/2-x,1/2-y,-z
1/2+x,1/2-y,z
loop_
_atom_site_type_symbol
_atom_site_label
_atom_site_fract_x
_atom_site_fract_y
_atom_site_fract_z
Si Si1 0.542549 0.158611 0.629778
Si Si2 0.059222 0.644382 0.230085
Si Si3 0.777509 0.787338 0.933952
Si Si4 0.594979 0.436039 0.622729
Si Si5 0.828629 0.866150 0.620809
Si Si6 0.363248 0.727772 0.280307
O O1 0.497868 0.144492 0.701331
O O2 0.356277 0.142932 0.506910
O O3 0.734113 0.130690 0.669940
O O4 0.574169 0.222794 0.640313
O O5 0.200718 0.593096 0.278003
O O6 0.194519 0.694340 0.256753
O O7 0.856300 0.659380 0.108376
O O8 0.703230 0.753690 0.828502
O O9 0.750000 0.750000 0.000000
O O10 0.000000 0.799925 0.000000
O O11 0.500000 0.419406 0.500000
O O12 0.615756 0.500000 0.629494
O O13 0.448697 0.415655 0.632978
O O14 0.965452 0.814149 0.668143
#
# Coordination Sequence:
#
# PCOD9172704 Si02
#       6
#     8   8   8   8   8   8
#     4  10  18  30  46  77 111 140 170 207 259 314
#     4  10  20  34  52  77 105 141 179 214 255 313
#     4  11  21  35  51  78 111 145 177 212 257 309
#     4  10  20  38  57  74 100 138 181 221 265 315
#     4  10  20  31  48  75 106 142 173 211 258 312
#     4  10  20  31  49  74 111 143 176 202 255 323
#
# _framework density 16.457455
#
# number of rings (size 3 to 8) (size 9 to 14) (size 15 to 20)
#    0.000    1.833    3.333    2.500    2.333    1.333 
#    0.000    2.500    0.000    0.500    0.000    9.333 
#    0.000    0.000    0.000    0.000    0.000    0.000 
#
# Total GULP energy -133652.793966 kJ/mol
# GULP energy per Si atom -5568.866415 kJ/mol
# Density = 1.642000 g / cm^3
# Si number density = 16.457455 Si / 1000 Ang^3
#
#
#
# Elastic Constant Matrix: (Units=GPa)
#
#
# Indices 1 2 3 4 5 6 
#
# 1 136.4152 32.0909 34.0451 0.0000 14.4453 0.0000
# 2 32.0909 71.8223 24.9204 0.0000 11.6782 0.0000
# 3 34.0451 24.9204 51.7499 0.0000 14.1229 0.0000
# 4 0.0000 0.0000 0.0000 12.1689 0.0000 5.6962
# 5 14.4453 11.6782 14.1229 0.0000 34.8769 0.0000
# 6 0.0000 0.0000 0.0000 5.6962 0.0000 -1.1333
#
#
#
# Elastic Compliance Matrix: (Units=1/GPa)
#
#
# Indices 1 2 3 4 5 6 
#
# 1 0.009140 -0.002304 -0.004588 0.000000 -0.001156 0.000000
# 2 -0.002304 0.017514 -0.006271 0.000000 -0.002371 0.000000
# 3 -0.004588 -0.006271 0.027286 0.000000 -0.007049 0.000000
# 4 0.000000 0.000000 0.000000 0.024511 0.000000 0.123194
# 5 -0.001156 -0.002371 -0.007049 0.000000 0.032799 0.000000
# 6 0.000000 0.000000 0.000000 0.123194 0.000000 -0.263184
#
#
# Mechanical properties :
#
#
# Convention : Reuss Voigt Hill
#
# Bulk Modulus (GPa) = 36.21436 49.12227 42.66831
# Shear Modulus (GPa) = -42.95397 20.44458 -11.25470
#
# Velocity S-wave (km/s) = -5.11436 3.52841 -2.61792
# Velocity P-wave (km/s) = 3.58091 6.82000 4.10423
#
# Compressibility (1/GPa) = 0.02761336
#
# Stress axis : x y z
#
# Youngs Moduli (GPa) = 109.40901 57.09682 36.64926
#
# Poissons Ratio (x) = 0.13155 0.16815
# Poissons Ratio (y) = 0.25207 0.22984
# Poissons Ratio (z) = 0.50197 0.35807
#
# Static dielectric constant tensor:
#      x y z
#    x 1.591850 0.000000 0.001380 
#    y 0.000000 1.534650 0.000000 
#    z 0.001380 0.000000 1.585630 
# 
# From -- ./inp_files/121861.got.cif
#   From: 2010.05.17/outbox.cif.g08.bks.cpg/sg12_61_cif.got.tgz:121861.got - 2010.06.03 13:09:07.
