data_PCOD9172192
_publ_section_title
;
Structure prediction by ZEFSAII (Michael W. Deem and Ramdas Pophale) SiO2 
 PCOD9172192
Probable space group: C 2/M
;
_chemical_formula_sum "Si O2"
_cell_formula_units_Z 56
_cell_length_a 33.437812
_cell_length_b 9.154991
_cell_length_c 18.658779
_cell_angle_alpha 90.000000
_cell_angle_beta 37.595971
_cell_angle_gamma 90.000000
_cell_volume 3484.757076
_symmetry_space_group_name_H-M "C 2/M"
_symmetry_group_IT_number 12
_symmetry_cell_setting 'monoclinic'
loop_
_space_group_symop_operation_xyz
x,y,z
-x,y,-z
-x,-y,-z
x,-y,z
1/2+x,1/2+y,z
1/2-x,1/2+y,-z
1/2-x,1/2-y,-z
1/2+x,1/2-y,z
loop_
_atom_site_type_symbol
_atom_site_label
_atom_site_fract_x
_atom_site_fract_y
_atom_site_fract_z
Si Si1 0.727905 0.673588 0.419311
Si Si2 0.015391 0.824937 0.895525
Si Si3 0.801415 0.831666 0.828743
Si Si4 0.609576 0.673847 0.024982
Si Si5 0.652319 0.167833 0.102540
Si Si6 0.753859 0.325429 0.758254
Si Si7 0.852643 0.326687 0.343713
O O1 0.717317 0.500000 0.428057
O O2 0.729470 0.749558 0.340128
O O3 0.797667 0.696913 0.360230
O O4 0.674322 0.745979 0.547449
O O5 0.079004 0.740351 0.778364
O O6 0.952383 0.789997 0.936219
O O7 0.026922 0.000000 0.874800
O O8 0.000000 0.789807 0.000000
O O9 0.846034 0.757234 0.825988
O O10 0.796476 0.740706 0.762656
O O11 0.819403 0.000000 0.790501
O O12 0.727361 0.830810 0.966333
O O13 0.609337 0.500000 0.039512
O O14 0.610851 0.758238 0.098306
O O15 0.677675 0.705623 0.886820
O O16 0.633717 0.000000 0.140700
O O17 0.761579 0.500000 0.743100
O O18 0.857486 0.500000 0.349322
#
# Coordination Sequence:
#
# PCOD9172192 Si02
#       7
#     8   8   8   8   8   8   8
#     4  10  20  34  51  70  94 124 158 197 241 286
#     4  10  20  34  51  71  97 129 162 195 235 283
#     4   9  16  26  41  63  93 125 156 192 236 284
#     4   9  18  30  45  67  96 130 162 193 235 285
#     4   9  16  26  41  62  90 124 160 196 234 278
#     4  10  18  29  47  71  98 126 159 197 236 280
#     4  10  21  35  51  71  94 123 160 200 240 280
#
# _framework density 16.069986
#
# number of rings (size 3 to 8) (size 9 to 14) (size 15 to 20)
#    0.000    2.429    0.000    3.000    0.000    7.714 
#    0.000    0.000    0.000    0.000    0.000    1.000 
#    0.000    8.000    0.000    0.000    0.000    0.000 
#
# Total GULP energy -156176.738643 kJ/mol
# GULP energy per Si atom -5577.740666 kJ/mol
# Density = 1.603341 g / cm^3
# Si number density = 16.069986 Si / 1000 Ang^3
#
#
#
# Elastic Constant Matrix: (Units=GPa)
#
#
# Indices 1 2 3 4 5 6 
#
# 1 140.6303 88.0179 70.4740 -0.0007 23.8689 0.0001
# 2 88.0179 101.1584 63.0476 -0.0006 19.7080 -0.0004
# 3 70.4740 63.0476 82.1865 -0.0014 16.4755 0.0009
# 4 -0.0007 -0.0006 -0.0014 26.3531 0.0004 4.8638
# 5 23.8689 19.7080 16.4755 0.0004 25.5349 0.0000
# 6 0.0001 -0.0004 0.0009 4.8638 0.0000 28.7947
#
#
#
# Elastic Compliance Matrix: (Units=1/GPa)
#
#
# Indices 1 2 3 4 5 6 
#
# 1 0.017515 -0.010693 -0.005959 0.000000 -0.004275 0.000000
# 2 -0.010693 0.026313 -0.010278 0.000000 -0.003681 0.000001
# 3 -0.005959 -0.010278 0.025791 0.000001 -0.003138 -0.000001
# 4 0.000000 0.000000 0.000001 0.039167 -0.000001 -0.006616
# 5 -0.004275 -0.003681 -0.003138 -0.000001 0.048023 0.000000
# 6 0.000000 0.000001 -0.000001 -0.006616 0.000000 0.035846
#
#
# Mechanical properties :
#
#
# Convention : Reuss Voigt Hill
#
# Bulk Modulus (GPa) = 63.45929 85.22825 74.34377
# Shear Modulus (GPa) = 19.85947 22.96559 21.41253
#
# Velocity S-wave (km/s) = 3.51922 3.78444 3.65424
# Velocity P-wave (km/s) = 7.48921 8.49981 8.01047
#
# Compressibility (1/GPa) = 0.01575813
#
# Stress axis : x y z
#
# Youngs Moduli (GPa) = 57.09253 38.00468 38.77329
#
# Poissons Ratio (x) = 0.40639 0.23106
# Poissons Ratio (y) = 0.61050 0.39851
# Poissons Ratio (z) = 0.34023 0.39061
#
# Static dielectric constant tensor:
#      x y z
#    x 1.526010 0.000000 0.000260 
#    y 0.000000 1.536250 0.000000 
#    z 0.000260 0.000000 1.504520 
# 
# From -- ./inp_files/295057.got.cif
#   From: 2010.05.17/outbox.cif.g08.bks.cpg/sg12_148_cif.got.tgz:295057.got - 2010.06.03 13:09:07.
