data_PCOD9172904
_publ_section_title
;
Structure prediction by ZEFSAII (Michael W. Deem and Ramdas Pophale) SiO2 
 PCOD9172904
Probable space group: C 2/M
;
_chemical_formula_sum "Si O2"
_cell_formula_units_Z 48
_cell_length_a 29.268672
_cell_length_b 10.475269
_cell_length_c 14.427719
_cell_angle_alpha 90.000000
_cell_angle_beta 151.568358
_cell_angle_gamma 90.000000
_cell_volume 2106.071521
_symmetry_space_group_name_H-M "C 2/M"
_symmetry_group_IT_number 12
_symmetry_cell_setting 'monoclinic'
loop_
_space_group_symop_operation_xyz
x,y,z
-x,y,-z
-x,-y,-z
x,-y,z
1/2+x,1/2+y,z
1/2-x,1/2+y,-z
1/2-x,1/2-y,-z
1/2+x,1/2-y,z
loop_
_atom_site_type_symbol
_atom_site_label
_atom_site_fract_x
_atom_site_fract_y
_atom_site_fract_z
Si Si1 0.045138 0.000000 0.976961
Si Si2 0.841653 0.143376 0.264725
Si Si3 0.787263 0.228407 0.364891
Si Si4 0.562125 0.755012 0.903564
Si Si5 0.963821 0.500000 0.038854
Si Si6 0.884767 0.648420 0.196969
Si Si7 0.744833 0.000000 0.405026
Si Si8 0.224493 0.500000 0.584438
O O1 0.022752 0.875857 0.875309
O O2 0.159992 0.000000 0.197173
O O3 0.000000 0.000000 0.000000
O O4 0.841967 0.171671 0.374456
O O5 0.889534 0.258671 0.293690
O O6 0.878403 0.000000 0.310607
O O7 0.728770 0.143219 0.033268
O O8 0.675089 0.240609 0.134272
O O9 0.814425 0.371610 0.439412
O O10 0.796085 0.130693 0.466523
O O11 0.511101 0.871997 0.863604
O O12 0.562244 0.783865 0.794696
O O13 0.848765 0.500000 0.826406
O O14 0.000000 0.500000 0.000000
O O15 0.914672 0.500000 0.262772
O O16 0.712126 0.000000 0.452082
#
# Coordination Sequence:
#
# PCOD9172904 Si02
#       8
#     4   8   8   8   4   8   4   4
#     4  10  20  32  45  65  93 123 156 192 225 268
#     4   9  16  25  39  60  88 120 148 179 224 276
#     4   9  17  29  43  62  91 122 150 184 230 273
#     4   9  17  29  43  62  91 122 149 184 231 271
#     4  10  18  30  49  67  89 123 154 186 227 270
#     4   9  16  25  39  61  88 117 149 182 222 277
#     4  10  18  32  47  65  93 121 154 192 223 270
#     4  10  20  30  47  67  89 125 156 188 231 264
#
# _framework density 22.791249000000001
#
# number of rings (size 3 to 8) (size 9 to 14) (size 15 to 20)
#    0.000    2.667    1.667    1.000    2.333    0.000 
#    0.000    0.000    0.000    0.000    0.000    0.000 
#    0.000    8.000    0.000    0.000    0.000    0.000 
#
# Total GULP energy -134096.532972 kJ/mol
# GULP energy per Si atom -5587.355541 kJ/mol
# Density = 2.273938 g / cm^3
# Si number density = 22.791249 Si / 1000 Ang^3
#
#
#
# Elastic Constant Matrix: (Units=GPa)
#
#
# Indices 1 2 3 4 5 6 
#
# 1 90.9738 64.6715 17.7547 0.0000 -26.0498 0.0000
# 2 64.6715 230.2643 18.0663 0.0000 -37.2578 0.0000
# 3 17.7547 18.0663 46.7572 0.0000 8.5697 0.0000
# 4 0.0000 0.0000 0.0000 -12.5905 0.0000 -37.2283
# 5 -26.0498 -37.2578 8.5697 0.0000 55.7429 0.0000
# 6 0.0000 0.0000 0.0000 -37.2283 0.0000 24.4387
#
#
#
# Elastic Compliance Matrix: (Units=1/GPa)
#
#
# Indices 1 2 3 4 5 6 
#
# 1 0.016204 -0.003013 -0.006182 0.000000 0.006509 0.000000
# 2 -0.003013 0.005744 -0.001565 0.000000 0.002672 0.000000
# 3 -0.006182 -0.001565 0.025787 0.000000 -0.007900 0.000000
# 4 0.000000 0.000000 0.000000 -0.014430 0.000000 -0.021981
# 5 0.006509 0.002672 -0.007900 0.000000 0.023982 0.000000
# 6 0.000000 0.000000 0.000000 -0.021981 0.000000 0.007434
#
#
# Mechanical properties :
#
#
# Convention : Reuss Voigt Hill
#
# Bulk Modulus (GPa) = 38.14525 63.22002 50.68263
# Shear Modulus (GPa) = 52.64251 31.35174 41.99712
#
# Velocity S-wave (km/s) = 4.81122 3.71294 4.29731
# Velocity P-wave (km/s) = 6.90195 6.79560 6.84898
#
# Compressibility (1/GPa) = 0.02621558
#
# Stress axis : x y z
#
# Youngs Moduli (GPa) = 61.71186 174.09009 38.77904
#
# Poissons Ratio (x) = 0.52451 0.23973
# Poissons Ratio (y) = 0.18593 0.06069
# Poissons Ratio (z) = 0.38150 0.27247
#
# Static dielectric constant tensor:
#      x y z
#    x 1.816120 0.000000 0.079430 
#    y 0.000000 1.821870 0.000000 
#    z 0.079430 0.000000 1.913900 
# 
# From -- ./inp_files/181707.got.cif
#   From: 2010.05.17/outbox.cif.g08.bks.cpg/sg12_91_cif.got.tgz:181707.got - 2010.06.03 13:09:07.
