data_PCOD9172529
_publ_section_title
;
Structure prediction by ZEFSAII (Michael W. Deem and Ramdas Pophale) SiO2 
 PCOD9172529
Probable space group: C 2/M
;
_chemical_formula_sum "Si O2"
_cell_formula_units_Z 36
_cell_length_a 25.116710
_cell_length_b 7.709673
_cell_length_c 8.412358
_cell_angle_alpha 90.000000
_cell_angle_beta 68.429781
_cell_angle_gamma 90.000000
_cell_volume 1514.901243
_symmetry_space_group_name_H-M "C 2/M"
_symmetry_group_IT_number 12
_symmetry_cell_setting 'monoclinic'
loop_
_space_group_symop_operation_xyz
x,y,z
-x,y,-z
-x,-y,-z
x,-y,z
1/2+x,1/2+y,z
1/2-x,1/2+y,-z
1/2-x,1/2-y,-z
1/2+x,1/2-y,z
loop_
_atom_site_type_symbol
_atom_site_label
_atom_site_fract_x
_atom_site_fract_y
_atom_site_fract_z
Si Si1 0.259601 0.292791 0.806246
Si Si2 0.464368 0.709297 0.875612
Si Si3 0.638163 0.703494 0.816388
Si Si4 0.000000 0.262665 0.500000
Si Si5 0.625876 0.297948 0.481594
O O1 0.258356 0.500000 0.792971
O O2 0.205311 0.221969 0.770087
O O3 0.320533 0.225389 0.675329
O O4 0.250000 0.250000 0.000000
O O5 0.467826 0.500000 0.829149
O O6 0.488576 0.811470 0.698270
O O7 0.500000 0.729089 0.000000
O O8 0.400465 0.767497 0.994844
O O9 0.622507 0.500000 0.831528
O O10 0.622261 0.779916 0.662356
O O11 0.065529 0.201256 0.458911
O O12 0.640111 0.500000 0.491658
#
# Coordination Sequence:
#
# PCOD9172529 Si02
#       5
#     8   8   8   4   8
#     4  11  23  39  58  85 116 154 198 242 294 352
#     4  10  18  29  50  83 118 151 191 240 291 340
#     4  10  20  37  59  88 119 150 194 244 295 353
#     4  12  19  30  52  84 123 154 189 246 299 342
#     4  10  20  33  55  86 118 151 193 244 297 348
#
# _framework density 23.763925
#
# number of rings (size 3 to 8) (size 9 to 14) (size 15 to 20)
#    0.000    1.556    2.222    4.667    0.000    3.556 
#    0.000    1.111    0.000    0.667    0.000    6.222 
#    0.000    0.000    0.000    0.000    0.000    0.000 
#
# Total GULP energy -100262.784680 kJ/mol
# GULP energy per Si atom -5570.154704 kJ/mol
# Density = 2.370984 g / cm^3
# Si number density = 23.763925 Si / 1000 Ang^3
#
#
#
# Elastic Constant Matrix: (Units=GPa)
#
#
# Indices 1 2 3 4 5 6 
#
# 1 130.7124 -1.6563 67.6948 0.0000 -12.3734 0.0000
# 2 -1.6563 49.0277 23.4595 0.0000 -2.0472 0.0000
# 3 67.6948 23.4595 203.5261 0.0000 -16.1214 0.0000
# 4 0.0000 0.0000 0.0000 -15.6633 0.0000 27.2628
# 5 -12.3734 -2.0472 -16.1214 0.0000 58.9591 0.0000
# 6 0.0000 0.0000 0.0000 27.2628 0.0000 -121.2993
#
#
#
# Elastic Compliance Matrix: (Units=1/GPa)
#
#
# Indices 1 2 3 4 5 6 
#
# 1 0.009487 0.001942 -0.003288 0.000000 0.001160 0.000000
# 2 0.001942 0.021985 -0.003156 0.000000 0.000308 0.000000
# 3 -0.003288 -0.003156 0.006447 0.000000 0.000963 0.000000
# 4 0.000000 0.000000 0.000000 -0.104868 0.000000 -0.023570
# 5 0.001160 0.000308 0.000963 0.000000 0.017478 0.000000
# 6 0.000000 0.000000 0.000000 -0.023570 0.000000 -0.013542
#
#
# Mechanical properties :
#
#
# Convention : Reuss Voigt Hill
#
# Bulk Modulus (GPa) = 34.58187 62.47358 48.52772
# Shear Modulus (GPa) = -112.68889 3.98384 -54.35252
#
# Velocity S-wave (km/s) = -6.89370 1.29617 -4.78764
# Velocity P-wave (km/s) = 6.98429 5.34663 3.17757
#
# Compressibility (1/GPa) = 0.02891689
#
# Stress axis : x y z
#
# Youngs Moduli (GPa) = 105.40325 45.48545 155.11330
#
# Poissons Ratio (x) = -0.08833 0.50995
# Poissons Ratio (y) = -0.20470 0.48948
# Poissons Ratio (z) = 0.34652 0.14354
#
# Static dielectric constant tensor:
#      x y z
#    x 1.873310 0.000000 -0.025830 
#    y 0.000000 1.932270 0.000000 
#    z -0.025830 0.000000 1.921960 
# 
# From -- ./inp_files/92639.got.cif
#   From: 2010.05.17/outbox.cif.g08.bks.cpg/sg12_47_cif.got.tgz:92639.got - 2010.06.03 13:09:07.
