data_PCOD9172785
_publ_section_title
;
Structure prediction by ZEFSAII (Michael W. Deem and Ramdas Pophale) SiO2 
 PCOD9172785
Probable space group: C 2/M
;
_chemical_formula_sum "Si O2"
_cell_formula_units_Z 56
_cell_length_a 14.715480
_cell_length_b 7.445573
_cell_length_c 25.276859
_cell_angle_alpha 90.000000
_cell_angle_beta 103.150384
_cell_angle_gamma 90.000000
_cell_volume 2696.837985
_symmetry_space_group_name_H-M "C 2/M"
_symmetry_group_IT_number 12
_symmetry_cell_setting 'monoclinic'
loop_
_space_group_symop_operation_xyz
x,y,z
-x,y,-z
-x,-y,-z
x,-y,z
1/2+x,1/2+y,z
1/2-x,1/2+y,-z
1/2-x,1/2-y,-z
1/2+x,1/2-y,z
loop_
_atom_site_type_symbol
_atom_site_label
_atom_site_fract_x
_atom_site_fract_y
_atom_site_fract_z
Si Si1 0.424477 0.214168 0.152227
Si Si2 0.290536 0.785958 0.852640
Si Si3 0.897731 0.280294 0.762307
Si Si4 0.969278 0.280352 0.938130
Si Si5 0.796388 0.707671 0.645318
Si Si6 0.597250 0.717012 0.447292
Si Si7 0.617033 0.280662 0.567729
O O1 0.316883 0.249035 0.149876
O O2 0.498849 0.279465 0.206054
O O3 0.460852 0.277604 0.099658
O O4 0.434888 0.000000 0.152241
O O5 0.327889 0.724628 0.800352
O O6 0.365573 0.722577 0.906234
O O7 0.300144 0.000000 0.852811
O O8 0.900688 0.500000 0.761060
O O9 0.857989 0.215692 0.701059
O O10 0.970186 0.500000 0.939492
O O11 0.000000 0.218676 0.000000
O O12 0.779872 0.500000 0.657573
O O13 0.850472 0.713737 0.596988
O O14 0.694960 0.786366 0.618446
O O15 0.601167 0.500000 0.446321
O O16 0.488374 0.770368 0.432356
O O17 0.636605 0.775344 0.509657
O O18 0.619308 0.500000 0.567796
#
# Coordination Sequence:
#
# PCOD9172785 Si02
#       7
#     8   8   8   8   8   8   8
#     4   9  17  31  49  67  90 121 152 186 228 264
#     4   9  17  31  50  69  90 121 157 187 218 263
#     4   8  17  32  46  62  89 122 152 181 220 273
#     4   8  15  29  48  69  95 126 155 180 216 272
#     4  10  18  30  48  67  86 115 153 186 218 262
#     4   9  17  31  47  66  91 116 143 179 226 273
#     4   8  16  30  47  64  88 120 146 173 220 279
#
# _framework density 20.765059999999998
#
# number of rings (size 3 to 8) (size 9 to 14) (size 15 to 20)
#    0.000    3.286    0.000    3.000    0.000    1.714 
#    0.000    7.857    0.000    0.857    0.000    0.000 
#    0.000    0.000    0.000    0.000    0.000    0.000 
#
# Total GULP energy -156139.517353 kJ/mol
# GULP energy per Si atom -5576.411334 kJ/mol
# Density = 2.071780 g / cm^3
# Si number density = 20.765060 Si / 1000 Ang^3
#
#
#
# Elastic Constant Matrix: (Units=GPa)
#
#
# Indices 1 2 3 4 5 6 
#
# 1 139.3434 -5.3770 55.5813 0.0000 22.0851 0.0000
# 2 -5.3770 59.5749 2.0739 0.0000 4.2496 0.0000
# 3 55.5813 2.0739 99.3756 0.0000 36.5323 0.0000
# 4 0.0000 0.0000 0.0000 3.8708 0.0000 -2.8670
# 5 22.0851 4.2496 36.5323 0.0000 22.4649 0.0000
# 6 0.0000 0.0000 0.0000 -2.8670 0.0000 11.1668
#
#
#
# Elastic Compliance Matrix: (Units=1/GPa)
#
#
# Indices 1 2 3 4 5 6 
#
# 1 0.009340 0.001152 -0.004456 0.000000 -0.002153 0.000000
# 2 0.001152 0.017328 0.001530 0.000000 -0.006899 0.000000
# 3 -0.004456 0.001530 0.027399 0.000000 -0.040464 0.000000
# 4 0.000000 0.000000 0.000000 0.319014 0.000000 0.081905
# 5 -0.002153 -0.006899 -0.040464 0.000000 0.113738 0.000000
# 6 0.000000 0.000000 0.000000 0.081905 0.000000 0.110580
#
#
# Mechanical properties :
#
#
# Convention : Reuss Voigt Hill
#
# Bulk Modulus (GPa) = 19.79491 44.76114 32.27802
# Shear Modulus (GPa) = 8.09340 23.90153 15.99746
#
# Velocity S-wave (km/s) = 1.97638 3.39639 2.77862
# Velocity P-wave (km/s) = 3.84208 6.08140 5.08650
#
# Compressibility (1/GPa) = 0.05051805
#
# Stress axis : x y z
#
# Youngs Moduli (GPa) = 107.06962 57.70887 36.49790
#
# Poissons Ratio (x) = -0.06646 0.16265
# Poissons Ratio (y) = -0.12331 -0.05586
# Poissons Ratio (z) = 0.47715 -0.08832
#
# Static dielectric constant tensor:
#      x y z
#    x 1.741320 0.000000 0.027940 
#    y 0.000000 1.800310 0.000000 
#    z 0.027940 0.000000 1.728770 
# 
# From -- ./inp_files/334918.got.cif
#   From: 2010.05.17/outbox.cif.g08.bks.cpg/sg12_168_cif.got.tgz:334918.got - 2010.06.03 13:09:07.
