data_PCOD9172936
_publ_section_title
;
Structure prediction by ZEFSAII (Michael W. Deem and Ramdas Pophale) SiO2 
 PCOD9172936
Probable space group: C 2/M
;
_chemical_formula_sum "Si O2"
_cell_formula_units_Z 56
_cell_length_a 28.082048
_cell_length_b 8.524552
_cell_length_c 22.786347
_cell_angle_alpha 90.000000
_cell_angle_beta 39.574596
_cell_angle_gamma 90.000000
_cell_volume 3475.126224
_symmetry_space_group_name_H-M "C 2/M"
_symmetry_group_IT_number 12
_symmetry_cell_setting 'monoclinic'
loop_
_space_group_symop_operation_xyz
x,y,z
-x,y,-z
-x,-y,-z
x,-y,z
1/2+x,1/2+y,z
1/2-x,1/2+y,-z
1/2-x,1/2-y,-z
1/2+x,1/2-y,z
loop_
_atom_site_type_symbol
_atom_site_label
_atom_site_fract_x
_atom_site_fract_y
_atom_site_fract_z
Si Si1 0.117647 0.312793 0.899297
Si Si2 0.769219 0.685226 0.388887
Si Si3 0.928302 0.690462 0.532767
Si Si4 0.261195 0.188332 0.711709
Si Si5 0.108249 0.686991 0.563990
Si Si6 0.075039 0.814274 0.714896
Si Si7 0.009287 0.811181 0.900241
O O1 0.201095 0.245459 0.815907
O O2 0.072466 0.256485 0.884068
O O3 0.013056 0.000000 0.900246
O O4 0.069039 0.247791 0.999452
O O5 0.780399 0.500000 0.385206
O O6 0.762231 0.732048 0.327318
O O7 0.690296 0.736510 0.491210
O O8 0.839890 0.774501 0.347949
O O9 0.932018 0.500000 0.529063
O O10 0.848228 0.730934 0.637668
O O11 0.924845 0.738514 0.467569
O O12 0.000000 0.749807 0.500000
O O13 0.256378 0.000000 0.709676
O O14 0.118238 0.500000 0.552441
O O15 0.061194 0.733237 0.665674
O O16 0.026047 0.762982 0.817529
O O17 0.066632 0.000000 0.715951
O O18 0.618490 0.000000 0.899436
#
# Coordination Sequence:
#
# PCOD9172936 Si02
#       7
#     8   8   8   8   8   8   8
#     4  11  20  30  46  68  96 127 163 201 236 278
#     4  11  20  30  45  65  94 127 163 198 230 275
#     4   8  16  32  53  75  95 119 155 198 240 286
#     4  10  18  30  49  71  97 127 160 196 239 287
#     4  10  20  32  48  68  94 124 157 195 236 286
#     4  11  21  32  46  65  94 129 163 195 232 278
#     4  10  20  32  47  64  92 130 167 202 235 274
#
# _framework density 16.114522000000001
#
# number of rings (size 3 to 8) (size 9 to 14) (size 15 to 20)
#    0.000    1.857    1.429    6.429    0.000    1.714 
#    0.000    0.000    0.000   15.429    0.000    1.000 
#    0.000    0.000    0.000    0.000    0.000    0.000 
#
# Total GULP energy -156232.960723 kJ/mol
# GULP energy per Si atom -5579.748597 kJ/mol
# Density = 1.607785 g / cm^3
# Si number density = 16.114522 Si / 1000 Ang^3
#
#
#
# Elastic Constant Matrix: (Units=GPa)
#
#
# Indices 1 2 3 4 5 6 
#
# 1 63.8658 -4.8672 50.7233 -0.0017 -7.0627 -0.0007
# 2 -4.8672 25.1146 12.5241 -0.0023 2.6535 0.0000
# 3 50.7233 12.5241 135.7402 -0.0023 7.1348 -0.0005
# 4 -0.0017 -0.0023 -0.0023 25.5995 0.0009 5.4820
# 5 -7.0627 2.6535 7.1348 0.0009 15.3441 0.0011
# 6 -0.0007 0.0000 -0.0005 5.4820 0.0011 5.0519
#
#
#
# Elastic Compliance Matrix: (Units=1/GPa)
#
#
# Indices 1 2 3 4 5 6 
#
# 1 0.027999 0.009750 -0.012250 0.000002 0.016898 -0.000003
# 2 0.009750 0.045601 -0.007864 0.000005 0.000259 -0.000005
# 3 -0.012250 -0.007864 0.013218 -0.000001 -0.010425 0.000003
# 4 0.000002 0.000005 -0.000001 0.050889 0.000001 -0.055221
# 5 0.016898 0.000259 -0.010425 0.000001 0.077752 -0.000017
# 6 -0.000003 -0.000005 0.000003 -0.055221 -0.000017 0.257867
#
#
# Mechanical properties :
#
#
# Convention : Reuss Voigt Hill
#
# Bulk Modulus (GPa) = 15.13109 37.94232 26.53670
# Shear Modulus (GPa) = 9.68830 20.28847 14.98839
#
# Velocity S-wave (km/s) = 2.45463 3.55211 3.05309
# Velocity P-wave (km/s) = 4.17657 6.35766 5.37883
#
# Compressibility (1/GPa) = 0.06608909
#
# Stress axis : x y z
#
# Youngs Moduli (GPa) = 35.71552 21.92910 75.65261
#
# Poissons Ratio (x) = -0.21381 0.92678
# Poissons Ratio (y) = -0.34822 0.59496
# Poissons Ratio (z) = 0.43753 0.17246
#
# Static dielectric constant tensor:
#      x y z
#    x 1.523890 0.000000 0.015290 
#    y 0.000000 1.543370 0.000000 
#    z 0.015290 0.000000 1.584270 
# 
# From -- ./inp_files/291449.got.cif
#   From: 2010.05.17/outbox.cif.g08.bks.cpg/sg12_146_cif.got.tgz:291449.got - 2010.06.03 13:09:07.
