data_PCOD9172812
_publ_section_title
;
Structure prediction by ZEFSAII (Michael W. Deem and Ramdas Pophale) SiO2 
 PCOD9172812
Probable space group: C 2/M
;
_chemical_formula_sum "Si O2"
_cell_formula_units_Z 64
_cell_length_a 24.723351
_cell_length_b 7.272760
_cell_length_c 17.934793
_cell_angle_alpha 90.000000
_cell_angle_beta 56.176598
_cell_angle_gamma 90.000000
_cell_volume 2679.026846
_symmetry_space_group_name_H-M "C 2/M"
_symmetry_group_IT_number 12
_symmetry_cell_setting 'monoclinic'
loop_
_space_group_symop_operation_xyz
x,y,z
-x,y,-z
-x,-y,-z
x,-y,z
1/2+x,1/2+y,z
1/2-x,1/2+y,-z
1/2-x,1/2-y,-z
1/2+x,1/2-y,z
loop_
_atom_site_type_symbol
_atom_site_label
_atom_site_fract_x
_atom_site_fract_y
_atom_site_fract_z
Si Si1 0.288092 0.278657 0.085095
Si Si2 0.282191 0.723921 0.376984
Si Si3 0.359611 0.286549 0.752270
Si Si4 0.111342 0.774876 0.109661
Si Si5 0.141600 0.205533 0.546484
Si Si6 0.075897 0.223842 0.449838
Si Si7 0.504437 0.276612 0.910013
Si Si8 0.853826 0.777221 0.182820
O O1 0.286533 0.500000 0.084430
O O2 0.216910 0.221946 0.167892
O O3 0.338782 0.219655 0.110689
O O4 0.320688 0.217994 0.982384
O O5 0.278708 0.500000 0.384428
O O6 0.214315 0.801477 0.456327
O O7 0.341171 0.784607 0.385818
O O8 0.296517 0.777183 0.281838
O O9 0.378305 0.500000 0.734347
O O10 0.393046 0.210747 0.801787
O O11 0.382134 0.212298 0.654428
O O12 0.051653 0.715836 0.103029
O O13 0.111719 0.000000 0.110500
O O14 0.100472 0.291868 0.511560
O O15 0.115237 0.000000 0.580185
O O16 0.000000 0.267790 0.500000
O O17 0.082284 0.000000 0.448265
O O18 0.500204 0.500000 0.912926
O O19 0.577768 0.220868 0.834748
O O20 0.500000 0.221299 0.000000
O O21 0.855368 0.000000 0.179563
#
# Coordination Sequence:
#
# PCOD9172812 Si02
#       8
#     8   8   8   8   8   8   8   8
#     4  10  18  30  48  69  96 125 151 183 228 275
#     4   9  17  28  44  69  94 114 144 187 227 265
#     4  10  20  32  47  70  94 119 156 193 224 267
#     4   9  17  28  44  68  96 123 152 188 228 269
#     4   9  17  30  47  65  88 118 150 183 225 271
#     4   9  18  32  49  67  91 122 154 191 232 270
#     4   9  14  24  41  63  92 119 142 177 225 266
#     4   9  16  25  42  68  93 117 147 184 226 268
#
# _framework density 23.88927
#
# number of rings (size 3 to 8) (size 9 to 14) (size 15 to 20)
#    0.000    2.750    1.250    1.125    0.000    1.000 
#    0.000    5.000    0.000    1.500    0.000    6.125 
#    0.000    0.000    0.000    0.000    0.000    0.000 
#
# Total GULP energy -178567.416086 kJ/mol
# GULP energy per Si atom -5580.231753 kJ/mol
# Density = 2.383490 g / cm^3
# Si number density = 23.889270 Si / 1000 Ang^3
#
#
#
# Elastic Constant Matrix: (Units=GPa)
#
#
# Indices 1 2 3 4 5 6 
#
# 1 115.9342 -4.9070 -17.7767 -0.0001 12.0750 -0.0002
# 2 -4.9070 105.8746 -3.7447 0.0005 6.3880 -0.0018
# 3 -17.7767 -3.7447 37.9545 -0.0002 6.9238 0.0009
# 4 -0.0001 0.0005 -0.0002 -2.3894 -0.0001 -11.8606
# 5 12.0750 6.3880 6.9238 -0.0001 29.1347 0.0002
# 6 -0.0002 -0.0018 0.0009 -11.8606 0.0002 -8.0322
#
#
#
# Elastic Compliance Matrix: (Units=1/GPa)
#
#
# Indices 1 2 3 4 5 6 
#
# 1 0.010192 0.001036 0.005946 0.000000 -0.005864 0.000000
# 2 0.001036 0.009748 0.002002 -0.000002 -0.003043 0.000001
# 3 0.005946 0.002002 0.031212 0.000002 -0.010321 -0.000001
# 4 0.000000 -0.000002 0.000002 0.066118 0.000001 -0.097632
# 5 -0.005864 -0.003043 -0.010321 0.000001 0.039874 -0.000001
# 6 0.000000 0.000001 -0.000001 -0.097632 -0.000001 0.019669
#
#
# Mechanical properties :
#
#
# Convention : Reuss Voigt Hill
#
# Bulk Modulus (GPa) = 14.46746 22.98960 18.72853
# Shear Modulus (GPa) = 27.49012 22.82207 25.15609
#
# Velocity S-wave (km/s) = 3.39592 3.09419 3.24856
# Velocity P-wave (km/s) = 4.63094 4.73388 4.68269
#
# Compressibility (1/GPa) = 0.06912066
#
# Stress axis : x y z
#
# Youngs Moduli (GPa) = 98.11694 102.58964 32.03851
#
# Poissons Ratio (x) = -0.10633 -0.19049
# Poissons Ratio (y) = -0.10170 -0.06415
# Poissons Ratio (z) = -0.58337 -0.20541
#
# Static dielectric constant tensor:
#      x y z
#    x 1.914230 0.000000 0.028140 
#    y 0.000000 1.950040 0.000000 
#    z 0.028140 0.000000 1.901260 
# 
# From -- ./inp_files/282843.got.cif
#   From: 2010.05.17/outbox.cif.g08.bks.cpg/sg12_142_cif.got.tgz:282843.got - 2010.06.03 13:09:07.
