data_PCOD9172228
_publ_section_title
;
Structure prediction by ZEFSAII (Michael W. Deem and Ramdas Pophale) SiO2 
 PCOD9172228
Probable space group: C 2/M
;
_chemical_formula_sum "Si O2"
_cell_formula_units_Z 40
_cell_length_a 20.820988
_cell_length_b 8.662787
_cell_length_c 13.030225
_cell_angle_alpha 90.000000
_cell_angle_beta 103.525910
_cell_angle_gamma 90.000000
_cell_volume 2285.047349
_symmetry_space_group_name_H-M "C 2/M"
_symmetry_group_IT_number 12
_symmetry_cell_setting 'monoclinic'
loop_
_space_group_symop_operation_xyz
x,y,z
-x,y,-z
-x,-y,-z
x,-y,z
1/2+x,1/2+y,z
1/2-x,1/2+y,-z
1/2-x,1/2-y,-z
1/2+x,1/2-y,z
loop_
_atom_site_type_symbol
_atom_site_label
_atom_site_fract_x
_atom_site_fract_y
_atom_site_fract_z
Si Si1 0.676351 0.184330 0.494155
Si Si2 0.654065 0.684601 0.276938
Si Si3 0.576300 0.314818 0.043544
Si Si4 0.817736 0.683572 0.072887
Si Si5 0.300366 0.684362 0.286926
O O1 0.750000 0.250000 0.500000
O O2 0.636216 0.244980 0.381014
O O3 0.660067 0.249416 0.600330
O O4 0.677937 0.000000 0.496134
O O5 0.661339 0.500000 0.289551
O O6 0.602234 0.718907 0.167854
O O7 0.725006 0.753283 0.269169
O O8 0.583466 0.500000 0.030733
O O9 0.500000 0.273998 0.000000
O O10 0.623271 0.229908 0.980615
O O11 0.811723 0.500000 0.079602
O O12 0.827066 0.756723 0.188577
O O13 0.750000 0.750000 0.000000
O O14 0.299201 0.500000 0.290806
#
# Coordination Sequence:
#
# PCOD9172228 Si02
#       5
#     8   8   8   8   8
#     4  10  18  29  47  74 108 141 178 222 273 325
#     4  10  18  31  52  77 109 144 182 224 270 325
#     4  10  22  39  58  81 112 150 188 226 272 329
#     4  12  23  36  56  82 112 146 184 229 279 327
#     4  11  20  32  52  79 110 141 179 226 277 327
#
# _framework density 17.505108
#
# number of rings (size 3 to 8) (size 9 to 14) (size 15 to 20)
#    0.000    1.400    2.000    8.400    0.000    1.200 
#    0.000    0.000    0.000    1.200    0.000    8.400 
#    0.000    0.000    0.000    0.000    0.000    0.000 
#
# Total GULP energy -111684.267383 kJ/mol
# GULP energy per Si atom -5584.213369 kJ/mol
# Density = 1.746527 g / cm^3
# Si number density = 17.505108 Si / 1000 Ang^3
#
#
#
# Elastic Constant Matrix: (Units=GPa)
#
#
# Indices 1 2 3 4 5 6 
#
# 1 59.4149 41.7885 49.4196 0.0000 4.0815 0.0000
# 2 41.7885 148.1866 90.1643 0.0000 0.1050 0.0000
# 3 49.4196 90.1643 193.7485 0.0000 -5.0405 0.0000
# 4 0.0000 0.0000 0.0000 33.7429 0.0000 -5.4800
# 5 4.0815 0.1050 -5.0405 0.0000 17.4127 0.0000
# 6 0.0000 0.0000 0.0000 -5.4800 0.0000 18.6414
#
#
#
# Elastic Compliance Matrix: (Units=1/GPa)
#
#
# Indices 1 2 3 4 5 6 
#
# 1 0.023768 -0.004047 -0.004356 0.000000 -0.006808 0.000000
# 2 -0.004047 0.010134 -0.003688 0.000000 -0.000180 0.000000
# 3 -0.004356 -0.003688 0.008077 0.000000 0.003381 0.000000
# 4 0.000000 0.000000 0.000000 0.031122 0.000000 0.009149
# 5 -0.006808 -0.000180 0.003381 0.000000 0.060005 0.000000
# 6 0.000000 0.000000 0.000000 0.009149 0.000000 0.056334
#
#
# Mechanical properties :
#
#
# Convention : Reuss Voigt Hill
#
# Bulk Modulus (GPa) = 56.19408 84.89941 70.54675
# Shear Modulus (GPa) = 22.77332 28.62456 25.69894
#
# Velocity S-wave (km/s) = 3.61079 4.04816 3.83571
# Velocity P-wave (km/s) = 7.03953 8.39376 7.74629
#
# Compressibility (1/GPa) = 0.01779547
#
# Stress axis : x y z
#
# Youngs Moduli (GPa) = 42.07252 98.67902 123.81013
#
# Poissons Ratio (x) = 0.39938 0.53935
# Poissons Ratio (y) = 0.17028 0.45665
# Poissons Ratio (z) = 0.18328 0.36396
#
# Static dielectric constant tensor:
#      x y z
#    x 1.560980 0.000000 0.003760 
#    y 0.000000 1.583350 0.000000 
#    z 0.003760 0.000000 1.644370 
# 
# From -- ./inp_files/162645.got.cif
#   From: 2010.05.17/outbox.cif.g08.bks.cpg/sg12_82_cif.got.tgz:162645.got - 2010.06.03 13:09:07.
