data_PCOD9172552
_publ_section_title
;
Structure prediction by ZEFSAII (Michael W. Deem and Ramdas Pophale) SiO2 
 PCOD9172552
Probable space group: C 2/M
;
_chemical_formula_sum "Si O2"
_cell_formula_units_Z 48
_cell_length_a 20.979762
_cell_length_b 17.924401
_cell_length_c 8.887425
_cell_angle_alpha 90.000000
_cell_angle_beta 124.251530
_cell_angle_gamma 90.000000
_cell_volume 2762.506292
_symmetry_space_group_name_H-M "C 2/M"
_symmetry_group_IT_number 12
_symmetry_cell_setting 'monoclinic'
loop_
_space_group_symop_operation_xyz
x,y,z
-x,y,-z
-x,-y,-z
x,-y,z
1/2+x,1/2+y,z
1/2-x,1/2+y,-z
1/2-x,1/2-y,-z
1/2+x,1/2-y,z
loop_
_atom_site_type_symbol
_atom_site_label
_atom_site_fract_x
_atom_site_fract_y
_atom_site_fract_z
Si Si1 0.799325 0.181712 0.633304
Si Si2 0.282527 0.844437 0.188095
Si Si3 0.369373 0.701743 0.206813
Si Si4 0.165673 0.581935 0.028076
Si Si5 0.162091 0.914164 0.601853
Si Si6 0.076106 0.269741 0.004959
O O1 0.750000 0.250000 0.500000
O O2 0.744752 0.138448 0.680293
O O3 0.832375 0.128567 0.548587
O O4 0.867037 0.219861 0.818584
O O5 0.338745 0.772614 0.261218
O O6 0.321275 0.905822 0.133327
O O7 0.205288 0.820923 0.993406
O O8 0.386100 0.634368 0.341687
O O9 0.431852 0.728476 0.167739
O O10 0.132884 0.500000 0.014769
O O11 0.249987 0.586132 0.217021
O O12 0.116706 0.651424 0.022378
O O13 0.137182 0.000000 0.556257
O O14 0.000000 0.280407 0.000000
#
# Coordination Sequence:
#
# PCOD9172552 Si02
#       6
#     8   8   8   8   8   8
#     4  11  17  30  52  76 102 128 163 212 247 281
#     4   8  14  25  47  69  93 128 162 197 240 280
#     4   8  14  29  46  66  93 126 166 202 233 287
#     4   9  17  30  49  76 105 131 162 199 243 298
#     4  10  18  29  51  80 101 123 162 213 259 286
#     4  10  20  33  51  73  99 137 172 196 240 302
#
# _framework density 17.375526000000001
#
# number of rings (size 3 to 8) (size 9 to 14) (size 15 to 20)
#    0.000    2.667    3.333    2.000    0.000    1.000 
#    0.000    3.333    0.000    3.000    0.000    1.167 
#    0.000    0.000    0.000    0.000    0.000    0.000 
#
# Total GULP energy -133634.234151 kJ/mol
# GULP energy per Si atom -5568.093090 kJ/mol
# Density = 1.733598 g / cm^3
# Si number density = 17.375526 Si / 1000 Ang^3
#
#
#
# Elastic Constant Matrix: (Units=GPa)
#
#
# Indices 1 2 3 4 5 6 
#
# 1 84.1455 37.9028 20.0979 0.0000 -27.6461 0.0000
# 2 37.9028 119.0218 32.3998 0.0000 -26.6660 0.0000
# 3 20.0979 32.3998 43.5094 0.0000 -27.7195 0.0000
# 4 0.0000 0.0000 0.0000 17.4065 0.0000 -8.1851
# 5 -27.6461 -26.6660 -27.7195 0.0000 26.8051 0.0000
# 6 0.0000 0.0000 0.0000 -8.1851 0.0000 13.2857
#
#
#
# Elastic Compliance Matrix: (Units=1/GPa)
#
#
# Indices 1 2 3 4 5 6 
#
# 1 0.020462 -0.002961 0.012667 0.000000 0.031258 0.000000
# 2 -0.002961 0.011427 -0.005407 0.000000 0.002721 0.000000
# 3 0.012667 -0.005407 0.076369 0.000000 0.086660 0.000000
# 4 0.000000 0.000000 0.000000 0.080881 0.000000 0.049829
# 5 0.031258 0.002721 0.086660 0.000000 0.161868 0.000000
# 6 0.000000 0.000000 0.000000 0.049829 0.000000 0.105968
#
#
# Mechanical properties :
#
#
# Convention : Reuss Voigt Hill
#
# Bulk Modulus (GPa) = 8.55760 47.49752 28.02756
# Shear Modulus (GPa) = 10.25998 21.91786 16.08892
#
# Velocity S-wave (km/s) = 2.43263 3.55550 3.04625
# Velocity P-wave (km/s) = 3.58134 6.65212 5.34213
#
# Compressibility (1/GPa) = 0.11685524
#
# Stress axis : x y z
#
# Youngs Moduli (GPa) = 48.87024 87.51574 13.09425
#
# Poissons Ratio (x) = 0.25918 -0.16587
# Poissons Ratio (y) = 0.14473 0.07081
# Poissons Ratio (z) = -0.61906 0.47323
#
# Static dielectric constant tensor:
#      x y z
#    x 1.602270 0.000000 -0.017480 
#    y 0.000000 1.593340 0.000000 
#    z -0.017480 0.000000 1.599410 
# 
# From -- ./inp_files/74502.got.cif
#   From: 2010.05.17/outbox.cif.g08.bks.cpg/sg12_38_cif.got.tgz:74502.got - 2010.06.03 13:09:07.
