data_PCOD9172834
_publ_section_title
;
Structure prediction by ZEFSAII (Michael W. Deem and Ramdas Pophale) SiO2 
 PCOD9172834
Probable space group: C 2/M
;
_chemical_formula_sum "Si O2"
_cell_formula_units_Z 64
_cell_length_a 28.052344
_cell_length_b 9.046304
_cell_length_c 21.057578
_cell_angle_alpha 90.000000
_cell_angle_beta 46.483044
_cell_angle_gamma 90.000000
_cell_volume 3875.153926
_symmetry_space_group_name_H-M "C 2/M"
_symmetry_group_IT_number 12
_symmetry_cell_setting 'monoclinic'
loop_
_space_group_symop_operation_xyz
x,y,z
-x,y,-z
-x,-y,-z
x,-y,z
1/2+x,1/2+y,z
1/2-x,1/2+y,-z
1/2-x,1/2-y,-z
1/2+x,1/2-y,z
loop_
_atom_site_type_symbol
_atom_site_label
_atom_site_fract_x
_atom_site_fract_y
_atom_site_fract_z
Si Si1 0.511061 0.173555 0.317443
Si Si2 0.811896 0.674199 0.657130
Si Si3 0.854254 0.330590 0.472655
Si Si4 0.438727 0.322681 0.602735
Si Si5 0.664738 0.667411 0.632662
Si Si6 0.994005 0.169014 0.205775
Si Si7 0.959247 0.177960 0.100799
Si Si8 0.818983 0.324051 0.252132
O O1 0.432801 0.192626 0.400855
O O2 0.546154 0.264375 0.340644
O O3 0.523590 0.233116 0.234863
O O4 0.526295 0.000000 0.308538
O O5 0.808041 0.500000 0.675418
O O6 0.829260 0.688913 0.566535
O O7 0.871754 0.749937 0.639179
O O8 0.741830 0.752908 0.729904
O O9 0.843568 0.500000 0.461991
O O10 0.822343 0.224723 0.449808
O O11 0.500000 0.280956 0.500000
O O12 0.433659 0.500000 0.606460
O O13 0.688283 0.500000 0.621641
O O14 0.585118 0.666612 0.711315
O O15 0.687988 0.771774 0.668056
O O16 0.999359 0.220539 0.127927
O O17 0.017601 0.000000 0.189810
O O18 0.889032 0.258364 0.165872
O O19 0.948019 0.000000 0.115855
O O20 0.000000 0.208096 0.000000
O O21 0.818380 0.500000 0.248566
#
# Coordination Sequence:
#
# PCOD9172834 Si02
#       8
#     8   8   8   8   8   8   8   8
#     4  10  18  30  48  70  98 133 173 216 257 297
#     4  11  22  36  51  68  96 133 175 217 258 302
#     4   9  18  30  46  68  93 127 171 216 256 295
#     4  11  22  34  50  72  98 131 175 223 266 303
#     4   9  17  30  48  67  93 131 171 208 249 297
#     4   8  15  28  47  74 103 130 162 204 249 296
#     4   9  18  35  59  84 108 135 166 201 248 307
#     4  11  22  35  50  72 103 134 167 207 253 303
#
# _framework density 16.515471999999999
#
# number of rings (size 3 to 8) (size 9 to 14) (size 15 to 20)
#    0.000    2.250    1.250    3.375    0.000    5.750 
#    0.000    0.000    0.000    0.000    0.000    0.875 
#    0.000    0.000    0.000    0.000    0.000    0.000 
#
# Total GULP energy -178544.593056 kJ/mol
# GULP energy per Si atom -5579.518533 kJ/mol
# Density = 1.647788 g / cm^3
# Si number density = 16.515472 Si / 1000 Ang^3
#
#
#
# Elastic Constant Matrix: (Units=GPa)
#
#
# Indices 1 2 3 4 5 6 
#
# 1 105.0492 66.3595 50.1370 -0.0046 7.4797 0.0010
# 2 66.3595 97.1922 44.5621 -0.0040 2.2898 0.0021
# 3 50.1370 44.5621 65.1900 -0.0101 11.4273 0.0048
# 4 -0.0046 -0.0040 -0.0101 16.7231 0.0075 3.7045
# 5 7.4797 2.2898 11.4273 0.0075 17.6669 -0.0021
# 6 0.0010 0.0021 0.0048 3.7045 -0.0021 28.8226
#
#
#
# Elastic Compliance Matrix: (Units=1/GPa)
#
#
# Indices 1 2 3 4 5 6 
#
# 1 0.019630 -0.009583 -0.008242 -0.000001 -0.001738 0.000001
# 2 -0.009583 0.020114 -0.007482 -0.000006 0.006290 0.000001
# 3 -0.008242 -0.007482 0.029338 0.000022 -0.014517 -0.000008
# 4 -0.000001 -0.000006 0.000022 0.061550 -0.000040 -0.007911
# 5 -0.001738 0.006290 -0.014517 -0.000040 0.065914 0.000012
# 6 0.000001 0.000001 -0.000008 -0.007911 0.000012 0.035712
#
#
# Mechanical properties :
#
#
# Convention : Reuss Voigt Hill
#
# Bulk Modulus (GPa) = 54.14681 65.50537 59.82609
# Shear Modulus (GPa) = 17.29938 19.73403 18.51671
#
# Velocity S-wave (km/s) = 3.23997 3.46046 3.35203
# Velocity P-wave (km/s) = 6.84494 7.46428 7.16131
#
# Compressibility (1/GPa) = 0.01846831
#
# Stress axis : x y z
#
# Youngs Moduli (GPa) = 50.94115 49.71664 34.08569
#
# Poissons Ratio (x) = 0.47644 0.28094
# Poissons Ratio (y) = 0.48817 0.25502
# Poissons Ratio (z) = 0.41987 0.37196
#
# Static dielectric constant tensor:
#      x y z
#    x 1.555810 0.000000 -0.001020 
#    y 0.000000 1.557650 0.000000 
#    z -0.001020 0.000000 1.555470 
# 
# From -- ./inp_files/326860.got.cif
#   From: 2010.05.17/outbox.cif.g08.bks.cpg/sg12_164_cif.got.tgz:326860.got - 2010.06.03 13:09:07.
