data_PCOD9172586
_publ_section_title
;
Structure prediction by ZEFSAII (Michael W. Deem and Ramdas Pophale) SiO2 
 PCOD9172586
Probable space group: C 2/M
;
_chemical_formula_sum "Si O2"
_cell_formula_units_Z 42
_cell_length_a 17.953122
_cell_length_b 11.671674
_cell_length_c 9.640349
_cell_angle_alpha 90.000000
_cell_angle_beta 60.271532
_cell_angle_gamma 90.000000
_cell_volume 1754.196812
_symmetry_space_group_name_H-M "C 2/M"
_symmetry_group_IT_number 12
_symmetry_cell_setting 'monoclinic'
loop_
_space_group_symop_operation_xyz
x,y,z
-x,y,-z
-x,-y,-z
x,-y,z
1/2+x,1/2+y,z
1/2-x,1/2+y,-z
1/2-x,1/2-y,-z
1/2+x,1/2-y,z
loop_
_atom_site_type_symbol
_atom_site_label
_atom_site_fract_x
_atom_site_fract_y
_atom_site_fract_z
Si Si1 0.051986 0.126861 0.309692
Si Si2 0.704320 0.873701 0.523250
Si Si3 0.294545 0.799906 0.780500
Si Si4 0.000000 0.500000 0.500000
Si Si5 0.837881 0.376832 0.041488
Si Si6 0.484722 0.838465 0.244539
O O1 0.138018 0.196676 0.262592
O O2 0.995906 0.203302 0.257971
O O3 0.000000 0.119764 0.500000
O O4 0.070385 0.000000 0.240480
O O5 0.750000 0.750000 0.500000
O O6 0.684601 0.870992 0.375830
O O7 0.613811 0.869567 0.687766
O O8 0.745503 0.000000 0.512772
O O9 0.302026 0.869255 0.915793
O O10 0.203558 0.735389 0.852538
O O11 0.993469 0.401139 0.629556
O O12 0.811353 0.500000 0.123862
O O13 0.940236 0.371319 0.930279
#
# Coordination Sequence:
#
# PCOD9172586 Si02
#       6
#     8   8   8   2   8   8
#     4  10  18  29  52  86 123 155 189 246 314 370
#     4  12  26  43  63  88 123 171 223 263 304 373
#     4  10  21  36  56  91 126 165 198 251 323 384
#     4  12  16  32  66  92 118 144 200 276 312 366
#     4  10  19  33  61  94 125 150 194 266 328 373
#     4  11  20  35  61  92 115 157 205 264 318 362
#
# _framework density 23.942581000000001
#
# number of rings (size 3 to 8) (size 9 to 14) (size 15 to 20)
#    0.000    1.333    4.762    2.286    0.000    2.286 
#    0.000    1.905    0.000    3.429    0.000    0.000 
#    0.000    0.000    0.000    0.000    0.000    0.000 
#
# Total GULP energy -117131.634587 kJ/mol
# GULP energy per Si atom -5577.696885 kJ/mol
# Density = 2.388809 g / cm^3
# Si number density = 23.942581 Si / 1000 Ang^3
#
#
#
# Elastic Constant Matrix: (Units=GPa)
#
#
# Indices 1 2 3 4 5 6 
#
# 1 64.3119 30.7039 20.9566 0.0000 -3.2198 0.0000
# 2 30.7039 208.1088 12.3114 0.0000 -10.1267 0.0000
# 3 20.9566 12.3114 91.0363 0.0000 -14.8891 0.0000
# 4 0.0000 0.0000 0.0000 11.0893 0.0000 -0.4997
# 5 -3.2198 -10.1267 -14.8891 0.0000 41.8023 0.0000
# 6 0.0000 0.0000 0.0000 -0.4997 0.0000 9.7098
#
#
#
# Elastic Compliance Matrix: (Units=1/GPa)
#
#
# Indices 1 2 3 4 5 6 
#
# 1 0.017959 -0.002448 -0.003901 0.000000 -0.000599 0.000000
# 2 -0.002448 0.005217 0.000036 0.000000 0.001088 0.000000
# 3 -0.003901 0.000036 0.012562 0.000000 0.004183 0.000000
# 4 0.000000 0.000000 0.000000 0.090386 0.000000 0.004652
# 5 -0.000599 0.001088 0.004183 0.000000 0.025629 0.000000
# 6 0.000000 0.000000 0.000000 0.004652 0.000000 0.103228
#
#
# Mechanical properties :
#
#
# Convention : Reuss Voigt Hill
#
# Bulk Modulus (GPa) = 43.26802 54.60009 48.93406
# Shear Modulus (GPa) = 18.16119 32.48596 25.32358
#
# Velocity S-wave (km/s) = 2.75713 3.68751 3.25573
# Velocity P-wave (km/s) = 5.31474 6.40191 5.88349
#
# Compressibility (1/GPa) = 0.02311176
#
# Stress axis : x y z
#
# Youngs Moduli (GPa) = 55.68174 191.67445 79.60595
#
# Poissons Ratio (x) = 0.46923 0.31056
# Poissons Ratio (y) = 0.13631 -0.00286
# Poissons Ratio (z) = 0.21722 -0.00689
#
# Static dielectric constant tensor:
#      x y z
#    x 2.009400 0.000000 -0.007470 
#    y 0.000000 2.094480 0.000000 
#    z -0.007470 0.000000 1.932180 
# 
# From -- ./inp_files/173725.got.cif
#   From: 2010.05.17/outbox.cif.g08.bks.cpg/sg12_87_cif.got.tgz:173725.got - 2010.06.03 13:09:07.
