data_PCOD9172646
_publ_section_title
;
Structure prediction by ZEFSAII (Michael W. Deem and Ramdas Pophale) SiO2 
 PCOD9172646
Probable space group: C 2/M
;
_chemical_formula_sum "Si O2"
_cell_formula_units_Z 60
_cell_length_a 14.736133
_cell_length_b 22.739490
_cell_length_c 9.456547
_cell_angle_alpha 90.000000
_cell_angle_beta 106.542263
_cell_angle_gamma 90.000000
_cell_volume 3037.657342
_symmetry_space_group_name_H-M "C 2/M"
_symmetry_group_IT_number 12
_symmetry_cell_setting 'monoclinic'
loop_
_space_group_symop_operation_xyz
x,y,z
-x,y,-z
-x,-y,-z
x,-y,z
1/2+x,1/2+y,z
1/2-x,1/2+y,-z
1/2-x,1/2-y,-z
1/2+x,1/2-y,z
loop_
_atom_site_type_symbol
_atom_site_label
_atom_site_fract_x
_atom_site_fract_y
_atom_site_fract_z
Si Si1 0.087231 0.235127 0.809234
Si Si2 0.645310 0.432270 0.209663
Si Si3 0.107179 0.671595 0.058396
Si Si4 0.789100 0.135309 0.241367
Si Si5 0.241727 0.845598 0.449366
Si Si6 0.895518 0.734253 0.634735
Si Si7 0.968395 0.933737 0.342461
Si Si8 0.000000 0.147381 0.000000
O O1 0.172590 0.201325 0.772252
O O2 0.028432 0.189794 0.883382
O O3 0.007366 0.257362 0.666114
O O4 0.121350 0.285896 0.930473
O O5 0.668730 0.500000 0.181529
O O6 0.727323 0.394319 0.321861
O O7 0.559752 0.435346 0.285813
O O8 0.591652 0.393098 0.069461
O O9 0.193295 0.626600 0.111937
O O10 0.112988 0.707894 0.208859
O O11 0.000000 0.648208 0.000000
O O12 0.772581 0.126843 0.400973
O O13 0.876786 0.095511 0.237734
O O14 0.160901 0.795742 0.394792
O O15 0.340512 0.810371 0.506502
O O16 0.000000 0.901554 0.500000
O O17 0.939527 0.000000 0.365764
#
# Coordination Sequence:
#
# PCOD9172646 Si02
#       8
#     8   8   8   8   8   8   8   4
#     4  11  18  31  47  70 101 130 161 200 242 289
#     4  11  21  32  47  68  96 134 169 202 242 300
#     4   9  18  33  47  68  98 131 161 193 238 290
#     4  11  20  28  50  72  93 130 166 192 241 301
#     4  10  18  30  45  69  94 127 164 201 244 289
#     4   9  17  29  47  65  94 131 158 192 246 286
#     4  10  19  31  45  68  99 123 151 198 248 287
#     4  12  19  32  48  64 102 134 165 200 250 292
#
# _framework density 19.752063
#
# number of rings (size 3 to 8) (size 9 to 14) (size 15 to 20)
#    0.000    1.733    6.000    0.600    0.000    0.000 
#    0.000    0.000    0.000    0.400    0.000    2.800 
#    0.000    0.000    0.000   42.667    0.000    0.000 
#
# Total GULP energy -167368.864360 kJ/mol
# GULP energy per Si atom -5578.962145 kJ/mol
# Density = 1.970711 g / cm^3
# Si number density = 19.752063 Si / 1000 Ang^3
#
#
#
# Elastic Constant Matrix: (Units=GPa)
#
#
# Indices 1 2 3 4 5 6 
#
# 1 45.6990 3.2418 23.1775 0.0000 21.4761 0.0000
# 2 3.2418 57.5195 34.8901 0.0000 16.8011 0.0000
# 3 23.1775 34.8901 113.9918 0.0000 29.7721 0.0000
# 4 0.0000 0.0000 0.0000 13.2115 0.0000 -8.0621
# 5 21.4761 16.8011 29.7721 0.0000 38.2801 0.0000
# 6 0.0000 0.0000 0.0000 -8.0621 0.0000 -37.9706
#
#
#
# Elastic Compliance Matrix: (Units=1/GPa)
#
#
# Indices 1 2 3 4 5 6 
#
# 1 0.031392 0.005411 -0.003537 0.000000 -0.017235 0.000000
# 2 0.005411 0.023203 -0.005960 0.000000 -0.008584 0.000000
# 3 -0.003537 -0.005960 0.012693 0.000000 -0.005271 0.000000
# 4 0.000000 0.000000 0.000000 0.067009 0.000000 -0.014228
# 5 -0.017235 -0.008584 -0.005271 0.000000 0.043660 0.000000
# 6 0.000000 0.000000 0.000000 -0.014228 0.000000 -0.023315
#
#
# Mechanical properties :
#
#
# Convention : Reuss Voigt Hill
#
# Bulk Modulus (GPa) = 16.91624 37.75878 27.33751
# Shear Modulus (GPa) = 27.39416 13.09760 20.24588
#
# Velocity S-wave (km/s) = 3.72815 2.57787 3.20504
# Velocity P-wave (km/s) = 5.20721 5.29324 5.25040
#
# Compressibility (1/GPa) = 0.05911479
#
# Stress axis : x y z
#
# Youngs Moduli (GPa) = 31.85489 43.09775 78.78487
#
# Poissons Ratio (x) = -0.23320 0.27870
# Poissons Ratio (y) = -0.17236 0.46957
# Poissons Ratio (z) = 0.11269 0.25687
#
# Static dielectric constant tensor:
#      x y z
#    x 1.721580 0.000000 -0.010610 
#    y 0.000000 1.730790 0.000000 
#    z -0.010610 0.000000 1.763370 
# 
# From -- ./inp_files/148677.got.cif
#   From: 2010.05.17/outbox.cif.g08.bks.cpg/sg12_75_cif.got.tgz:148677.got - 2010.06.03 13:09:07.
