data_PCOD9172776
_publ_section_title
;
Structure prediction by ZEFSAII (Michael W. Deem and Ramdas Pophale) SiO2 
 PCOD9172776
Probable space group: C 2/M
;
_chemical_formula_sum "Si O2"
_cell_formula_units_Z 56
_cell_length_a 14.888087
_cell_length_b 20.595268
_cell_length_c 10.793313
_cell_angle_alpha 90.000000
_cell_angle_beta 73.547034
_cell_angle_gamma 90.000000
_cell_volume 3173.975177
_symmetry_space_group_name_H-M "C 2/M"
_symmetry_group_IT_number 12
_symmetry_cell_setting 'monoclinic'
loop_
_space_group_symop_operation_xyz
x,y,z
-x,y,-z
-x,-y,-z
x,-y,z
1/2+x,1/2+y,z
1/2-x,1/2+y,-z
1/2-x,1/2-y,-z
1/2+x,1/2-y,z
loop_
_atom_site_type_symbol
_atom_site_label
_atom_site_fract_x
_atom_site_fract_y
_atom_site_fract_z
Si Si1 0.140430 0.764761 0.199030
Si Si2 0.677901 0.801014 0.756141
Si Si3 0.611710 0.925206 0.935298
Si Si4 0.707868 0.115976 0.153329
Si Si5 0.459670 0.930631 0.654700
Si Si6 0.467694 0.205450 0.370290
Si Si7 0.110478 0.821129 0.947066
O O1 0.211187 0.792897 0.272480
O O2 0.174999 0.691194 0.163385
O O3 0.146452 0.804071 0.070700
O O4 0.033319 0.758824 0.281650
O O5 0.649284 0.869619 0.828337
O O6 0.638247 0.789747 0.633542
O O7 0.629632 0.743721 0.857826
O O8 0.625682 0.000000 0.889385
O O9 0.500000 0.915304 0.000000
O O10 0.667779 0.915376 0.043184
O O11 0.651202 0.081705 0.287155
O O12 0.819612 0.121618 0.123968
O O13 0.500000 0.933167 0.500000
O O14 0.503676 0.865795 0.692583
O O15 0.482176 0.000000 0.705755
O O16 0.500000 0.205880 0.500000
O O17 0.000000 0.834935 0.000000
#
# Coordination Sequence:
#
# PCOD9172776 Si02
#       7
#     8   8   8   8   8   8   8
#     4  10  18  32  51  72 103 135 168 209 260 313
#     4  11  19  31  50  72 103 134 168 210 252 317
#     4  11  20  28  45  74 104 131 160 206 265 312
#     4  10  18  30  47  77 105 131 174 210 253 310
#     4   9  18  33  51  70 102 144 173 203 252 308
#     4  10  21  33  49  74 104 136 171 213 254 303
#     4  11  18  31  54  77 100 141 170 212 261 313
#
# _framework density 17.643491000000001
#
# number of rings (size 3 to 8) (size 9 to 14) (size 15 to 20)
#    0.000    1.714    4.286    3.429    0.000    2.286 
#    0.000    0.000    0.000    1.714    0.000    0.000 
#    0.000    0.571    0.000    0.429    0.000    0.000 
#
# Total GULP energy -155880.705235 kJ/mol
# GULP energy per Si atom -5567.168044 kJ/mol
# Density = 1.760333 g / cm^3
# Si number density = 17.643491 Si / 1000 Ang^3
#
#
#
# Elastic Constant Matrix: (Units=GPa)
#
#
# Indices 1 2 3 4 5 6 
#
# 1 101.5473 29.3113 18.2907 0.0000 6.7739 0.0000
# 2 29.3113 58.6825 20.9463 0.0000 -1.3771 0.0000
# 3 18.2907 20.9463 46.9273 0.0000 3.5075 0.0000
# 4 0.0000 0.0000 0.0000 5.9202 0.0000 -2.8290
# 5 6.7739 -1.3771 3.5075 0.0000 27.4714 0.0000
# 6 0.0000 0.0000 0.0000 -2.8290 0.0000 13.2861
#
#
#
# Elastic Compliance Matrix: (Units=1/GPa)
#
#
# Indices 1 2 3 4 5 6 
#
# 1 0.011946 -0.005297 -0.002072 0.000000 -0.002947 0.000000
# 2 -0.005297 0.022750 -0.008353 0.000000 0.003513 0.000000
# 3 -0.002072 -0.008353 0.026088 0.000000 -0.003239 0.000000
# 4 0.000000 0.000000 0.000000 0.188045 0.000000 0.040040
# 5 -0.002947 0.003513 -0.003239 0.000000 0.037718 0.000000
# 6 0.000000 0.000000 0.000000 0.040040 0.000000 0.083792
#
#
# Mechanical properties :
#
#
# Convention : Reuss Voigt Hill
#
# Bulk Modulus (GPa) = 34.08149 38.25042 36.16595
# Shear Modulus (GPa) = 12.14882 18.57614 15.36248
#
# Velocity S-wave (km/s) = 2.62691 3.24830 2.95399
# Velocity P-wave (km/s) = 5.34412 5.98292 5.67252
#
# Compressibility (1/GPa) = 0.02934144
#
# Stress axis : x y z
#
# Youngs Moduli (GPa) = 83.70847 43.95514 38.33246
#
# Poissons Ratio (x) = 0.23282 0.07942
# Poissons Ratio (y) = 0.44338 0.32019
# Poissons Ratio (z) = 0.17343 0.36716
#
# Static dielectric constant tensor:
#      x y z
#    x 1.650550 0.000000 0.000990 
#    y 0.000000 1.602760 0.000000 
#    z 0.000990 0.000000 1.664150 
# 
# From -- ./inp_files/147063.got.cif
#   From: 2010.05.17/outbox.cif.g08.bks.cpg/sg12_74_cif.got.tgz:147063.got - 2010.06.03 13:09:07.
