data_PCOD9172085
_publ_section_title
;
Structure prediction by ZEFSAII (Michael W. Deem and Ramdas Pophale) SiO2 
 PCOD9172085
Probable space group: C 2/M
;
_chemical_formula_sum "Si O2"
_cell_formula_units_Z 56
_cell_length_a 20.133460
_cell_length_b 7.915847
_cell_length_c 29.764994
_cell_angle_alpha 90.000000
_cell_angle_beta 141.353508
_cell_angle_gamma 90.000000
_cell_volume 2962.534868
_symmetry_space_group_name_H-M "C 2/M"
_symmetry_group_IT_number 12
_symmetry_cell_setting 'monoclinic'
loop_
_space_group_symop_operation_xyz
x,y,z
-x,y,-z
-x,-y,-z
x,-y,z
1/2+x,1/2+y,z
1/2-x,1/2+y,-z
1/2-x,1/2-y,-z
1/2+x,1/2-y,z
loop_
_atom_site_type_symbol
_atom_site_label
_atom_site_fract_x
_atom_site_fract_y
_atom_site_fract_z
Si Si1 0.465299 0.207761 0.759426
Si Si2 0.370869 0.299608 0.307374
Si Si3 0.365261 0.796308 0.798709
Si Si4 0.811252 0.702560 0.598560
Si Si5 0.403667 0.201324 0.551998
Si Si6 0.665722 0.800442 0.812085
Si Si7 0.599201 0.703643 0.081374
O O1 0.431895 0.264447 0.791257
O O2 0.376726 0.261560 0.676234
O O3 0.579712 0.267321 0.801773
O O4 0.466734 0.000000 0.760056
O O5 0.363432 0.500000 0.297175
O O6 0.258448 0.239955 0.268270
O O7 0.476145 0.260908 0.391078
O O8 0.380078 0.220431 0.262518
O O9 0.409395 0.744220 0.870492
O O10 0.365073 0.000000 0.796917
O O11 0.820360 0.500000 0.602425
O O12 0.686818 0.745933 0.530870
O O13 0.863465 0.768281 0.579621
O O14 0.404917 0.000000 0.554707
O O15 0.785522 0.729704 0.874179
O O16 0.674950 0.000000 0.825723
O O17 0.601711 0.500000 0.078631
O O18 0.500000 0.767160 0.000000
#
# Coordination Sequence:
#
# PCOD9172085 Si02
#       7
#     8   8   8   8   8   8   8
#     4   9  16  31  51  71  94 124 164 201 238 284
#     4  10  18  29  46  70  96 123 160 203 243 282
#     4   9  19  33  51  73  97 126 159 198 240 283
#     4   9  17  29  46  68  93 122 160 206 245 279
#     4  10  18  29  46  69  94 125 165 203 242 283
#     4   9  16  30  52  72  92 125 165 198 231 279
#     4   9  18  33  53  76 101 128 157 191 234 286
#
# _framework density 18.902732
#
# number of rings (size 3 to 8) (size 9 to 14) (size 15 to 20)
#    0.000    2.714    1.429    0.857    0.000    1.429 
#    0.000    2.857    0.000    4.286    0.000    0.000 
#    0.000    0.000    0.000    0.000    0.000    0.000 
#
# Total GULP energy -156095.420353 kJ/mol
# GULP energy per Si atom -5574.836441 kJ/mol
# Density = 1.885971 g / cm^3
# Si number density = 18.902732 Si / 1000 Ang^3
#
#
#
# Elastic Constant Matrix: (Units=GPa)
#
#
# Indices 1 2 3 4 5 6 
#
# 1 146.5483 8.3659 78.6162 0.0001 8.6148 -0.0005
# 2 8.3659 14.4753 3.1214 0.0003 -0.4873 -0.0014
# 3 78.6162 3.1214 147.8654 0.0000 12.1492 -0.0001
# 4 0.0001 0.0003 0.0000 18.4071 0.0001 -2.5240
# 5 8.6148 -0.4873 12.1492 0.0001 15.7720 0.0000
# 6 -0.0005 -0.0014 -0.0001 -2.5240 0.0000 12.8988
#
#
#
# Elastic Compliance Matrix: (Units=1/GPa)
#
#
# Indices 1 2 3 4 5 6 
#
# 1 0.009881 -0.004685 -0.005017 0.000000 -0.001677 0.000000
# 2 -0.004685 0.071802 0.000622 0.000000 0.004298 0.000008
# 3 -0.005017 0.000622 0.009811 0.000000 -0.004798 0.000000
# 4 0.000000 0.000000 0.000000 0.055825 0.000000 0.010924
# 5 -0.001677 0.004298 -0.004798 0.000000 0.068149 0.000000
# 6 0.000000 0.000008 0.000000 0.010924 0.000000 0.079664
#
#
# Mechanical properties :
#
#
# Convention : Reuss Voigt Hill
#
# Bulk Modulus (GPa) = 13.63619 54.34399 33.99009
# Shear Modulus (GPa) = 14.80445 24.00127 19.40286
#
# Velocity S-wave (km/s) = 2.80159 3.56719 3.20731
# Velocity P-wave (km/s) = 4.20651 6.76595 5.63351
#
# Compressibility (1/GPa) = 0.07333427
#
# Stress axis : x y z
#
# Youngs Moduli (GPa) = 101.20419 13.92724 101.92345
#
# Poissons Ratio (x) = 0.06525 0.51132
# Poissons Ratio (y) = 0.47418 -0.06342
# Poissons Ratio (z) = 0.50772 -0.00867
#
# Static dielectric constant tensor:
#      x y z
#    x 1.662550 0.000000 0.034090 
#    y 0.000000 1.681120 0.000000 
#    z 0.034090 0.000000 1.653990 
# 
# From -- ./inp_files/280219.got.cif
#   From: 2010.05.17/outbox.cif.g08.bks.cpg/sg12_141_cif.got.tgz:280219.got - 2010.06.03 13:09:07.
