data_PCOD9172931
_publ_section_title
;
Structure prediction by ZEFSAII (Michael W. Deem and Ramdas Pophale) SiO2 
 PCOD9172931
Probable space group: C 2/M
;
_chemical_formula_sum "Si O2"
_cell_formula_units_Z 64
_cell_length_a 21.116473
_cell_length_b 7.500660
_cell_length_c 25.538830
_cell_angle_alpha 90.000000
_cell_angle_beta 128.011559
_cell_angle_gamma 90.000000
_cell_volume 3187.025478
_symmetry_space_group_name_H-M "C 2/M"
_symmetry_group_IT_number 12
_symmetry_cell_setting 'monoclinic'
loop_
_space_group_symop_operation_xyz
x,y,z
-x,y,-z
-x,-y,-z
x,-y,z
1/2+x,1/2+y,z
1/2-x,1/2+y,-z
1/2-x,1/2-y,-z
1/2+x,1/2-y,z
loop_
_atom_site_type_symbol
_atom_site_label
_atom_site_fract_x
_atom_site_fract_y
_atom_site_fract_z
Si Si1 0.786955 0.787568 0.961485
Si Si2 0.133303 0.282652 0.823473
Si Si3 0.971952 0.706839 0.041002
Si Si4 0.987784 0.282289 0.825704
Si Si5 0.281483 0.286362 0.457885
Si Si6 0.038977 0.787585 0.466865
Si Si7 0.375024 0.782358 0.677150
Si Si8 0.480158 0.786034 0.324308
O O1 0.721137 0.722310 0.885816
O O2 0.794504 0.000000 0.960284
O O3 0.750000 0.750000 0.000000
O O4 0.875704 0.711970 0.998785
O O5 0.135120 0.500000 0.824282
O O6 0.095772 0.224214 0.748951
O O7 0.068161 0.230699 0.834660
O O8 0.997872 0.500000 0.053284
O O9 0.008549 0.784172 0.113205
O O10 0.000000 0.786437 0.000000
O O11 0.988664 0.500000 0.827204
O O12 0.912478 0.227518 0.751702
O O13 0.284839 0.500000 0.453614
O O14 0.250000 0.250000 0.500000
O O15 0.371228 0.214929 0.496496
O O16 0.213504 0.220107 0.383128
O O17 0.000000 0.715549 0.500000
O O18 0.986452 0.761407 0.388014
O O19 0.046981 0.000000 0.477475
O O20 0.439155 0.725706 0.665220
O O21 0.374635 0.000000 0.676457
O O22 0.480190 0.000000 0.321274
#
# Coordination Sequence:
#
# PCOD9172931 Si02
#       8
#     8   8   8   8   8   8   8   8
#     4  11  20  33  54  78 104 134 172 215 259 308
#     4   8  15  28  50  75  97 125 162 210 256 293
#     4  10  20  34  52  76 107 139 172 210 253 304
#     4   8  13  26  47  70  97 126 160 202 248 290
#     4  10  18  30  49  71  93 119 160 204 237 281
#     4  10  21  34  46  68 106 140 156 186 252 311
#     4   8  14  25  47  73  91 117 163 209 241 283
#     4   9  16  30  52  74  93 122 170 210 241 289
#
# _framework density 20.081420999999999
#
# number of rings (size 3 to 8) (size 9 to 14) (size 15 to 20)
#    0.000    2.750    2.500    1.875    0.000    0.500 
#    0.000    2.500    0.000    3.750    0.000    0.000 
#    0.000    0.000    0.000    0.000    0.000    0.000 
#
# Total GULP energy -178487.210858 kJ/mol
# GULP energy per Si atom -5577.725339 kJ/mol
# Density = 2.003572 g / cm^3
# Si number density = 20.081421 Si / 1000 Ang^3
#
#
#
# Elastic Constant Matrix: (Units=GPa)
#
#
# Indices 1 2 3 4 5 6 
#
# 1 101.9673 -4.4842 79.0103 0.0000 -22.7693 0.0000
# 2 -4.4842 54.2986 -3.4521 -0.0001 -1.8194 0.0002
# 3 79.0103 -3.4521 195.6548 0.0000 -20.3969 0.0000
# 4 0.0000 -0.0001 0.0000 11.9015 0.0000 2.7051
# 5 -22.7693 -1.8194 -20.3969 0.0000 30.1375 0.0000
# 6 0.0000 0.0002 0.0000 2.7051 0.0000 4.4422
#
#
#
# Elastic Compliance Matrix: (Units=1/GPa)
#
#
# Indices 1 2 3 4 5 6 
#
# 1 0.016079 0.001255 -0.005591 0.000000 0.008440 0.000000
# 2 0.001255 0.018593 0.000040 0.000000 0.002098 -0.000001
# 3 -0.005591 0.000040 0.007456 0.000000 0.000824 0.000000
# 4 0.000000 0.000000 0.000000 0.097521 0.000000 -0.059386
# 5 0.008440 0.002098 0.000824 0.000000 0.040242 0.000000
# 6 0.000000 -0.000001 0.000000 -0.059386 0.000000 0.261275
#
#
# Mechanical properties :
#
#
# Convention : Reuss Voigt Hill
#
# Bulk Modulus (GPa) = 29.81900 54.89654 42.35777
# Shear Modulus (GPa) = 10.84747 28.01937 19.43342
#
# Velocity S-wave (km/s) = 2.32669 3.73941 3.11421
# Velocity P-wave (km/s) = 4.70098 6.78532 5.83694
#
# Compressibility (1/GPa) = 0.03353566
#
# Stress axis : x y z
#
# Youngs Moduli (GPa) = 62.19184 53.78322 134.12872
#
# Poissons Ratio (x) = -0.06751 0.74994
# Poissons Ratio (y) = -0.07806 -0.00535
# Poissons Ratio (z) = 0.34773 -0.00214
#
# Static dielectric constant tensor:
#      x y z
#    x 1.679590 0.000000 -0.001530 
#    y 0.000000 1.770670 0.000000 
#    z -0.001530 0.000000 1.733000 
# 
# From -- ./inp_files/365214.got.cif
#   From: 2010.05.17/outbox.cif.g08.bks.cpg/sg12_183_cif.got.tgz:365214.got - 2010.06.03 13:09:07.
