data_PCOD9172074
_publ_section_title
;
Structure prediction by ZEFSAII (Michael W. Deem and Ramdas Pophale) SiO2 
 PCOD9172074
Probable space group: C 2/M
;
_chemical_formula_sum "Si O2"
_cell_formula_units_Z 64
_cell_length_a 28.576560
_cell_length_b 8.910981
_cell_length_c 20.188273
_cell_angle_alpha 90.000000
_cell_angle_beta 131.543859
_cell_angle_gamma 90.000000
_cell_volume 3847.657685
_symmetry_space_group_name_H-M "C 2/M"
_symmetry_group_IT_number 12
_symmetry_cell_setting 'monoclinic'
loop_
_space_group_symop_operation_xyz
x,y,z
-x,y,-z
-x,-y,-z
x,-y,z
1/2+x,1/2+y,z
1/2-x,1/2+y,-z
1/2-x,1/2-y,-z
1/2+x,1/2-y,z
loop_
_atom_site_type_symbol
_atom_site_label
_atom_site_fract_x
_atom_site_fract_y
_atom_site_fract_z
Si Si1 0.793177 0.681356 0.598190
Si Si2 0.955064 0.827279 0.373195
Si Si3 0.676345 0.821317 0.745531
Si Si4 0.416108 0.825694 0.518605
Si Si5 0.711738 0.321157 0.648777
Si Si6 0.444016 0.329199 0.202125
Si Si7 0.806894 0.817919 0.094428
Si Si8 0.070710 0.672522 0.309298
O O1 0.793347 0.500000 0.589508
O O2 0.750000 0.750000 0.500000
O O3 0.763156 0.714325 0.641319
O O4 0.864560 0.736786 0.658426
O O5 0.894648 0.732518 0.337467
O O6 0.951266 0.829794 0.289080
O O7 0.021606 0.752642 0.450732
O O8 0.950456 0.000000 0.391502
O O9 0.718651 0.762355 0.725103
O O10 0.694065 0.743681 0.831455
O O11 0.678184 0.000000 0.753382
O O12 0.354316 0.735340 0.442238
O O13 0.421906 0.823814 0.603948
O O14 0.411628 0.000000 0.493549
O O15 0.710051 0.500000 0.657450
O O16 0.445248 0.500000 0.180116
O O17 0.373932 0.268791 0.126171
O O18 0.504698 0.247647 0.231077
O O19 0.805744 0.000000 0.094383
O O20 0.750000 0.750000 0.000000
O O21 0.066933 0.500000 0.284908
#
# Coordination Sequence:
#
# PCOD9172074 Si02
#       8
#     8   8   8   8   8   8   8   8
#     4  10  20  33  49  70  96 132 177 223 264 301
#     4   9  17  31  48  67  95 129 168 207 249 299
#     4  11  22  36  52  72 100 132 167 207 252 300
#     4  10  18  29  46  68  95 128 171 215 255 298
#     4  11  22  34  48  67  96 134 174 215 260 303
#     4   8  16  29  47  73 102 130 160 197 242 295
#     4  10  20  36  58  84 110 134 163 197 243 303
#     4   9  17  29  46  69  98 130 169 215 255 294
#
# _framework density 16.633496000000001
#
# number of rings (size 3 to 8) (size 9 to 14) (size 15 to 20)
#    0.000    2.250    1.250    3.375    0.000    5.500 
#    0.000    2.500    0.000    0.000    0.000    0.875 
#    0.000    7.000    0.000    0.000    0.000    0.000 
#
# Total GULP energy -178523.965815 kJ/mol
# GULP energy per Si atom -5578.873932 kJ/mol
# Density = 1.659564 g / cm^3
# Si number density = 16.633496 Si / 1000 Ang^3
#
#
#
# Elastic Constant Matrix: (Units=GPa)
#
#
# Indices 1 2 3 4 5 6 
#
# 1 132.0400 53.6659 52.6869 0.0000 20.5593 0.0000
# 2 53.6659 78.2399 30.7520 0.0000 6.8923 0.0000
# 3 52.6869 30.7520 82.2762 0.0000 22.5637 0.0000
# 4 0.0000 0.0000 0.0000 23.8208 0.0000 3.4717
# 5 20.5593 6.8923 22.5637 0.0000 23.4844 0.0000
# 6 0.0000 0.0000 0.0000 3.4717 0.0000 22.8975
#
#
#
# Elastic Compliance Matrix: (Units=1/GPa)
#
#
# Indices 1 2 3 4 5 6 
#
# 1 0.012779 -0.006622 -0.004308 0.000000 -0.005104 0.000000
# 2 -0.006622 0.018445 -0.003746 0.000000 0.003983 0.000000
# 3 -0.004308 -0.003746 0.020335 0.000000 -0.014667 0.000000
# 4 0.000000 0.000000 0.000000 0.042929 0.000000 -0.006509
# 5 -0.005104 0.003983 -0.014667 0.000000 0.059973 0.000000
# 6 0.000000 0.000000 0.000000 -0.006509 0.000000 0.044660
#
#
# Mechanical properties :
#
#
# Convention : Reuss Voigt Hill
#
# Bulk Modulus (GPa) = 45.03090 62.97397 54.00243
# Shear Modulus (GPa) = 21.19766 24.40396 22.80081
#
# Velocity S-wave (km/s) = 3.57374 3.83451 3.70642
# Velocity P-wave (km/s) = 6.64530 7.58594 7.13115
#
# Compressibility (1/GPa) = 0.02220698
#
# Stress axis : x y z
#
# Youngs Moduli (GPa) = 78.25479 54.21572 49.17545
#
# Poissons Ratio (x) = 0.35903 0.21185
# Poissons Ratio (y) = 0.51822 0.18420
# Poissons Ratio (z) = 0.33713 0.20307
#
# Static dielectric constant tensor:
#      x y z
#    x 1.583400 0.000000 -0.002360 
#    y 0.000000 1.566510 0.000000 
#    z -0.002360 0.000000 1.558600 
# 
# From -- ./inp_files/326974.got.cif
#   From: 2010.05.17/outbox.cif.g08.bks.cpg/sg12_164_cif.got.tgz:326974.got - 2010.06.03 13:09:07.
