data_PCOD9172797
_publ_section_title
;
Structure prediction by ZEFSAII (Michael W. Deem and Ramdas Pophale) SiO2 
 PCOD9172797
Probable space group: C 2/M
;
_chemical_formula_sum "Si O2"
_cell_formula_units_Z 64
_cell_length_a 29.325604
_cell_length_b 8.647222
_cell_length_c 21.950423
_cell_angle_alpha 90.000000
_cell_angle_beta 46.996503
_cell_angle_gamma 90.000000
_cell_volume 4070.701082
_symmetry_space_group_name_H-M "C 2/M"
_symmetry_group_IT_number 12
_symmetry_cell_setting 'monoclinic'
loop_
_space_group_symop_operation_xyz
x,y,z
-x,y,-z
-x,-y,-z
x,-y,z
1/2+x,1/2+y,z
1/2-x,1/2+y,-z
1/2-x,1/2-y,-z
1/2+x,1/2-y,z
loop_
_atom_site_type_symbol
_atom_site_label
_atom_site_fract_x
_atom_site_fract_y
_atom_site_fract_z
Si Si1 0.440635 0.313241 0.012798
Si Si2 0.609566 0.312084 0.686622
Si Si3 0.276003 0.314753 0.330214
Si Si4 0.349479 0.815275 0.901715
Si Si5 0.028867 0.186823 0.153600
Si Si6 0.696651 0.685515 0.503677
Si Si7 0.750661 0.813618 0.903981
Si Si8 0.693325 0.185306 0.828728
O O1 0.434258 0.500000 0.020516
O O2 0.453608 0.266046 0.931296
O O3 0.500000 0.271731 0.000000
O O4 0.377348 0.240066 0.095254
O O5 0.608849 0.500000 0.689771
O O6 0.662266 0.263036 0.687625
O O7 0.540514 0.258153 0.766068
O O8 0.633547 0.269930 0.597029
O O9 0.275267 0.500000 0.331875
O O10 0.215476 0.252974 0.421351
O O11 0.281762 0.254755 0.256699
O O12 0.417623 0.747436 0.850634
O O13 0.313349 0.755698 0.875187
O O14 0.352212 0.000000 0.898652
O O15 0.305662 0.766807 0.999064
O O16 0.028716 0.000000 0.155132
O O17 0.699914 0.500000 0.498429
O O18 0.750000 0.750000 0.500000
O O19 0.733163 0.765598 0.851711
O O20 0.754602 0.000000 0.902285
O O21 0.694706 0.000000 0.824228
#
# Coordination Sequence:
#
# PCOD9172797 Si02
#       8
#     8   8   8   8   8   8   8   8
#     4  10  20  32  46  65  94 133 169 194 224 274
#     4   8  16  30  48  69  95 128 163 197 228 276
#     4  10  19  32  49  70  98 129 165 201 238 286
#     4  10  19  32  49  69  92 118 155 201 243 282
#     4  10  18  30  48  68  93 127 162 193 233 278
#     4   9  16  29  48  70  96 126 163 203 243 279
#     4   9  19  34  49  66  91 121 156 198 243 287
#     4  11  21  33  48  69  96 125 160 201 242 282
#
# _framework density 15.722106999999999
#
# number of rings (size 3 to 8) (size 9 to 14) (size 15 to 20)
#    0.000    2.375    1.250    3.000    0.000    3.750 
#    0.000    5.000    0.000    0.000    0.000    0.875 
#    0.000    7.000    0.000    0.000    0.000    0.000 
#
# Total GULP energy -178406.417868 kJ/mol
# GULP energy per Si atom -5575.200558 kJ/mol
# Density = 1.568632 g / cm^3
# Si number density = 15.722107 Si / 1000 Ang^3
#
#
#
# Elastic Constant Matrix: (Units=GPa)
#
#
# Indices 1 2 3 4 5 6 
#
# 1 94.2210 21.4551 45.7545 0.0015 17.6499 -0.0026
# 2 21.4551 25.6188 26.3063 0.0094 8.2714 -0.0140
# 3 45.7545 26.3063 109.7120 -0.0009 25.0924 -0.0006
# 4 0.0015 0.0094 -0.0009 23.9536 0.0019 1.8395
# 5 17.6499 8.2714 25.0924 0.0019 14.0532 0.0028
# 6 -0.0026 -0.0140 -0.0006 1.8395 0.0028 17.0943
#
#
#
# Elastic Compliance Matrix: (Units=1/GPa)
#
#
# Indices 1 2 3 4 5 6 
#
# 1 0.015377 -0.007019 -0.002126 0.000003 -0.011385 -0.000002
# 2 -0.007019 0.056681 -0.008535 -0.000025 -0.009306 0.000049
# 3 -0.002126 -0.008535 0.017390 0.000006 -0.023356 -0.000004
# 4 0.000003 -0.000025 0.000006 0.042095 -0.000005 -0.004530
# 5 -0.011385 -0.009306 -0.023356 -0.000005 0.132638 -0.000032
# 6 -0.000002 0.000049 -0.000004 -0.004530 -0.000032 0.058987
#
#
# Mechanical properties :
#
#
# Convention : Reuss Voigt Hill
#
# Bulk Modulus (GPa) = 18.48849 46.28707 32.38778
# Shear Modulus (GPa) = 13.27825 20.08927 16.68376
#
# Velocity S-wave (km/s) = 2.90928 3.57847 3.26109
# Velocity P-wave (km/s) = 4.80316 6.82485 5.90123
#
# Compressibility (1/GPa) = 0.05408771
#
# Stress axis : x y z
#
# Youngs Moduli (GPa) = 65.03362 17.64262 57.50527
#
# Poissons Ratio (x) = 0.12383 0.12225
# Poissons Ratio (y) = 0.45646 0.49081
# Poissons Ratio (z) = 0.13825 0.15058
#
# Static dielectric constant tensor:
#      x y z
#    x 1.503700 0.000000 0.002230 
#    y 0.000000 1.532190 0.000000 
#    z 0.002230 0.000000 1.528950 
# 
# From -- ./inp_files/326835.got.cif
#   From: 2010.05.17/outbox.cif.g08.bks.cpg/sg12_164_cif.got.tgz:326835.got - 2010.06.03 13:09:07.
