data_PCOD9172753
_publ_section_title
;
Structure prediction by ZEFSAII (Michael W. Deem and Ramdas Pophale) SiO2 
 PCOD9172753
Probable space group: C 2/M
;
_chemical_formula_sum "Si O2"
_cell_formula_units_Z 56
_cell_length_a 31.872070
_cell_length_b 13.439422
_cell_length_c 26.064838
_cell_angle_alpha 90.000000
_cell_angle_beta 161.015595
_cell_angle_gamma 90.000000
_cell_volume 3631.987594
_symmetry_space_group_name_H-M "C 2/M"
_symmetry_group_IT_number 12
_symmetry_cell_setting 'monoclinic'
loop_
_space_group_symop_operation_xyz
x,y,z
-x,y,-z
-x,-y,-z
x,-y,z
1/2+x,1/2+y,z
1/2-x,1/2+y,-z
1/2-x,1/2-y,-z
1/2+x,1/2-y,z
loop_
_atom_site_type_symbol
_atom_site_label
_atom_site_fract_x
_atom_site_fract_y
_atom_site_fract_z
Si Si1 0.142735 0.879124 0.650336
Si Si2 0.641517 0.199161 0.301978
Si Si3 0.045012 0.185584 0.762604
Si Si4 0.326344 0.885897 0.064115
Si Si5 0.831937 0.120017 0.438706
Si Si6 0.160305 0.884205 0.389888
Si Si7 0.857513 0.618387 0.979696
O O1 0.173029 0.853023 0.626700
O O2 0.000000 0.844094 0.500000
O O3 0.140699 0.000000 0.650187
O O4 0.248632 0.846713 0.814107
O O5 0.716955 0.168812 0.338138
O O6 0.710630 0.136761 0.427684
O O7 0.661454 0.312911 0.342134
O O8 0.492433 0.172457 0.126898
O O9 0.075644 0.302950 0.801522
O O10 0.963879 0.155237 0.618597
O O11 0.956503 0.151368 0.707971
O O12 0.184454 0.133274 0.923273
O O13 0.316259 0.868563 0.991118
O O14 0.366158 0.000000 0.118626
O O15 0.824961 0.000000 0.435652
O O16 0.148341 0.000000 0.364854
O O17 0.877258 0.500000 0.994652
#
# Coordination Sequence:
#
# PCOD9172753 Si02
#       7
#     8   8   8   8   8   8   8
#     4   9  18  31  49  71  95 128 162 190 237 294
#     4  10  19  31  45  71  97 126 162 195 239 286
#     4  10  18  31  47  68  97 129 167 190 240 291
#     4  10  19  29  46  72 102 126 155 202 241 281
#     4  10  19  32  48  68  98 131 160 195 233 286
#     4  10  19  32  48  66  96 133 164 196 235 289
#     4  10  18  30  47  71 101 127 154 197 243 286
#
# _framework density 15.418556000000001
#
# number of rings (size 3 to 8) (size 9 to 14) (size 15 to 20)
#    0.000    2.143    1.429    4.286    0.000    2.857 
#    0.000    2.143    0.000    0.000    0.000    3.000 
#    0.000    5.429    0.000    0.000    0.000    0.000 
#
# Total GULP energy -156163.372471 kJ/mol
# GULP energy per Si atom -5577.263303 kJ/mol
# Density = 1.538346 g / cm^3
# Si number density = 15.418556 Si / 1000 Ang^3
#
#
#
# Elastic Constant Matrix: (Units=GPa)
#
#
# Indices 1 2 3 4 5 6 
#
# 1 70.8231 33.3469 41.6835 0.0000 0.7159 0.0000
# 2 33.3469 88.4920 33.6848 0.0005 2.5978 0.0006
# 3 41.6835 33.6848 94.3026 0.0003 8.8924 0.0005
# 4 0.0000 0.0005 0.0003 17.7703 0.0001 0.4159
# 5 0.7159 2.5978 8.8924 0.0001 14.4247 0.0002
# 6 0.0000 0.0006 0.0005 0.4159 0.0002 18.0304
#
#
#
# Elastic Compliance Matrix: (Units=1/GPa)
#
#
# Indices 1 2 3 4 5 6 
#
# 1 0.021166 -0.005073 -0.007995 0.000000 0.004792 0.000000
# 2 -0.005073 0.014299 -0.002809 0.000000 -0.000592 0.000000
# 3 -0.007995 -0.002809 0.015986 0.000000 -0.008952 0.000000
# 4 0.000000 0.000000 0.000000 0.056304 0.000000 -0.001299
# 5 0.004792 -0.000592 -0.008952 0.000000 0.074713 0.000000
# 6 0.000000 0.000000 0.000000 -0.001299 0.000000 0.055492
#
#
# Mechanical properties :
#
#
# Convention : Reuss Voigt Hill
#
# Bulk Modulus (GPa) = 50.77497 52.33866 51.55682
# Shear Modulus (GPa) = 18.09758 19.70525 18.90141
#
# Velocity S-wave (km/s) = 3.42972 3.57882 3.50507
# Velocity P-wave (km/s) = 6.97758 7.14816 7.06338
#
# Compressibility (1/GPa) = 0.01969474
#
# Stress axis : x y z
#
# Youngs Moduli (GPa) = 47.24630 69.93510 62.55510
#
# Poissons Ratio (x) = 0.35479 0.50015
# Poissons Ratio (y) = 0.23969 0.17574
# Poissons Ratio (z) = 0.37775 0.19647
#
# Static dielectric constant tensor:
#      x y z
#    x 1.515070 0.000000 0.013420 
#    y 0.000000 1.505410 0.000000 
#    z 0.013420 0.000000 1.507660 
# 
# From -- ./inp_files/353982.got.cif
#   From: 2010.05.17/outbox.cif.g08.bks.cpg/sg12_177_cif.got.tgz:353982.got - 2010.06.03 13:09:07.
