data_PCOD9172178
_publ_section_title
;
Structure prediction by ZEFSAII (Michael W. Deem and Ramdas Pophale) SiO2 
 PCOD9172178
Probable space group: C 2/M
;
_chemical_formula_sum "Si O2"
_cell_formula_units_Z 64
_cell_length_a 25.439327
_cell_length_b 8.492289
_cell_length_c 21.964452
_cell_angle_alpha 90.000000
_cell_angle_beta 127.327571
_cell_angle_gamma 90.000000
_cell_volume 3773.263879
_symmetry_space_group_name_H-M "C 2/M"
_symmetry_group_IT_number 12
_symmetry_cell_setting 'monoclinic'
loop_
_space_group_symop_operation_xyz
x,y,z
-x,y,-z
-x,-y,-z
x,-y,z
1/2+x,1/2+y,z
1/2-x,1/2+y,-z
1/2-x,1/2-y,-z
1/2+x,1/2-y,z
loop_
_atom_site_type_symbol
_atom_site_label
_atom_site_fract_x
_atom_site_fract_y
_atom_site_fract_z
Si Si1 0.358428 0.685995 0.073106
Si Si2 0.439567 0.313745 0.914570
Si Si3 0.774094 0.690928 0.663453
Si Si4 0.188285 0.810501 0.496283
Si Si5 0.239058 0.686720 0.899460
Si Si6 0.496199 0.183340 0.831367
Si Si7 0.397747 0.688443 0.670780
Si Si8 0.706456 0.812768 0.184024
O O1 0.372047 0.500000 0.077898
O O2 0.320808 0.724999 0.109411
O O3 0.426542 0.777906 0.114877
O O4 0.305965 0.729813 0.983575
O O5 0.429975 0.500000 0.917630
O O6 0.461307 0.280471 0.860773
O O7 0.370637 0.229116 0.879354
O O8 0.500000 0.260642 0.000000
O O9 0.781424 0.500000 0.666248
O O10 0.708218 0.735157 0.578911
O O11 0.836812 0.764279 0.672426
O O12 0.774655 0.738031 0.734192
O O13 0.250000 0.750000 0.500000
O O14 0.124220 0.759570 0.412749
O O15 0.187876 0.000000 0.494253
O O16 0.229446 0.500000 0.900136
O O17 0.250894 0.730962 0.838204
O O18 0.462008 0.231625 0.744109
O O19 0.484384 0.000000 0.835003
O O20 0.405609 0.500000 0.677333
O O21 0.715005 0.000000 0.185516
#
# Coordination Sequence:
#
# PCOD9172178 Si02
#       8
#     8   8   8   8   8   8   8   8
#     4  10  21  38  57  75  96 126 168 214 255 296
#     4  11  23  36  49  68  98 134 170 207 248 297
#     4   9  17  30  46  69 101 133 166 204 246 293
#     4   8  15  27  44  66  94 129 166 202 242 290
#     4  10  21  37  56  76  99 128 165 211 255 295
#     4  12  23  34  50  73 102 134 167 206 251 301
#     4  10  18  29  47  70  98 133 169 205 246 294
#     4  11  21  32  50  75 103 135 167 203 247 297
#
# _framework density 16.961442999999999
#
# number of rings (size 3 to 8) (size 9 to 14) (size 15 to 20)
#    0.000    1.875    1.250    3.750    0.000    6.500 
#    0.000    0.000    0.000    0.000    0.000    0.875 
#    0.000    7.000    0.000    0.000    0.000    0.000 
#
# Total GULP energy -178541.289646 kJ/mol
# GULP energy per Si atom -5579.415301 kJ/mol
# Density = 1.692284 g / cm^3
# Si number density = 16.961443 Si / 1000 Ang^3
#
#
#
# Elastic Constant Matrix: (Units=GPa)
#
#
# Indices 1 2 3 4 5 6 
#
# 1 28.9858 -7.6289 -4.8123 0.0000 -10.6964 0.0000
# 2 -7.6289 12.4586 2.9249 0.0000 -0.6511 0.0000
# 3 -4.8123 2.9249 58.0591 0.0000 -15.4700 0.0000
# 4 0.0000 0.0000 0.0000 18.6829 0.0000 2.2480
# 5 -10.6964 -0.6511 -15.4700 0.0000 19.2666 0.0000
# 6 0.0000 0.0000 0.0000 2.2480 0.0000 23.8946
#
#
#
# Elastic Compliance Matrix: (Units=1/GPa)
#
#
# Indices 1 2 3 4 5 6 
#
# 1 0.067562 0.039982 0.017734 0.000000 0.053100 0.000000
# 2 0.039982 0.104895 0.006219 0.000000 0.030736 0.000000
# 3 0.017734 0.006219 0.026792 0.000000 0.031568 0.000000
# 4 0.000000 0.000000 0.000000 0.054138 0.000000 -0.005093
# 5 0.053100 0.030736 0.031568 0.000000 0.107770 0.000000
# 6 0.000000 0.000000 0.000000 -0.005093 0.000000 0.042330
#
#
# Mechanical properties :
#
#
# Convention : Reuss Voigt Hill
#
# Bulk Modulus (GPa) = 3.05698 8.94123 5.99910
# Shear Modulus (GPa) = 12.99870 19.63680 16.31775
#
# Velocity S-wave (km/s) = 2.77134 3.40624 3.10506
# Velocity P-wave (km/s) = 3.47083 4.55553 4.04966
#
# Compressibility (1/GPa) = 0.32712000
#
# Stress axis : x y z
#
# Youngs Moduli (GPa) = 14.80122 9.53338 37.32470
#
# Poissons Ratio (x) = -0.38117 -0.66193
# Poissons Ratio (y) = -0.59179 -0.23213
# Poissons Ratio (z) = -0.26249 -0.05929
#
# Static dielectric constant tensor:
#      x y z
#    x 1.530420 0.000000 -0.011920 
#    y 0.000000 1.568780 0.000000 
#    z -0.011920 0.000000 1.625100 
# 
# From -- ./inp_files/324317.got.cif
#   From: 2010.05.17/outbox.cif.g08.bks.cpg/sg12_163_cif.got.tgz:324317.got - 2010.06.03 13:09:07.
