data_PCOD9172574
_publ_section_title
;
Structure prediction by ZEFSAII (Michael W. Deem and Ramdas Pophale) SiO2 
 PCOD9172574
Probable space group: C 2/M
;
_chemical_formula_sum "Si O2"
_cell_formula_units_Z 56
_cell_length_a 9.601320
_cell_length_b 16.759299
_cell_length_c 15.531323
_cell_angle_alpha 90.000000
_cell_angle_beta 71.594479
_cell_angle_gamma 90.000000
_cell_volume 2371.323414
_symmetry_space_group_name_H-M "C 2/M"
_symmetry_group_IT_number 12
_symmetry_cell_setting 'monoclinic'
loop_
_space_group_symop_operation_xyz
x,y,z
-x,y,-z
-x,-y,-z
x,-y,z
1/2+x,1/2+y,z
1/2-x,1/2+y,-z
1/2-x,1/2-y,-z
1/2+x,1/2-y,z
loop_
_atom_site_type_symbol
_atom_site_label
_atom_site_fract_x
_atom_site_fract_y
_atom_site_fract_z
Si Si1 0.119423 0.590718 0.078171
Si Si2 0.284469 0.318202 0.924949
Si Si3 0.418257 0.413739 0.126466
Si Si4 0.881821 0.088137 0.599903
Si Si5 0.434449 0.217108 0.770197
Si Si6 0.117285 0.862013 0.685973
Si Si7 0.360664 0.229219 0.589865
O O1 0.067132 0.500000 0.092246
O O2 0.285438 0.593421 0.086484
O O3 0.040718 0.650085 0.161678
O O4 0.156730 0.619078 0.972829
O O5 0.448334 0.352463 0.906436
O O6 0.299713 0.272135 0.832116
O O7 0.250000 0.250000 0.000000
O O8 0.489399 0.500000 0.102447
O O9 0.346007 0.409804 0.235425
O O10 0.979324 0.096844 0.667444
O O11 0.000000 0.084541 0.500000
O O12 0.811541 0.177199 0.605122
O O13 0.805336 0.000000 0.615786
O O14 0.568912 0.276944 0.733612
O O15 0.402373 0.197377 0.677336
O O16 0.235086 0.835116 0.591536
O O17 0.500000 0.226107 0.500000
#
# Coordination Sequence:
#
# PCOD9172574 Si02
#       7
#     8   8   8   8   8   8   8
#     4  10  18  31  52  78 113 143 177 226 281 337
#     4   9  18  30  46  73 109 141 177 217 265 331
#     4  10  18  29  52  80 107 140 180 225 278 334
#     4   9  19  34  53  77 106 140 183 231 281 334
#     4   9  19  34  50  78 112 144 186 227 282 333
#     4  10  19  34  56  79 109 145 189 234 282 337
#     4  10  20  35  58  82 108 146 193 241 284 338
#
# _framework density 23.615506
#
# number of rings (size 3 to 8) (size 9 to 14) (size 15 to 20)
#    0.000    2.429    1.429    1.286    0.000    6.286 
#    0.000    1.429    0.000    5.571    0.000    1.000 
#    0.000    0.571    0.000    0.000    0.000    0.000 
#
# Total GULP energy -155998.731540 kJ/mol
# GULP energy per Si atom -5571.383269 kJ/mol
# Density = 2.356176 g / cm^3
# Si number density = 23.615506 Si / 1000 Ang^3
#
#
#
# Elastic Constant Matrix: (Units=GPa)
#
#
# Indices 1 2 3 4 5 6 
#
# 1 25.4673 -2.9788 8.6213 0.0000 -1.1183 0.0000
# 2 -2.9788 111.4623 35.2269 0.0000 -14.1603 0.0000
# 3 8.6213 35.2269 128.4874 0.0000 9.1903 0.0000
# 4 0.0000 0.0000 0.0000 26.2248 0.0000 -7.0754
# 5 -1.1183 -14.1603 9.1903 0.0000 34.6389 0.0000
# 6 0.0000 0.0000 0.0000 -7.0754 0.0000 20.0646
#
#
#
# Elastic Compliance Matrix: (Units=1/GPa)
#
#
# Indices 1 2 3 4 5 6 
#
# 1 0.041000 0.002713 -0.003740 0.000000 0.003425 0.000000
# 2 0.002713 0.010861 -0.003551 0.000000 0.005470 0.000000
# 3 -0.003740 -0.003551 0.009296 0.000000 -0.004039 0.000000
# 4 0.000000 0.000000 0.000000 0.042141 0.000000 0.014860
# 5 0.003425 0.005470 -0.004039 0.000000 0.032287 0.000000
# 6 0.000000 0.000000 0.000000 0.014860 0.000000 0.055079
#
#
# Mechanical properties :
#
#
# Convention : Reuss Voigt Hill
#
# Bulk Modulus (GPa) = 19.23039 38.57288 28.90163
# Shear Modulus (GPa) = 23.02505 31.15550 27.09027
#
# Velocity S-wave (km/s) = 3.12588 3.63613 3.39062
# Velocity P-wave (km/s) = 4.60315 5.83076 5.25294
#
# Compressibility (1/GPa) = 0.05200103
#
# Stress axis : x y z
#
# Youngs Moduli (GPa) = 24.39047 92.06986 107.57009
#
# Poissons Ratio (x) = -0.24976 0.40228
# Poissons Ratio (y) = -0.06616 0.38199
# Poissons Ratio (z) = 0.09121 0.32695
#
# Static dielectric constant tensor:
#      x y z
#    x 2.037580 0.000000 0.030610 
#    y 0.000000 1.974930 0.000000 
#    z 0.030610 0.000000 1.980030 
# 
# From -- ./inp_files/264184.got.cif
#   From: 2010.05.17/outbox.cif.g08.bks.cpg/sg12_133_cif.got.tgz:264184.got - 2010.06.03 13:09:07.
