data_PCOD9172472
_publ_section_title
;
Structure prediction by ZEFSAII (Michael W. Deem and Ramdas Pophale) SiO2 
 PCOD9172472
Probable space group: C 2/M
;
_chemical_formula_sum "Si O2"
_cell_formula_units_Z 56
_cell_length_a 21.043104
_cell_length_b 7.354374
_cell_length_c 18.067562
_cell_angle_alpha 90.000000
_cell_angle_beta 105.326452
_cell_angle_gamma 90.000000
_cell_volume 2696.672780
_symmetry_space_group_name_H-M "C 2/M"
_symmetry_group_IT_number 12
_symmetry_cell_setting 'monoclinic'
loop_
_space_group_symop_operation_xyz
x,y,z
-x,y,-z
-x,-y,-z
x,-y,z
1/2+x,1/2+y,z
1/2-x,1/2+y,-z
1/2-x,1/2-y,-z
1/2+x,1/2-y,z
loop_
_atom_site_type_symbol
_atom_site_label
_atom_site_fract_x
_atom_site_fract_y
_atom_site_fract_z
Si Si1 0.689301 0.212556 0.752482
Si Si2 0.066961 0.722362 0.265506
Si Si3 0.421492 0.777733 0.169749
Si Si4 0.146731 0.710957 0.426051
Si Si5 0.573312 0.778313 0.997333
Si Si6 0.709145 0.221429 0.593439
Si Si7 0.661560 0.780702 0.160606
O O1 0.635868 0.286677 0.793271
O O2 0.690198 0.286516 0.669141
O O3 0.762981 0.226369 0.806836
O O4 0.673122 0.000000 0.739282
O O5 0.068318 0.500000 0.266679
O O6 0.092757 0.786968 0.353163
O O7 0.117937 0.779911 0.217280
O O8 0.993375 0.776379 0.221390
O O9 0.420575 0.000000 0.168189
O O10 0.413032 0.719507 0.082160
O O11 0.129663 0.500000 0.431925
O O12 0.216741 0.721207 0.404811
O O13 0.161893 0.785806 0.512290
O O14 0.626475 0.719182 0.074413
O O15 0.573395 0.000000 0.997624
O O16 0.500000 0.723347 0.000000
O O17 0.709702 0.000000 0.592864
O O18 0.659916 0.000000 0.160358
#
# Coordination Sequence:
#
# PCOD9172472 Si02
#       7
#     8   8   8   8   8   8   8
#     4  10  20  32  45  66  99 130 148 175 231 290
#     4   9  15  26  46  71  90 112 152 196 227 256
#     4   9  17  29  45  67  96 124 149 185 234 277
#     4   9  16  27  46  69  89 113 152 195 224 253
#     4   9  15  26  46  72  93 112 151 200 231 256
#     4   9  17  28  42  65  95 122 147 179 225 277
#     4  10  18  29  50  73  90 114 156 200 226 256
#
# _framework density 20.766331000000001
#
# number of rings (size 3 to 8) (size 9 to 14) (size 15 to 20)
#    0.000    2.714    2.857    0.000    0.000    0.571 
#    0.000    0.714    0.000    6.429    0.000    0.000 
#    0.000    5.714    0.000    0.000    0.000    0.000 
#
# Total GULP energy -156300.933844 kJ/mol
# GULP energy per Si atom -5582.176209 kJ/mol
# Density = 2.071907 g / cm^3
# Si number density = 20.766331 Si / 1000 Ang^3
#
#
#
# Elastic Constant Matrix: (Units=GPa)
#
#
# Indices 1 2 3 4 5 6 
#
# 1 122.7278 -10.6462 85.0645 0.0000 -6.3028 0.0000
# 2 -10.6462 75.0062 -3.2545 0.0000 -1.5578 0.0000
# 3 85.0645 -3.2545 216.0891 0.0000 5.8992 0.0000
# 4 0.0000 0.0000 0.0000 8.7583 0.0000 10.6852
# 5 -6.3028 -1.5578 5.8992 0.0000 31.4687 0.0000
# 6 0.0000 0.0000 0.0000 10.6852 0.0000 15.0022
#
#
#
# Elastic Compliance Matrix: (Units=1/GPa)
#
#
# Indices 1 2 3 4 5 6 
#
# 1 0.011683 0.001524 -0.004666 0.000000 0.003290 0.000000
# 2 0.001524 0.013552 -0.000425 0.000000 0.001056 0.000000
# 3 -0.004666 -0.000425 0.006518 0.000000 -0.002177 0.000000
# 4 0.000000 0.000000 0.000000 0.871145 0.000000 -0.620465
# 5 0.003290 0.001056 -0.002177 0.000000 0.032897 0.000000
# 6 0.000000 0.000000 0.000000 -0.620465 0.000000 0.508577
#
#
# Mechanical properties :
#
#
# Convention : Reuss Voigt Hill
#
# Bulk Modulus (GPa) = 40.61762 61.79454 51.20608
# Shear Modulus (GPa) = 3.42533 33.88980 18.65756
#
# Velocity S-wave (km/s) = 1.28571 4.04413 3.00067
# Velocity P-wave (km/s) = 4.66968 7.18529 6.05947
#
# Compressibility (1/GPa) = 0.02461986
#
# Stress axis : x y z
#
# Youngs Moduli (GPa) = 85.59106 73.78942 153.43056
#
# Poissons Ratio (x) = -0.11247 0.71593
# Poissons Ratio (y) = -0.13046 0.06517
# Poissons Ratio (z) = 0.39938 0.03134
#
# Static dielectric constant tensor:
#      x y z
#    x 1.677200 0.000000 -0.000130 
#    y 0.000000 1.825860 0.000000 
#    z -0.000130 0.000000 1.746610 
# 
# From -- ./inp_files/276096.got.cif
#   From: 2010.05.17/outbox.cif.g08.bks.cpg/sg12_139_cif.got.tgz:276096.got - 2010.06.03 13:09:07.
