data_PCOD9172154
_publ_section_title
;
Structure prediction by ZEFSAII (Michael W. Deem and Ramdas Pophale) SiO2 
 PCOD9172154
Probable space group: C 2/M
;
_chemical_formula_sum "Si O2"
_cell_formula_units_Z 64
_cell_length_a 30.529534
_cell_length_b 8.801292
_cell_length_c 14.419540
_cell_angle_alpha 90.000000
_cell_angle_beta 87.603136
_cell_angle_gamma 90.000000
_cell_volume 3871.131191
_symmetry_space_group_name_H-M "C 2/M"
_symmetry_group_IT_number 12
_symmetry_cell_setting 'monoclinic'
loop_
_space_group_symop_operation_xyz
x,y,z
-x,y,-z
-x,-y,-z
x,-y,z
1/2+x,1/2+y,z
1/2-x,1/2+y,-z
1/2-x,1/2-y,-z
1/2+x,1/2-y,z
loop_
_atom_site_type_symbol
_atom_site_label
_atom_site_fract_x
_atom_site_fract_y
_atom_site_fract_z
Si Si1 0.507494 0.322888 0.309940
Si Si2 0.436845 0.179609 0.540829
Si Si3 0.140083 0.816687 0.329504
Si Si4 0.076108 0.681438 0.780697
Si Si5 0.880328 0.818246 0.389306
Si Si6 0.949540 0.317596 0.013621
Si Si7 0.703275 0.681239 0.481144
Si Si8 0.909673 0.175061 0.838214
O O1 0.495412 0.500000 0.322356
O O2 0.523040 0.252147 0.405876
O O3 0.469266 0.230165 0.264019
O O4 0.549133 0.316486 0.236378
O O5 0.395626 0.219778 0.611233
O O6 0.420950 0.255055 0.446749
O O7 0.442752 0.000000 0.529372
O O8 0.185388 0.786536 0.378628
O O9 0.132067 0.782741 0.222201
O O10 0.130571 0.000000 0.342339
O O11 0.080735 0.500000 0.777589
O O12 0.113612 0.756901 0.714717
O O13 0.071829 0.733530 0.887580
O O14 0.835458 0.769047 0.444593
O O15 0.881982 0.000000 0.391053
O O16 0.951936 0.500000 0.017160
O O17 0.921640 0.270464 0.926966
O O18 0.000000 0.260618 0.000000
O O19 0.706375 0.500000 0.489261
O O20 0.750000 0.750000 0.500000
O O21 0.904884 0.000000 0.867141
#
# Coordination Sequence:
#
# PCOD9172154 Si02
#       8
#     8   8   8   8   8   8   8   8
#     4  10  19  31  46  66  93 129 168 207 247 287
#     4  10  18  29  47  69  93 125 165 204 239 286
#     4   8  16  31  47  71 103 132 159 197 243 288
#     4  11  22  34  48  68  94 127 169 210 247 291
#     4  10  21  37  51  68  98 131 159 197 244 290
#     4  10  20  33  47  67  98 130 163 213 263 289
#     4   9  18  33  55  79 105 129 154 189 237 295
#     4   9  17  29  48  69  93 128 172 208 239 286
#
# _framework density 16.532636
#
# number of rings (size 3 to 8) (size 9 to 14) (size 15 to 20)
#    0.000    2.375    1.250    3.750    0.000    6.250 
#    0.000    2.500    0.000    0.000    0.000    0.875 
#    0.000    0.000    0.000    0.000    0.000    0.000 
#
# Total GULP energy -178401.520337 kJ/mol
# GULP energy per Si atom -5575.047511 kJ/mol
# Density = 1.649501 g / cm^3
# Si number density = 16.532636 Si / 1000 Ang^3
#
#
#
# Elastic Constant Matrix: (Units=GPa)
#
#
# Indices 1 2 3 4 5 6 
#
# 1 83.0011 11.6858 44.6265 0.0000 14.8577 0.0000
# 2 11.6858 34.3785 30.5567 0.0000 -1.1873 0.0000
# 3 44.6265 30.5567 132.6086 0.0000 8.5788 0.0000
# 4 0.0000 0.0000 0.0000 26.9366 0.0000 4.3517
# 5 14.8577 -1.1873 8.5788 0.0000 17.5258 0.0000
# 6 0.0000 0.0000 0.0000 4.3517 0.0000 23.2205
#
#
#
# Elastic Compliance Matrix: (Units=1/GPa)
#
#
# Indices 1 2 3 4 5 6 
#
# 1 0.016936 -0.002301 -0.004369 0.000000 -0.012375 0.000000
# 2 -0.002301 0.037699 -0.008472 0.000000 0.008652 0.000000
# 3 -0.004369 -0.008472 0.011113 0.000000 -0.002310 0.000000
# 4 0.000000 0.000000 0.000000 0.038283 0.000000 -0.007175
# 5 -0.012375 0.008652 -0.002310 0.000000 0.069267 0.000000
# 6 0.000000 0.000000 0.000000 -0.007175 0.000000 0.044410
#
#
# Mechanical properties :
#
#
# Convention : Reuss Voigt Hill
#
# Bulk Modulus (GPa) = 28.19756 47.08068 37.63912
# Shear Modulus (GPa) = 19.24449 24.41118 21.82784
#
# Velocity S-wave (km/s) = 3.41549 3.84675 3.63752
# Velocity P-wave (km/s) = 5.71374 6.94761 6.36066
#
# Compressibility (1/GPa) = 0.03546406
#
# Stress axis : x y z
#
# Youngs Moduli (GPa) = 59.04533 26.52561 89.98600
#
# Poissons Ratio (x) = 0.06104 0.39311
# Poissons Ratio (y) = 0.13588 0.76239
# Poissons Ratio (z) = 0.25795 0.22473
#
# Static dielectric constant tensor:
#      x y z
#    x 1.566620 0.000000 -0.011240 
#    y 0.000000 1.556000 0.000000 
#    z -0.011240 0.000000 1.585340 
# 
# From -- ./inp_files/248438.got.cif
#   From: 2010.05.17/outbox.cif.g08.bks.cpg/sg12_125_cif.got.tgz:248438.got - 2010.06.03 13:09:07.
