data_PCOD9172489
_publ_section_title
;
Structure prediction by ZEFSAII (Michael W. Deem and Ramdas Pophale) SiO2 
 PCOD9172489
Probable space group: C 2/M
;
_chemical_formula_sum "Si O2"
_cell_formula_units_Z 56
_cell_length_a 23.633423
_cell_length_b 20.994291
_cell_length_c 18.131220
_cell_angle_alpha 90.000000
_cell_angle_beta 159.194913
_cell_angle_gamma 90.000000
_cell_volume 3195.328764
_symmetry_space_group_name_H-M "C 2/M"
_symmetry_group_IT_number 12
_symmetry_cell_setting 'monoclinic'
loop_
_space_group_symop_operation_xyz
x,y,z
-x,y,-z
-x,-y,-z
x,-y,z
1/2+x,1/2+y,z
1/2-x,1/2+y,-z
1/2-x,1/2-y,-z
1/2+x,1/2-y,z
loop_
_atom_site_type_symbol
_atom_site_label
_atom_site_fract_x
_atom_site_fract_y
_atom_site_fract_z
Si Si1 0.641775 0.826233 0.955931
Si Si2 0.231177 0.142603 0.143121
Si Si3 0.495839 0.244145 0.082748
Si Si4 0.953017 0.756356 0.367899
Si Si5 0.802927 0.428388 0.094144
Si Si6 0.330292 0.072464 0.410079
Si Si7 0.672641 0.795668 0.517912
O O1 0.809726 0.790177 0.150532
O O2 0.590233 0.812863 0.977552
O O3 0.672109 0.893385 0.953385
O O4 0.488097 0.798620 0.725806
O O5 0.375424 0.189548 0.297538
O O6 0.193105 0.108315 0.019365
O O7 0.279526 0.093309 0.265972
O O8 0.099109 0.191164 0.012644
O O9 0.676870 0.257571 0.328279
O O10 0.500000 0.235078 0.000000
O O11 0.000000 0.792276 0.500000
O O12 0.110439 0.740648 0.514858
O O13 0.748168 0.500000 0.017246
O O14 0.978341 0.429160 0.346227
O O15 0.278863 0.131873 0.399766
O O16 0.273319 0.000000 0.356944
#
# Coordination Sequence:
#
# PCOD9172489 Si02
#       7
#     8   8   8   8   8   8   8
#     4  10  22  34  56  79 104 138 180 229 277 312
#     4  11  18  32  51  79 113 143 179 214 255 313
#     4  11  22  34  51  77 116 146 176 219 266 321
#     4  11  18  32  54  78 106 134 178 227 269 319
#     4  10  20  34  55  81 106 138 186 230 266 315
#     4  10  18  29  50  76 109 151 181 206 249 314
#     4  11  19  34  47  77 108 145 178 222 257 315
#
# _framework density 17.525583000000001
#
# number of rings (size 3 to 8) (size 9 to 14) (size 15 to 20)
#    0.000    1.429    5.714    2.571    2.000    1.143 
#    0.000    2.143    0.000    0.857    0.000    0.000 
#    0.000    0.000    0.000    0.000    0.000    0.000 
#
# Total GULP energy -155948.200538 kJ/mol
# GULP energy per Si atom -5569.578591 kJ/mol
# Density = 1.748569 g / cm^3
# Si number density = 17.525583 Si / 1000 Ang^3
#
#
#
# Elastic Constant Matrix: (Units=GPa)
#
#
# Indices 1 2 3 4 5 6 
#
# 1 101.7356 47.1523 16.6617 0.0000 -3.2664 0.0000
# 2 47.1523 57.5734 33.2977 0.0000 -9.6629 0.0000
# 3 16.6617 33.2977 50.2877 0.0000 2.5423 0.0000
# 4 0.0000 0.0000 0.0000 14.6486 0.0000 -7.5262
# 5 -3.2664 -9.6629 2.5423 0.0000 21.6689 0.0000
# 6 0.0000 0.0000 0.0000 -7.5262 0.0000 13.2020
#
#
#
# Elastic Compliance Matrix: (Units=1/GPa)
#
#
# Indices 1 2 3 4 5 6 
#
# 1 0.017727 -0.020370 0.007986 0.000000 -0.007349 0.000000
# 2 -0.020370 0.057250 -0.032487 0.000000 0.026271 0.000000
# 3 0.007986 -0.032487 0.039657 0.000000 -0.017936 0.000000
# 4 0.000000 0.000000 0.000000 0.096543 0.000000 0.055037
# 5 -0.007349 0.026271 -0.017936 0.000000 0.058861 0.000000
# 6 0.000000 0.000000 0.000000 0.055037 0.000000 0.107122
#
#
# Mechanical properties :
#
#
# Convention : Reuss Voigt Hill
#
# Bulk Modulus (GPa) = 40.17278 44.86888 42.52083
# Shear Modulus (GPa) = 10.52190 17.40290 13.96240
#
# Velocity S-wave (km/s) = 2.45291 3.15461 2.82563
# Velocity P-wave (km/s) = 5.56727 6.23909 5.91273
#
# Compressibility (1/GPa) = 0.02489248
#
# Stress axis : x y z
#
# Youngs Moduli (GPa) = 56.41200 17.46714 25.21612
#
# Poissons Ratio (x) = 0.35581 -0.20138
# Poissons Ratio (y) = 1.14913 0.81919
# Poissons Ratio (z) = -0.45052 0.56745
#
# Static dielectric constant tensor:
#      x y z
#    x 1.653480 0.000000 -0.045010 
#    y 0.000000 1.601280 0.000000 
#    z -0.045010 0.000000 1.648160 
# 
# From -- ./inp_files/291041.got.cif
#   From: 2010.05.17/outbox.cif.g08.bks.cpg/sg12_146_cif.got.tgz:291041.got - 2010.06.03 13:09:07.
