data_PCOD9172246
_publ_section_title
;
Structure prediction by ZEFSAII (Michael W. Deem and Ramdas Pophale) SiO2 
 PCOD9172246
Probable space group: C 2/M
;
_chemical_formula_sum "Si O2"
_cell_formula_units_Z 64
_cell_length_a 9.384273
_cell_length_b 19.746186
_cell_length_c 21.330000
_cell_angle_alpha 90.000000
_cell_angle_beta 61.123328
_cell_angle_gamma 90.000000
_cell_volume 3461.073568
_symmetry_space_group_name_H-M "C 2/M"
_symmetry_group_IT_number 12
_symmetry_cell_setting 'monoclinic'
loop_
_space_group_symop_operation_xyz
x,y,z
-x,y,-z
-x,-y,-z
x,-y,z
1/2+x,1/2+y,z
1/2-x,1/2+y,-z
1/2-x,1/2-y,-z
1/2+x,1/2-y,z
loop_
_atom_site_type_symbol
_atom_site_label
_atom_site_fract_x
_atom_site_fract_y
_atom_site_fract_z
Si Si1 0.184203 0.162523 0.457650
Si Si2 0.270958 0.181740 0.583359
Si Si3 0.078786 0.782556 0.050805
Si Si4 0.912126 0.300114 0.193051
Si Si5 0.472998 0.134686 0.650374
Si Si6 0.993536 0.074460 0.077127
Si Si7 0.877988 0.423219 0.799184
Si Si8 0.959942 0.780462 0.716862
O O1 0.248573 0.166888 0.515122
O O2 0.177262 0.238267 0.428432
O O3 0.331685 0.124284 0.391605
O O4 0.000000 0.135872 0.500000
O O5 0.393484 0.136218 0.598216
O O6 0.094649 0.175548 0.653203
O O7 0.970597 0.733047 0.116084
O O8 0.089492 0.858289 0.077079
O O9 0.250000 0.750000 0.000000
O O10 0.000000 0.791034 0.000000
O O11 0.010427 0.367558 0.190441
O O12 0.963764 0.244859 0.234298
O O13 0.718795 0.310370 0.236645
O O14 0.392612 0.089459 0.721299
O O15 0.443589 0.211811 0.679675
O O16 0.807618 0.085528 0.138647
O O17 0.047284 0.000000 0.089052
O O18 0.000000 0.070753 0.000000
O O19 0.927059 0.500000 0.803404
#
# Coordination Sequence:
#
# PCOD9172246 Si02
#       8
#     8   8   8   8   8   8   8   8
#     4  10  19  28  49  79 116 149 179 225 295 358
#     4  10  18  29  47  78 117 145 178 231 289 352
#     4  11  21  35  56  87 120 153 193 240 294 346
#     4  11  20  34  54  82 114 150 188 248 294 347
#     4  10  19  33  50  79 113 144 184 234 286 346
#     4   9  18  35  58  85 115 153 197 236 272 331
#     4  10  22  38  60  83 109 153 203 242 291 351
#     4  10  19  29  50  81 111 143 180 227 299 346
#
# _framework density 18.491372999999999
#
# number of rings (size 3 to 8) (size 9 to 14) (size 15 to 20)
#    0.000    1.875    1.250    6.375    3.500    0.000 
#    0.000    0.000    0.000    6.375    0.000    0.000 
#    0.000    0.000    0.000    0.000    0.000    0.000 
#
# Total GULP energy -178404.038732 kJ/mol
# GULP energy per Si atom -5575.126210 kJ/mol
# Density = 1.844929 g / cm^3
# Si number density = 18.491373 Si / 1000 Ang^3
#
#
#
# Elastic Constant Matrix: (Units=GPa)
#
#
# Indices 1 2 3 4 5 6 
#
# 1 68.6289 26.7596 36.6411 0.0000 -20.7736 0.0000
# 2 26.7596 75.1841 28.8711 0.0000 -18.9038 0.0000
# 3 36.6411 28.8711 116.8091 0.0000 -20.7192 0.0000
# 4 0.0000 0.0000 0.0000 243.4171 0.0000 -72.4618
# 5 -20.7736 -18.9038 -20.7192 0.0000 41.7472 0.0000
# 6 0.0000 0.0000 0.0000 -72.4618 0.0000 35.2840
#
#
#
# Elastic Compliance Matrix: (Units=1/GPa)
#
#
# Indices 1 2 3 4 5 6 
#
# 1 0.020288 -0.004033 -0.004277 0.000000 0.006146 0.000000
# 2 -0.004033 0.016660 -0.002051 0.000000 0.004519 0.000000
# 3 -0.004277 -0.002051 0.010820 0.000000 0.002313 0.000000
# 4 0.000000 0.000000 0.000000 0.010570 0.000000 0.021708
# 5 0.006146 0.004519 0.002313 0.000000 0.030206 0.000000
# 6 0.000000 0.000000 0.000000 0.021708 0.000000 0.072923
#
#
# Mechanical properties :
#
#
# Convention : Reuss Voigt Hill
#
# Bulk Modulus (GPa) = 36.97484 49.46287 43.21885
# Shear Modulus (GPa) = 26.15012 75.31301 50.73157
#
# Velocity S-wave (km/s) = 3.76464 6.38883 5.24355
# Velocity P-wave (km/s) = 6.23986 9.01277 7.75132
#
# Compressibility (1/GPa) = 0.02704542
#
# Stress axis : x y z
#
# Youngs Moduli (GPa) = 49.29128 60.02400 92.42348
#
# Poissons Ratio (x) = 0.24208 0.39528
# Poissons Ratio (y) = 0.19879 0.18957
# Poissons Ratio (z) = 0.21081 0.12312
#
# Static dielectric constant tensor:
#      x y z
#    x 1.642690 0.000000 0.002820 
#    y 0.000000 1.648880 0.000000 
#    z 0.002820 0.000000 1.674380 
# 
# From -- ./inp_files/301708.got.cif
#   From: 2010.05.17/outbox.cif.g08.bks.cpg/sg12_151_cif.got.tgz:301708.got - 2010.06.03 13:09:07.
