data_PCOD9172690
_publ_section_title
;
Structure prediction by ZEFSAII (Michael W. Deem and Ramdas Pophale) SiO2 
 PCOD9172690
Probable space group: C 2/M
;
_chemical_formula_sum "Si O2"
_cell_formula_units_Z 56
_cell_length_a 14.986733
_cell_length_b 17.558650
_cell_length_c 16.849574
_cell_angle_alpha 90.000000
_cell_angle_beta 29.633902
_cell_angle_gamma 90.000000
_cell_volume 2192.375289
_symmetry_space_group_name_H-M "C 2/M"
_symmetry_group_IT_number 12
_symmetry_cell_setting 'monoclinic'
loop_
_space_group_symop_operation_xyz
x,y,z
-x,y,-z
-x,-y,-z
x,-y,z
1/2+x,1/2+y,z
1/2-x,1/2+y,-z
1/2-x,1/2-y,-z
1/2+x,1/2-y,z
loop_
_atom_site_type_symbol
_atom_site_label
_atom_site_fract_x
_atom_site_fract_y
_atom_site_fract_z
Si Si1 0.397393 0.583833 0.663920
Si Si2 0.279636 0.087025 0.989188
Si Si3 0.591088 0.836885 0.829068
Si Si4 0.454712 0.590784 0.129789
Si Si5 0.489018 0.083049 0.348670
Si Si6 0.828101 0.299299 0.679994
Si Si7 0.698839 0.669978 0.501055
O O1 0.500000 0.586668 0.500000
O O2 0.432563 0.500000 0.668831
O O3 0.190216 0.597212 0.801888
O O4 0.491734 0.648463 0.644382
O O5 0.385195 0.142440 0.968169
O O6 0.415294 0.078110 0.810328
O O7 0.253957 0.000000 0.039220
O O8 0.101191 0.116582 0.081916
O O9 0.666795 0.761100 0.813972
O O10 0.693919 0.830905 0.665131
O O11 0.445690 0.500000 0.142267
O O12 0.268368 0.632249 0.292484
O O13 0.500000 0.606147 0.000000
O O14 0.585118 0.155094 0.314634
O O15 0.283692 0.103437 0.488952
O O16 0.514262 0.000000 0.368524
O O17 0.000000 0.266607 0.500000
O O18 0.750000 0.750000 0.500000
#
# Coordination Sequence:
#
# PCOD9172690 Si02
#       7
#     8   8   8   8   8   8   8
#     4   9  16  28  46  69 100 140 182 225 272 319
#     4   9  18  35  59  83 104 141 194 238 269 317
#     4  10  20  32  49  78 113 144 174 225 282 329
#     4  10  20  38  61  82 108 146 191 234 271 323
#     4  10  19  32  52  76 104 142 188 228 269 321
#     4  12  23  35  53  84 123 149 176 222 287 344
#     4  10  18  30  46  68 107 148 184 220 270 329
#
# _framework density 25.543073
#
# number of rings (size 3 to 8) (size 9 to 14) (size 15 to 20)
#    0.000    2.000    1.429    4.286    0.000    5.143 
#    0.000    0.000    0.000    0.000    0.000    0.000 
#    0.000    1.143    0.000    0.000    0.000    0.000 
#
# Total GULP energy -156421.030946 kJ/mol
# GULP energy per Si atom -5586.465391 kJ/mol
# Density = 2.548494 g / cm^3
# Si number density = 25.543073 Si / 1000 Ang^3
#
#
#
# Elastic Constant Matrix: (Units=GPa)
#
#
# Indices 1 2 3 4 5 6 
#
# 1 124.7240 60.5117 62.5696 -0.0096 -29.6049 -0.0066
# 2 60.5117 126.3798 11.6683 -0.0660 -18.7599 -0.0459
# 3 62.5696 11.6683 87.2193 -0.0494 -26.2596 -0.0256
# 4 -0.0096 -0.0660 -0.0494 5.6954 0.0099 -31.0990
# 5 -29.6049 -18.7599 -26.2596 0.0099 58.6360 0.0057
# 6 -0.0066 -0.0459 -0.0256 -31.0990 0.0057 -1.6658
#
#
#
# Elastic Compliance Matrix: (Units=1/GPa)
#
#
# Indices 1 2 3 4 5 6 
#
# 1 0.017343 -0.007054 -0.011028 0.000014 0.001561 0.000030
# 2 -0.007054 0.011186 0.004125 -0.000016 0.001865 -0.000031
# 3 -0.011028 0.004125 0.020280 -0.000017 0.004834 -0.000039
# 4 0.000014 -0.000016 -0.000017 0.001706 -0.000003 -0.031843
# 5 0.001561 0.001865 0.004834 -0.000003 0.020604 -0.000006
# 6 0.000030 -0.000031 -0.000039 -0.031843 -0.000006 -0.005832
#
#
# Mechanical properties :
#
#
# Convention : Reuss Voigt Hill
#
# Bulk Modulus (GPa) = 47.85594 67.53582 57.69588
# Shear Modulus (GPa) = 49.91751 26.10469 38.01110
#
# Velocity S-wave (km/s) = 4.42548 3.20032 3.86180
# Velocity P-wave (km/s) = 6.69995 6.33668 6.52084
#
# Compressibility (1/GPa) = 0.02089605
#
# Stress axis : x y z
#
# Youngs Moduli (GPa) = 57.66089 89.39678 49.30948
#
# Poissons Ratio (x) = 0.63061 0.54378
# Poissons Ratio (y) = 0.40674 -0.20342
# Poissons Ratio (z) = 0.63587 -0.36880
#
# Static dielectric constant tensor:
#      x y z
#    x 2.065860 0.000010 0.009880 
#    y 0.000010 2.029160 0.000000 
#    z 0.009880 0.000000 2.037650 
# 
# From -- ./inp_files/311699.got.cif
#   From: 2010.05.17/outbox.cif.g08.bks.cpg/sg12_156_cif.got.tgz:311699.got - 2010.06.03 13:09:07.
