data_PCOD9172635
_publ_section_title
;
Structure prediction by ZEFSAII (Michael W. Deem and Ramdas Pophale) SiO2 
 PCOD9172635
Probable space group: C 2/M
;
_chemical_formula_sum "Si O2"
_cell_formula_units_Z 56
_cell_length_a 15.892568
_cell_length_b 22.849368
_cell_length_c 14.884753
_cell_angle_alpha 90.000000
_cell_angle_beta 39.845168
_cell_angle_gamma 90.000000
_cell_volume 3463.178718
_symmetry_space_group_name_H-M "C 2/M"
_symmetry_group_IT_number 12
_symmetry_cell_setting 'monoclinic'
loop_
_space_group_symop_operation_xyz
x,y,z
-x,y,-z
-x,-y,-z
x,-y,z
1/2+x,1/2+y,z
1/2-x,1/2+y,-z
1/2-x,1/2-y,-z
1/2+x,1/2-y,z
loop_
_atom_site_type_symbol
_atom_site_label
_atom_site_fract_x
_atom_site_fract_y
_atom_site_fract_z
Si Si1 0.061644 0.356666 0.737590
Si Si2 0.146994 0.224000 0.708084
Si Si3 0.791356 0.433095 0.240771
Si Si4 0.323168 0.839244 0.057158
Si Si5 0.000000 0.759940 0.000000
Si Si6 0.000000 0.107623 0.500000
Si Si7 0.055038 0.682802 0.548392
Si Si8 0.029619 0.805129 0.311972
O O1 0.128524 0.294171 0.709921
O O2 0.139184 0.406178 0.728199
O O3 0.059399 0.358804 0.631866
O O4 0.914341 0.354361 0.898087
O O5 0.069988 0.206815 0.861571
O O6 0.298145 0.207104 0.587068
O O7 0.075840 0.195891 0.680864
O O8 0.829810 0.500000 0.193967
O O9 0.827225 0.391088 0.127498
O O10 0.634209 0.428096 0.381594
O O11 0.173205 0.823359 0.159607
O O12 0.390255 0.782798 0.047763
O O13 0.009201 0.149962 0.578532
O O14 0.000000 0.658603 0.500000
O O15 0.969526 0.739776 0.647270
#
# Coordination Sequence:
#
# PCOD9172635 Si02
#       8
#     8   8   8   8   4   4   8   8
#     4  10  20  33  46  67 100 123 162 206 234 287
#     4  10  19  31  46  69  96 130 161 193 238 290
#     4  11  20  33  52  72  96 130 164 202 249 289
#     4  10  19  32  45  68  97 129 158 200 243 285
#     4  10  18  30  45  64 104 124 161 202 226 282
#     4  10  19  32  48  74 104 124 161 202 238 292
#     4  11  20  30  49  71  92 128 166 194 238 288
#     4  10  19  29  48  68  97 132 159 191 241 291
#
# _framework density 16.170116
#
# number of rings (size 3 to 8) (size 9 to 14) (size 15 to 20)
#    0.000    1.714    3.571    4.500    0.000    7.429 
#    0.000    0.000    0.000    0.429    0.000    0.000 
#    0.000    0.000    0.000   15.571    0.000    0.000 
#
# Total GULP energy -156275.795346 kJ/mol
# GULP energy per Si atom -5581.278405 kJ/mol
# Density = 1.613331 g / cm^3
# Si number density = 16.170116 Si / 1000 Ang^3
#
#
#
# Elastic Constant Matrix: (Units=GPa)
#
#
# Indices 1 2 3 4 5 6 
#
# 1 83.4464 21.1602 42.6668 0.0007 5.2472 -0.0004
# 2 21.1602 46.3902 21.7256 0.0004 -2.4709 -0.0002
# 3 42.6668 21.7256 108.5332 0.0012 3.7955 -0.0014
# 4 0.0007 0.0004 0.0012 2.6041 -0.0008 -2.2124
# 5 5.2472 -2.4709 3.7955 -0.0008 29.7472 0.0007
# 6 -0.0004 -0.0002 -0.0014 -2.2124 0.0007 8.8519
#
#
#
# Elastic Compliance Matrix: (Units=1/GPa)
#
#
# Indices 1 2 3 4 5 6 
#
# 1 0.016097 -0.005031 -0.005230 -0.000002 -0.002590 0.000000
# 2 -0.005031 0.025559 -0.003259 -0.000001 0.003426 -0.000001
# 3 -0.005230 -0.003259 0.011953 -0.000003 -0.000873 0.000001
# 4 -0.000002 -0.000001 -0.000003 0.487528 0.000010 0.121851
# 5 -0.002590 0.003426 -0.000873 0.000010 0.034469 0.000000
# 6 0.000000 -0.000001 0.000001 0.121851 0.000000 0.143425
#
#
# Mechanical properties :
#
#
# Convention : Reuss Voigt Hill
#
# Bulk Modulus (GPa) = 37.63681 45.49723 41.56702
# Shear Modulus (GPa) = 6.62316 18.42846 12.52581
#
# Velocity S-wave (km/s) = 2.02603 3.37955 2.78623
# Velocity P-wave (km/s) = 5.36648 6.58985 6.00938
#
# Compressibility (1/GPa) = 0.02656973
#
# Stress axis : x y z
#
# Youngs Moduli (GPa) = 62.12507 39.12448 83.66289
#
# Poissons Ratio (x) = 0.19682 0.43758
# Poissons Ratio (y) = 0.31253 0.27262
# Poissons Ratio (z) = 0.32493 0.12749
#
# Static dielectric constant tensor:
#      x y z
#    x 1.548740 0.000000 0.004780 
#    y 0.000000 1.514100 0.000000 
#    z 0.004780 0.000000 1.579030 
# 
# From -- ./inp_files/218277.got.cif
#   From: 2010.05.17/outbox.cif.g08.bks.cpg/sg12_110_cif.got.tgz:218277.got - 2010.06.03 13:09:07.
