data_PCOD9172612
_publ_section_title
;
Structure prediction by ZEFSAII (Michael W. Deem and Ramdas Pophale) SiO2 
 PCOD9172612
Probable space group: C 2/M
;
_chemical_formula_sum "Si O2"
_cell_formula_units_Z 40
_cell_length_a 22.497931
_cell_length_b 18.111797
_cell_length_c 5.121910
_cell_angle_alpha 90.000000
_cell_angle_beta 134.213544
_cell_angle_gamma 90.000000
_cell_volume 1495.895356
_symmetry_space_group_name_H-M "C 2/M"
_symmetry_group_IT_number 12
_symmetry_cell_setting 'monoclinic'
loop_
_space_group_symop_operation_xyz
x,y,z
-x,y,-z
-x,-y,-z
x,-y,z
1/2+x,1/2+y,z
1/2-x,1/2+y,-z
1/2-x,1/2-y,-z
1/2+x,1/2-y,z
loop_
_atom_site_type_symbol
_atom_site_label
_atom_site_fract_x
_atom_site_fract_y
_atom_site_fract_z
Si Si1 0.698072 0.295997 0.113549
Si Si2 0.188750 0.917935 0.464399
Si Si3 0.125614 0.327381 0.563357
Si Si4 0.451479 0.411344 0.600102
Si Si5 0.611224 0.085007 0.004036
O O1 0.750000 0.250000 0.500000
O O2 0.658316 0.358315 0.168042
O O3 0.774447 0.327074 0.176032
O O4 0.629613 0.249936 0.738515
O O5 0.144526 0.903322 0.604858
O O6 0.288249 0.917067 0.738641
O O7 0.161958 0.000000 0.301189
O O8 0.094846 0.355397 0.184508
O O9 0.085052 0.384832 0.641257
O O10 0.500000 0.382700 0.500000
O O11 0.461047 0.500000 0.621744
O O12 0.500000 0.381786 0.000000
O O13 0.586661 0.000000 0.987376
#
# Coordination Sequence:
#
# PCOD9172612 Si02
#       5
#     8   8   8   8   8
#     4  10  18  31  45  63  91 119 150 190 226 275
#     4   9  18  31  47  66  86 119 161 194 223 264
#     4  10  18  30  43  61  88 119 145 189 225 265
#     4   9  18  32  45  60  83 110 147 198 238 256
#     4  10  19  30  45  66  88 115 156 191 218 260
#
# _framework density 26.739840000000001
#
# number of rings (size 3 to 8) (size 9 to 14) (size 15 to 20)
#    0.000    2.400    4.000    0.600    0.000    4.000 
#    0.000   10.000    0.000    0.000    0.000    0.000 
#    0.000    0.000    0.000    0.000    0.000   34.000 
#
# Total GULP energy -111503.599986 kJ/mol
# GULP energy per Si atom -5575.179999 kJ/mol
# Density = 2.667898 g / cm^3
# Si number density = 26.739840 Si / 1000 Ang^3
#
#
#
# Elastic Constant Matrix: (Units=GPa)
#
#
# Indices 1 2 3 4 5 6 
#
# 1 133.1325 38.0812 46.0592 0.0000 -38.9019 0.0000
# 2 38.0812 113.6115 35.3658 0.0000 -31.4836 0.0000
# 3 46.0592 35.3658 104.0608 0.0000 -43.6951 0.0000
# 4 0.0000 0.0000 0.0000 24.2348 0.0000 -23.7484
# 5 -38.9019 -31.4836 -43.6951 0.0000 67.2602 0.0000
# 6 0.0000 0.0000 0.0000 -23.7484 0.0000 24.3820
#
#
#
# Elastic Compliance Matrix: (Units=1/GPa)
#
#
# Indices 1 2 3 4 5 6 
#
# 1 0.009772 -0.001607 -0.002368 0.000000 0.003362 0.000000
# 2 -0.001607 0.010688 -0.001665 0.000000 0.002992 0.000000
# 3 -0.002368 -0.001665 0.014193 0.000000 0.007072 0.000000
# 4 0.000000 0.000000 0.000000 0.906162 0.000000 0.882614
# 5 0.003362 0.002992 0.007072 0.000000 0.022807 0.000000
# 6 0.000000 0.000000 0.000000 0.882614 0.000000 0.900691
#
#
# Mechanical properties :
#
#
# Convention : Reuss Voigt Hill
#
# Bulk Modulus (GPa) = 42.78187 65.53523 54.15855
# Shear Modulus (GPa) = 2.65480 38.59531 20.62505
#
# Velocity S-wave (km/s) = 0.99749 3.80328 2.78028
# Velocity P-wave (km/s) = 4.16661 6.62180 5.53213
#
# Compressibility (1/GPa) = 0.02337439
#
# Stress axis : x y z
#
# Youngs Moduli (GPa) = 102.32849 93.56380 70.45766
#
# Poissons Ratio (x) = 0.15035 0.16682
# Poissons Ratio (y) = 0.16444 0.11730
# Poissons Ratio (z) = 0.24228 0.15576
#
# Static dielectric constant tensor:
#      x y z
#    x 2.078110 0.000000 0.092000 
#    y 0.000000 2.064450 0.000000 
#    z 0.092000 0.000000 2.370830 
# 
# From -- ./inp_files/15877.got.cif
#   From: 2010.05.17/outbox.cif.g08.bks.cpg/sg12_8_cif.got.tgz:15877.got - 2010.06.03 13:09:07.
