data_PCOD9172096
_publ_section_title
;
Structure prediction by ZEFSAII (Michael W. Deem and Ramdas Pophale) SiO2 
 PCOD9172096
Probable space group: C 2/M
;
_chemical_formula_sum "Si O2"
_cell_formula_units_Z 48
_cell_length_a 19.181330
_cell_length_b 31.279263
_cell_length_c 8.625187
_cell_angle_alpha 90.000000
_cell_angle_beta 157.467146
_cell_angle_gamma 90.000000
_cell_volume 1983.097793
_symmetry_space_group_name_H-M "C 2/M"
_symmetry_group_IT_number 12
_symmetry_cell_setting 'monoclinic'
loop_
_space_group_symop_operation_xyz
x,y,z
-x,y,-z
-x,-y,-z
x,-y,z
1/2+x,1/2+y,z
1/2-x,1/2+y,-z
1/2-x,1/2-y,-z
1/2+x,1/2-y,z
loop_
_atom_site_type_symbol
_atom_site_label
_atom_site_fract_x
_atom_site_fract_y
_atom_site_fract_z
Si Si1 0.198477 0.636206 0.822857
Si Si2 0.204892 0.454909 0.349681
Si Si3 0.394521 0.225296 0.438905
Si Si4 0.789148 0.630293 0.516682
Si Si5 0.270600 0.787834 0.666763
Si Si6 0.791183 0.452224 0.013035
O O1 0.243969 0.687404 0.898839
O O2 0.208249 0.625935 0.661965
O O3 0.284879 0.594141 0.084304
O O4 0.000000 0.639195 0.500000
O O5 0.287863 0.500000 0.567514
O O6 0.297816 0.412993 0.602137
O O7 0.200591 0.451709 0.155708
O O8 0.000000 0.455258 0.000000
O O9 0.500000 0.236177 0.500000
O O10 0.331782 0.268254 0.395516
O O11 0.529159 0.205433 0.847520
O O12 0.710242 0.670643 0.448482
O O13 0.000000 0.630930 0.000000
O O14 0.250000 0.750000 0.500000
O O15 0.716731 0.500000 0.906507
O O16 0.000000 0.452185 0.500000
#
# Coordination Sequence:
#
# PCOD9172096 Si02
#       6
#     8   8   8   8   8   8
#     4  10  18  29  46  70 101 139 179 219 266 321
#     4   9  17  26  41  66  99 138 177 215 261 323
#     4  11  24  39  58  81 109 145 187 229 275 328
#     4  11  18  30  49  72 102 142 180 217 270 323
#     4  12  22  40  57  81 111 145 184 231 278 324
#     4   9  16  25  39  63  97 137 174 212 260 321
#
# _framework density 24.204556
#
# number of rings (size 3 to 8) (size 9 to 14) (size 15 to 20)
#    0.000    1.667    3.333    5.000    2.333    2.000 
#    0.000    0.000    0.000    0.000    0.000    0.000 
#    0.000    4.667    0.000    0.000    0.000    0.167 
#
# Total GULP energy -133635.028279 kJ/mol
# GULP energy per Si atom -5568.126178 kJ/mol
# Density = 2.414947 g / cm^3
# Si number density = 24.204556 Si / 1000 Ang^3
#
#
#
# Elastic Constant Matrix: (Units=GPa)
#
#
# Indices 1 2 3 4 5 6 
#
# 1 126.6128 97.5478 35.6022 0.0001 -35.0801 0.0000
# 2 97.5478 243.3028 20.9340 0.0000 -15.8362 0.0000
# 3 35.6022 20.9340 42.3441 0.0003 -1.6206 0.0000
# 4 0.0001 0.0000 0.0003 4.0217 0.0001 -23.4371
# 5 -35.0801 -15.8362 -1.6206 0.0001 34.6693 0.0000
# 6 0.0000 0.0000 0.0000 -23.4371 0.0000 47.5067
#
#
#
# Elastic Compliance Matrix: (Units=1/GPa)
#
#
# Indices 1 2 3 4 5 6 
#
# 1 0.022224 -0.006409 -0.014795 0.000000 0.018868 0.000000
# 2 -0.006409 0.006265 0.002157 0.000000 -0.003523 0.000000
# 3 -0.014795 0.002157 0.034516 0.000001 -0.012372 0.000001
# 4 0.000000 0.000000 0.000001 -0.132611 0.000000 -0.065423
# 5 0.018868 -0.003523 -0.012372 0.000000 0.045748 0.000000
# 6 0.000000 0.000000 0.000001 -0.065423 0.000000 -0.011226
#
#
# Mechanical properties :
#
#
# Convention : Reuss Voigt Hill
#
# Bulk Modulus (GPa) = 40.14489 80.04751 60.09620
# Shear Modulus (GPa) = 441.97791 34.45125 238.21458
#
# Velocity S-wave (km/s) = 13.52766 3.77681 9.93131
# Velocity P-wave (km/s) = 16.14368 7.22233 12.50561
#
# Compressibility (1/GPa) = 0.02490977
#
# Stress axis : x y z
#
# Youngs Moduli (GPa) = 44.99680 159.61943 28.97247
#
# Poissons Ratio (x) = 1.02303 0.42864
# Poissons Ratio (y) = 0.28839 -0.06248
# Poissons Ratio (z) = 0.66572 -0.34425
#
# Static dielectric constant tensor:
#      x y z
#    x 2.011140 0.000000 0.094200 
#    y 0.000000 2.079420 0.000000 
#    z 0.094200 0.000000 2.050930 
# 
# From -- ./inp_files/91437.got.cif
#   From: 2010.05.17/outbox.cif.g08.bks.cpg/sg12_46_cif.got.tgz:91437.got - 2010.06.03 13:09:07.
