data_PCOD9172355
_publ_section_title
;
Structure prediction by ZEFSAII (Michael W. Deem and Ramdas Pophale) SiO2 
 PCOD9172355
Probable space group: C 2/M
;
_chemical_formula_sum "Si O2"
_cell_formula_units_Z 64
_cell_length_a 15.704480
_cell_length_b 14.094852
_cell_length_c 15.140254
_cell_angle_alpha 90.000000
_cell_angle_beta 132.576060
_cell_angle_gamma 90.000000
_cell_volume 2467.852131
_symmetry_space_group_name_H-M "C 2/M"
_symmetry_group_IT_number 12
_symmetry_cell_setting 'monoclinic'
loop_
_space_group_symop_operation_xyz
x,y,z
-x,y,-z
-x,-y,-z
x,-y,z
1/2+x,1/2+y,z
1/2-x,1/2+y,-z
1/2-x,1/2-y,-z
1/2+x,1/2-y,z
loop_
_atom_site_type_symbol
_atom_site_label
_atom_site_fract_x
_atom_site_fract_y
_atom_site_fract_z
Si Si1 0.718220 0.111912 0.034259
Si Si2 0.488711 0.209445 0.345971
Si Si3 0.918928 0.106456 0.830410
Si Si4 0.022360 0.690864 0.165352
Si Si5 0.792207 0.391574 0.456296
Si Si6 0.260504 0.887886 0.149557
Si Si7 0.238415 0.885696 0.743738
Si Si8 0.609653 0.611465 0.477031
O O1 0.582057 0.132526 0.949919
O O2 0.746796 0.148660 0.956143
O O3 0.741217 0.000000 0.046007
O O4 0.775983 0.146847 0.164981
O O5 0.517802 0.174803 0.266979
O O6 0.593892 0.169170 0.478509
O O7 0.362408 0.166750 0.272984
O O8 0.512654 0.320983 0.369576
O O9 0.994318 0.196983 0.860951
O O10 0.807946 0.113538 0.687042
O O11 0.860900 0.117211 0.885478
O O12 0.968502 0.000000 0.854628
O O13 0.144534 0.661363 0.210780
O O14 0.831006 0.500000 0.489512
O O15 0.724572 0.368080 0.499579
O O16 0.292682 0.000000 0.170894
O O17 0.141646 0.869667 0.601041
O O18 0.254358 0.000000 0.756426
O O19 0.581445 0.500000 0.446359
#
# Coordination Sequence:
#
# PCOD9172355 Si02
#       8
#     8   8   8   8   8   8   8   8
#     4   9  19  35  57  86 114 140 180 238 291 332
#     4  11  19  31  52  81 114 146 186 230 280 330
#     4  10  21  36  53  79 114 151 187 224 277 339
#     4  11  19  30  54  83 111 144 184 231 284 333
#     4  10  18  29  48  77 113 142 174 222 277 333
#     4   9  20  37  56  81 114 147 184 233 284 334
#     4  10  19  32  53  83 113 141 179 234 292 332
#     4  10  19  30  49  82 117 145 177 227 283 338
#
# _framework density 25.933482000000001
#
# number of rings (size 3 to 8) (size 9 to 14) (size 15 to 20)
#    0.000    2.000    2.500    2.250    0.000    2.500 
#    0.000    2.500    0.000    3.000    3.250    2.625 
#    0.000    0.000    0.000    0.000    0.000    0.000 
#
# Total GULP energy -179376.525608 kJ/mol
# GULP energy per Si atom -5605.516425 kJ/mol
# Density = 2.587446 g / cm^3
# Si number density = 25.933482 Si / 1000 Ang^3
#
#
#
# Elastic Constant Matrix: (Units=GPa)
#
#
# Indices 1 2 3 4 5 6 
#
# 1 55.9716 12.0038 14.4937 0.0000 2.2028 0.0000
# 2 12.0038 60.5707 21.7984 0.0000 11.3564 0.0000
# 3 14.4937 21.7984 117.7677 0.0000 -5.3435 0.0000
# 4 0.0000 0.0000 0.0000 37.8846 0.0000 -1.5230
# 5 2.2028 11.3564 -5.3435 0.0000 45.4761 0.0000
# 6 0.0000 0.0000 0.0000 -1.5230 0.0000 20.1039
#
#
#
# Elastic Compliance Matrix: (Units=1/GPa)
#
#
# Indices 1 2 3 4 5 6 
#
# 1 0.018999 -0.003052 -0.001790 0.000000 -0.000368 0.000000
# 2 -0.003052 0.019299 -0.003427 0.000000 -0.005074 0.000000
# 3 -0.001790 -0.003427 0.009439 0.000000 0.002052 0.000000
# 4 0.000000 0.000000 0.000000 0.026477 0.000000 0.002006
# 5 -0.000368 -0.005074 0.002052 0.000000 0.023516 0.000000
# 6 0.000000 0.000000 0.000000 0.002006 0.000000 0.049894
#
#
# Mechanical properties :
#
#
# Convention : Reuss Voigt Hill
#
# Bulk Modulus (GPa) = 32.05194 36.76687 34.40940
# Shear Modulus (GPa) = 28.64348 33.09385 30.86867
#
# Velocity S-wave (km/s) = 3.32700 3.57614 3.45382
# Velocity P-wave (km/s) = 5.21006 5.59105 5.40391
#
# Compressibility (1/GPa) = 0.03119936
#
# Stress axis : x y z
#
# Youngs Moduli (GPa) = 52.63508 51.81602 105.94386
#
# Poissons Ratio (x) = 0.15814 0.18964
# Poissons Ratio (y) = 0.16064 0.36305
# Poissons Ratio (z) = 0.09422 0.17756
#
# Static dielectric constant tensor:
#      x y z
#    x 2.027220 0.000000 -0.010150 
#    y 0.000000 2.013880 0.000000 
#    z -0.010150 0.000000 2.052520 
# 
# From -- ./inp_files/225726.got.cif
#   From: 2010.05.17/outbox.cif.g08.bks.cpg/sg12_113_cif.got.tgz:225726.got - 2010.06.03 13:09:07.
