data_PCOD9172138
_publ_section_title
;
Structure prediction by ZEFSAII (Michael W. Deem and Ramdas Pophale) SiO2 
 PCOD9172138
Probable space group: C 2/M
;
_chemical_formula_sum "Si O2"
_cell_formula_units_Z 64
_cell_length_a 15.385828
_cell_length_b 27.989742
_cell_length_c 8.306213
_cell_angle_alpha 90.000000
_cell_angle_beta 118.680816
_cell_angle_gamma 90.000000
_cell_volume 3138.154922
_symmetry_space_group_name_H-M "C 2/M"
_symmetry_group_IT_number 12
_symmetry_cell_setting 'monoclinic'
loop_
_space_group_symop_operation_xyz
x,y,z
-x,y,-z
-x,-y,-z
x,-y,z
1/2+x,1/2+y,z
1/2-x,1/2+y,-z
1/2-x,1/2-y,-z
1/2+x,1/2-y,z
loop_
_atom_site_type_symbol
_atom_site_label
_atom_site_fract_x
_atom_site_fract_y
_atom_site_fract_z
Si Si1 0.793036 0.134862 0.252365
Si Si2 0.671650 0.138822 0.820471
Si Si3 0.482081 0.781504 0.296926
Si Si4 0.045224 0.554615 0.786081
Si Si5 0.648236 0.328038 0.185550
Si Si6 0.526904 0.332051 0.758214
Si Si7 0.683904 0.224992 0.303679
Si Si8 0.342189 0.054723 0.765429
O O1 0.909677 0.141607 0.322668
O O2 0.747426 0.184099 0.278276
O O3 0.748609 0.091361 0.315606
O O4 0.743730 0.127040 0.032964
O O5 0.609416 0.184669 0.824904
O O6 0.598334 0.094751 0.728268
O O7 0.741839 0.151444 0.733059
O O8 0.500000 0.791157 0.500000
O O9 0.464304 0.724868 0.264649
O O10 0.580210 0.793740 0.282720
O O11 0.053214 0.500000 0.734358
O O12 0.930688 0.566148 0.720148
O O13 0.102037 0.556098 0.010346
O O14 0.588078 0.339795 0.295137
O O15 0.655934 0.270702 0.171523
O O16 0.584024 0.343743 0.975252
O O17 0.750000 0.250000 0.500000
O O18 0.310505 0.000000 0.711773
#
# Coordination Sequence:
#
# PCOD9172138 Si02
#       8
#     8   8   8   8   8   8   8   8
#     4  10  18  29  47  68  91 119 151 185 226 270
#     4  10  18  29  47  67  88 119 155 187 222 266
#     4  11  21  31  44  64  92 121 152 186 221 265
#     4   8  14  25  42  65  90 113 141 181 229 273
#     4   9  18  31  45  62  87 120 155 187 217 260
#     4   9  18  31  45  62  88 121 153 185 222 263
#     4  11  21  31  44  65  93 121 150 183 222 268
#     4   8  14  25  42  66  92 113 139 182 230 269
#
# _framework density 20.394148999999999
#
# number of rings (size 3 to 8) (size 9 to 14) (size 15 to 20)
#    0.000    2.500    0.000    4.500    0.000    4.500 
#    0.000    0.000    0.000    1.125    0.000    7.875 
#    0.000    9.500    0.000    0.125    0.000    0.000 
#
# Total GULP energy -178561.604256 kJ/mol
# GULP energy per Si atom -5580.050133 kJ/mol
# Density = 2.034773 g / cm^3
# Si number density = 20.394149 Si / 1000 Ang^3
#
#
#
# Elastic Constant Matrix: (Units=GPa)
#
#
# Indices 1 2 3 4 5 6 
#
# 1 220.5224 104.6849 10.6617 0.0000 -6.4126 0.0000
# 2 104.6849 97.6367 -2.0218 0.0000 -7.7079 0.0000
# 3 10.6617 -2.0218 27.7307 0.0000 2.2294 0.0000
# 4 0.0000 0.0000 0.0000 -6.1442 0.0000 3.7963
# 5 -6.4126 -7.7079 2.2294 0.0000 21.0539 0.0000
# 6 0.0000 0.0000 0.0000 3.7963 0.0000 25.3438
#
#
#
# Elastic Compliance Matrix: (Units=1/GPa)
#
#
# Indices 1 2 3 4 5 6 
#
# 1 0.009775 -0.010608 -0.004497 0.000000 -0.000430 0.000000
# 2 -0.010608 0.022065 0.005343 0.000000 0.004281 0.000000
# 3 -0.004497 0.005343 0.038460 0.000000 -0.003486 0.000000
# 4 0.000000 0.000000 0.000000 -0.148967 0.000000 0.022314
# 5 -0.000430 0.004281 -0.003486 0.000000 0.049303 0.000000
# 6 0.000000 0.000000 0.000000 0.022314 0.000000 0.036115
#
#
# Mechanical properties :
#
#
# Convention : Reuss Voigt Hill
#
# Bulk Modulus (GPa) = 19.69452 63.61549 41.65501
# Shear Modulus (GPa) = 115.73871 23.55502 69.64686
#
# Velocity S-wave (km/s) = 7.54149 3.40220 5.85018
# Velocity P-wave (km/s) = 9.24717 6.83330 8.13032
#
# Compressibility (1/GPa) = 0.05077553
#
# Stress axis : x y z
#
# Youngs Moduli (GPa) = 102.29657 45.32118 26.00098
#
# Poissons Ratio (x) = 0.48078 0.11693
# Poissons Ratio (y) = 1.08519 -0.13893
# Poissons Ratio (z) = 0.46006 -0.24216
#
# Static dielectric constant tensor:
#      x y z
#    x 1.785620 0.000000 0.037350 
#    y 0.000000 1.701530 0.000000 
#    z 0.037350 0.000000 1.928280 
# 
# From -- ./inp_files/67018.got.cif
#   From: 2010.05.17/outbox.cif.g08.bks.cpg/sg12_34_cif.got.tgz:67018.got - 2010.06.03 13:09:07.
