data_PCOD9172031
_publ_section_title
;
Structure prediction by ZEFSAII (Michael W. Deem and Ramdas Pophale) SiO2 
 PCOD9172031
Probable space group: C 2/M
;
_chemical_formula_sum "Si O2"
_cell_formula_units_Z 56
_cell_length_a 27.666411
_cell_length_b 14.860666
_cell_length_c 9.102181
_cell_angle_alpha 90.000000
_cell_angle_beta 85.023321
_cell_angle_gamma 90.000000
_cell_volume 3728.174402
_symmetry_space_group_name_H-M "C 2/M"
_symmetry_group_IT_number 12
_symmetry_cell_setting 'monoclinic'
loop_
_space_group_symop_operation_xyz
x,y,z
-x,y,-z
-x,-y,-z
x,-y,z
1/2+x,1/2+y,z
1/2-x,1/2+y,-z
1/2-x,1/2-y,-z
1/2+x,1/2-y,z
loop_
_atom_site_type_symbol
_atom_site_label
_atom_site_fract_x
_atom_site_fract_y
_atom_site_fract_z
Si Si1 0.215318 0.772806 0.373789
Si Si2 0.741892 0.103137 0.220316
Si Si3 0.838275 0.895457 0.400507
Si Si4 0.571067 0.390970 0.826692
Si Si5 0.980370 0.890362 0.663208
Si Si6 0.778150 0.892993 0.883225
Si Si7 0.108980 0.109444 0.132883
O O1 0.250000 0.750000 0.500000
O O2 0.206365 0.677905 0.296484
O O3 0.173173 0.831666 0.459396
O O4 0.241915 0.835534 0.246516
O O5 0.792790 0.107906 0.298354
O O6 0.724883 0.000000 0.237353
O O7 0.753811 0.122906 0.047163
O O8 0.886412 0.869126 0.299842
O O9 0.842945 0.000000 0.447657
O O10 0.569951 0.500000 0.834392
O O11 0.519299 0.362776 0.776786
O O12 0.585627 0.359853 0.984812
O O13 0.926696 0.862079 0.726557
O O14 0.000000 0.860233 0.500000
O O15 0.980036 0.000000 0.659391
O O16 0.834838 0.864760 0.875728
O O17 0.775741 0.000000 0.854852
O O18 0.109173 0.000000 0.131276
#
# Coordination Sequence:
#
# PCOD9172031 Si02
#       7
#     8   8   8   8   8   8   8
#     4  10  20  29  41  61  83 105 135 175 219 255
#     4   9  17  31  45  58  78 105 141 180 214 246
#     4   9  16  27  42  61  83 110 141 173 207 243
#     4   9  15  25  39  53  78 113 145 172 197 231
#     4   9  17  24  33  53  80 108 140 173 199 229
#     4  10  18  29  46  63  81 108 143 177 205 246
#     4   9  16  26  39  56  77 108 144 172 200 233
#
# _framework density 15.020756
#
# number of rings (size 3 to 8) (size 9 to 14) (size 15 to 20)
#    0.000    2.714    1.429    1.286    2.000    2.286 
#    0.000    0.000    0.000    0.000    0.000    0.000 
#    0.000    0.000    0.000    2.571    0.000    5.143 
#
# Total GULP energy -155911.906902 kJ/mol
# GULP energy per Si atom -5568.282389 kJ/mol
# Density = 1.498657 g / cm^3
# Si number density = 15.020756 Si / 1000 Ang^3
#
#
#
# Elastic Constant Matrix: (Units=GPa)
#
#
# Indices 1 2 3 4 5 6 
#
# 1 30.0726 13.4107 17.5822 0.0000 -5.0301 0.0000
# 2 13.4107 47.5162 44.4116 0.0000 -8.0454 0.0000
# 3 17.5822 44.4116 98.8205 0.0000 -6.4549 0.0000
# 4 0.0000 0.0000 0.0000 26.2486 0.0000 0.0620
# 5 -5.0301 -8.0454 -6.4549 0.0000 23.3744 0.0000
# 6 0.0000 0.0000 0.0000 0.0620 0.0000 3.5640
#
#
#
# Elastic Compliance Matrix: (Units=1/GPa)
#
#
# Indices 1 2 3 4 5 6 
#
# 1 0.039257 -0.006897 -0.003552 0.000000 0.005093 0.000000
# 2 -0.006897 0.039085 -0.015842 0.000000 0.007594 0.000000
# 3 -0.003552 -0.015842 0.017786 0.000000 -0.001306 0.000000
# 4 0.000000 0.000000 0.000000 0.038099 0.000000 -0.000663
# 5 0.005093 0.007594 -0.001306 0.000000 0.046131 0.000000
# 6 0.000000 0.000000 0.000000 -0.000663 0.000000 0.280593
#
#
# Mechanical properties :
#
#
# Convention : Reuss Voigt Hill
#
# Bulk Modulus (GPa) = 22.96492 36.35761 29.66126
# Shear Modulus (GPa) = 9.46879 17.37104 13.41991
#
# Velocity S-wave (km/s) = 2.51346 3.40438 2.99226
# Velocity P-wave (km/s) = 4.87291 6.30163 5.63275
#
# Compressibility (1/GPa) = 0.04354468
#
# Stress axis : x y z
#
# Youngs Moduli (GPa) = 25.47291 25.58514 56.22418
#
# Poissons Ratio (x) = 0.17647 0.19972
# Poissons Ratio (y) = 0.17569 0.89072
# Poissons Ratio (z) = 0.09049 0.40533
#
# Static dielectric constant tensor:
#      x y z
#    x 1.508270 0.000000 0.015430 
#    y 0.000000 1.494670 0.000000 
#    z 0.015430 0.000000 1.542110 
# 
# From -- ./inp_files/110807.got.cif
#   From: 2010.05.17/outbox.cif.g08.bks.cpg/sg12_56_cif.got.tgz:110807.got - 2010.06.03 13:09:07.
