data_PCOD9172193
_publ_section_title
;
Structure prediction by ZEFSAII (Michael W. Deem and Ramdas Pophale) SiO2 
 PCOD9172193
Probable space group: C 2/M
;
_chemical_formula_sum "Si O2"
_cell_formula_units_Z 64
_cell_length_a 21.837552
_cell_length_b 17.276638
_cell_length_c 12.709385
_cell_angle_alpha 90.000000
_cell_angle_beta 127.542628
_cell_angle_gamma 90.000000
_cell_volume 3801.948681
_symmetry_space_group_name_H-M "C 2/M"
_symmetry_group_IT_number 12
_symmetry_cell_setting 'monoclinic'
loop_
_space_group_symop_operation_xyz
x,y,z
-x,y,-z
-x,-y,-z
x,-y,z
1/2+x,1/2+y,z
1/2-x,1/2+y,-z
1/2-x,1/2-y,-z
1/2+x,1/2-y,z
loop_
_atom_site_type_symbol
_atom_site_label
_atom_site_fract_x
_atom_site_fract_y
_atom_site_fract_z
Si Si1 0.340482 0.092284 0.719069
Si Si2 0.349154 0.907186 0.978901
Si Si3 0.053225 0.148673 0.197518
Si Si4 0.004860 0.321698 0.132272
Si Si5 0.085640 0.093829 0.618797
Si Si6 0.189061 0.905620 0.919194
Si Si7 0.395856 0.589185 0.966742
Si Si8 0.672305 0.593277 0.495659
O O1 0.333937 0.106181 0.838321
O O2 0.417595 0.132085 0.758149
O O3 0.261218 0.118746 0.581704
O O4 0.347222 0.000000 0.713488
O O5 0.273608 0.884016 0.965897
O O6 0.361120 0.000000 0.003409
O O7 0.426475 0.861205 0.090021
O O8 0.017524 0.233150 0.176012
O O9 0.094858 0.140778 0.127426
O O10 0.113884 0.127421 0.349929
O O11 0.979480 0.092122 0.111535
O O12 0.000000 0.324874 0.000000
O O13 0.124413 0.121122 0.767612
O O14 0.141396 0.111569 0.579807
O O15 0.000000 0.121928 0.500000
O O16 0.081095 0.000000 0.621740
O O17 0.186765 0.000000 0.916691
O O18 0.165925 0.882214 0.012686
O O19 0.379866 0.500000 0.919589
O O20 0.670640 0.500000 0.483363
#
# Coordination Sequence:
#
# PCOD9172193 Si02
#       8
#     8   8   8   8   8   8   8   8
#     4   9  17  30  50  75  98 120 154 202 256 303
#     4   9  16  30  52  76  99 121 154 206 259 300
#     4  11  20  32  46  66 101 137 170 198 230 282
#     4  10  19  32  49  68 100 130 164 201 244 294
#     4   9  15  24  40  66  96 121 148 192 247 296
#     4   9  16  28  48  74  98 120 159 209 252 288
#     4  10  19  32  48  67  94 134 176 208 231 272
#     4  10  18  29  47  71  98 127 160 200 245 292
#
# _framework density 16.833472
#
# number of rings (size 3 to 8) (size 9 to 14) (size 15 to 20)
#    0.000    2.375    2.500    2.625    0.000    4.000 
#    0.000    0.625    0.000    0.000    0.000    0.875 
#    0.000    5.000    0.000    0.000    0.000    0.000 
#
# Total GULP energy -178348.651122 kJ/mol
# GULP energy per Si atom -5573.395348 kJ/mol
# Density = 1.679516 g / cm^3
# Si number density = 16.833472 Si / 1000 Ang^3
#
#
#
# Elastic Constant Matrix: (Units=GPa)
#
#
# Indices 1 2 3 4 5 6 
#
# 1 80.7304 19.4089 12.3561 0.0000 5.6393 0.0000
# 2 19.4089 31.5005 15.2587 0.0000 4.5607 0.0000
# 3 12.3561 15.2587 42.0576 0.0000 6.5287 0.0000
# 4 0.0000 0.0000 0.0000 28.9504 0.0000 19.6873
# 5 5.6393 4.5607 6.5287 0.0000 23.5335 0.0000
# 6 0.0000 0.0000 0.0000 19.6873 0.0000 28.1147
#
#
#
# Elastic Compliance Matrix: (Units=1/GPa)
#
#
# Indices 1 2 3 4 5 6 
#
# 1 0.014652 -0.008287 -0.001048 0.000000 -0.001615 0.000000
# 2 -0.008287 0.043520 -0.012910 0.000000 -0.002867 0.000000
# 3 -0.001048 -0.012910 0.029616 0.000000 -0.005463 0.000000
# 4 0.000000 0.000000 0.000000 0.065944 0.000000 -0.046177
# 5 -0.001615 -0.002867 -0.005463 0.000000 0.044951 0.000000
# 6 0.000000 0.000000 0.000000 -0.046177 0.000000 0.067904
#
#
# Mechanical properties :
#
#
# Convention : Reuss Voigt Hill
#
# Bulk Modulus (GPa) = 23.09434 27.59288 25.34361
# Shear Modulus (GPa) = 15.36058 23.27070 19.31564
#
# Velocity S-wave (km/s) = 3.02404 3.72211 3.39108
# Velocity P-wave (km/s) = 5.09335 5.90757 5.51550
#
# Compressibility (1/GPa) = 0.04330066
#
# Stress axis : x y z
#
# Youngs Moduli (GPa) = 68.24870 22.97804 33.76502
#
# Poissons Ratio (x) = 0.19041 0.03537
# Poissons Ratio (y) = 0.56556 0.43589
# Poissons Ratio (z) = 0.07150 0.29664
#
# Static dielectric constant tensor:
#      x y z
#    x 1.586920 0.000000 0.004550 
#    y 0.000000 1.569530 0.000000 
#    z 0.004550 0.000000 1.560790 
# 
# From -- ./inp_files/168800.got.cif
#   From: 2010.05.17/outbox.cif.g08.bks.cpg/sg12_85_cif.got.tgz:168800.got - 2010.06.03 13:09:07.
