data_PCOD9172922
_publ_section_title
;
Structure prediction by ZEFSAII (Michael W. Deem and Ramdas Pophale) SiO2 
 PCOD9172922
Probable space group: C 2/M
;
_chemical_formula_sum "Si O2"
_cell_formula_units_Z 64
_cell_length_a 20.683280
_cell_length_b 8.757981
_cell_length_c 24.463761
_cell_angle_alpha 90.000000
_cell_angle_beta 121.633881
_cell_angle_gamma 90.000000
_cell_volume 3773.018363
_symmetry_space_group_name_H-M "C 2/M"
_symmetry_group_IT_number 12
_symmetry_cell_setting 'monoclinic'
loop_
_space_group_symop_operation_xyz
x,y,z
-x,y,-z
-x,-y,-z
x,-y,z
1/2+x,1/2+y,z
1/2-x,1/2+y,-z
1/2-x,1/2-y,-z
1/2+x,1/2-y,z
loop_
_atom_site_type_symbol
_atom_site_label
_atom_site_fract_x
_atom_site_fract_y
_atom_site_fract_z
Si Si1 0.996052 0.815302 0.670249
Si Si2 0.331117 0.817707 0.052111
Si Si3 0.538752 0.184418 0.460679
Si Si4 0.087538 0.175818 0.812245
Si Si5 0.431267 0.324308 0.813167
Si Si6 0.786174 0.684432 0.461285
Si Si7 0.519398 0.816589 0.947831
Si Si8 0.652468 0.313930 0.326489
O O1 0.063703 0.767168 0.741481
O O2 0.998478 0.751581 0.610458
O O3 0.915797 0.767579 0.662734
O O4 0.996634 0.000000 0.669613
O O5 0.355784 0.768712 0.124238
O O6 0.399784 0.764054 0.042110
O O7 0.327764 0.000000 0.047451
O O8 0.250000 0.750000 0.000000
O O9 0.500000 0.231309 0.500000
O O10 0.626707 0.232363 0.502686
O O11 0.535669 0.000000 0.455707
O O12 0.007279 0.174551 0.809306
O O13 0.113629 0.000000 0.820097
O O14 0.414428 0.500000 0.820309
O O15 0.453791 0.232421 0.876654
O O16 0.367385 0.261994 0.743609
O O17 0.784023 0.500000 0.462325
O O18 0.750000 0.750000 0.500000
O O19 0.732566 0.732994 0.387218
O O20 0.522787 0.000000 0.950990
O O21 0.500000 0.760114 0.000000
O O22 0.649969 0.500000 0.323407
#
# Coordination Sequence:
#
# PCOD9172922 Si02
#       8
#     8   8   8   8   8   8   8   8
#     4   9  16  29  50  72  92 120 158 199 239 281
#     4  10  19  31  50  74  99 128 159 196 237 278
#     4  10  21  33  45  67  99 133 160 189 237 290
#     4   8  15  28  47  71  96 121 154 197 241 282
#     4   8  14  26  45  69  93 119 153 194 235 276
#     4  10  18  30  49  70  93 122 157 198 238 279
#     4   9  18  32  49  70  97 129 158 187 232 282
#     4   8  14  26  46  70  93 115 149 198 243 274
#
# _framework density 16.962546
#
# number of rings (size 3 to 8) (size 9 to 14) (size 15 to 20)
#    0.000    3.000    1.250    1.875    0.000    1.500 
#    0.000    2.500    2.750    0.000    0.000    0.000 
#    0.000    0.000    0.000    0.000    0.000    0.000 
#
# Total GULP energy -178162.073983 kJ/mol
# GULP energy per Si atom -5567.564812 kJ/mol
# Density = 1.692394 g / cm^3
# Si number density = 16.962546 Si / 1000 Ang^3
#
#
#
# Elastic Constant Matrix: (Units=GPa)
#
#
# Indices 1 2 3 4 5 6 
#
# 1 72.2588 18.7713 69.0641 0.0000 -4.2181 0.0000
# 2 18.7713 11.1890 30.2099 0.0000 2.7456 0.0000
# 3 69.0641 30.2099 190.0755 0.0000 -1.7348 0.0000
# 4 0.0000 0.0000 0.0000 29.2198 0.0000 -2.6346
# 5 -4.2181 2.7456 -1.7348 0.0000 26.6858 0.0000
# 6 0.0000 0.0000 0.0000 -2.6346 0.0000 13.0053
#
#
#
# Elastic Compliance Matrix: (Units=1/GPa)
#
#
# Indices 1 2 3 4 5 6 
#
# 1 0.028124 -0.038153 -0.004081 0.000000 0.008106 0.000000
# 2 -0.038153 0.217176 -0.020926 0.000000 -0.029736 0.000000
# 3 -0.004081 -0.020926 0.010090 0.000000 0.002164 0.000000
# 4 0.000000 0.000000 0.000000 0.034860 0.000000 0.007062
# 5 0.008106 -0.029736 0.002164 0.000000 0.041954 0.000000
# 6 0.000000 0.000000 0.000000 0.007062 0.000000 0.078323
#
#
# Mechanical properties :
#
#
# Convention : Reuss Voigt Hill
#
# Bulk Modulus (GPa) = 7.74771 56.62375 32.18573
# Shear Modulus (GPa) = 8.62263 24.14738 16.38500
#
# Velocity S-wave (km/s) = 2.25707 3.77712 3.11135
# Velocity P-wave (km/s) = 3.37194 7.24405 5.65005
#
# Compressibility (1/GPa) = 0.12907032
#
# Stress axis : x y z
#
# Youngs Moduli (GPa) = 35.55638 4.60456 99.11279
#
# Poissons Ratio (x) = 0.17568 0.40449
# Poissons Ratio (y) = 1.35659 2.07399
# Poissons Ratio (z) = 0.14511 0.09635
#
# Static dielectric constant tensor:
#      x y z
#    x 1.562040 0.000000 0.006860 
#    y 0.000000 1.578130 0.000000 
#    z 0.006860 0.000000 1.596660 
# 
# From -- ./inp_files/345596.got.cif
#   From: 2010.05.17/outbox.cif.g08.bks.cpg/sg12_173_cif.got.tgz:345596.got - 2010.06.03 13:09:07.
