data_PCOD9172094
_publ_section_title
;
Structure prediction by ZEFSAII (Michael W. Deem and Ramdas Pophale) SiO2 
 PCOD9172094
Probable space group: C 2/M
;
_chemical_formula_sum "Si O2"
_cell_formula_units_Z 64
_cell_length_a 20.869532
_cell_length_b 9.196278
_cell_length_c 19.826721
_cell_angle_alpha 90.000000
_cell_angle_beta 89.688211
_cell_angle_gamma 90.000000
_cell_volume 3805.127964
_symmetry_space_group_name_H-M "C 2/M"
_symmetry_group_IT_number 12
_symmetry_cell_setting 'monoclinic'
loop_
_space_group_symop_operation_xyz
x,y,z
-x,y,-z
-x,-y,-z
x,-y,z
1/2+x,1/2+y,z
1/2-x,1/2+y,-z
1/2-x,1/2-y,-z
1/2+x,1/2-y,z
loop_
_atom_site_type_symbol
_atom_site_label
_atom_site_fract_x
_atom_site_fract_y
_atom_site_fract_z
Si Si1 0.324290 0.326854 0.792638
Si Si2 0.756825 0.827350 0.428231
Si Si3 0.370824 0.173304 0.659633
Si Si4 0.173179 0.332402 0.069466
Si Si5 0.127900 0.324873 0.651259
Si Si6 0.671912 0.827437 0.798392
Si Si7 0.170766 0.832844 0.934758
Si Si8 0.996663 0.323269 0.577522
O O1 0.332600 0.500000 0.794692
O O2 0.360490 0.256866 0.729429
O O3 0.344641 0.254915 0.863166
O O4 0.247646 0.297697 0.785011
O O5 0.750000 0.750000 0.500000
O O6 0.692028 0.805389 0.385818
O O7 0.815492 0.756156 0.387891
O O8 0.766258 0.000000 0.436624
O O9 0.432907 0.222836 0.617316
O O10 0.376707 0.000000 0.672970
O O11 0.152933 0.500000 0.073155
O O12 0.251176 0.330811 0.066355
O O13 0.150429 0.255960 0.001006
O O14 0.136465 0.500000 0.644138
O O15 0.133796 0.291320 0.730598
O O16 0.060325 0.284412 0.618423
O O17 0.650964 0.740751 0.864714
O O18 0.666435 0.000000 0.811527
O O19 0.150459 0.000000 0.938987
O O20 0.994358 0.500000 0.574966
O O21 0.000000 0.271955 0.500000
#
# Coordination Sequence:
#
# PCOD9172094 Si02
#       8
#     8   8   8   8   8   8   8   8
#     4  10  18  29  46  70 101 133 165 207 253 299
#     4  11  22  34  52  75 101 129 164 207 255 309
#     4  10  20  34  52  75  99 131 170 209 253 304
#     4   9  16  26  41  64  97 134 169 204 243 294
#     4  10  19  34  54  75 100 131 169 211 256 302
#     4   9  17  28  44  68  98 131 164 203 250 298
#     4   9  16  25  40  64  96 133 168 203 244 292
#     4   9  18  34  55  75  98 130 170 213 255 303
#
# _framework density 16.819409
#
# number of rings (size 3 to 8) (size 9 to 14) (size 15 to 20)
#    0.000    2.375    1.250    2.250    0.000    6.500 
#    0.000    0.625    0.000    1.500    0.000    0.875 
#    0.000    7.000    0.000    0.000    0.000    0.000 
#
# Total GULP energy -178477.812762 kJ/mol
# GULP energy per Si atom -5577.431649 kJ/mol
# Density = 1.678113 g / cm^3
# Si number density = 16.819409 Si / 1000 Ang^3
#
#
#
# Elastic Constant Matrix: (Units=GPa)
#
#
# Indices 1 2 3 4 5 6 
#
# 1 78.7777 42.7393 61.9754 0.0000 -3.2181 0.0000
# 2 42.7393 72.3120 85.6910 0.0000 -4.5893 0.0000
# 3 61.9754 85.6910 191.0682 0.0000 -3.8797 0.0000
# 4 0.0000 0.0000 0.0000 34.3679 0.0000 -3.7870
# 5 -3.2181 -4.5893 -3.8797 0.0000 16.7263 0.0000
# 6 0.0000 0.0000 0.0000 -3.7870 0.0000 13.6663
#
#
#
# Elastic Compliance Matrix: (Units=1/GPa)
#
#
# Indices 1 2 3 4 5 6 
#
# 1 0.019211 -0.008404 -0.002445 0.000000 0.000823 0.000000
# 2 -0.008404 0.033623 -0.012256 0.000000 0.004765 0.000000
# 3 -0.002445 -0.012256 0.011500 0.000000 -0.001166 0.000000
# 4 0.000000 0.000000 0.000000 0.030013 0.000000 0.008317
# 5 0.000823 0.004765 -0.001166 0.000000 0.060981 0.000000
# 6 0.000000 0.000000 0.000000 0.008317 0.000000 0.075477
#
#
# Mechanical properties :
#
#
# Convention : Reuss Voigt Hill
#
# Bulk Modulus (GPa) = 55.18330 80.32993 67.75662
# Shear Modulus (GPa) = 17.66417 23.06893 20.36655
#
# Velocity S-wave (km/s) = 3.24423 3.70748 3.48357
# Velocity P-wave (km/s) = 6.84937 8.13580 7.52014
#
# Compressibility (1/GPa) = 0.01812142
#
# Stress axis : x y z
#
# Youngs Moduli (GPa) = 52.05340 29.74165 86.95584
#
# Poissons Ratio (x) = 0.24996 0.21264
# Poissons Ratio (y) = 0.43748 1.06577
# Poissons Ratio (z) = 0.12729 0.36453
#
# Static dielectric constant tensor:
#      x y z
#    x 1.549640 0.000000 0.005710 
#    y 0.000000 1.559400 0.000000 
#    z 0.005710 0.000000 1.556020 
# 
# From -- ./inp_files/281355.got.cif
#   From: 2010.05.17/outbox.cif.g08.bks.cpg/sg12_141_cif.got.tgz:281355.got - 2010.06.03 13:09:07.
