data_PCOD9172336
_publ_section_title
;
Structure prediction by ZEFSAII (Michael W. Deem and Ramdas Pophale) SiO2 
 PCOD9172336
Probable space group: C 2/M
;
_chemical_formula_sum "Si O2"
_cell_formula_units_Z 48
_cell_length_a 17.934976
_cell_length_b 20.511624
_cell_length_c 9.369333
_cell_angle_alpha 90.000000
_cell_angle_beta 51.512120
_cell_angle_gamma 90.000000
_cell_volume 2697.906849
_symmetry_space_group_name_H-M "C 2/M"
_symmetry_group_IT_number 12
_symmetry_cell_setting 'monoclinic'
loop_
_space_group_symop_operation_xyz
x,y,z
-x,y,-z
-x,-y,-z
x,-y,z
1/2+x,1/2+y,z
1/2-x,1/2+y,-z
1/2-x,1/2-y,-z
1/2+x,1/2-y,z
loop_
_atom_site_type_symbol
_atom_site_label
_atom_site_fract_x
_atom_site_fract_y
_atom_site_fract_z
Si Si1 0.385333 0.073307 0.823195
Si Si2 0.239390 0.429111 0.737247
Si Si3 0.595483 0.675631 0.466925
Si Si4 0.478564 0.253343 0.185578
Si Si5 0.564270 0.108882 0.780894
Si Si6 0.345473 0.782737 0.823102
O O1 0.496605 0.083567 0.734566
O O2 0.348996 0.139452 0.789833
O O3 0.373946 0.000000 0.775073
O O4 0.324153 0.074692 0.043193
O O5 0.285728 0.500000 0.677757
O O6 0.317644 0.373497 0.646790
O O7 0.165002 0.422844 0.695452
O O8 0.500000 0.651585 0.500000
O O9 0.570026 0.692942 0.659004
O O10 0.623889 0.742493 0.352487
O O11 0.419399 0.186289 0.250152
O O12 0.575038 0.231213 0.150774
O O13 0.500000 0.274809 0.000000
O O14 0.500000 0.098910 0.000000
O O15 0.250000 0.750000 0.000000
#
# Coordination Sequence:
#
# PCOD9172336 Si02
#       6
#     8   8   8   8   8   8
#     4   9  16  28  50  76 105 139 170 204 259 318
#     4  10  18  29  48  75 105 139 176 212 256 308
#     4  10  21  34  51  77 107 138 174 219 263 299
#     4   9  19  34  53  77 102 133 178 218 259 309
#     4   8  15  28  47  75 104 127 164 215 259 306
#     4  10  18  33  52  77 111 137 168 216 260 307
#
# _framework density 17.791571000000001
#
# number of rings (size 3 to 8) (size 9 to 14) (size 15 to 20)
#    0.000    2.667    1.667    1.500    0.000    3.000 
#    0.000    0.000    0.000   14.000    0.000    0.000 
#    0.000    0.000    0.000    0.000    0.000    0.000 
#
# Total GULP energy -133709.047303 kJ/mol
# GULP energy per Si atom -5571.210304 kJ/mol
# Density = 1.775108 g / cm^3
# Si number density = 17.791571 Si / 1000 Ang^3
#
#
#
# Elastic Constant Matrix: (Units=GPa)
#
#
# Indices 1 2 3 4 5 6 
#
# 1 42.2883 55.4102 24.5067 0.0000 -7.6665 0.0000
# 2 55.4102 129.5064 27.7485 0.0000 -7.9293 0.0000
# 3 24.5067 27.7485 41.7161 0.0000 5.7757 0.0000
# 4 0.0000 0.0000 0.0000 11.6679 0.0000 -1.1757
# 5 -7.6665 -7.9293 5.7757 0.0000 23.7902 0.0000
# 6 0.0000 0.0000 0.0000 -1.1757 0.0000 22.8314
#
#
#
# Elastic Compliance Matrix: (Units=1/GPa)
#
#
# Indices 1 2 3 4 5 6 
#
# 1 0.083895 -0.026718 -0.035207 0.000000 0.026678 0.000000
# 2 -0.026718 0.018031 0.004204 0.000000 -0.003621 0.000000
# 3 -0.035207 0.004204 0.044739 0.000000 -0.020806 0.000000
# 4 0.000000 0.000000 0.000000 0.086152 0.000000 0.004436
# 5 0.026678 -0.003621 -0.020806 0.000000 0.054476 0.000000
# 6 0.000000 0.000000 0.000000 0.004436 0.000000 0.044028
#
#
# Mechanical properties :
#
#
# Convention : Reuss Voigt Hill
#
# Bulk Modulus (GPa) = 32.02854 47.64907 39.83881
# Shear Modulus (GPa) = 10.93686 18.71427 14.82556
#
# Velocity S-wave (km/s) = 2.48205 3.24676 2.88981
# Velocity P-wave (km/s) = 5.12399 6.39494 5.79441
#
# Compressibility (1/GPa) = 0.03122215
#
# Stress axis : x y z
#
# Youngs Moduli (GPa) = 11.91964 55.46078 22.35202
#
# Poissons Ratio (x) = 1.48181 0.78694
# Poissons Ratio (y) = 0.31847 -0.09396
# Poissons Ratio (z) = 0.41965 -0.23314
#
# Static dielectric constant tensor:
#      x y z
#    x 1.615650 0.000000 0.012940 
#    y 0.000000 1.632020 0.000000 
#    z 0.012940 0.000000 1.610410 
# 
# From -- ./inp_files/75444.got.cif
#   From: 2010.05.17/outbox.cif.g08.bks.cpg/sg12_38_cif.got.tgz:75444.got - 2010.06.03 13:09:07.
