data_PCOD9172521
_publ_section_title
;
Structure prediction by ZEFSAII (Michael W. Deem and Ramdas Pophale) SiO2 
 PCOD9172521
Probable space group: C 2/M
;
_chemical_formula_sum "Si O2"
_cell_formula_units_Z 56
_cell_length_a 28.532427
_cell_length_b 8.731782
_cell_length_c 12.814445
_cell_angle_alpha 90.000000
_cell_angle_beta 124.455020
_cell_angle_gamma 90.000000
_cell_volume 2632.505227
_symmetry_space_group_name_H-M "C 2/M"
_symmetry_group_IT_number 12
_symmetry_cell_setting 'monoclinic'
loop_
_space_group_symop_operation_xyz
x,y,z
-x,y,-z
-x,-y,-z
x,-y,z
1/2+x,1/2+y,z
1/2-x,1/2+y,-z
1/2-x,1/2-y,-z
1/2+x,1/2-y,z
loop_
_atom_site_type_symbol
_atom_site_label
_atom_site_fract_x
_atom_site_fract_y
_atom_site_fract_z
Si Si1 0.231703 0.673698 0.870856
Si Si2 0.551272 0.182155 0.208249
Si Si3 0.750646 0.320925 0.678228
Si Si4 0.925166 0.315499 0.120384
Si Si5 0.096871 0.326388 0.676875
Si Si6 0.120757 0.816249 0.487214
Si Si7 0.366627 0.319291 0.854749
O O1 0.254279 0.500000 0.884541
O O2 0.247913 0.785441 0.797760
O O3 0.163892 0.662267 0.784180
O O4 0.250000 0.750000 0.000000
O O5 0.485593 0.220823 0.144355
O O6 0.585490 0.233635 0.353601
O O7 0.580764 0.263024 0.148256
O O8 0.555387 0.000000 0.198399
O O9 0.756385 0.500000 0.662783
O O10 0.687789 0.269269 0.562349
O O11 0.809079 0.236640 0.723677
O O12 0.917861 0.500000 0.114579
O O13 0.927129 0.263107 0.243935
O O14 0.876766 0.247653 0.984010
O O15 0.074717 0.500000 0.631090
O O16 0.094979 0.231361 0.567494
O O17 0.118710 0.000000 0.474124
O O18 0.365296 0.500000 0.859266
#
# Coordination Sequence:
#
# PCOD9172521 Si02
#       7
#     8   8   8   8   8   8   8
#     4  10  18  29  50  81 116 154 194 240 295 353
#     4  11  24  42  64  86 117 162 205 247 294 351
#     4  10  21  38  59  83 116 156 196 243 298 359
#     4  10  22  41  64  90 120 159 204 244 291 354
#     4   9  19  36  58  84 117 155 195 240 290 351
#     4  10  22  40  62  90 122 156 198 246 297 352
#     4  12  25  40  62  91 121 154 197 251 306 357
#
# _framework density 21.272511999999999
#
# number of rings (size 3 to 8) (size 9 to 14) (size 15 to 20)
#    0.000    1.714    0.000    4.286    0.000    8.000 
#    0.000    2.857    0.000    0.000    0.000    0.000 
#    0.000    0.000    0.000    0.000    0.000    0.000 
#
# Total GULP energy -156401.952592 kJ/mol
# GULP energy per Si atom -5585.784021 kJ/mol
# Density = 2.122409 g / cm^3
# Si number density = 21.272512 Si / 1000 Ang^3
#
#
#
# Elastic Constant Matrix: (Units=GPa)
#
#
# Indices 1 2 3 4 5 6 
#
# 1 92.4160 22.3243 15.2111 0.0000 1.8354 0.0000
# 2 22.3243 38.3676 10.9676 0.0000 9.0562 0.0000
# 3 15.2111 10.9676 79.5680 0.0000 9.7362 0.0000
# 4 0.0000 0.0000 0.0000 24.3903 0.0000 0.6256
# 5 1.8354 9.0562 9.7362 0.0000 33.7103 0.0000
# 6 0.0000 0.0000 0.0000 0.6256 0.0000 5.9339
#
#
#
# Elastic Compliance Matrix: (Units=1/GPa)
#
#
# Indices 1 2 3 4 5 6 
#
# 1 0.012850 -0.007423 -0.001650 0.000000 0.001771 0.000000
# 2 -0.007423 0.032839 -0.002153 0.000000 -0.007796 0.000000
# 3 -0.001650 -0.002153 0.013578 0.000000 -0.003253 0.000000
# 4 0.000000 0.000000 0.000000 0.041111 0.000000 -0.004334
# 5 0.001771 -0.007796 -0.003253 0.000000 0.032602 0.000000
# 6 0.000000 0.000000 0.000000 -0.004334 0.000000 0.168979
#
#
# Mechanical properties :
#
#
# Convention : Reuss Voigt Hill
#
# Bulk Modulus (GPa) = 27.16394 34.15082 30.65738
# Shear Modulus (GPa) = 14.85070 23.59682 19.22376
#
# Velocity S-wave (km/s) = 2.64506 3.33417 3.00941
# Velocity P-wave (km/s) = 4.70379 5.55978 5.14960
#
# Compressibility (1/GPa) = 0.03681351
#
# Stress axis : x y z
#
# Youngs Moduli (GPa) = 77.81945 30.45189 73.64734
#
# Poissons Ratio (x) = 0.22605 0.12153
# Poissons Ratio (y) = 0.57768 0.15859
# Poissons Ratio (z) = 0.12841 0.06557
#
# Static dielectric constant tensor:
#      x y z
#    x 1.787300 0.000000 0.074220 
#    y 0.000000 1.733780 0.000000 
#    z 0.074220 0.000000 1.587060 
# 
# From -- ./inp_files/181071.got.cif
#   From: 2010.05.17/outbox.cif.g08.bks.cpg/sg12_91_cif.got.tgz:181071.got - 2010.06.03 13:09:07.
