data_PCOD9172151
_publ_section_title
;
Structure prediction by ZEFSAII (Michael W. Deem and Ramdas Pophale) SiO2 
 PCOD9172151
Probable space group: C 2/M
;
_chemical_formula_sum "Si O2"
_cell_formula_units_Z 64
_cell_length_a 27.462081
_cell_length_b 9.025619
_cell_length_c 24.195630
_cell_angle_alpha 90.000000
_cell_angle_beta 134.975431
_cell_angle_gamma 90.000000
_cell_volume 4242.467531
_symmetry_space_group_name_H-M "C 2/M"
_symmetry_group_IT_number 12
_symmetry_cell_setting 'monoclinic'
loop_
_space_group_symop_operation_xyz
x,y,z
-x,y,-z
-x,-y,-z
x,-y,z
1/2+x,1/2+y,z
1/2-x,1/2+y,-z
1/2-x,1/2-y,-z
1/2+x,1/2-y,z
loop_
_atom_site_type_symbol
_atom_site_label
_atom_site_fract_x
_atom_site_fract_y
_atom_site_fract_z
Si Si1 0.698935 0.822533 0.003814
Si Si2 0.503509 0.329632 0.420199
Si Si3 0.708627 0.177755 0.837516
Si Si4 0.542668 0.671930 0.323171
Si Si5 0.412353 0.176566 0.170988
Si Si6 0.140170 0.324554 0.560437
Si Si7 0.318823 0.177233 0.531998
Si Si8 0.656705 0.676028 0.685268
O O1 0.723699 0.749733 0.080507
O O2 0.708404 0.000000 0.013031
O O3 0.750000 0.750000 0.000000
O O4 0.624244 0.793041 0.917230
O O5 0.519159 0.500000 0.449133
O O6 0.512954 0.319283 0.361845
O O7 0.560224 0.224202 0.492359
O O8 0.425081 0.296801 0.371775
O O9 0.643371 0.216128 0.825452
O O10 0.694427 0.242152 0.765735
O O11 0.714012 0.000000 0.841437
O O12 0.555136 0.500000 0.320301
O O13 0.483452 0.740005 0.237546
O O14 0.614189 0.760055 0.382711
O O15 0.423313 0.000000 0.184323
O O16 0.145277 0.500000 0.572818
O O17 0.171322 0.286310 0.525300
O O18 0.173802 0.239443 0.638665
O O19 0.250000 0.250000 0.500000
O O20 0.316524 0.000000 0.535117
O O21 0.668061 0.500000 0.697447
#
# Coordination Sequence:
#
# PCOD9172151 Si02
#       8
#     8   8   8   8   8   8   8   8
#     4   9  17  28  41  59  85 120 159 196 232 270
#     4   9  18  30  42  61  88 120 154 188 223 262
#     4  10  19  29  42  61  88 124 161 196 232 269
#     4  10  18  29  47  69  92 120 154 190 229 273
#     4   9  17  28  42  62  89 120 155 194 230 267
#     4  10  21  33  46  66  88 115 149 188 230 273
#     4  10  21  37  54  70  91 117 148 189 236 282
#     4  11  20  30  44  63  90 123 157 192 224 266
#
# _framework density 15.085559999999999
#
# number of rings (size 3 to 8) (size 9 to 14) (size 15 to 20)
#    0.000    2.250    1.250    3.375    0.000    7.000 
#    0.000    0.000    0.000    0.000    0.000    0.000 
#    0.000    1.000    0.000   10.500    0.000    4.500 
#
# Total GULP energy -178422.745613 kJ/mol
# GULP energy per Si atom -5575.710800 kJ/mol
# Density = 1.505122 g / cm^3
# Si number density = 15.085560 Si / 1000 Ang^3
#
#
#
# Elastic Constant Matrix: (Units=GPa)
#
#
# Indices 1 2 3 4 5 6 
#
# 1 49.8585 37.8830 45.7238 0.0000 8.9095 0.0000
# 2 37.8830 71.2410 72.9076 0.0000 2.7609 0.0000
# 3 45.7238 72.9076 135.0295 0.0000 1.4448 0.0000
# 4 0.0000 0.0000 0.0000 31.9968 0.0000 1.7247
# 5 8.9095 2.7609 1.4448 0.0000 13.7183 0.0000
# 6 0.0000 0.0000 0.0000 1.7247 0.0000 17.1174
#
#
#
# Elastic Compliance Matrix: (Units=1/GPa)
#
#
# Indices 1 2 3 4 5 6 
#
# 1 0.040552 -0.015376 -0.005187 0.000000 -0.022696 0.000000
# 2 -0.015376 0.037487 -0.015077 0.000000 0.004030 0.000000
# 3 -0.005187 -0.015077 0.017254 0.000000 0.004586 0.000000
# 4 0.000000 0.000000 0.000000 0.031424 0.000000 -0.003166
# 5 -0.022696 0.004030 0.004586 0.000000 0.086342 0.000000
# 6 0.000000 0.000000 0.000000 -0.003166 0.000000 0.058739
#
#
# Mechanical properties :
#
#
# Convention : Reuss Voigt Hill
#
# Bulk Modulus (GPa) = 41.64462 63.23974 52.44218
# Shear Modulus (GPa) = 14.24172 19.20748 16.72460
#
# Velocity S-wave (km/s) = 3.07589 3.57211 3.33325
# Velocity P-wave (km/s) = 6.34668 7.68278 7.04647
#
# Compressibility (1/GPa) = 0.02401271
#
# Stress axis : x y z
#
# Youngs Moduli (GPa) = 24.65966 26.67610 57.95880
#
# Poissons Ratio (x) = 0.41018 0.30061
# Poissons Ratio (y) = 0.37917 0.87384
# Poissons Ratio (z) = 0.12790 0.40219
#
# Static dielectric constant tensor:
#      x y z
#    x 1.472760 0.000000 -0.012130 
#    y 0.000000 1.502340 0.000000 
#    z -0.012130 0.000000 1.524160 
# 
# From -- ./inp_files/326864.got.cif
#   From: 2010.05.17/outbox.cif.g08.bks.cpg/sg12_164_cif.got.tgz:326864.got - 2010.06.03 13:09:07.
