data_PCOD9172723
_publ_section_title
;
Structure prediction by ZEFSAII (Michael W. Deem and Ramdas Pophale) SiO2 
 PCOD9172723
Probable space group: C 2/M
;
_chemical_formula_sum "Si O2"
_cell_formula_units_Z 48
_cell_length_a 21.982932
_cell_length_b 7.959126
_cell_length_c 12.859058
_cell_angle_alpha 90.000000
_cell_angle_beta 61.606918
_cell_angle_gamma 90.000000
_cell_volume 1979.236553
_symmetry_space_group_name_H-M "C 2/M"
_symmetry_group_IT_number 12
_symmetry_cell_setting 'monoclinic'
loop_
_space_group_symop_operation_xyz
x,y,z
-x,y,-z
-x,-y,-z
x,-y,z
1/2+x,1/2+y,z
1/2-x,1/2+y,-z
1/2-x,1/2-y,-z
1/2+x,1/2-y,z
loop_
_atom_site_type_symbol
_atom_site_label
_atom_site_fract_x
_atom_site_fract_y
_atom_site_fract_z
Si Si1 0.650255 0.806652 0.007986
Si Si2 0.500767 0.313438 0.874781
Si Si3 0.141372 0.814453 0.228940
Si Si4 0.101603 0.500000 0.532855
Si Si5 0.799936 0.803082 0.588608
Si Si6 0.846815 0.296895 0.232182
Si Si7 0.953414 0.500000 0.659376
O O1 0.566562 0.798699 0.088242
O O2 0.677284 0.709132 0.087674
O O3 0.673074 0.000000 0.992985
O O4 0.662393 0.738428 0.881120
O O5 0.488034 0.500000 0.841968
O O6 0.578893 0.259695 0.786205
O O7 0.500000 0.324631 0.000000
O O8 0.186363 0.797092 0.296950
O O9 0.084988 0.669947 0.279351
O O10 0.111106 0.000000 0.259771
O O11 0.148339 0.666121 0.501939
O O12 0.028970 0.500000 0.651295
O O13 0.065670 0.500000 0.448466
O O14 0.719913 0.748080 0.645958
O O15 0.809152 0.000000 0.550672
O O16 0.847140 0.500000 0.228357
#
# Coordination Sequence:
#
# PCOD9172723 Si02
#       7
#     8   8   8   4   8   8   4
#     4  10  18  30  47  67  99 136 167 202 239 281
#     4   9  17  28  43  66  93 124 168 210 238 276
#     4  10  19  32  49  71 102 131 161 201 241 291
#     4   9  18  32  54  72  95 126 160 204 249 286
#     4   9  19  33  48  72 103 129 161 200 240 293
#     4   9  18  31  46  67  99 134 166 201 239 282
#     4   9  18  34  50  74  97 122 162 206 247 288
#
# _framework density 24.251774999999999
#
# number of rings (size 3 to 8) (size 9 to 14) (size 15 to 20)
#    0.000    2.667    0.833    1.000    1.167    4.000 
#    0.000    3.333    0.000    0.000    0.000    1.167 
#    0.000    0.000    0.000    0.000    0.000    0.000 
#
# Total GULP energy -133935.231732 kJ/mol
# GULP energy per Si atom -5580.634656 kJ/mol
# Density = 2.419658 g / cm^3
# Si number density = 24.251775 Si / 1000 Ang^3
#
#
#
# Elastic Constant Matrix: (Units=GPa)
#
#
# Indices 1 2 3 4 5 6 
#
# 1 91.0927 34.8281 43.4401 0.0000 -12.2842 0.0000
# 2 34.8281 119.0505 37.2714 0.0000 -32.2837 0.0000
# 3 43.4401 37.2714 60.9410 0.0000 -41.4279 0.0000
# 4 0.0000 0.0000 0.0000 9.4233 0.0000 -9.5384
# 5 -12.2842 -32.2837 -41.4279 0.0000 60.9498 0.0000
# 6 0.0000 0.0000 0.0000 -9.5384 0.0000 23.0904
#
#
#
# Elastic Compliance Matrix: (Units=1/GPa)
#
#
# Indices 1 2 3 4 5 6 
#
# 1 0.020178 -0.002536 -0.020413 0.000000 -0.011152 0.000000
# 2 -0.002536 0.010869 -0.002367 0.000000 0.003637 0.000000
# 3 -0.020413 -0.002367 0.053462 0.000000 0.030970 0.000000
# 4 0.000000 0.000000 0.000000 0.182380 0.000000 0.075339
# 5 -0.011152 0.003637 0.030970 0.000000 0.037136 0.000000
# 6 0.000000 0.000000 0.000000 0.075339 0.000000 0.074430
#
#
# Mechanical properties :
#
#
# Convention : Reuss Voigt Hill
#
# Bulk Modulus (GPa) = 29.51964 55.79593 42.65779
# Shear Modulus (GPa) = 11.35383 29.06233 20.20808
#
# Velocity S-wave (km/s) = 2.16606 3.46549 2.88976
# Velocity P-wave (km/s) = 4.29585 6.25058 5.36302
#
# Compressibility (1/GPa) = 0.03387575
#
# Stress axis : x y z
#
# Youngs Moduli (GPa) = 49.55811 92.00339 18.70501
#
# Poissons Ratio (x) = 0.23336 0.38183
# Poissons Ratio (y) = 0.12570 0.04428
# Poissons Ratio (z) = 1.01164 0.21778
#
# Static dielectric constant tensor:
#      x y z
#    x 1.967690 0.000000 0.047000 
#    y 0.000000 1.854640 0.000000 
#    z 0.047000 0.000000 2.157140 
# 
# From -- ./inp_files/287294.got.cif
#   From: 2010.05.17/outbox.cif.g08.bks.cpg/sg12_144_cif.got.tgz:287294.got - 2010.06.03 13:09:07.
