data_PCOD9172129
_publ_section_title
;
Structure prediction by ZEFSAII (Michael W. Deem and Ramdas Pophale) SiO2 
 PCOD9172129
Probable space group: C 2/M
;
_chemical_formula_sum "Si O2"
_cell_formula_units_Z 64
_cell_length_a 31.867310
_cell_length_b 7.549044
_cell_length_c 16.231471
_cell_angle_alpha 90.000000
_cell_angle_beta 57.050291
_cell_angle_gamma 90.000000
_cell_volume 3276.679470
_symmetry_space_group_name_H-M "C 2/M"
_symmetry_group_IT_number 12
_symmetry_cell_setting 'monoclinic'
loop_
_space_group_symop_operation_xyz
x,y,z
-x,y,-z
-x,-y,-z
x,-y,z
1/2+x,1/2+y,z
1/2-x,1/2+y,-z
1/2-x,1/2-y,-z
1/2+x,1/2-y,z
loop_
_atom_site_type_symbol
_atom_site_label
_atom_site_fract_x
_atom_site_fract_y
_atom_site_fract_z
Si Si1 0.682500 0.789884 0.916724
Si Si2 0.610705 0.715274 0.423640
Si Si3 0.021806 0.783084 0.848353
Si Si4 0.423870 0.713077 0.042838
Si Si5 0.449265 0.296872 0.360479
Si Si6 0.445217 0.208648 0.683933
Si Si7 0.288551 0.706793 0.764217
Si Si8 0.657299 0.784779 0.125828
O O1 0.631789 0.767056 0.920280
O O2 0.732780 0.716522 0.821286
O O3 0.690970 0.000000 0.917424
O O4 0.673549 0.720445 0.018806
O O5 0.611629 0.500000 0.424481
O O6 0.589980 0.781725 0.532855
O O7 0.572955 0.763969 0.390120
O O8 0.665632 0.781696 0.338402
O O9 0.056387 0.730214 0.888519
O O10 0.041359 0.717721 0.739731
O O11 0.020987 0.000000 0.846661
O O12 0.965324 0.726509 0.931798
O O13 0.425282 0.500000 0.041203
O O14 0.433381 0.500000 0.363602
O O15 0.502846 0.296911 0.348669
O O16 0.398954 0.271846 0.789972
O O17 0.451969 0.000000 0.690689
O O18 0.285720 0.500000 0.744226
O O19 0.306822 0.721365 0.839393
O O20 0.657679 0.000000 0.126988
#
# Coordination Sequence:
#
# PCOD9172129 Si02
#       8
#     8   8   8   8   8   8   8   8
#     4  10  19  30  45  66  91 116 144 179 218 258
#     4   9  18  31  45  62  85 117 154 183 209 247
#     4   8  16  31  49  69  90 111 139 178 219 257
#     4   9  17  31  50  69  89 112 140 175 217 265
#     4  10  18  29  47  66  85 113 149 183 213 253
#     4  10  19  29  42  64  94 120 142 175 218 259
#     4   9  18  31  45  62  87 118 150 183 214 246
#     4   9  18  30  43  63  91 119 146 177 213 256
#
# _framework density 19.531967999999999
#
# number of rings (size 3 to 8) (size 9 to 14) (size 15 to 20)
#    0.000    2.750    0.000    2.625    0.000    3.500 
#    0.000    1.875    0.000    0.750    0.000    0.000 
#    0.000    0.000    0.000    0.000    0.000    0.000 
#
# Total GULP energy -178542.092663 kJ/mol
# GULP energy per Si atom -5579.440396 kJ/mol
# Density = 1.948751 g / cm^3
# Si number density = 19.531968 Si / 1000 Ang^3
#
#
#
# Elastic Constant Matrix: (Units=GPa)
#
#
# Indices 1 2 3 4 5 6 
#
# 1 97.4107 -10.0927 77.3437 0.0000 -21.6356 0.0000
# 2 -10.0927 47.9877 1.9412 0.0001 -0.6097 0.0003
# 3 77.3437 1.9412 170.8853 0.0000 -1.4231 0.0000
# 4 0.0000 0.0001 0.0000 4.6746 0.0000 -3.0115
# 5 -21.6356 -0.6097 -1.4231 0.0000 17.8186 0.0000
# 6 0.0000 0.0003 0.0000 -3.0115 0.0000 12.7940
#
#
#
# Elastic Compliance Matrix: (Units=1/GPa)
#
#
# Indices 1 2 3 4 5 6 
#
# 1 0.028721 0.006991 -0.012795 0.000000 0.034091 0.000000
# 2 0.006991 0.022559 -0.003346 -0.000001 0.008994 -0.000001
# 3 -0.012795 -0.003346 0.011558 0.000000 -0.014727 0.000000
# 4 0.000000 -0.000001 0.000000 0.252157 0.000000 0.059353
# 5 0.034091 0.008994 -0.014727 0.000000 0.096647 0.000000
# 6 0.000000 -0.000001 0.000000 0.059353 0.000000 0.092132
#
#
# Mechanical properties :
#
#
# Convention : Reuss Voigt Hill
#
# Bulk Modulus (GPa) = 22.45192 50.51867 36.48530
# Shear Modulus (GPa) = 9.31240 23.53021 16.42131
#
# Velocity S-wave (km/s) = 2.18589 3.47465 2.90270
# Velocity P-wave (km/s) = 4.22975 6.48215 5.47307
#
# Compressibility (1/GPa) = 0.04453962
#
# Stress axis : x y z
#
# Youngs Moduli (GPa) = 34.81761 44.32885 86.51813
#
# Poissons Ratio (x) = -0.30992 1.10699
# Poissons Ratio (y) = -0.24342 0.28946
# Poissons Ratio (z) = 0.44549 0.14831
#
# Static dielectric constant tensor:
#      x y z
#    x 1.652790 0.000000 -0.027370 
#    y 0.000000 1.738680 0.000000 
#    z -0.027370 0.000000 1.717230 
# 
# From -- ./inp_files/248956.got.cif
#   From: 2010.05.17/outbox.cif.g08.bks.cpg/sg12_125_cif.got.tgz:248956.got - 2010.06.03 13:09:07.
