data_PCOD9172120
_publ_section_title
;
Structure prediction by ZEFSAII (Michael W. Deem and Ramdas Pophale) SiO2 
 PCOD9172120
Probable space group: C 2/M
;
_chemical_formula_sum "Si O2"
_cell_formula_units_Z 48
_cell_length_a 14.963055
_cell_length_b 13.280160
_cell_length_c 27.637882
_cell_angle_alpha 90.000000
_cell_angle_beta 150.879483
_cell_angle_gamma 90.000000
_cell_volume 2672.658640
_symmetry_space_group_name_H-M "C 2/M"
_symmetry_group_IT_number 12
_symmetry_cell_setting 'monoclinic'
loop_
_space_group_symop_operation_xyz
x,y,z
-x,y,-z
-x,-y,-z
x,-y,z
1/2+x,1/2+y,z
1/2-x,1/2+y,-z
1/2-x,1/2-y,-z
1/2+x,1/2-y,z
loop_
_atom_site_type_symbol
_atom_site_label
_atom_site_fract_x
_atom_site_fract_y
_atom_site_fract_z
Si Si1 0.191051 0.619913 0.652434
Si Si2 0.699447 0.879890 0.078715
Si Si3 0.066013 0.741308 0.165823
Si Si4 0.723080 0.382559 0.999228
Si Si5 0.884805 0.122562 0.262397
Si Si6 0.214193 0.619461 0.547300
O O1 0.215161 0.500000 0.674879
O O2 0.335218 0.688199 0.748493
O O3 0.209790 0.629800 0.603484
O O4 0.982012 0.654394 0.565472
O O5 0.848922 0.848408 0.189168
O O6 0.688987 0.000000 0.080288
O O7 0.500000 0.838842 0.000000
O O8 0.743519 0.869086 0.043135
O O9 0.219487 0.672569 0.213434
O O10 0.903642 0.667662 0.107745
O O11 0.960240 0.817951 0.079345
O O12 0.705459 0.500000 0.001656
O O13 0.086687 0.157837 0.374507
O O14 0.877155 0.000000 0.262799
O O15 0.213968 0.500000 0.537548
#
# Coordination Sequence:
#
# PCOD9172120 Si02
#       6
#     8   8   8   8   8   8
#     4   9  17  32  50  73  97 120 151 186 236 290
#     4   9  15  27  47  65  89 119 148 192 233 267
#     4  11  20  27  45  72  98 126 150 187 242 275
#     4  10  20  33  45  67  97 126 159 190 231 281
#     4  10  18  29  46  73  99 121 154 193 233 274
#     4   8  16  31  52  71  94 121 148 194 242 277
#
# _framework density 17.959644999999998
#
# number of rings (size 3 to 8) (size 9 to 14) (size 15 to 20)
#    0.000    2.500    1.667    3.000    0.000    3.333 
#    0.000    0.000    0.000    0.000    0.000   60.667 
#    0.000    0.000    0.000    0.000    0.000    0.000 
#
# Total GULP energy -133602.571130 kJ/mol
# GULP energy per Si atom -5566.773797 kJ/mol
# Density = 1.791877 g / cm^3
# Si number density = 17.959645 Si / 1000 Ang^3
#
#
#
# Elastic Constant Matrix: (Units=GPa)
#
#
# Indices 1 2 3 4 5 6 
#
# 1 25.4163 5.8552 14.4706 0.0000 17.0094 0.0000
# 2 5.8552 75.6939 36.6471 0.0000 11.0264 0.0000
# 3 14.4706 36.6471 110.7554 0.0004 27.1945 0.0000
# 4 0.0000 0.0000 0.0004 32.3819 0.0000 1.8828
# 5 17.0094 11.0264 27.1945 0.0000 33.4217 0.0000
# 6 0.0000 0.0000 0.0000 1.8828 0.0000 18.9275
#
#
#
# Elastic Compliance Matrix: (Units=1/GPa)
#
#
# Indices 1 2 3 4 5 6 
#
# 1 0.059683 -0.000044 -0.000411 0.000000 -0.030026 0.000000
# 2 -0.000044 0.015769 -0.004924 0.000000 -0.001174 0.000000
# 3 -0.000411 -0.004924 0.012824 0.000000 -0.008601 0.000000
# 4 0.000000 0.000000 0.000000 0.031061 0.000000 -0.003090
# 5 -0.030026 -0.001174 -0.008601 0.000000 0.052587 0.000000
# 6 0.000000 0.000000 0.000000 -0.003090 0.000000 0.053140
#
#
# Mechanical properties :
#
#
# Convention : Reuss Voigt Hill
#
# Bulk Modulus (GPa) = 12.90008 36.20127 24.55068
# Shear Modulus (GPa) = 19.10864 27.27241 23.19052
#
# Velocity S-wave (km/s) = 3.26540 3.90107 3.59731
# Velocity P-wave (km/s) = 4.62769 6.36332 5.56361
#
# Compressibility (1/GPa) = 0.07751887
#
# Stress axis : x y z
#
# Youngs Moduli (GPa) = 16.75517 63.41402 77.98124
#
# Poissons Ratio (x) = 0.00279 0.03203
# Poissons Ratio (y) = 0.00074 0.38397
# Poissons Ratio (z) = 0.00688 0.31224
#
# Static dielectric constant tensor:
#      x y z
#    x 1.645810 0.000000 0.039420 
#    y 0.000000 1.615850 0.000000 
#    z 0.039420 0.000000 1.676880 
# 
# From -- ./inp_files/222400.got.cif
#   From: 2010.05.17/outbox.cif.g08.bks.cpg/sg12_112_cif.got.tgz:222400.got - 2010.06.03 13:09:07.
