data_PCOD9172043
_publ_section_title
;
Structure prediction by ZEFSAII (Michael W. Deem and Ramdas Pophale) SiO2 
 PCOD9172043
Probable space group: C 2/M
;
_chemical_formula_sum "Si O2"
_cell_formula_units_Z 64
_cell_length_a 29.051922
_cell_length_b 8.507572
_cell_length_c 15.372361
_cell_angle_alpha 90.000000
_cell_angle_beta 87.255360
_cell_angle_gamma 90.000000
_cell_volume 3795.094543
_symmetry_space_group_name_H-M "C 2/M"
_symmetry_group_IT_number 12
_symmetry_cell_setting 'monoclinic'
loop_
_space_group_symop_operation_xyz
x,y,z
-x,y,-z
-x,-y,-z
x,-y,z
1/2+x,1/2+y,z
1/2-x,1/2+y,-z
1/2-x,1/2-y,-z
1/2+x,1/2-y,z
loop_
_atom_site_type_symbol
_atom_site_label
_atom_site_fract_x
_atom_site_fract_y
_atom_site_fract_z
Si Si1 0.525282 0.189274 0.363257
Si Si2 0.401960 0.185823 0.510957
Si Si3 0.162788 0.808416 0.329680
Si Si4 0.056270 0.686683 0.748692
Si Si5 0.857658 0.816775 0.343362
Si Si6 0.011246 0.190518 0.096282
Si Si7 0.741146 0.812864 0.598528
Si Si8 0.909267 0.185810 0.793671
O O1 0.547678 0.225501 0.454526
O O2 0.473656 0.223584 0.336323
O O3 0.556720 0.279709 0.290398
O O4 0.531690 0.000000 0.352272
O O5 0.366836 0.223172 0.592877
O O6 0.383440 0.282934 0.432081
O O7 0.401113 0.000000 0.488954
O O8 0.215702 0.769384 0.343977
O O9 0.140106 0.759896 0.239275
O O10 0.157503 0.000000 0.338978
O O11 0.056595 0.500000 0.757636
O O12 0.107904 0.746608 0.731537
O O13 0.027781 0.757458 0.831615
O O14 0.807198 0.743855 0.358634
O O15 0.852799 0.000000 0.329396
O O16 0.061068 0.249048 0.127809
O O17 0.012150 0.000000 0.096278
O O18 0.000000 0.244248 0.000000
O O19 0.750000 0.750000 0.500000
O O20 0.739898 0.000000 0.591875
O O21 0.904725 0.000000 0.808119
#
# Coordination Sequence:
#
# PCOD9172043 Si02
#       8
#     8   8   8   8   8   8   8   8
#     4   8  16  29  45  65  90 122 158 197 238 281
#     4  10  18  29  46  66  90 123 163 203 243 283
#     4   9  17  29  46  67  93 124 162 205 243 280
#     4  10  20  35  51  69  96 127 161 200 242 287
#     4  12  24  35  46  64  93 128 168 207 247 290
#     4   9  17  31  53  80 107 131 154 183 228 290
#     4  11  21  33  49  69  93 125 168 213 253 287
#     4   8  14  26  45  70  98 126 155 189 229 278
#
# _framework density 16.863873999999999
#
# number of rings (size 3 to 8) (size 9 to 14) (size 15 to 20)
#    0.000    2.375    1.250    2.250    0.000    2.250 
#    0.000    2.500    0.000    0.000    0.000    0.875 
#    0.000    0.000    0.000    0.000    0.000    0.000 
#
# Total GULP energy -178262.605882 kJ/mol
# GULP energy per Si atom -5570.706434 kJ/mol
# Density = 1.682549 g / cm^3
# Si number density = 16.863874 Si / 1000 Ang^3
#
#
#
# Elastic Constant Matrix: (Units=GPa)
#
#
# Indices 1 2 3 4 5 6 
#
# 1 140.9545 28.2534 54.1348 0.0000 12.4769 0.0000
# 2 28.2534 19.3278 9.6388 0.0000 4.5687 0.0000
# 3 54.1348 9.6388 81.5581 0.0000 19.1454 0.0000
# 4 0.0000 0.0000 0.0000 9.1348 0.0000 4.8318
# 5 12.4769 4.5687 19.1454 0.0000 21.2532 0.0000
# 6 0.0000 0.0000 0.0000 4.8318 0.0000 10.6897
#
#
#
# Elastic Compliance Matrix: (Units=1/GPa)
#
#
# Indices 1 2 3 4 5 6 
#
# 1 0.012786 -0.015659 -0.007183 0.000000 0.002331 0.000000
# 2 -0.015659 0.075133 0.003992 0.000000 -0.010554 0.000000
# 3 -0.007183 0.003992 0.019998 0.000000 -0.014655 0.000000
# 4 0.000000 0.000000 0.000000 0.143868 0.000000 -0.065029
# 5 0.002331 -0.010554 -0.014655 0.000000 0.061154 0.000000
# 6 0.000000 0.000000 0.000000 -0.065029 0.000000 0.122941
#
#
# Mechanical properties :
#
#
# Convention : Reuss Voigt Hill
#
# Bulk Modulus (GPa) = 14.24179 47.32160 30.78170
# Shear Modulus (GPa) = 10.06066 18.20311 14.13188
#
# Velocity S-wave (km/s) = 2.44515 3.28901 2.89796
# Velocity P-wave (km/s) = 4.05403 6.52267 5.43049
#
# Compressibility (1/GPa) = 0.07021589
#
# Stress axis : x y z
#
# Youngs Moduli (GPa) = 78.21302 13.30973 50.00606
#
# Poissons Ratio (x) = 0.20841 0.35920
# Poissons Ratio (y) = 1.22472 -0.19961
# Poissons Ratio (z) = 0.56181 -0.05313
#
# Static dielectric constant tensor:
#      x y z
#    x 1.652190 0.000000 0.004010 
#    y 0.000000 1.564000 0.000000 
#    z 0.004010 0.000000 1.595310 
# 
# From -- ./inp_files/248439.got.cif
#   From: 2010.05.17/outbox.cif.g08.bks.cpg/sg12_125_cif.got.tgz:248439.got - 2010.06.03 13:09:07.
