data_PCOD9172041
_publ_section_title
;
Structure prediction by ZEFSAII (Michael W. Deem and Ramdas Pophale) SiO2 
 PCOD9172041
Probable space group: C 2/M
;
_chemical_formula_sum "Si O2"
_cell_formula_units_Z 48
_cell_length_a 29.670265
_cell_length_b 13.915176
_cell_length_c 30.602807
_cell_angle_alpha 90.000000
_cell_angle_beta 13.880960
_cell_angle_gamma 90.000000
_cell_volume 3031.178459
_symmetry_space_group_name_H-M "C 2/M"
_symmetry_group_IT_number 12
_symmetry_cell_setting 'monoclinic'
loop_
_space_group_symop_operation_xyz
x,y,z
-x,y,-z
-x,-y,-z
x,-y,z
1/2+x,1/2+y,z
1/2-x,1/2+y,-z
1/2-x,1/2-y,-z
1/2+x,1/2-y,z
loop_
_atom_site_type_symbol
_atom_site_label
_atom_site_fract_x
_atom_site_fract_y
_atom_site_fract_z
Si Si1 0.774953 0.384228 0.714343
Si Si2 0.234280 0.386222 0.085131
Si Si3 0.927827 0.794345 0.274230
Si Si4 0.783777 0.386890 0.800312
Si Si5 0.738312 0.113254 0.368923
Si Si6 0.846054 0.389093 0.402373
O O1 0.750807 0.500000 0.737864
O O2 0.710924 0.347457 0.822269
O O3 0.697569 0.353778 0.739949
O O4 0.000000 0.367309 0.500000
O O5 0.283310 0.500000 0.036330
O O6 0.269139 0.350769 0.101874
O O7 0.017034 0.379549 0.276162
O O8 0.359223 0.325317 0.934520
O O9 0.823567 0.827272 0.328179
O O10 0.892802 0.683957 0.319430
O O11 0.838453 0.853792 0.398533
O O12 0.734063 0.500000 0.847516
O O13 0.011456 0.381766 0.584075
O O14 0.786680 0.000000 0.328721
O O15 0.832828 0.500000 0.401847
#
# Coordination Sequence:
#
# PCOD9172041 Si02
#       6
#     8   8   8   8   8   8
#     4   7  11  19  35  58  85 118 144 162 198 252
#     4  10  18  29  46  66  90 116 143 174 214 260
#     4  11  20  30  48  67  83 114 151 181 212 258
#     4   8  13  23  39  60  89 120 141 165 206 255
#     4   9  14  24  41  62  89 117 145 173 205 249
#     4  10  21  35  46  61  88 116 144 183 222 255
#
# _framework density 15.835426
#
# number of rings (size 3 to 8) (size 9 to 14) (size 15 to 20)
#    0.000    2.833    1.667    4.000    0.000    0.000 
#    0.000    0.833    0.000    4.000    0.000    0.000 
#    0.000    8.667    0.000    0.000    0.000    0.000 
#
# Total GULP energy -133668.503805 kJ/mol
# GULP energy per Si atom -5569.520992 kJ/mol
# Density = 1.579938 g / cm^3
# Si number density = 15.835426 Si / 1000 Ang^3
#
#
#
# Elastic Constant Matrix: (Units=GPa)
#
#
# Indices 1 2 3 4 5 6 
#
# 1 79.6405 30.8076 1.8910 0.0017 16.2296 0.0034
# 2 30.8076 65.0179 14.7337 0.0175 13.0021 -0.0047
# 3 1.8910 14.7337 56.1326 0.0124 20.1732 -0.0123
# 4 0.0017 0.0175 0.0124 13.3553 -0.0050 3.3572
# 5 16.2296 13.0021 20.1732 -0.0050 26.9909 0.0048
# 6 0.0034 -0.0047 -0.0123 3.3572 0.0048 15.1549
#
#
#
# Elastic Compliance Matrix: (Units=1/GPa)
#
#
# Indices 1 2 3 4 5 6 
#
# 1 0.017476 -0.007286 0.005249 -0.000002 -0.010921 0.000002
# 2 -0.007286 0.020237 -0.004290 -0.000025 -0.002162 0.000011
# 3 0.005249 -0.004290 0.026191 -0.000036 -0.020665 0.000033
# 4 -0.000002 -0.000025 -0.000036 0.079292 0.000058 -0.017565
# 5 -0.010921 -0.002162 -0.020665 0.000058 0.060103 -0.000047
# 6 0.000002 0.000011 0.000033 -0.017565 -0.000047 0.069876
#
#
# Mechanical properties :
#
#
# Convention : Reuss Voigt Hill
#
# Bulk Modulus (GPa) = 19.51231 32.85061 26.18146
# Shear Modulus (GPa) = 16.50647 21.32415 18.91531
#
# Velocity S-wave (km/s) = 3.23209 3.67360 3.45989
# Velocity P-wave (km/s) = 5.12613 6.22767 5.70355
#
# Compressibility (1/GPa) = 0.05124971
#
# Stress axis : x y z
#
# Youngs Moduli (GPa) = 57.22182 49.41437 38.18154
#
# Poissons Ratio (x) = 0.36003 -0.20040
# Poissons Ratio (y) = 0.41692 0.16378
# Poissons Ratio (z) = -0.30034 0.21196
#
# Static dielectric constant tensor:
#      x y z
#    x 1.579090 -0.000010 -0.004190 
#    y -0.000010 1.478430 0.000030 
#    z -0.004190 0.000030 1.603610 
# 
# From -- ./inp_files/103660.got.cif
#   From: 2010.05.17/outbox.cif.g08.bks.cpg/sg12_52_cif.got.tgz:103660.got - 2010.06.03 13:09:07.
