data_PCOD9172297
_publ_section_title
;
Structure prediction by ZEFSAII (Michael W. Deem and Ramdas Pophale) SiO2 
 PCOD9172297
Probable space group: C 2/M
;
_chemical_formula_sum "Si O2"
_cell_formula_units_Z 56
_cell_length_a 26.802117
_cell_length_b 12.964017
_cell_length_c 12.926335
_cell_angle_alpha 90.000000
_cell_angle_beta 43.600269
_cell_angle_gamma 90.000000
_cell_volume 3097.389341
_symmetry_space_group_name_H-M "C 2/M"
_symmetry_group_IT_number 12
_symmetry_cell_setting 'monoclinic'
loop_
_space_group_symop_operation_xyz
x,y,z
-x,y,-z
-x,-y,-z
x,-y,z
1/2+x,1/2+y,z
1/2-x,1/2+y,-z
1/2-x,1/2-y,-z
1/2+x,1/2-y,z
loop_
_atom_site_type_symbol
_atom_site_label
_atom_site_fract_x
_atom_site_fract_y
_atom_site_fract_z
Si Si1 0.325862 0.807376 0.652907
Si Si2 0.227008 0.619050 0.840305
Si Si3 0.330084 0.837244 0.291048
Si Si4 0.018642 0.616946 0.864218
Si Si5 0.644260 0.122527 0.170461
Si Si6 0.486419 0.873807 0.357552
Si Si7 0.220019 0.883752 0.630997
O O1 0.294242 0.691871 0.709258
O O2 0.316008 0.853818 0.782293
O O3 0.410532 0.822283 0.500743
O O4 0.278763 0.862601 0.634079
O O5 0.247975 0.500000 0.824820
O O6 0.174169 0.624462 0.820007
O O7 0.186350 0.659230 0.004595
O O8 0.394987 0.883879 0.259113
O O9 0.258919 0.869566 0.461463
O O10 0.334006 0.712966 0.281652
O O11 0.989435 0.500000 0.912365
O O12 0.996618 0.656861 0.786547
O O13 0.000000 0.671311 0.000000
O O14 0.559981 0.156003 0.305968
O O15 0.639411 0.000000 0.164172
O O16 0.476433 0.000000 0.378914
O O17 0.192047 0.000000 0.682494
#
# Coordination Sequence:
#
# PCOD9172297 Si02
#       7
#     8   8   8   8   8   8   8
#     4  11  20  32  52  77 104 132 167 209 254 298
#     4  10  21  35  51  74 103 136 172 206 248 301
#     4  10  19  31  49  72  99 128 159 200 245 293
#     4  10  18  29  48  73 102 131 159 200 253 306
#     4  10  20  34  52  75 104 134 164 207 260 306
#     4  10  19  31  50  77 103 128 163 207 257 305
#     4  10  19  31  49  73  99 126 160 201 247 294
#
# _framework density 18.079742
#
# number of rings (size 3 to 8) (size 9 to 14) (size 15 to 20)
#    0.000    1.857    1.429    4.286    0.000    3.429 
#    0.000    0.000    0.000    2.143    0.000    4.000 
#    0.000    0.000    0.000    0.000    0.000    0.000 
#
# Total GULP energy -155994.062859 kJ/mol
# GULP energy per Si atom -5571.216531 kJ/mol
# Density = 1.803859 g / cm^3
# Si number density = 18.079742 Si / 1000 Ang^3
#
#
#
# Elastic Constant Matrix: (Units=GPa)
#
#
# Indices 1 2 3 4 5 6 
#
# 1 56.6563 6.2924 12.7087 0.0000 14.4198 0.0000
# 2 6.2924 83.3908 19.0837 0.0000 -13.9177 0.0000
# 3 12.7087 19.0837 59.8388 0.0000 15.5185 0.0000
# 4 0.0000 0.0000 0.0000 16.2414 0.0000 1.7386
# 5 14.4198 -13.9177 15.5185 0.0000 33.6854 0.0000
# 6 0.0000 0.0000 0.0000 1.7386 0.0000 11.9422
#
#
#
# Elastic Compliance Matrix: (Units=1/GPa)
#
#
# Indices 1 2 3 4 5 6 
#
# 1 0.020637 -0.002944 -0.000951 0.000000 -0.009612 0.000000
# 2 -0.002944 0.015733 -0.007274 0.000000 0.011112 0.000000
# 3 -0.000951 -0.007274 0.022608 0.000000 -0.013014 0.000000
# 4 0.000000 0.000000 0.000000 0.062546 0.000000 -0.009106
# 5 -0.009612 0.011112 -0.013014 0.000000 0.044387 0.000000
# 6 0.000000 0.000000 0.000000 -0.009106 0.000000 0.085062
#
#
# Mechanical properties :
#
#
# Convention : Reuss Voigt Hill
#
# Bulk Modulus (GPa) = 27.29238 30.67283 28.98260
# Shear Modulus (GPa) = 17.51160 23.16055 20.33607
#
# Velocity S-wave (km/s) = 3.11557 3.58302 3.35744
# Velocity P-wave (km/s) = 5.29818 5.84119 5.57630
#
# Compressibility (1/GPa) = 0.03664026
#
# Stress axis : x y z
#
# Youngs Moduli (GPa) = 48.45654 63.56079 44.23143
#
# Poissons Ratio (x) = 0.18711 0.04208
# Poissons Ratio (y) = 0.14264 0.32174
# Poissons Ratio (z) = 0.04610 0.46234
#
# Static dielectric constant tensor:
#      x y z
#    x 1.639400 0.000000 0.001440 
#    y 0.000000 1.624660 0.000000 
#    z 0.001440 0.000000 1.687950 
# 
# From -- ./inp_files/182432.got.cif
#   From: 2010.05.17/outbox.cif.g08.bks.cpg/sg12_92_cif.got.tgz:182432.got - 2010.06.03 13:09:07.
