data_PCOD9172045
_publ_section_title
;
Structure prediction by ZEFSAII (Michael W. Deem and Ramdas Pophale) SiO2 
 PCOD9172045
Probable space group: C 2/M
;
_chemical_formula_sum "Si O2"
_cell_formula_units_Z 64
_cell_length_a 29.182472
_cell_length_b 8.568591
_cell_length_c 15.313003
_cell_angle_alpha 90.000000
_cell_angle_beta 89.095502
_cell_angle_gamma 90.000000
_cell_volume 3828.580124
_symmetry_space_group_name_H-M "C 2/M"
_symmetry_group_IT_number 12
_symmetry_cell_setting 'monoclinic'
loop_
_space_group_symop_operation_xyz
x,y,z
-x,y,-z
-x,-y,-z
x,-y,z
1/2+x,1/2+y,z
1/2-x,1/2+y,-z
1/2-x,1/2-y,-z
1/2+x,1/2-y,z
loop_
_atom_site_type_symbol
_atom_site_label
_atom_site_fract_x
_atom_site_fract_y
_atom_site_fract_z
Si Si1 0.515022 0.816511 0.381342
Si Si2 0.400945 0.186554 0.523319
Si Si3 0.165263 0.816640 0.326994
Si Si4 0.059903 0.689659 0.747553
Si Si5 0.851647 0.684694 0.340069
Si Si6 0.004603 0.187363 0.098796
Si Si7 0.744243 0.683090 0.598411
Si Si8 0.919895 0.187684 0.769828
O O1 0.546066 0.763196 0.462845
O O2 0.469697 0.751532 0.335643
O O3 0.551930 0.786718 0.302306
O O4 0.505976 0.000000 0.395505
O O5 0.367968 0.277137 0.590480
O O6 0.380249 0.205942 0.428686
O O7 0.399072 0.000000 0.542893
O O8 0.212424 0.730232 0.343910
O O9 0.133565 0.776446 0.244144
O O10 0.174901 0.000000 0.324954
O O11 0.059121 0.500000 0.744980
O O12 0.112654 0.739605 0.735065
O O13 0.033360 0.744487 0.834273
O O14 0.843785 0.500000 0.328942
O O15 0.802837 0.762458 0.355761
O O16 0.054520 0.219363 0.140100
O O17 0.998922 0.000000 0.098690
O O18 0.000000 0.244770 0.000000
O O19 0.743391 0.500000 0.587882
O O20 0.750000 0.750000 0.500000
O O21 0.925338 0.000000 0.751310
#
# Coordination Sequence:
#
# PCOD9172045 Si02
#       8
#     8   8   8   8   8   8   8   8
#     4   8  14  25  41  62  88 121 157 189 223 265
#     4   9  16  26  42  62  87 122 161 196 229 269
#     4  10  18  29  46  66  91 122 158 201 242 276
#     4   9  18  31  46  67  97 127 156 192 233 279
#     4  10  20  32  45  64  92 126 162 199 238 279
#     4   9  17  31  52  76 101 128 156 186 226 282
#     4  12  23  34  48  66  89 122 165 208 245 278
#     4   8  15  27  44  68  95 122 152 188 231 277
#
# _framework density 16.716379
#
# number of rings (size 3 to 8) (size 9 to 14) (size 15 to 20)
#    0.000    2.625    1.250    1.500    0.000    1.750 
#    0.000    2.500    0.000    0.000    0.000   10.500 
#    0.000    0.000    0.000    0.000    0.000    0.000 
#
# Total GULP energy -178179.797048 kJ/mol
# GULP energy per Si atom -5568.118658 kJ/mol
# Density = 1.667833 g / cm^3
# Si number density = 16.716379 Si / 1000 Ang^3
#
#
#
# Elastic Constant Matrix: (Units=GPa)
#
#
# Indices 1 2 3 4 5 6 
#
# 1 153.3118 42.9001 44.0427 0.0000 1.0964 0.0000
# 2 42.9001 30.9864 26.5394 0.0000 2.9573 0.0000
# 3 44.0427 26.5394 73.0761 0.0000 6.6247 0.0000
# 4 0.0000 0.0000 0.0000 13.5241 0.0000 0.1530
# 5 1.0964 2.9573 6.6247 0.0000 14.9732 0.0000
# 6 0.0000 0.0000 0.0000 0.1530 0.0000 21.8802
#
#
#
# Elastic Compliance Matrix: (Units=1/GPa)
#
#
# Indices 1 2 3 4 5 6 
#
# 1 0.010874 -0.013775 -0.001798 0.000000 0.002720 0.000000
# 2 -0.013775 0.064339 -0.014589 0.000000 -0.005244 0.000000
# 3 -0.001798 -0.014589 0.020620 0.000000 -0.006110 0.000000
# 4 0.000000 0.000000 0.000000 0.073948 0.000000 -0.000517
# 5 0.002720 -0.005244 -0.006110 0.000000 0.070326 0.000000
# 6 0.000000 0.000000 0.000000 -0.000517 0.000000 0.045707
#
#
# Mechanical properties :
#
#
# Convention : Reuss Voigt Hill
#
# Bulk Modulus (GPa) = 28.16081 53.81538 40.98810
# Shear Modulus (GPa) = 13.96752 19.66832 16.81792
#
# Velocity S-wave (km/s) = 2.89374 3.43387 3.17531
# Velocity P-wave (km/s) = 5.29602 6.92712 6.16574
#
# Compressibility (1/GPa) = 0.03551034
#
# Stress axis : x y z
#
# Youngs Moduli (GPa) = 91.96095 15.54269 48.49668
#
# Poissons Ratio (x) = 0.21410 0.08718
# Poissons Ratio (y) = 1.26676 0.70750
# Poissons Ratio (z) = 0.16531 0.22675
#
# Static dielectric constant tensor:
#      x y z
#    x 1.606410 0.000000 0.015720 
#    y 0.000000 1.575140 0.000000 
#    z 0.015720 0.000000 1.581600 
# 
# From -- ./inp_files/248440.got.cif
#   From: 2010.05.17/outbox.cif.g08.bks.cpg/sg12_125_cif.got.tgz:248440.got - 2010.06.03 13:09:07.
