data_PCOD9172533
_publ_section_title
;
Structure prediction by ZEFSAII (Michael W. Deem and Ramdas Pophale) SiO2 
 PCOD9172533
Probable space group: C 2/M
;
_chemical_formula_sum "Si O2"
_cell_formula_units_Z 64
_cell_length_a 10.656674
_cell_length_b 14.518516
_cell_length_c 18.110303
_cell_angle_alpha 90.000000
_cell_angle_beta 79.772140
_cell_angle_gamma 90.000000
_cell_volume 2757.483978
_symmetry_space_group_name_H-M "C 2/M"
_symmetry_group_IT_number 12
_symmetry_cell_setting 'monoclinic'
loop_
_space_group_symop_operation_xyz
x,y,z
-x,y,-z
-x,-y,-z
x,-y,z
1/2+x,1/2+y,z
1/2-x,1/2+y,-z
1/2-x,1/2-y,-z
1/2+x,1/2-y,z
loop_
_atom_site_type_symbol
_atom_site_label
_atom_site_fract_x
_atom_site_fract_y
_atom_site_fract_z
Si Si1 0.966343 0.395905 0.298417
Si Si2 0.776277 0.901947 0.599202
Si Si3 0.047323 0.799568 0.314112
Si Si4 0.878772 0.196663 0.467219
Si Si5 0.299033 0.608250 0.935153
Si Si6 0.875764 0.302037 0.168236
Si Si7 0.408209 0.105262 0.937095
Si Si8 0.957012 0.106622 0.178473
O O1 0.015421 0.500000 0.284483
O O2 0.875893 0.393677 0.380467
O O3 0.873644 0.367370 0.240185
O O4 0.057492 0.307916 0.292352
O O5 0.840373 0.825818 0.643027
O O6 0.842570 0.897241 0.513008
O O7 0.807109 0.000000 0.631144
O O8 0.035482 0.865002 0.244356
O O9 0.920767 0.811604 0.378531
O O10 0.750000 0.250000 0.500000
O O11 0.000000 0.235861 0.500000
O O12 0.265653 0.500000 0.928680
O O13 0.224241 0.664735 0.881213
O O14 0.448194 0.614319 0.902230
O O15 0.232987 0.632283 0.020199
O O16 0.018925 0.324576 0.123148
O O17 0.861928 0.193457 0.184083
O O18 0.405987 0.000000 0.907839
O O19 0.500000 0.103337 0.000000
O O20 0.913061 0.000000 0.187053
#
# Coordination Sequence:
#
# PCOD9172533 Si02
#       8
#     8   8   8   8   8   8   8   8
#     4  10  19  32  52  77 104 135 173 220 274 334
#     4  10  20  34  57  81 104 139 186 229 268 322
#     4  10  20  33  54  77 106 138 176 223 275 320
#     4  10  20  36  58  86 116 148 185 234 286 336
#     4   9  17  32  53  75 101 133 173 224 271 318
#     4  10  18  29  51  76 100 137 173 220 269 320
#     4   8  14  26  47  75 102 128 170 222 269 317
#     4  10  21  34  50  76 106 138 179 220 266 321
#
# _framework density 23.209564
#
# number of rings (size 3 to 8) (size 9 to 14) (size 15 to 20)
#    0.000    2.375    1.250    3.000    0.000    5.250 
#    0.000    0.000    0.000   24.375    0.000    0.000 
#    0.000    0.000    0.000    0.000    0.000    0.000 
#
# Total GULP energy -178377.706580 kJ/mol
# GULP energy per Si atom -5574.303331 kJ/mol
# Density = 2.315674 g / cm^3
# Si number density = 23.209564 Si / 1000 Ang^3
#
#
#
# Elastic Constant Matrix: (Units=GPa)
#
#
# Indices 1 2 3 4 5 6 
#
# 1 32.0047 10.2638 5.5586 0.0000 -15.2756 0.0000
# 2 10.2638 156.4731 11.1928 0.0000 3.4321 0.0000
# 3 5.5586 11.1928 86.9680 0.0000 -28.3680 0.0000
# 4 0.0000 0.0000 0.0000 26.8693 0.0000 -1.0906
# 5 -15.2756 3.4321 -28.3680 0.0000 25.8058 0.0000
# 6 0.0000 0.0000 0.0000 -1.0906 0.0000 10.8345
#
#
#
# Elastic Compliance Matrix: (Units=1/GPa)
#
#
# Indices 1 2 3 4 5 6 
#
# 1 0.052197 -0.005257 0.011922 0.000000 0.044702 0.000000
# 2 -0.005257 0.007108 -0.002966 0.000000 -0.007317 0.000000
# 3 0.011922 -0.002966 0.021123 0.000000 0.030672 0.000000
# 4 0.000000 0.000000 0.000000 0.037370 0.000000 0.003762
# 5 0.044702 -0.007317 0.030672 0.000000 0.099902 0.000000
# 6 0.000000 0.000000 0.000000 0.003762 0.000000 0.092677
#
#
# Mechanical properties :
#
#
# Convention : Reuss Voigt Hill
#
# Bulk Modulus (GPa) = 11.38618 36.60848 23.99733
# Shear Modulus (GPa) = 15.04872 29.26394 22.15633
#
# Velocity S-wave (km/s) = 2.54910 3.55471 3.09305
# Velocity P-wave (km/s) = 3.68515 5.71447 4.80809
#
# Compressibility (1/GPa) = 0.08782574
#
# Stress axis : x y z
#
# Youngs Moduli (GPa) = 19.15830 140.67942 47.34191
#
# Poissons Ratio (x) = 0.73957 -0.56440
# Poissons Ratio (y) = 0.10072 0.14040
# Poissons Ratio (z) = -0.22840 0.41722
#
# Static dielectric constant tensor:
#      x y z
#    x 1.911090 0.000000 -0.058440 
#    y 0.000000 1.912150 0.000000 
#    z -0.058440 0.000000 1.972950 
# 
# From -- ./inp_files/305431.got.cif
#   From: 2010.05.17/outbox.cif.g08.bks.cpg/sg12_153_cif.got.tgz:305431.got - 2010.06.03 13:09:07.
