data_PCOD9172700
_publ_section_title
;
Structure prediction by ZEFSAII (Michael W. Deem and Ramdas Pophale) SiO2 
 PCOD9172700
Probable space group: C 2/M
;
_chemical_formula_sum "Si O2"
_cell_formula_units_Z 48
_cell_length_a 15.381035
_cell_length_b 22.780323
_cell_length_c 7.107274
_cell_angle_alpha 90.000000
_cell_angle_beta 117.147830
_cell_angle_gamma 90.000000
_cell_volume 2215.932968
_symmetry_space_group_name_H-M "C 2/M"
_symmetry_group_IT_number 12
_symmetry_cell_setting 'monoclinic'
loop_
_space_group_symop_operation_xyz
x,y,z
-x,y,-z
-x,-y,-z
x,-y,z
1/2+x,1/2+y,z
1/2-x,1/2+y,-z
1/2-x,1/2-y,-z
1/2+x,1/2-y,z
loop_
_atom_site_type_symbol
_atom_site_label
_atom_site_fract_x
_atom_site_fract_y
_atom_site_fract_z
Si Si1 0.237220 0.500000 0.272396
Si Si2 0.419831 0.500000 0.698013
Si Si3 0.050292 0.885897 0.795898
Si Si4 0.789872 0.122473 0.326778
Si Si5 0.000000 0.214773 0.000000
Si Si6 0.220294 0.749259 0.252289
Si Si7 0.711435 0.000000 0.660382
Si Si8 0.240878 0.121520 0.247470
O O1 0.352827 0.500000 0.444715
O O2 0.230014 0.565887 0.187190
O O3 0.178050 0.500000 0.409858
O O4 0.487106 0.443432 0.768279
O O5 0.331391 0.500000 0.761877
O O6 0.100465 0.882379 0.642321
O O7 0.143288 0.887602 0.030077
O O8 0.996925 0.827285 0.813517
O O9 0.755408 0.185712 0.221191
O O10 0.779956 0.119195 0.545113
O O11 0.896340 0.247344 0.895976
O O12 0.250000 0.750000 0.500000
O O13 0.268179 0.810756 0.230282
O O14 0.690365 0.064597 0.719968
#
# Coordination Sequence:
#
# PCOD9172700 Si02
#       8
#     4   4   8   8   4   8   4   8
#     4   8  19  33  46  77 101 135 183 205 254 332
#     4  10  18  30  46  74 112 137 163 204 260 329
#     4  11  21  30  50  73 106 139 168 206 259 317
#     4  10  20  36  50  69 103 142 170 217 259 305
#     4  10  22  35  50  83 102 136 192 214 258 332
#     4   9  19  36  54  71 106 142 176 224 267 306
#     4   8  15  29  44  63 104 131 155 201 245 305
#     4   9  18  33  45  73  97 136 175 198 249 316
#
# _framework density 21.661304000000001
#
# number of rings (size 3 to 8) (size 9 to 14) (size 15 to 20)
#    0.500    2.000    0.000    3.000    2.333    5.000 
#    0.000    0.000    0.000    0.500    0.000    0.000 
#    0.000    1.333    0.000   44.083    0.000    0.083 
#
# Total GULP energy -133632.329793 kJ/mol
# GULP energy per Si atom -5568.013741 kJ/mol
# Density = 2.161200 g / cm^3
# Si number density = 21.661304 Si / 1000 Ang^3
#
#
#
# Elastic Constant Matrix: (Units=GPa)
#
#
# Indices 1 2 3 4 5 6 
#
# 1 21.8609 11.9712 8.1181 0.0000 -5.8549 0.0000
# 2 11.9712 203.3113 8.7199 0.0000 6.7459 0.0000
# 3 8.1181 8.7199 66.5257 0.0000 -18.2828 0.0000
# 4 0.0000 0.0000 0.0000 13.0811 0.0000 21.9787
# 5 -5.8549 6.7459 -18.2828 0.0000 27.7150 0.0000
# 6 0.0000 0.0000 0.0000 21.9787 0.0000 21.8423
#
#
#
# Elastic Compliance Matrix: (Units=1/GPa)
#
#
# Indices 1 2 3 4 5 6 
#
# 1 0.051227 -0.003192 -0.003231 0.000000 0.009467 0.000000
# 2 -0.003192 0.005237 -0.001017 0.000000 -0.002620 0.000000
# 3 -0.003231 -0.001017 0.018859 0.000000 0.012006 0.000000
# 4 0.000000 0.000000 0.000000 -0.110683 0.000000 0.111374
# 5 0.009467 -0.002620 0.012006 0.000000 0.046639 0.000000
# 6 0.000000 0.000000 0.000000 0.111374 0.000000 -0.066287
#
#
# Mechanical properties :
#
#
# Convention : Reuss Voigt Hill
#
# Bulk Modulus (GPa) = 16.54441 38.81293 27.67867
# Shear Modulus (GPa) = -250.25250 30.05358 -110.09946
#
# Velocity S-wave (km/s) = -10.76014 3.72887 -7.13709
# Velocity P-wave (km/s) = 12.11279 6.04121 7.42373
#
# Compressibility (1/GPa) = 0.06044338
#
# Stress axis : x y z
#
# Youngs Moduli (GPa) = 19.52087 190.94720 53.02565
#
# Poissons Ratio (x) = 0.60948 0.17133
# Poissons Ratio (y) = 0.06231 0.05392
# Poissons Ratio (z) = 0.06307 0.19418
#
# Static dielectric constant tensor:
#      x y z
#    x 1.796690 0.000000 -0.061270 
#    y 0.000000 1.910400 0.000000 
#    z -0.061270 0.000000 1.883080 
# 
# From -- ./inp_files/77060.got.cif
#   From: 2010.05.17/outbox.cif.g08.bks.cpg/sg12_39_cif.got.tgz:77060.got - 2010.06.03 13:09:07.
