data_PCOD9172617
_publ_section_title
;
Structure prediction by ZEFSAII (Michael W. Deem and Ramdas Pophale) SiO2 
 PCOD9172617
Probable space group: C 2/M
;
_chemical_formula_sum "Si O2"
_cell_formula_units_Z 32
_cell_length_a 6.594009
_cell_length_b 30.654947
_cell_length_c 6.599548
_cell_angle_alpha 90.000000
_cell_angle_beta 67.203330
_cell_angle_gamma 90.000000
_cell_volume 1229.819465
_symmetry_space_group_name_H-M "C 2/M"
_symmetry_group_IT_number 12
_symmetry_cell_setting 'monoclinic'
loop_
_space_group_symop_operation_xyz
x,y,z
-x,y,-z
-x,-y,-z
x,-y,z
1/2+x,1/2+y,z
1/2-x,1/2+y,-z
1/2-x,1/2-y,-z
1/2+x,1/2-y,z
loop_
_atom_site_type_symbol
_atom_site_label
_atom_site_fract_x
_atom_site_fract_y
_atom_site_fract_z
Si Si1 0.285201 0.052121 0.707908
Si Si2 0.138327 0.898843 0.132744
Si Si3 0.203284 0.190158 0.196684
Si Si4 0.716957 0.211632 0.297322
O O1 0.500000 0.065120 0.500000
O O2 0.060084 0.072170 0.702273
O O3 0.269200 0.000000 0.717000
O O4 0.291271 0.070152 0.936426
O O5 0.249838 0.860866 0.219811
O O6 0.000000 0.875910 0.000000
O O7 0.256798 0.235984 0.284459
O O8 0.937416 0.191341 0.300662
O O9 0.296257 0.198628 0.933607
O O10 0.500000 0.197814 0.500000
#
# Coordination Sequence:
#
# PCOD9172617 Si02
#       4
#     8   8   8   8
#     4   8  13  22  37  55  79 105 129 158 203 253
#     4   8  15  24  35  55  81 106 130 162 204 242
#     4  10  19  30  42  62  85 112 149 174 204 250
#     4  10  18  30  44  59  81 114 147 180 209 239
#
# _framework density 26.020078000000002
#
# number of rings (size 3 to 8) (size 9 to 14) (size 15 to 20)
#    1.500    1.250    2.500    2.250    0.000    4.000 
#    0.000    0.000    0.000    0.000    0.000    0.000 
#    0.000    4.000    0.000  173.500    0.000    7.000 
#
# Total GULP energy -89307.193553 kJ/mol
# GULP energy per Si atom -5581.699597 kJ/mol
# Density = 2.596086 g / cm^3
# Si number density = 26.020078 Si / 1000 Ang^3
#
#
#
# Elastic Constant Matrix: (Units=GPa)
#
#
# Indices 1 2 3 4 5 6 
#
# 1 54.6786 25.8712 46.2889 0.0000 -6.7428 0.0000
# 2 25.8712 156.4461 63.5827 0.0000 -17.5694 0.0000
# 3 46.2889 63.5827 193.8691 0.0000 -55.3372 0.0000
# 4 0.0000 0.0000 0.0000 71.8700 0.0000 -8.0028
# 5 -6.7428 -17.5694 -55.3372 0.0000 50.2467 0.0000
# 6 0.0000 0.0000 0.0000 -8.0028 0.0000 35.0417
#
#
#
# Elastic Compliance Matrix: (Units=1/GPa)
#
#
# Indices 1 2 3 4 5 6 
#
# 1 0.024047 -0.001877 -0.006406 0.000000 -0.004484 0.000000
# 2 -0.001877 0.007522 -0.001954 0.000000 0.000226 0.000000
# 3 -0.006406 -0.001954 0.010046 0.000000 0.009521 0.000000
# 4 0.000000 0.000000 0.000000 0.014277 0.000000 0.003261
# 5 -0.004484 0.000226 0.009521 0.000000 0.029865 0.000000
# 6 0.000000 0.000000 0.000000 0.003261 0.000000 0.029282
#
#
# Mechanical properties :
#
#
# Convention : Reuss Voigt Hill
#
# Bulk Modulus (GPa) = 47.30165 75.16438 61.23301
# Shear Modulus (GPa) = 35.07304 49.38177 42.22740
#
# Velocity S-wave (km/s) = 3.67539 4.36114 4.03287
# Velocity P-wave (km/s) = 6.01911 7.36947 6.72826
#
# Compressibility (1/GPa) = 0.02114091
#
# Stress axis : x y z
#
# Youngs Moduli (GPa) = 41.58580 132.94350 99.53969
#
# Poissons Ratio (x) = 0.24949 0.63765
# Poissons Ratio (y) = 0.07804 0.19454
# Poissons Ratio (z) = 0.26640 0.25983
#
# Static dielectric constant tensor:
#      x y z
#    x 2.238490 0.000000 0.083370 
#    y 0.000000 1.960240 0.000000 
#    z 0.083370 0.000000 2.134080 
# 
# From -- ./inp_files/40068.got.cif
#   From: 2010.05.17/outbox.cif.g08.bks.cpg/sg12_21_cif.got.tgz:40068.got - 2010.06.03 13:09:07.
