data_PCOD9172949
_publ_section_title
;
Structure prediction by ZEFSAII (Michael W. Deem and Ramdas Pophale) SiO2 
 PCOD9172949
Probable space group: C 2/M
;
_chemical_formula_sum "Si O2"
_cell_formula_units_Z 56
_cell_length_a 29.280563
_cell_length_b 9.067864
_cell_length_c 13.820361
_cell_angle_alpha 90.000000
_cell_angle_beta 77.045422
_cell_angle_gamma 90.000000
_cell_volume 3576.078829
_symmetry_space_group_name_H-M "C 2/M"
_symmetry_group_IT_number 12
_symmetry_cell_setting 'monoclinic'
loop_
_space_group_symop_operation_xyz
x,y,z
-x,y,-z
-x,-y,-z
x,-y,z
1/2+x,1/2+y,z
1/2-x,1/2+y,-z
1/2-x,1/2-y,-z
1/2+x,1/2-y,z
loop_
_atom_site_type_symbol
_atom_site_label
_atom_site_fract_x
_atom_site_fract_y
_atom_site_fract_z
Si Si1 0.535255 0.825052 0.779366
Si Si2 0.048744 0.830224 0.082732
Si Si3 0.478343 0.822982 0.613737
Si Si4 0.608485 0.671650 0.250883
Si Si5 0.299307 0.175962 0.092642
Si Si6 0.800217 0.675781 0.863141
Si Si7 0.889370 0.824662 0.136530
O O1 0.494582 0.774687 0.873136
O O2 0.514321 0.786291 0.683817
O O3 0.582449 0.741798 0.786614
O O4 0.542141 0.000000 0.781229
O O5 0.083804 0.820001 0.157023
O O6 0.031554 0.000000 0.085965
O O7 0.077389 0.796846 0.972700
O O8 0.500000 0.783660 0.500000
O O9 0.429322 0.743700 0.659454
O O10 0.471136 0.000000 0.620301
O O11 0.616272 0.500000 0.269597
O O12 0.657057 0.757990 0.218045
O O13 0.249006 0.247795 0.138275
O O14 0.340348 0.246997 0.136450
O O15 0.297704 0.000000 0.105906
O O16 0.308923 0.205888 0.973707
O O17 0.797056 0.500000 0.852864
O O18 0.883272 0.000000 0.148280
#
# Coordination Sequence:
#
# PCOD9172949 Si02
#       7
#     8   8   8   8   8   8   8
#     4  10  20  31  46  68  92 121 160 200 238 285
#     4   9  18  30  43  62  92 129 162 192 230 278
#     4   9  19  36  54  72  96 125 158 200 249 295
#     4  10  18  30  49  72  98 127 162 201 240 284
#     4  10  20  31  46  67  95 130 169 206 235 271
#     4  10  19  31  47  68  96 130 166 201 240 281
#     4  11  20  31  45  64  95 132 164 194 235 282
#
# _framework density 15.659610000000001
#
# number of rings (size 3 to 8) (size 9 to 14) (size 15 to 20)
#    0.000    2.143    1.429    2.571    0.000    5.429 
#    0.000    0.000    0.000    0.000    0.000    1.000 
#    0.000    0.000    0.000    0.000    0.000    0.000 
#
# Total GULP energy -156242.477028 kJ/mol
# GULP energy per Si atom -5580.088465 kJ/mol
# Density = 1.562397 g / cm^3
# Si number density = 15.659610 Si / 1000 Ang^3
#
#
#
# Elastic Constant Matrix: (Units=GPa)
#
#
# Indices 1 2 3 4 5 6 
#
# 1 134.0141 74.6914 49.7629 0.0000 -12.8329 0.0000
# 2 74.6914 71.0343 42.5408 0.0000 -11.0042 0.0000
# 3 49.7629 42.5408 76.8172 0.0000 -15.1306 0.0000
# 4 0.0000 0.0000 0.0000 17.2738 0.0000 -4.2421
# 5 -12.8329 -11.0042 -15.1306 0.0000 14.6327 0.0000
# 6 0.0000 0.0000 0.0000 -4.2421 0.0000 32.9262
#
#
#
# Elastic Compliance Matrix: (Units=1/GPa)
#
#
# Indices 1 2 3 4 5 6 
#
# 1 0.018192 -0.018024 -0.001671 0.000000 0.000672 0.000000
# 2 -0.018024 0.039186 -0.009210 0.000000 0.004139 0.000000
# 3 -0.001671 -0.009210 0.022036 0.000000 0.014394 0.000000
# 4 0.000000 0.000000 0.000000 0.059783 0.000000 0.007702
# 5 0.000672 0.004139 0.014394 0.000000 0.086926 0.000000
# 6 0.000000 0.000000 0.000000 0.007702 0.000000 0.031363
#
#
# Mechanical properties :
#
#
# Convention : Reuss Voigt Hill
#
# Bulk Modulus (GPa) = 46.28598 68.42846 57.35722
# Shear Modulus (GPa) = 15.50395 20.62455 18.06425
#
# Velocity S-wave (km/s) = 3.14994 3.63306 3.40009
# Velocity P-wave (km/s) = 6.54608 7.83525 7.21950
#
# Compressibility (1/GPa) = 0.02160481
#
# Stress axis : x y z
#
# Youngs Moduli (GPa) = 54.96837 25.51915 45.38012
#
# Poissons Ratio (x) = 0.45995 0.07584
# Poissons Ratio (y) = 0.99074 0.41794
# Poissons Ratio (z) = 0.09187 0.23503
#
# Static dielectric constant tensor:
#      x y z
#    x 1.518510 0.000000 0.011440 
#    y 0.000000 1.521390 0.000000 
#    z 0.011440 0.000000 1.499120 
# 
# From -- ./inp_files/243044.got.cif
#   From: 2010.05.17/outbox.cif.g08.bks.cpg/sg12_122_cif.got.tgz:243044.got - 2010.06.03 13:09:07.
