data_PCOD9172311
_publ_section_title
;
Structure prediction by ZEFSAII (Michael W. Deem and Ramdas Pophale) SiO2 
 PCOD9172311
Probable space group: C 2/M
;
_chemical_formula_sum "Si O2"
_cell_formula_units_Z 56
_cell_length_a 18.998688
_cell_length_b 7.813189
_cell_length_c 23.739577
_cell_angle_alpha 90.000000
_cell_angle_beta 126.065816
_cell_angle_gamma 90.000000
_cell_volume 2848.522593
_symmetry_space_group_name_H-M "C 2/M"
_symmetry_group_IT_number 12
_symmetry_cell_setting 'monoclinic'
loop_
_space_group_symop_operation_xyz
x,y,z
-x,y,-z
-x,-y,-z
x,-y,z
1/2+x,1/2+y,z
1/2-x,1/2+y,-z
1/2-x,1/2-y,-z
1/2+x,1/2-y,z
loop_
_atom_site_type_symbol
_atom_site_label
_atom_site_fract_x
_atom_site_fract_y
_atom_site_fract_z
Si Si1 0.666003 0.706114 0.996878
Si Si2 0.178266 0.789926 0.131298
Si Si3 0.147213 0.695833 0.284884
Si Si4 0.093184 0.289902 0.566844
Si Si5 0.755755 0.796573 0.567668
Si Si6 0.518393 0.706442 0.136110
Si Si7 0.196909 0.695258 0.717605
O O1 0.659350 0.500000 0.996669
O O2 0.576645 0.769275 0.926266
O O3 0.750000 0.750000 0.000000
O O4 0.674982 0.767425 0.065460
O O5 0.091421 0.739397 0.124715
O O6 0.262565 0.728558 0.206394
O O7 0.180282 0.000000 0.133145
O O8 0.168614 0.500000 0.282322
O O9 0.162749 0.726528 0.358085
O O10 0.054522 0.736281 0.213752
O O11 0.219088 0.805941 0.284862
O O12 0.093399 0.500000 0.568551
O O13 0.169221 0.235673 0.559792
O O14 0.121177 0.229375 0.642576
O O15 0.000000 0.234841 0.500000
O O16 0.750000 0.750000 0.500000
O O17 0.758832 0.000000 0.573666
O O18 0.517276 0.500000 0.135412
O O19 0.171619 0.500000 0.718575
#
# Coordination Sequence:
#
# PCOD9172311 Si02
#       7
#     8   8   8   8   8   8   8
#     4  10  20  33  49  70  99 131 159 195 245 298
#     4   8  14  28  51  73  89 117 166 207 234 278
#     4  10  18  29  48  73  98 123 157 202 247 289
#     4   8  14  26  46  71  96 123 158 198 236 276
#     4  10  19  32  50  72 101 133 164 200 241 286
#     4   9  17  32  53  72  91 121 163 205 242 284
#     4   8  14  27  48  70  92 121 158 201 243 282
#
# _framework density 19.659314999999999
#
# number of rings (size 3 to 8) (size 9 to 14) (size 15 to 20)
#    0.000    3.000    0.000    3.857    0.000    2.286 
#    0.000    4.286    0.000   18.429    0.000    0.000 
#    0.000    0.000    0.000    0.000    0.000    0.000 
#
# Total GULP energy -156006.872835 kJ/mol
# GULP energy per Si atom -5571.674030 kJ/mol
# Density = 1.961457 g / cm^3
# Si number density = 19.659315 Si / 1000 Ang^3
#
#
#
# Elastic Constant Matrix: (Units=GPa)
#
#
# Indices 1 2 3 4 5 6 
#
# 1 66.1754 5.0056 86.4425 0.0000 11.3234 0.0000
# 2 5.0056 39.1828 12.2388 0.0000 0.4630 0.0000
# 3 86.4425 12.2388 251.7018 0.0000 19.7989 0.0000
# 4 0.0000 0.0000 0.0000 13.2753 0.0000 -4.4480
# 5 11.3234 0.4630 19.7989 0.0000 29.6098 0.0000
# 6 0.0000 0.0000 0.0000 -4.4480 0.0000 13.4023
#
#
#
# Elastic Compliance Matrix: (Units=1/GPa)
#
#
# Indices 1 2 3 4 5 6 
#
# 1 0.027981 -0.000640 -0.009223 0.000000 -0.004524 0.000000
# 2 -0.000640 0.025936 -0.001086 0.000000 0.000565 0.000000
# 3 -0.009223 -0.001086 0.007298 0.000000 -0.001336 0.000000
# 4 0.000000 0.000000 0.000000 0.084753 0.000000 0.028128
# 5 -0.004524 0.000565 -0.001336 0.000000 0.036387 0.000000
# 6 0.000000 0.000000 0.000000 0.028128 0.000000 0.083949
#
#
# Mechanical properties :
#
#
# Convention : Reuss Voigt Hill
#
# Bulk Modulus (GPa) = 25.43392 62.71485 44.07438
# Shear Modulus (GPa) = 16.59437 28.14900 22.37169
#
# Velocity S-wave (km/s) = 2.90849 3.78807 3.37704
# Velocity P-wave (km/s) = 4.92387 7.14862 6.13788
#
# Compressibility (1/GPa) = 0.03931758
#
# Stress axis : x y z
#
# Youngs Moduli (GPa) = 35.73857 38.55695 137.02049
#
# Poissons Ratio (x) = 0.02469 1.26368
# Poissons Ratio (y) = 0.02289 0.14875
# Poissons Ratio (z) = 0.32960 0.04186
#
# Static dielectric constant tensor:
#      x y z
#    x 1.654530 0.000000 0.011000 
#    y 0.000000 1.733630 0.000000 
#    z 0.011000 0.000000 1.744790 
# 
# From -- ./inp_files/313774.got.cif
#   From: 2010.05.17/outbox.cif.g08.bks.cpg/sg12_157_cif.got.tgz:313774.got - 2010.06.03 13:09:07.
