data_PCOD9172327
_publ_section_title
;
Structure prediction by ZEFSAII (Michael W. Deem and Ramdas Pophale) SiO2 
 PCOD9172327
Probable space group: C 2/M
;
_chemical_formula_sum "Si O2"
_cell_formula_units_Z 48
_cell_length_a 29.003163
_cell_length_b 8.785913
_cell_length_c 11.560691
_cell_angle_alpha 90.000000
_cell_angle_beta 102.036627
_cell_angle_gamma 90.000000
_cell_volume 2881.119984
_symmetry_space_group_name_H-M "C 2/M"
_symmetry_group_IT_number 12
_symmetry_cell_setting 'monoclinic'
loop_
_space_group_symop_operation_xyz
x,y,z
-x,y,-z
-x,-y,-z
x,-y,z
1/2+x,1/2+y,z
1/2-x,1/2+y,-z
1/2-x,1/2-y,-z
1/2+x,1/2-y,z
loop_
_atom_site_type_symbol
_atom_site_label
_atom_site_fract_x
_atom_site_fract_y
_atom_site_fract_z
Si Si1 0.157767 0.682570 0.280170
Si Si2 0.861283 0.817024 0.474545
Si Si3 0.046486 0.682140 0.596524
Si Si4 0.024427 0.183449 0.833227
Si Si5 0.926905 0.183055 0.901612
Si Si6 0.740694 0.682886 0.621988
O O1 0.155096 0.500000 0.286731
O O2 0.144094 0.752163 0.398205
O O3 0.120654 0.741950 0.167784
O O4 0.212410 0.726959 0.282899
O O5 0.907407 0.752722 0.437980
O O6 0.813213 0.773315 0.379694
O O7 0.864002 0.000000 0.482481
O O8 0.050024 0.500000 0.595748
O O9 0.040097 0.739260 0.723758
O O10 0.000000 0.727760 0.500000
O O11 0.970945 0.225191 0.841628
O O12 0.025776 0.000000 0.821310
O O13 0.057199 0.223552 0.960122
O O14 0.922499 0.000000 0.894429
O O15 0.741011 0.500000 0.615593
O O16 0.750000 0.750000 0.500000
#
# Coordination Sequence:
#
# PCOD9172327 Si02
#       6
#     8   8   8   8   8   8
#     4  10  18  29  48  75 103 126 154 196 243 285
#     4  10  19  32  50  70  96 131 165 196 233 280
#     4  11  23  35  48  71 101 128 156 194 240 287
#     4   9  19  35  52  70  95 128 163 197 232 277
#     4   9  18  33  52  73  96 124 161 199 234 278
#     4   8  16  29  45  68  96 125 157 194 236 280
#
# _framework density 16.660188000000002
#
# number of rings (size 3 to 8) (size 9 to 14) (size 15 to 20)
#    0.000    2.500    0.000    3.500    0.000    6.667 
#    0.000    1.667    0.000    1.000    0.000    0.000 
#    0.000    0.000    0.000    0.000    0.000    0.000 
#
# Total GULP energy -133754.694527 kJ/mol
# GULP energy per Si atom -5573.112272 kJ/mol
# Density = 1.662227 g / cm^3
# Si number density = 16.660188 Si / 1000 Ang^3
#
#
#
# Elastic Constant Matrix: (Units=GPa)
#
#
# Indices 1 2 3 4 5 6 
#
# 1 158.6129 45.7065 72.3275 0.0000 29.0457 0.0000
# 2 45.7065 31.2922 30.5273 0.0000 8.6703 0.0000
# 3 72.3275 30.5273 75.5325 0.0000 18.6946 0.0000
# 4 0.0000 0.0000 0.0000 30.9090 0.0000 4.9451
# 5 29.0457 8.6703 18.6946 0.0000 34.2403 0.0000
# 6 0.0000 0.0000 0.0000 4.9451 0.0000 25.0109
#
#
#
# Elastic Compliance Matrix: (Units=1/GPa)
#
#
# Indices 1 2 3 4 5 6 
#
# 1 0.013980 -0.011868 -0.007399 0.000000 -0.004814 0.000000
# 2 -0.011868 0.062951 -0.014597 0.000000 0.002097 0.000000
# 3 -0.007399 -0.014597 0.027467 0.000000 -0.005024 0.000000
# 4 0.000000 0.000000 0.000000 0.033410 0.000000 -0.006606
# 5 -0.004814 0.002097 -0.005024 0.000000 0.035501 0.000000
# 6 0.000000 0.000000 0.000000 -0.006606 0.000000 0.041289
#
#
# Mechanical properties :
#
#
# Convention : Reuss Voigt Hill
#
# Bulk Modulus (GPa) = 27.26963 62.50669 44.88816
# Shear Modulus (GPa) = 16.97516 25.82380 21.39948
#
# Velocity S-wave (km/s) = 3.19549 3.94131 3.58784
# Velocity P-wave (km/s) = 5.47892 7.63623 6.64570
#
# Compressibility (1/GPa) = 0.03667083
#
# Stress axis : x y z
#
# Youngs Moduli (GPa) = 71.53094 15.88545 36.40732
#
# Poissons Ratio (x) = 0.18853 0.26936
# Poissons Ratio (y) = 0.84892 0.53143
# Poissons Ratio (z) = 0.52923 0.23188
#
# Static dielectric constant tensor:
#      x y z
#    x 1.578330 0.000000 0.037320 
#    y 0.000000 1.559130 0.000000 
#    z 0.037320 0.000000 1.541200 
# 
# From -- ./inp_files/185969.got.cif
#   From: 2010.05.17/outbox.cif.g08.bks.cpg/sg12_93_cif.got.tgz:185969.got - 2010.06.03 13:09:07.
