data_PCOD9172671
_publ_section_title
;
Structure prediction by ZEFSAII (Michael W. Deem and Ramdas Pophale) SiO2 
 PCOD9172671
Probable space group: C 2/M
;
_chemical_formula_sum "Si O2"
_cell_formula_units_Z 56
_cell_length_a 20.897364
_cell_length_b 9.107522
_cell_length_c 19.483371
_cell_angle_alpha 90.000000
_cell_angle_beta 68.891080
_cell_angle_gamma 90.000000
_cell_volume 3459.312179
_symmetry_space_group_name_H-M "C 2/M"
_symmetry_group_IT_number 12
_symmetry_cell_setting 'monoclinic'
loop_
_space_group_symop_operation_xyz
x,y,z
-x,y,-z
-x,-y,-z
x,-y,z
1/2+x,1/2+y,z
1/2-x,1/2+y,-z
1/2-x,1/2-y,-z
1/2+x,1/2-y,z
loop_
_atom_site_type_symbol
_atom_site_label
_atom_site_fract_x
_atom_site_fract_y
_atom_site_fract_z
Si Si1 0.180730 0.675741 0.997884
Si Si2 0.301722 0.824361 0.690722
Si Si3 0.060030 0.823345 0.305037
Si Si4 0.199313 0.324085 0.466279
Si Si5 0.540916 0.824174 0.554469
Si Si6 0.616175 0.670115 0.142057
Si Si7 0.735883 0.170158 0.837057
O O1 0.186616 0.500000 0.000870
O O2 0.121979 0.734683 0.071098
O O3 0.250000 0.750000 0.000000
O O4 0.180708 0.712341 0.916782
O O5 0.373349 0.748543 0.684642
O O6 0.285622 0.783758 0.618585
O O7 0.245152 0.769493 0.766869
O O8 0.310130 0.000000 0.691666
O O9 0.064123 0.784604 0.222459
O O10 0.994545 0.761656 0.369846
O O11 0.064800 0.000000 0.307905
O O12 0.205340 0.500000 0.469033
O O13 0.250000 0.250000 0.500000
O O14 0.120323 0.286275 0.513183
O O15 0.500000 0.790773 0.500000
O O16 0.535007 0.000000 0.567970
O O17 0.604941 0.500000 0.128213
O O18 0.690344 0.677399 0.152087
O O19 0.725621 0.000000 0.821510
#
# Coordination Sequence:
#
# PCOD9172671 Si02
#       7
#     8   8   8   8   8   8   8
#     4   9  15  22  33  51  79 114 151 185 224 273
#     4  10  18  30  46  65  90 122 158 195 237 283
#     4  10  19  29  44  69  94 120 157 198 236 278
#     4  10  22  37  52  71  96 126 158 198 243 284
#     4  10  19  35  53  70  96 124 157 201 240 281
#     4   8  15  25  35  53  85 116 147 187 227 270
#     4   8  15  25  36  56  84 114 151 194 230 271
#
# _framework density 16.188189000000001
#
# number of rings (size 3 to 8) (size 9 to 14) (size 15 to 20)
#    0.000    2.714    1.429    3.000    0.000    8.286 
#    0.000    0.000    0.000    0.000    0.000    0.000 
#    0.000    1.143    0.000   12.571    0.000   11.286 
#
# Total GULP energy -155907.419526 kJ/mol
# GULP energy per Si atom -5568.122126 kJ/mol
# Density = 1.615134 g / cm^3
# Si number density = 16.188189 Si / 1000 Ang^3
#
#
#
# Elastic Constant Matrix: (Units=GPa)
#
#
# Indices 1 2 3 4 5 6 
#
# 1 51.3294 24.7520 43.2786 0.0000 3.6132 0.0000
# 2 24.7520 52.0954 71.9491 0.0000 4.1427 0.0000
# 3 43.2786 71.9491 189.2608 0.0000 5.3656 0.0000
# 4 0.0000 0.0000 0.0000 35.5006 0.0000 -0.1560
# 5 3.6132 4.1427 5.3656 0.0000 8.9752 0.0000
# 6 0.0000 0.0000 0.0000 -0.1560 0.0000 16.0907
#
#
#
# Elastic Compliance Matrix: (Units=1/GPa)
#
#
# Indices 1 2 3 4 5 6 
#
# 1 0.026095 -0.008321 -0.002660 0.000000 -0.005074 0.000000
# 2 -0.008321 0.043904 -0.014555 0.000000 -0.008214 0.000000
# 3 -0.002660 -0.014555 0.011397 0.000000 0.000975 0.000000
# 4 0.000000 0.000000 0.000000 0.028170 0.000000 0.000273
# 5 -0.005074 -0.008214 0.000975 0.000000 0.116669 0.000000
# 6 0.000000 0.000000 0.000000 0.000273 0.000000 0.062150
#
#
# Mechanical properties :
#
#
# Convention : Reuss Voigt Hill
#
# Bulk Modulus (GPa) = 32.97691 63.62721 48.30206
# Shear Modulus (GPa) = 14.30350 22.29369 18.29859
#
# Velocity S-wave (km/s) = 2.97573 3.71503 3.36574
# Velocity P-wave (km/s) = 5.67642 7.60211 6.70872
#
# Compressibility (1/GPa) = 0.03032425
#
# Stress axis : x y z
#
# Youngs Moduli (GPa) = 38.32225 22.77690 87.73895
#
# Poissons Ratio (x) = 0.18953 0.23337
# Poissons Ratio (y) = 0.31889 1.27703
# Poissons Ratio (z) = 0.10193 0.33151
#
# Static dielectric constant tensor:
#      x y z
#    x 1.503600 0.000000 -0.011310 
#    y 0.000000 1.546710 0.000000 
#    z -0.011310 0.000000 1.601640 
# 
# From -- ./inp_files/314381.got.cif
#   From: 2010.05.17/outbox.cif.g08.bks.cpg/sg12_158_cif.got.tgz:314381.got - 2010.06.03 13:09:07.
