data_PCOD9172123
_publ_section_title
;
Structure prediction by ZEFSAII (Michael W. Deem and Ramdas Pophale) SiO2 
 PCOD9172123
Probable space group: C 2/M
;
_chemical_formula_sum "Si O2"
_cell_formula_units_Z 40
_cell_length_a 20.502444
_cell_length_b 11.107795
_cell_length_c 9.894111
_cell_angle_alpha 90.000000
_cell_angle_beta 55.045893
_cell_angle_gamma 90.000000
_cell_volume 1846.792732
_symmetry_space_group_name_H-M "C 2/M"
_symmetry_group_IT_number 12
_symmetry_cell_setting 'monoclinic'
loop_
_space_group_symop_operation_xyz
x,y,z
-x,y,-z
-x,-y,-z
x,-y,z
1/2+x,1/2+y,z
1/2-x,1/2+y,-z
1/2-x,1/2-y,-z
1/2+x,1/2-y,z
loop_
_atom_site_type_symbol
_atom_site_label
_atom_site_fract_x
_atom_site_fract_y
_atom_site_fract_z
Si Si1 0.433512 0.629143 0.966510
Si Si2 0.297737 0.872318 0.962727
Si Si3 0.802359 0.280467 0.245745
Si Si4 0.651202 0.860810 0.509334
Si Si5 0.528271 0.863807 0.252011
O O1 0.427578 0.500000 0.901224
O O2 0.460335 0.744443 0.849751
O O3 0.500000 0.618724 0.000000
O O4 0.352759 0.664578 0.138657
O O5 0.310991 0.869820 0.109210
O O6 0.259318 0.000000 0.971534
O O7 0.250000 0.750000 0.000000
O O8 0.383507 0.867633 0.787134
O O9 0.712295 0.234534 0.372714
O O10 0.838274 0.334123 0.341348
O O11 0.558358 0.848024 0.578907
O O12 0.674443 0.000000 0.457328
O O13 0.521964 0.000000 0.196783
#
# Coordination Sequence:
#
# PCOD9172123 Si02
#       5
#     8   8   8   8   8
#     4  10  18  29  46  75 110 143 177 215 265 322
#     4  10  22  39  60  81 107 145 192 234 272 321
#     4  10  20  34  54  82 114 149 179 221 274 332
#     4  10  19  33  55  84 115 144 177 221 278 335
#     4   9  19  35  55  80 106 141 184 228 275 325
#
# _framework density 21.659171000000001
#
# number of rings (size 3 to 8) (size 9 to 14) (size 15 to 20)
#    0.000    2.200    2.000    1.200    0.000    5.200 
#    0.000    2.000    0.000    4.800    0.000    0.000 
#    0.000    0.000    0.000    0.000    0.000    0.000 
#
# Total GULP energy -111351.872140 kJ/mol
# GULP energy per Si atom -5567.593607 kJ/mol
# Density = 2.160987 g / cm^3
# Si number density = 21.659171 Si / 1000 Ang^3
#
#
#
# Elastic Constant Matrix: (Units=GPa)
#
#
# Indices 1 2 3 4 5 6 
#
# 1 58.6189 29.3308 34.7202 0.0000 -25.9373 0.0000
# 2 29.3308 174.1287 37.1187 0.0000 -15.6978 0.0000
# 3 34.7202 37.1187 112.0744 0.0000 -20.8410 0.0000
# 4 0.0000 0.0000 0.0000 19.8860 0.0000 -7.8367
# 5 -25.9373 -15.6978 -20.8410 0.0000 41.8055 0.0000
# 6 0.0000 0.0000 0.0000 -7.8367 0.0000 34.9643
#
#
#
# Elastic Compliance Matrix: (Units=1/GPa)
#
#
# Indices 1 2 3 4 5 6 
#
# 1 0.027212 -0.002267 -0.005178 0.000000 0.013451 0.000000
# 2 -0.002267 0.006447 -0.001371 0.000000 0.000330 0.000000
# 3 -0.005178 -0.001371 0.011339 0.000000 0.001925 0.000000
# 4 0.000000 0.000000 0.000000 0.055159 0.000000 0.012363
# 5 0.013451 0.000330 0.001925 0.000000 0.033349 0.000000
# 6 0.000000 0.000000 0.000000 0.012363 0.000000 0.031372
#
#
# Mechanical properties :
#
#
# Convention : Reuss Voigt Hill
#
# Bulk Modulus (GPa) = 36.54353 60.79573 48.66963
# Shear Modulus (GPa) = 26.09155 35.57464 30.83309
#
# Velocity S-wave (km/s) = 3.47456 4.05714 3.77710
# Velocity P-wave (km/s) = 5.74504 7.07654 6.44527
#
# Compressibility (1/GPa) = 0.02736462
#
# Stress axis : x y z
#
# Youngs Moduli (GPa) = 36.74804 155.11305 88.19133
#
# Poissons Ratio (x) = 0.35170 0.45666
# Poissons Ratio (y) = 0.08332 0.12094
# Poissons Ratio (z) = 0.19029 0.21271
#
# Static dielectric constant tensor:
#      x y z
#    x 1.882510 0.000000 0.017970 
#    y 0.000000 1.807830 0.000000 
#    z 0.017970 0.000000 1.803390 
# 
# From -- ./inp_files/163903.got.cif
#   From: 2010.05.17/outbox.cif.g08.bks.cpg/sg12_82_cif.got.tgz:163903.got - 2010.06.03 13:09:07.
