data_PCOD9172769
_publ_section_title
;
Structure prediction by ZEFSAII (Michael W. Deem and Ramdas Pophale) SiO2 
 PCOD9172769
Probable space group: C 2/M
;
_chemical_formula_sum "Si O2"
_cell_formula_units_Z 56
_cell_length_a 13.401622
_cell_length_b 23.435977
_cell_length_c 29.459840
_cell_angle_alpha 90.000000
_cell_angle_beta 161.390195
_cell_angle_gamma 90.000000
_cell_volume 2952.751305
_symmetry_space_group_name_H-M "C 2/M"
_symmetry_group_IT_number 12
_symmetry_cell_setting 'monoclinic'
loop_
_space_group_symop_operation_xyz
x,y,z
-x,y,-z
-x,-y,-z
x,-y,z
1/2+x,1/2+y,z
1/2-x,1/2+y,-z
1/2-x,1/2-y,-z
1/2+x,1/2-y,z
loop_
_atom_site_type_symbol
_atom_site_label
_atom_site_fract_x
_atom_site_fract_y
_atom_site_fract_z
Si Si1 0.688866 0.160080 0.699009
Si Si2 0.420518 0.128838 0.856327
Si Si3 0.803066 0.344790 0.114639
Si Si4 0.234990 0.175931 0.421164
Si Si5 0.311424 0.223465 0.963544
Si Si6 0.718956 0.565928 0.914899
Si Si7 0.135367 0.307453 0.349885
O O1 0.400598 0.172425 0.541363
O O2 0.550285 0.159600 0.690182
O O3 0.942917 0.210632 0.802873
O O4 0.910629 0.106234 0.780842
O O5 0.480132 0.126029 0.828641
O O6 0.054468 0.133508 0.707187
O O7 0.553331 0.187332 0.936745
O O8 0.610989 0.080290 0.964306
O O9 0.655613 0.291024 0.023435
O O10 0.983562 0.320092 0.235678
O O11 0.500000 0.379645 0.000000
O O12 0.500000 0.159581 0.500000
O O13 0.130346 0.240502 0.362686
O O14 0.500000 0.203666 0.000000
O O15 0.632722 0.500000 0.873102
O O16 0.000000 0.577980 0.000000
O O17 0.500000 0.322441 0.500000
#
# Coordination Sequence:
#
# PCOD9172769 Si02
#       7
#     8   8   8   8   8   8   8
#     4  11  20  35  56  76 108 150 185 218 268 325
#     4  11  20  33  53  76 106 142 179 222 274 321
#     4  11  20  31  48  75 109 145 184 219 255 315
#     4  11  20  32  51  82 115 146 180 213 260 325
#     4  10  18  30  47  74 106 141 180 218 263 319
#     4  10  22  41  62  83 104 132 179 239 292 328
#     4  11  22  34  49  78 119 154 181 212 253 315
#
# _framework density 18.965361999999999
#
# number of rings (size 3 to 8) (size 9 to 14) (size 15 to 20)
#    0.000    1.286    0.000   11.143    0.000    0.000 
#    0.000    0.714    0.000    6.857    0.000    0.000 
#    0.000    0.000    0.000    0.000    0.000    0.000 
#
# Total GULP energy -156191.192590 kJ/mol
# GULP energy per Si atom -5578.256878 kJ/mol
# Density = 1.892220 g / cm^3
# Si number density = 18.965362 Si / 1000 Ang^3
#
#
#
# Elastic Constant Matrix: (Units=GPa)
#
#
# Indices 1 2 3 4 5 6 
#
# 1 135.3944 15.4921 13.2360 -0.0927 -0.3694 -0.0818
# 2 15.4921 30.6151 -6.0940 0.0432 7.0242 0.0217
# 3 13.2360 -6.0940 66.0345 -0.2704 -4.9283 -0.2004
# 4 -0.0927 0.0432 -0.2704 -10.0782 -0.0746 -18.5940
# 5 -0.3694 7.0242 -4.9283 -0.0746 34.3573 -0.0694
# 6 -0.0818 0.0217 -0.2004 -18.5940 -0.0694 -13.2647
#
#
#
# Elastic Compliance Matrix: (Units=1/GPa)
#
#
# Indices 1 2 3 4 5 6 
#
# 1 0.008119 -0.004681 -0.002003 -0.000007 0.000757 -0.000021
# 2 -0.004681 0.037441 0.003860 -0.000016 -0.007151 0.000091
# 3 -0.002003 0.003860 0.016011 -0.000013 0.001486 -0.000213
# 4 -0.000007 -0.000016 -0.000013 0.062554 -0.000040 -0.087685
# 5 0.000757 -0.007151 0.001486 -0.000040 0.030789 -0.000144
# 6 -0.000021 0.000091 -0.000213 -0.087685 -0.000144 0.047530
#
#
# Mechanical properties :
#
#
# Convention : Reuss Voigt Hill
#
# Bulk Modulus (GPa) = 17.88131 30.81246 24.34688
# Shear Modulus (GPa) = 22.05228 16.16354 19.10791
#
# Velocity S-wave (km/s) = 3.41364 2.92253 3.17758
# Velocity P-wave (km/s) = 4.99861 5.26025 5.13110
#
# Compressibility (1/GPa) = 0.05592432
#
# Stress axis : x y z
#
# Youngs Moduli (GPa) = 123.16338 26.70843 62.45519
#
# Poissons Ratio (x) = 0.12502 0.12510
# Poissons Ratio (y) = 0.57652 -0.24108
# Poissons Ratio (z) = 0.24670 -0.10310
#
# Static dielectric constant tensor:
#      x y z
#    x 1.735370 0.000000 0.001610 
#    y 0.000000 1.651520 -0.000040 
#    z 0.001610 -0.000040 1.702220 
# 
# From -- ./inp_files/359229.got.cif
#   From: 2010.05.17/outbox.cif.g08.bks.cpg/sg12_180_cif.got.tgz:359229.got - 2010.06.03 13:09:07.
