data_PCOD9172789
_publ_section_title
;
Structure prediction by ZEFSAII (Michael W. Deem and Ramdas Pophale) SiO2 
 PCOD9172789
Probable space group: C 2/M
;
_chemical_formula_sum "Si O2"
_cell_formula_units_Z 48
_cell_length_a 29.305527
_cell_length_b 9.053176
_cell_length_c 12.489145
_cell_angle_alpha 90.000000
_cell_angle_beta 69.017085
_cell_angle_gamma 90.000000
_cell_volume 3093.745850
_symmetry_space_group_name_H-M "C 2/M"
_symmetry_group_IT_number 12
_symmetry_cell_setting 'monoclinic'
loop_
_space_group_symop_operation_xyz
x,y,z
-x,y,-z
-x,-y,-z
x,-y,z
1/2+x,1/2+y,z
1/2-x,1/2+y,-z
1/2-x,1/2-y,-z
1/2+x,1/2-y,z
loop_
_atom_site_type_symbol
_atom_site_label
_atom_site_fract_x
_atom_site_fract_y
_atom_site_fract_z
Si Si1 0.414177 0.824320 0.243643
Si Si2 0.511011 0.330073 0.118738
Si Si3 0.723765 0.677547 0.921694
Si Si4 0.671039 0.324671 0.564631
Si Si5 0.113544 0.821723 0.959542
Si Si6 0.240993 0.323668 0.342851
O O1 0.470177 0.770462 0.207038
O O2 0.378756 0.756732 0.362901
O O3 0.395321 0.757918 0.146126
O O4 0.411304 0.000000 0.244265
O O5 0.505168 0.500000 0.158797
O O6 0.500000 0.327051 0.000000
O O7 0.567876 0.286147 0.075430
O O8 0.726586 0.500000 0.927606
O O9 0.666381 0.716476 0.961358
O O10 0.748634 0.719840 0.787848
O O11 0.750000 0.750000 0.000000
O O12 0.663574 0.500000 0.564219
O O13 0.710074 0.296465 0.627970
O O14 0.697265 0.262147 0.437095
O O15 0.111997 0.000000 0.941747
O O16 0.231962 0.500000 0.355068
#
# Coordination Sequence:
#
# PCOD9172789 Si02
#       6
#     8   8   8   8   8   8
#     4  11  19  26  42  69  98 123 152 189 234 283
#     4   8  15  27  44  62  87 123 157 186 228 281
#     4  10  20  34  50  69  95 126 161 197 231 272
#     4  10  18  30  48  67  93 125 157 189 232 286
#     4   9  17  32  47  62  90 127 160 193 231 274
#     4   9  18  32  47  66  93 122 156 197 235 270
#
# _framework density 15.515172
#
# number of rings (size 3 to 8) (size 9 to 14) (size 15 to 20)
#    0.000    2.500    1.667    3.000    0.000    5.000 
#    0.000    0.000    0.000    0.000    0.000    1.167 
#    0.000    9.333    0.000    0.000    0.000    0.000 
#
# Total GULP energy -133764.826308 kJ/mol
# GULP energy per Si atom -5573.534429 kJ/mol
# Density = 1.547986 g / cm^3
# Si number density = 15.515172 Si / 1000 Ang^3
#
#
#
# Elastic Constant Matrix: (Units=GPa)
#
#
# Indices 1 2 3 4 5 6 
#
# 1 98.7681 48.2338 73.0714 0.0000 -26.1403 0.0000
# 2 48.2338 57.1514 50.6902 0.0000 -22.7773 0.0000
# 3 73.0714 50.6902 103.0149 0.0000 -22.8313 0.0000
# 4 0.0000 0.0000 0.0000 25.8747 0.0000 -3.8445
# 5 -26.1403 -22.7773 -22.8313 0.0000 31.7939 0.0000
# 6 0.0000 0.0000 0.0000 -3.8445 0.0000 21.6243
#
#
#
# Elastic Compliance Matrix: (Units=1/GPa)
#
#
# Indices 1 2 3 4 5 6 
#
# 1 0.024453 -0.007171 -0.012487 0.000000 0.006001 0.000000
# 2 -0.007171 0.038834 -0.010898 0.000000 0.014100 0.000000
# 3 -0.012487 -0.010898 0.023692 0.000000 -0.001060 0.000000
# 4 0.000000 0.000000 0.000000 0.039696 0.000000 0.007057
# 5 0.006001 0.014100 -0.001060 0.000000 0.045726 0.000000
# 6 0.000000 0.000000 0.000000 0.007057 0.000000 0.047499
#
#
# Mechanical properties :
#
#
# Convention : Reuss Voigt Hill
#
# Bulk Modulus (GPa) = 38.65662 66.99170 52.82416
# Shear Modulus (GPa) = 17.26321 21.65451 19.45886
#
# Velocity S-wave (km/s) = 3.33928 3.73996 3.54529
# Velocity P-wave (km/s) = 6.31167 7.86903 7.13298
#
# Compressibility (1/GPa) = 0.02586879
#
# Stress axis : x y z
#
# Youngs Moduli (GPa) = 40.89531 25.75038 42.20874
#
# Poissons Ratio (x) = 0.18465 0.52704
# Poissons Ratio (y) = 0.29325 0.45998
# Poissons Ratio (z) = 0.51064 0.28062
#
# Static dielectric constant tensor:
#      x y z
#    x 1.523030 0.000000 -0.032190 
#    y 0.000000 1.515290 0.000000 
#    z -0.032190 0.000000 1.503020 
# 
# From -- ./inp_files/179320.got.cif
#   From: 2010.05.17/outbox.cif.g08.bks.cpg/sg12_90_cif.got.tgz:179320.got - 2010.06.03 13:09:07.
