data_PCOD9172876
_publ_section_title
;
Structure prediction by ZEFSAII (Michael W. Deem and Ramdas Pophale) SiO2 
 PCOD9172876
Probable space group: C 2/M
;
_chemical_formula_sum "Si O2"
_cell_formula_units_Z 56
_cell_length_a 21.211520
_cell_length_b 7.749042
_cell_length_c 27.264491
_cell_angle_alpha 90.000000
_cell_angle_beta 39.446586
_cell_angle_gamma 90.000000
_cell_volume 2847.318897
_symmetry_space_group_name_H-M "C 2/M"
_symmetry_group_IT_number 12
_symmetry_cell_setting 'monoclinic'
loop_
_space_group_symop_operation_xyz
x,y,z
-x,y,-z
-x,-y,-z
x,-y,z
1/2+x,1/2+y,z
1/2-x,1/2+y,-z
1/2-x,1/2-y,-z
1/2+x,1/2-y,z
loop_
_atom_site_type_symbol
_atom_site_label
_atom_site_fract_x
_atom_site_fract_y
_atom_site_fract_z
Si Si1 0.294688 0.797633 0.819849
Si Si2 0.417384 0.712207 0.089249
Si Si3 0.532409 0.701558 0.832631
Si Si4 0.672218 0.706438 0.089089
Si Si5 0.679062 0.794832 0.496630
Si Si6 0.011913 0.711917 0.665135
Si Si7 0.150897 0.298183 0.672166
O O1 0.192017 0.726403 0.860524
O O2 0.296779 0.782027 0.877346
O O3 0.399418 0.725896 0.737375
O O4 0.295735 0.000000 0.806403
O O5 0.415713 0.500000 0.090089
O O6 0.445421 0.772797 0.126942
O O7 0.500000 0.763865 0.000000
O O8 0.510036 0.500000 0.853882
O O9 0.435283 0.774166 0.863789
O O10 0.623325 0.715781 0.740359
O O11 0.667475 0.500000 0.098361
O O12 0.750000 0.750000 0.000000
O O13 0.750000 0.750000 0.500000
O O14 0.571681 0.734440 0.580330
O O15 0.737439 0.724601 0.414696
O O16 0.675216 0.000000 0.493483
O O17 0.012875 0.500000 0.665520
O O18 0.076116 0.768301 0.674269
O O19 0.131294 0.500000 0.689031
#
# Coordination Sequence:
#
# PCOD9172876 Si02
#       7
#     8   8   8   8   8   8   8
#     4  10  18  33  55  75 101 133 167 211 257 304
#     4   9  18  33  53  75 100 133 172 210 253 308
#     4  10  20  34  52  76 102 133 172 212 254 305
#     4  11  22  34  51  75 102 131 166 211 260 307
#     4   9  16  27  44  71 105 136 167 205 252 307
#     4   8  15  27  46  73 101 129 163 204 251 298
#     4  10  18  30  48  74 104 134 169 209 257 304
#
# _framework density 19.667624
#
# number of rings (size 3 to 8) (size 9 to 14) (size 15 to 20)
#    0.000    2.429    1.429    3.000    0.000    2.857 
#    0.000    1.429    0.000    2.571    0.000    6.000 
#    0.000    0.000    0.000    0.000    0.000    0.000 
#
# Total GULP energy -156154.376569 kJ/mol
# GULP energy per Si atom -5576.942020 kJ/mol
# Density = 1.962286 g / cm^3
# Si number density = 19.667624 Si / 1000 Ang^3
#
#
#
# Elastic Constant Matrix: (Units=GPa)
#
#
# Indices 1 2 3 4 5 6 
#
# 1 70.5026 1.7534 20.2115 -0.0011 7.0294 0.0007
# 2 1.7534 28.2552 -8.6694 -0.0018 -5.9047 0.0032
# 3 20.2115 -8.6694 117.6851 -0.0010 5.6937 0.0004
# 4 -0.0011 -0.0018 -0.0010 18.2803 0.0001 5.6987
# 5 7.0294 -5.9047 5.6937 0.0001 25.6166 -0.0001
# 6 0.0007 0.0032 0.0004 5.6987 -0.0001 10.1804
#
#
#
# Elastic Compliance Matrix: (Units=1/GPa)
#
#
# Indices 1 2 3 4 5 6 
#
# 1 0.015432 -0.002658 -0.002640 0.000001 -0.004260 -0.000001
# 2 -0.002658 0.038295 0.002846 0.000009 0.008924 -0.000017
# 3 -0.002640 0.002846 0.009192 0.000001 -0.000663 -0.000002
# 4 0.000001 0.000009 0.000001 0.066268 0.000001 -0.037095
# 5 -0.004260 0.008924 -0.000663 0.000001 0.042411 -0.000003
# 6 -0.000001 -0.000017 -0.000002 -0.037095 -0.000003 0.118993
#
#
# Mechanical properties :
#
#
# Convention : Reuss Voigt Hill
#
# Bulk Modulus (GPa) = 17.23711 27.00376 22.12043
# Shear Modulus (GPa) = 15.88144 24.35861 20.12002
#
# Velocity S-wave (km/s) = 2.84472 3.52307 3.20191
# Velocity P-wave (km/s) = 4.42416 5.50538 4.99412
#
# Compressibility (1/GPa) = 0.05801437
#
# Stress axis : x y z
#
# Youngs Moduli (GPa) = 64.80219 26.11327 108.78623
#
# Poissons Ratio (x) = 0.06941 0.28719
# Poissons Ratio (y) = 0.17224 -0.30958
# Poissons Ratio (z) = 0.17107 -0.07431
#
# Static dielectric constant tensor:
#      x y z
#    x 1.669270 0.000000 -0.015530 
#    y 0.000000 1.735710 0.000000 
#    z -0.015530 0.000000 1.720020 
# 
# From -- ./inp_files/362995.got.cif
#   From: 2010.05.17/outbox.cif.g08.bks.cpg/sg12_182_cif.got.tgz:362995.got - 2010.06.03 13:09:07.
