data_PCOD9172648
_publ_section_title
;
Structure prediction by ZEFSAII (Michael W. Deem and Ramdas Pophale) SiO2 
 PCOD9172648
Probable space group: C 2/M
;
_chemical_formula_sum "Si O2"
_cell_formula_units_Z 56
_cell_length_a 5.421069
_cell_length_b 26.688395
_cell_length_c 23.303276
_cell_angle_alpha 90.000000
_cell_angle_beta 56.675657
_cell_angle_gamma 90.000000
_cell_volume 2817.145653
_symmetry_space_group_name_H-M "C 2/M"
_symmetry_group_IT_number 12
_symmetry_cell_setting 'monoclinic'
loop_
_space_group_symop_operation_xyz
x,y,z
-x,y,-z
-x,-y,-z
x,-y,z
1/2+x,1/2+y,z
1/2-x,1/2+y,-z
1/2-x,1/2-y,-z
1/2+x,1/2-y,z
loop_
_atom_site_type_symbol
_atom_site_label
_atom_site_fract_x
_atom_site_fract_y
_atom_site_fract_z
Si Si1 0.047069 0.770567 0.577334
Si Si2 0.569133 0.613449 0.408924
Si Si3 0.563897 0.057483 0.410683
Si Si4 0.240304 0.699064 0.921082
Si Si5 0.631402 0.189308 0.133387
Si Si6 0.461970 0.886032 0.243405
Si Si7 0.038896 0.057544 0.756735
O O1 0.250000 0.750000 0.500000
O O2 0.228120 0.755346 0.610976
O O3 0.023728 0.829489 0.570518
O O4 0.284924 0.579719 0.430045
O O5 0.781221 0.591176 0.430906
O O6 0.768734 0.615475 0.325738
O O7 0.760216 0.057227 0.327020
O O8 0.479698 0.000000 0.433088
O O9 0.361669 0.750820 0.877730
O O10 0.525444 0.673564 0.912278
O O11 0.070833 0.669970 0.892744
O O12 0.000000 0.712304 0.000000
O O13 0.509130 0.168043 0.208496
O O14 0.271130 0.918781 0.223011
O O15 0.772784 0.910707 0.221587
O O16 0.006564 0.000000 0.779189
#
# Coordination Sequence:
#
# PCOD9172648 Si02
#       7
#     8   8   8   8   8   8   8
#     4  10  21  38  56  77  98 137 195 225 248 286
#     4  10  19  33  51  78 109 138 172 219 257 308
#     4   9  17  30  52  79 107 136 168 205 268 327
#     4  10  19  33  50  66  94 129 171 207 243 288
#     4  10  18  30  45  69  97 127 159 202 252 287
#     4  10  19  30  46  74 107 130 160 204 253 305
#     4   9  17  30  47  67 100 140 166 193 239 305
#
# _framework density 19.878274000000001
#
# number of rings (size 3 to 8) (size 9 to 14) (size 15 to 20)
#    0.000    2.286    0.000    4.714    0.000    3.429 
#    5.143    0.000    0.000    0.000    0.000   40.000 
#    0.000   66.286    0.000    0.000    0.000    0.000 
#
# Total GULP energy -156209.050437 kJ/mol
# GULP energy per Si atom -5578.894658 kJ/mol
# Density = 1.983303 g / cm^3
# Si number density = 19.878274 Si / 1000 Ang^3
#
#
#
# Elastic Constant Matrix: (Units=GPa)
#
#
# Indices 1 2 3 4 5 6 
#
# 1 176.0470 43.6859 6.0263 0.0000 -2.3280 0.0000
# 2 43.6859 105.5537 8.7406 0.0000 3.2653 0.0000
# 3 6.0263 8.7406 34.1717 0.0000 6.0807 0.0000
# 4 0.0000 0.0000 0.0000 49.0926 0.0000 15.4336
# 5 -2.3280 3.2653 6.0807 0.0000 22.2683 0.0000
# 6 0.0000 0.0000 0.0000 15.4336 0.0000 32.2909
#
#
#
# Elastic Compliance Matrix: (Units=1/GPa)
#
#
# Indices 1 2 3 4 5 6 
#
# 1 0.006369 -0.002619 -0.000673 0.000000 0.001234 0.000000
# 2 -0.002619 0.010768 -0.002063 0.000000 -0.001289 0.000000
# 3 -0.000673 -0.002063 0.031395 0.000000 -0.008341 0.000000
# 4 0.000000 0.000000 0.000000 0.023972 0.000000 -0.011457
# 5 0.001234 -0.001289 -0.008341 0.000000 0.047502 0.000000
# 6 0.000000 0.000000 0.000000 -0.011457 0.000000 0.036445
#
#
# Mechanical properties :
#
#
# Convention : Reuss Voigt Hill
#
# Bulk Modulus (GPa) = 26.43900 48.07533 37.25716
# Shear Modulus (GPa) = 27.81362 37.88500 32.84931
#
# Velocity S-wave (km/s) = 3.74464 4.37034 4.06953
# Velocity P-wave (km/s) = 5.65913 7.05010 6.39256
#
# Compressibility (1/GPa) = 0.03782292
#
# Stress axis : x y z
#
# Youngs Moduli (GPa) = 156.99945 92.86475 31.85264
#
# Poissons Ratio (x) = 0.24317 0.02144
# Poissons Ratio (y) = 0.41112 0.06572
# Poissons Ratio (z) = 0.10566 0.19159
#
# Static dielectric constant tensor:
#      x y z
#    x 1.794760 0.000000 0.007110 
#    y 0.000000 1.677910 0.000000 
#    z 0.007110 0.000000 1.709580 
# 
# From -- ./inp_files/355173.got.cif
#   From: 2010.05.17/outbox.cif.g08.bks.cpg/sg12_178_cif.got.tgz:355173.got - 2010.06.03 13:09:07.
