data_PCOD9172386
_publ_section_title
;
Structure prediction by ZEFSAII (Michael W. Deem and Ramdas Pophale) SiO2 
 PCOD9172386
Probable space group: C 2/M
;
_chemical_formula_sum "Si O2"
_cell_formula_units_Z 56
_cell_length_a 31.671910
_cell_length_b 9.436332
_cell_length_c 19.031509
_cell_angle_alpha 90.000000
_cell_angle_beta 32.758036
_cell_angle_gamma 90.000000
_cell_volume 3077.670674
_symmetry_space_group_name_H-M "C 2/M"
_symmetry_group_IT_number 12
_symmetry_cell_setting 'monoclinic'
loop_
_space_group_symop_operation_xyz
x,y,z
-x,y,-z
-x,-y,-z
x,-y,z
1/2+x,1/2+y,z
1/2-x,1/2+y,-z
1/2-x,1/2-y,-z
1/2+x,1/2-y,z
loop_
_atom_site_type_symbol
_atom_site_label
_atom_site_fract_x
_atom_site_fract_y
_atom_site_fract_z
Si Si1 0.841373 0.657509 0.940840
Si Si2 0.090656 0.662928 0.892035
Si Si3 0.240298 0.670035 0.587651
Si Si4 0.656863 0.656220 0.185804
Si Si5 0.825750 0.667121 0.592970
Si Si6 0.422804 0.667834 0.562446
Si Si7 0.667499 0.664897 0.904859
O O1 0.872946 0.500000 0.907446
O O2 0.876925 0.736880 0.823936
O O3 0.749791 0.645100 0.049393
O O4 0.843359 0.749249 0.008287
O O5 0.105545 0.500000 0.894549
O O6 0.152462 0.688479 0.742368
O O7 0.110874 0.769782 0.925771
O O8 0.000000 0.674776 0.000000
O O9 0.254251 0.500000 0.562308
O O10 0.250000 0.750000 0.500000
O O11 0.297815 0.743598 0.564215
O O12 0.622269 0.500000 0.222283
O O13 0.641772 0.693872 0.287182
O O14 0.837036 0.500000 0.561441
O O15 0.899829 0.737785 0.528121
O O16 0.753075 0.677826 0.749494
O O17 0.500000 0.699515 0.500000
O O18 0.422851 0.500000 0.544239
O O19 0.653040 0.500000 0.938223
#
# Coordination Sequence:
#
# PCOD9172386 Si02
#       7
#     8   8   8   8   8   8   8
#     4  10  18  29  49  73  98 130 167 209 254 301
#     4   9  19  36  57  81 109 141 176 218 270 324
#     4  10  20  36  60  86 113 143 181 227 275 330
#     4   9  18  31  47  70 100 130 164 209 257 302
#     4  10  20  34  54  79 107 139 181 224 265 318
#     4  10  20  35  54  75 103 140 180 222 269 317
#     4  10  19  31  51  78 106 136 172 216 261 312
#
# _framework density 18.195578999999999
#
# number of rings (size 3 to 8) (size 9 to 14) (size 15 to 20)
#    0.000    2.286    1.429    1.714    0.000    3.429 
#    0.000    1.429    0.000    0.000    0.000    0.000 
#    0.000    0.000    0.000    0.000    0.000    0.000 
#
# Total GULP energy -155986.619747 kJ/mol
# GULP energy per Si atom -5570.950705 kJ/mol
# Density = 1.815416 g / cm^3
# Si number density = 18.195579 Si / 1000 Ang^3
#
#
#
# Elastic Constant Matrix: (Units=GPa)
#
#
# Indices 1 2 3 4 5 6 
#
# 1 114.4540 104.7485 33.1575 0.0002 8.0524 -0.0006
# 2 104.7485 152.6533 36.9397 0.0002 29.1148 -0.0006
# 3 33.1575 36.9397 25.4205 0.0002 3.7037 -0.0006
# 4 0.0002 0.0002 0.0002 19.0987 -0.0003 8.6049
# 5 8.0524 29.1148 3.7037 -0.0003 16.7801 0.0003
# 6 -0.0006 -0.0006 -0.0006 8.6049 0.0003 40.9822
#
#
#
# Elastic Compliance Matrix: (Units=1/GPa)
#
#
# Indices 1 2 3 4 5 6 
#
# 1 0.034798 -0.028068 -0.009573 0.000001 0.034114 0.000000
# 2 -0.028068 0.038193 -0.011569 -0.000001 -0.050245 0.000001
# 3 -0.009573 -0.011569 0.067204 -0.000001 0.009834 0.000001
# 4 0.000001 -0.000001 -0.000001 0.057830 0.000003 -0.012142
# 5 0.034114 -0.050245 0.009834 0.000003 0.128233 -0.000002
# 6 0.000000 0.000001 0.000001 -0.012142 -0.000002 0.026950
#
#
# Mechanical properties :
#
#
# Convention : Reuss Voigt Hill
#
# Bulk Modulus (GPa) = 23.93761 71.35770 47.64765
# Shear Modulus (GPa) = 10.73993 23.21767 16.97880
#
# Velocity S-wave (km/s) = 2.43214 3.57600 3.05803
# Velocity P-wave (km/s) = 4.59036 7.50683 6.22189
#
# Compressibility (1/GPa) = 0.04177526
#
# Stress axis : x y z
#
# Youngs Moduli (GPa) = 28.73737 26.18282 14.88017
#
# Poissons Ratio (x) = 0.73489 0.14245
# Poissons Ratio (y) = 0.80659 0.17215
# Poissons Ratio (z) = 0.27510 0.30291
#
# Static dielectric constant tensor:
#      x y z
#    x 1.606820 0.000000 -0.011200 
#    y 0.000000 1.646290 0.000000 
#    z -0.011200 0.000000 1.688760 
# 
# From -- ./inp_files/288490.got.cif
#   From: 2010.05.17/outbox.cif.g08.bks.cpg/sg12_145_cif.got.tgz:288490.got - 2010.06.03 13:09:07.
