data_PCOD9172470
_publ_section_title
;
Structure prediction by ZEFSAII (Michael W. Deem and Ramdas Pophale) SiO2 
 PCOD9172470
Probable space group: C 2/M
;
_chemical_formula_sum "Si O2"
_cell_formula_units_Z 44
_cell_length_a 22.297855
_cell_length_b 20.365462
_cell_length_c 18.498490
_cell_angle_alpha 90.000000
_cell_angle_beta 162.252569
_cell_angle_gamma 90.000000
_cell_volume 2560.585990
_symmetry_space_group_name_H-M "C 2/M"
_symmetry_group_IT_number 12
_symmetry_cell_setting 'monoclinic'
loop_
_space_group_symop_operation_xyz
x,y,z
-x,y,-z
-x,-y,-z
x,-y,z
1/2+x,1/2+y,z
1/2-x,1/2+y,-z
1/2-x,1/2-y,-z
1/2+x,1/2-y,z
loop_
_atom_site_type_symbol
_atom_site_label
_atom_site_fract_x
_atom_site_fract_y
_atom_site_fract_z
Si Si1 0.042549 0.500000 0.434652
Si Si2 0.128950 0.682305 0.363075
Si Si3 0.076876 0.358965 0.733856
Si Si4 0.000000 0.717199 0.500000
Si Si5 0.500621 0.370475 0.848797
Si Si6 0.340084 0.500000 0.899313
Si Si7 0.428713 0.232225 0.997816
O O1 0.010615 0.431911 0.356996
O O2 0.247502 0.500000 0.713373
O O3 0.857669 0.500000 0.278200
O O4 0.250000 0.750000 0.500000
O O5 0.984775 0.681222 0.266468
O O6 0.298829 0.628737 0.572390
O O7 0.009530 0.683042 0.151522
O O8 0.987807 0.328333 0.557595
O O9 0.310101 0.361561 0.986244
O O10 0.194322 0.760375 0.730238
O O11 0.496670 0.306001 0.895410
O O12 0.543752 0.434692 0.945396
O O13 0.500000 0.215316 0.000000
#
# Coordination Sequence:
#
# PCOD9172470 Si02
#       7
#     4   8   8   4   8   4   8
#     4   9  16  29  49  73 104 130 156 190 226 285
#     4  10  21  33  46  67  98 131 166 202 234 278
#     4  10  19  32  49  73 101 132 160 190 234 284
#     4  10  18  29  50  72  96 129 162 192 236 288
#     4   9  19  32  49  72 101 131 157 190 235 289
#     4   9  16  29  49  75 102 131 158 185 229 286
#     4  10  20  33  48  68  96 127 164 206 240 276
#
# _framework density 17.183567
#
# number of rings (size 3 to 8) (size 9 to 14) (size 15 to 20)
#    0.000    2.364    0.000    5.455    0.000    8.727 
#    0.000    1.364    0.000    0.000    0.000    2.545 
#    0.000    7.273    0.000    0.000    0.000    0.000 
#
# Total GULP energy -122708.690191 kJ/mol
# GULP energy per Si atom -5577.667736 kJ/mol
# Density = 1.714446 g / cm^3
# Si number density = 17.183567 Si / 1000 Ang^3
#
#
#
# Elastic Constant Matrix: (Units=GPa)
#
#
# Indices 1 2 3 4 5 6 
#
# 1 132.6285 29.3963 42.5181 0.0006 -3.7602 -0.0003
# 2 29.3963 26.0749 18.0674 0.0018 -0.1645 -0.0007
# 3 42.5181 18.0674 115.2182 0.0037 -11.4127 -0.0020
# 4 0.0006 0.0018 0.0037 21.5653 0.0007 5.9537
# 5 -3.7602 -0.1645 -11.4127 0.0007 21.2228 -0.0005
# 6 -0.0003 -0.0007 -0.0020 5.9537 -0.0005 16.7553
#
#
#
# Elastic Compliance Matrix: (Units=1/GPa)
#
#
# Indices 1 2 3 4 5 6 
#
# 1 0.010566 -0.010375 -0.002213 0.000001 0.000602 -0.000001
# 2 -0.010375 0.053458 -0.004959 -0.000004 -0.004091 0.000003
# 3 -0.002213 -0.004959 0.010806 -0.000002 0.005381 0.000002
# 4 0.000001 -0.000004 -0.000002 0.051415 -0.000003 -0.018269
# 5 0.000602 -0.004091 0.005381 -0.000003 0.050087 0.000003
# 6 -0.000001 0.000003 0.000002 -0.018269 0.000003 0.066174
#
#
# Mechanical properties :
#
#
# Convention : Reuss Voigt Hill
#
# Bulk Modulus (GPa) = 25.16574 50.43168 37.79871
# Shear Modulus (GPa) = 17.19130 24.17134 20.68132
#
# Velocity S-wave (km/s) = 3.16642 3.75461 3.47299
# Velocity P-wave (km/s) = 5.29578 6.94324 6.17470
#
# Compressibility (1/GPa) = 0.03973656
#
# Stress axis : x y z
#
# Youngs Moduli (GPa) = 94.64595 18.70636 92.53852
#
# Poissons Ratio (x) = 0.19407 0.20474
# Poissons Ratio (y) = 0.98192 0.45894
# Poissons Ratio (z) = 0.20941 0.09277
#
# Static dielectric constant tensor:
#      x y z
#    x 1.599490 0.000000 0.015890 
#    y 0.000000 1.595360 0.000000 
#    z 0.015890 0.000000 1.633100 
# 
# From -- ./inp_files/285819.got.cif
#   From: 2010.05.17/outbox.cif.g08.bks.cpg/sg12_143_cif.got.tgz:285819.got - 2010.06.03 13:09:07.
