data_PCOD9172323
_publ_section_title
;
Structure prediction by ZEFSAII (Michael W. Deem and Ramdas Pophale) SiO2 
 PCOD9172323
Probable space group: C 2/M
;
_chemical_formula_sum "Si O2"
_cell_formula_units_Z 48
_cell_length_a 15.369504
_cell_length_b 26.286622
_cell_length_c 5.535164
_cell_angle_alpha 90.000000
_cell_angle_beta 60.929429
_cell_angle_gamma 90.000000
_cell_volume 1954.552962
_symmetry_space_group_name_H-M "C 2/M"
_symmetry_group_IT_number 12
_symmetry_cell_setting 'monoclinic'
loop_
_space_group_symop_operation_xyz
x,y,z
-x,y,-z
-x,-y,-z
x,-y,z
1/2+x,1/2+y,z
1/2-x,1/2+y,-z
1/2-x,1/2-y,-z
1/2+x,1/2-y,z
loop_
_atom_site_type_symbol
_atom_site_label
_atom_site_fract_x
_atom_site_fract_y
_atom_site_fract_z
Si Si1 0.143419 0.178444 0.586089
Si Si2 0.787009 0.559859 0.278355
Si Si3 0.947372 0.076195 0.319235
Si Si4 0.182172 0.797744 0.038993
Si Si5 0.487649 0.772309 0.267072
Si Si6 0.383044 0.938138 0.643772
O O1 0.055063 0.137612 0.701231
O O2 0.193964 0.168534 0.261225
O O3 0.110910 0.237737 0.614596
O O4 0.199802 0.174479 0.762587
O O5 0.812684 0.500000 0.236200
O O6 0.668691 0.562631 0.493719
O O7 0.840517 0.581669 0.445223
O O8 0.825117 0.579089 0.965196
O O9 0.000000 0.061871 0.500000
O O10 0.000000 0.057684 0.000000
O O11 0.072439 0.772022 0.165351
O O12 0.250000 0.750000 0.000000
O O13 0.500000 0.801358 0.500000
O O14 0.500000 0.801004 0.000000
O O15 0.500000 0.927059 0.500000
O O16 0.372109 0.000000 0.651315
#
# Coordination Sequence:
#
# PCOD9172323 Si02
#       6
#     8   8   8   8   8   8
#     4  10  19  33  49  71 100 133 178 221 259 316
#     4  10  21  35  53  84 118 148 194 247 290 343
#     4  12  23  36  55  78 113 162 201 235 283 336
#     4  10  18  29  48  74  97 118 155 214 275 316
#     4   8  14  25  41  60  87 115 145 190 239 285
#     4   9  17  33  57  82 107 136 178 241 304 346
#
# _framework density 24.558046999999998
#
# number of rings (size 3 to 8) (size 9 to 14) (size 15 to 20)
#    0.000    2.167    0.000    6.000    0.000    2.667 
#    0.000    0.000    0.000    0.000    0.000   35.000 
#    0.000    0.000    0.000    0.000    0.000    0.000 
#
# Total GULP energy -133894.005264 kJ/mol
# GULP energy per Si atom -5578.916886 kJ/mol
# Density = 2.450215 g / cm^3
# Si number density = 24.558047 Si / 1000 Ang^3
#
#
#
# Elastic Constant Matrix: (Units=GPa)
#
#
# Indices 1 2 3 4 5 6 
#
# 1 98.3989 8.5466 83.6812 0.0000 41.6740 0.0000
# 2 8.5466 26.1670 23.4135 0.0000 3.3793 0.0000
# 3 83.6812 23.4135 241.7380 0.0000 62.6167 0.0000
# 4 0.0000 0.0000 0.0000 11.3668 0.0000 -17.3105
# 5 41.6740 3.3793 62.6167 0.0000 66.7286 0.0000
# 6 0.0000 0.0000 0.0000 -17.3105 0.0000 9.5794
#
#
#
# Elastic Compliance Matrix: (Units=1/GPa)
#
#
# Indices 1 2 3 4 5 6 
#
# 1 0.016282 -0.001031 -0.003852 0.000000 -0.006501 0.000000
# 2 -0.001031 0.042159 -0.004413 0.000000 0.002650 0.000000
# 3 -0.003852 -0.004413 0.006892 0.000000 -0.003838 0.000000
# 4 0.000000 0.000000 0.000000 -0.050215 0.000000 -0.090742
# 5 -0.006501 0.002650 -0.003838 0.000000 0.022513 0.000000
# 6 0.000000 0.000000 0.000000 -0.090742 0.000000 -0.059585
#
#
# Mechanical properties :
#
#
# Convention : Reuss Voigt Hill
#
# Bulk Modulus (GPa) = 21.39501 66.39851 43.89676
# Shear Modulus (GPa) = 409.20399 34.24581 221.72490
#
# Velocity S-wave (km/s) = 12.92242 3.73833 9.51221
# Velocity P-wave (km/s) = 15.21128 6.76236 11.77099
#
# Compressibility (1/GPa) = 0.04673986
#
# Stress axis : x y z
#
# Youngs Moduli (GPa) = 61.41806 23.71972 145.10251
#
# Poissons Ratio (x) = 0.02446 0.55898
# Poissons Ratio (y) = 0.06335 0.64029
# Poissons Ratio (z) = 0.23660 0.10467
#
# Static dielectric constant tensor:
#      x y z
#    x 2.091750 0.000000 0.017620 
#    y 0.000000 1.805530 0.000000 
#    z 0.017620 0.000000 2.055070 
# 
# From -- ./inp_files/13056.got.cif
#   From: 2010.05.17/outbox.cif.g08.bks.cpg/sg12_7_cif.got.tgz:13056.got - 2010.06.03 13:09:07.
