data_PCOD9172049
_publ_section_title
;
Structure prediction by ZEFSAII (Michael W. Deem and Ramdas Pophale) SiO2 
 PCOD9172049
Probable space group: C 2/M
;
_chemical_formula_sum "Si O2"
_cell_formula_units_Z 64
_cell_length_a 28.898487
_cell_length_b 9.001966
_cell_length_c 15.091377
_cell_angle_alpha 90.000000
_cell_angle_beta 90.703341
_cell_angle_gamma 90.000000
_cell_volume 3925.623270
_symmetry_space_group_name_H-M "C 2/M"
_symmetry_group_IT_number 12
_symmetry_cell_setting 'monoclinic'
loop_
_space_group_symop_operation_xyz
x,y,z
-x,y,-z
-x,-y,-z
x,-y,z
1/2+x,1/2+y,z
1/2-x,1/2+y,-z
1/2-x,1/2-y,-z
1/2+x,1/2-y,z
loop_
_atom_site_type_symbol
_atom_site_label
_atom_site_fract_x
_atom_site_fract_y
_atom_site_fract_z
Si Si1 0.307694 0.678548 0.255139
Si Si2 0.909748 0.677319 0.679996
Si Si3 0.007203 0.321156 0.602844
Si Si4 0.898063 0.174669 0.339057
Si Si5 0.164010 0.829150 0.207396
Si Si6 0.235751 0.829967 0.375786
Si Si7 0.239971 0.678375 0.094287
Si Si8 0.650502 0.323916 0.472866
O O1 0.308150 0.500000 0.259557
O O2 0.360890 0.728896 0.265313
O O3 0.277356 0.735644 0.337147
O O4 0.280312 0.721889 0.165638
O O5 0.906947 0.500000 0.689968
O O6 0.883634 0.756006 0.760687
O O7 0.881472 0.727820 0.592298
O O8 0.962569 0.720525 0.660484
O O9 0.009628 0.500000 0.600226
O O10 0.054107 0.258598 0.645501
O O11 0.000000 0.270353 0.500000
O O12 0.869396 0.188864 0.429893
O O13 0.907783 0.000000 0.324950
O O14 0.197969 0.828538 0.294188
O O15 0.191990 0.738513 0.134204
O O16 0.157493 0.000000 0.180607
O O17 0.203770 0.778362 0.456947
O O18 0.250809 0.000000 0.390720
O O19 0.238943 0.500000 0.088807
O O20 0.250000 0.750000 0.000000
O O21 0.647796 0.500000 0.448412
#
# Coordination Sequence:
#
# PCOD9172049 Si02
#       8
#     8   8   8   8   8   8   8   8
#     4   9  19  33  46  66  95 124 155 196 238 283
#     4  10  18  29  46  66  94 127 163 206 247 282
#     4  10  20  33  46  66  94 126 168 214 251 283
#     4  10  20  32  46  64  90 125 166 205 243 284
#     4   9  17  30  48  72 100 125 157 196 238 287
#     4   8  15  27  42  61  88 122 157 192 229 274
#     4  10  19  33  54  78 104 129 156 190 236 290
#     4   9  17  28  42  62  88 121 163 204 238 277
#
# _framework density 16.303142999999999
#
# number of rings (size 3 to 8) (size 9 to 14) (size 15 to 20)
#    0.000    2.625    1.250    1.875    0.000    5.750 
#    0.000    0.000    0.000    0.000    0.000    0.875 
#    0.000    7.000    0.000    0.000    0.000    0.000 
#
# Total GULP energy -178331.828886 kJ/mol
# GULP energy per Si atom -5572.869653 kJ/mol
# Density = 1.626604 g / cm^3
# Si number density = 16.303143 Si / 1000 Ang^3
#
#
#
# Elastic Constant Matrix: (Units=GPa)
#
#
# Indices 1 2 3 4 5 6 
#
# 1 148.8961 45.1341 48.2982 0.0000 -6.5375 0.0000
# 2 45.1341 38.1792 31.0060 0.0000 -6.4534 0.0000
# 3 48.2982 31.0060 72.1933 0.0000 -12.4438 0.0000
# 4 0.0000 0.0000 0.0000 16.4363 0.0000 -8.0085
# 5 -6.5375 -6.4534 -12.4438 0.0000 18.8979 0.0000
# 6 0.0000 0.0000 0.0000 -8.0085 0.0000 26.7813
#
#
#
# Elastic Compliance Matrix: (Units=1/GPa)
#
#
# Indices 1 2 3 4 5 6 
#
# 1 0.010851 -0.010728 -0.002974 0.000000 -0.001868 0.000000
# 2 -0.010728 0.050947 -0.013925 0.000000 0.004517 0.000000
# 3 -0.002974 -0.013925 0.023491 0.000000 0.009684 0.000000
# 4 0.000000 0.000000 0.000000 0.071217 0.000000 0.021296
# 5 -0.001868 0.004517 0.009684 0.000000 0.060189 0.000000
# 6 0.000000 0.000000 0.000000 0.021296 0.000000 0.043708
#
#
# Mechanical properties :
#
#
# Convention : Reuss Voigt Hill
#
# Bulk Modulus (GPa) = 33.29460 56.46059 44.87759
# Shear Modulus (GPa) = 15.35306 21.41179 18.38243
#
# Velocity S-wave (km/s) = 3.07208 3.62795 3.36153
# Velocity P-wave (km/s) = 5.74892 7.22885 6.53094
#
# Compressibility (1/GPa) = 0.03003490
#
# Stress axis : x y z
#
# Youngs Moduli (GPa) = 92.16114 19.62830 42.56949
#
# Poissons Ratio (x) = 0.21057 0.12659
# Poissons Ratio (y) = 0.98870 0.59279
# Poissons Ratio (z) = 0.27405 0.27333
#
# Static dielectric constant tensor:
#      x y z
#    x 1.564330 0.000000 0.007820 
#    y 0.000000 1.548630 0.000000 
#    z 0.007820 0.000000 1.549860 
# 
# From -- ./inp_files/248413.got.cif
#   From: 2010.05.17/outbox.cif.g08.bks.cpg/sg12_125_cif.got.tgz:248413.got - 2010.06.03 13:09:07.
