data_PCOD9172487
_publ_section_title
;
Structure prediction by ZEFSAII (Michael W. Deem and Ramdas Pophale) SiO2 
 PCOD9172487
Probable space group: C 2/M
;
_chemical_formula_sum "Si O2"
_cell_formula_units_Z 56
_cell_length_a 11.172498
_cell_length_b 16.833495
_cell_length_c 15.266404
_cell_angle_alpha 90.000000
_cell_angle_beta 112.692305
_cell_angle_gamma 90.000000
_cell_volume 2648.927252
_symmetry_space_group_name_H-M "C 2/M"
_symmetry_group_IT_number 12
_symmetry_cell_setting 'monoclinic'
loop_
_space_group_symop_operation_xyz
x,y,z
-x,y,-z
-x,-y,-z
x,-y,z
1/2+x,1/2+y,z
1/2-x,1/2+y,-z
1/2-x,1/2-y,-z
1/2+x,1/2-y,z
loop_
_atom_site_type_symbol
_atom_site_label
_atom_site_fract_x
_atom_site_fract_y
_atom_site_fract_z
Si Si1 0.518478 0.092500 0.740134
Si Si2 0.403275 0.596580 0.050766
Si Si3 0.059792 0.800861 0.432180
Si Si4 0.983834 0.093011 0.727312
Si Si5 0.898771 0.402611 0.046822
Si Si6 0.827244 0.407432 0.379937
Si Si7 0.692860 0.855617 0.431752
O O1 0.548875 0.125652 0.843898
O O2 0.597326 0.130779 0.680925
O O3 0.370983 0.098823 0.666118
O O4 0.555871 0.000000 0.757177
O O5 0.401569 0.500000 0.044102
O O6 0.252358 0.622187 0.003550
O O7 0.500000 0.624164 0.000000
O O8 0.461601 0.615705 0.162526
O O9 0.154742 0.862354 0.509438
O O10 0.149880 0.736348 0.408723
O O11 0.000000 0.759847 0.500000
O O12 0.974224 0.847315 0.338056
O O13 0.826747 0.100050 0.681381
O O14 0.015587 0.000000 0.719855
O O15 0.898989 0.500000 0.044132
O O16 0.000000 0.376969 0.000000
O O17 0.860334 0.500000 0.386367
O O18 0.857160 0.383266 0.487447
#
# Coordination Sequence:
#
# PCOD9172487 Si02
#       7
#     8   8   8   8   8   8   8
#     4  10  18  29  50  75  98 127 160 198 243 286
#     4   9  16  29  50  72  94 123 160 202 246 288
#     4  10  21  35  49  68  96 129 162 194 235 293
#     4   9  18  31  49  73  98 126 162 203 241 279
#     4   9  18  30  44  68 100 129 160 198 240 289
#     4   9  16  28  48  76 102 121 155 205 245 280
#     4  10  20  33  50  71  96 127 160 196 242 293
#
# _framework density 21.140632
#
# number of rings (size 3 to 8) (size 9 to 14) (size 15 to 20)
#    0.000    2.571    0.000    2.571    0.000    6.571 
#    0.000    1.429    0.000    1.714    0.000    0.000 
#    0.000    0.000    0.000    0.000    0.000    0.000 
#
# Total GULP energy -155921.521682 kJ/mol
# GULP energy per Si atom -5568.625774 kJ/mol
# Density = 2.109252 g / cm^3
# Si number density = 21.140632 Si / 1000 Ang^3
#
#
#
# Elastic Constant Matrix: (Units=GPa)
#
#
# Indices 1 2 3 4 5 6 
#
# 1 68.6131 0.9436 51.4001 0.0000 1.1450 0.0000
# 2 0.9436 22.0421 26.9572 0.0000 -8.3735 0.0000
# 3 51.4001 26.9572 198.9763 0.0000 3.5254 0.0000
# 4 0.0000 0.0000 0.0000 -5.1651 0.0000 -3.9100
# 5 1.1450 -8.3735 3.5254 0.0000 27.0341 0.0000
# 6 0.0000 0.0000 0.0000 -3.9100 0.0000 14.0924
#
#
#
# Elastic Compliance Matrix: (Units=1/GPa)
#
#
# Indices 1 2 3 4 5 6 
#
# 1 0.018849 0.007234 -0.005888 0.000000 0.002210 0.000000
# 2 0.007234 0.067354 -0.011384 0.000000 0.022040 0.000000
# 3 -0.005888 -0.011384 0.008166 0.000000 -0.004342 0.000000
# 4 0.000000 0.000000 0.000000 -0.160002 0.000000 -0.044393
# 5 0.002210 0.022040 -0.004342 0.000000 0.044290 0.000000
# 6 0.000000 0.000000 0.000000 -0.044393 0.000000 0.058643
#
#
# Mechanical properties :
#
#
# Convention : Reuss Voigt Hill
#
# Bulk Modulus (GPa) = 13.46035 49.80368 31.63201
# Shear Modulus (GPa) = 60.87084 21.21433 41.04258
#
# Velocity S-wave (km/s) = 5.37176 3.17122 4.41092
# Velocity P-wave (km/s) = 6.69741 6.08426 6.39819
#
# Compressibility (1/GPa) = 0.07429229
#
# Stress axis : x y z
#
# Youngs Moduli (GPa) = 53.05221 14.84697 122.45716
#
# Poissons Ratio (x) = -0.10741 0.72109
# Poissons Ratio (y) = -0.38380 1.39409
# Poissons Ratio (z) = 0.31240 0.16902
#
# Static dielectric constant tensor:
#      x y z
#    x 1.972620 0.000000 -0.028860 
#    y 0.000000 1.780010 0.000000 
#    z -0.028860 0.000000 1.749770 
# 
# From -- ./inp_files/206243.got.cif
#   From: 2010.05.17/outbox.cif.g08.bks.cpg/sg12_104_cif.got.tgz:206243.got - 2010.06.03 13:09:07.
