data_PCOD9172365
_publ_section_title
;
Structure prediction by ZEFSAII (Michael W. Deem and Ramdas Pophale) SiO2 
 PCOD9172365
Probable space group: C 2/M
;
_chemical_formula_sum "Si O2"
_cell_formula_units_Z 52
_cell_length_a 19.225404
_cell_length_b 23.454175
_cell_length_c 7.360102
_cell_angle_alpha 90.000000
_cell_angle_beta 73.741201
_cell_angle_gamma 90.000000
_cell_volume 3186.058969
_symmetry_space_group_name_H-M "C 2/M"
_symmetry_group_IT_number 12
_symmetry_cell_setting 'monoclinic'
loop_
_space_group_symop_operation_xyz
x,y,z
-x,y,-z
-x,-y,-z
x,-y,z
1/2+x,1/2+y,z
1/2-x,1/2+y,-z
1/2-x,1/2-y,-z
1/2+x,1/2-y,z
loop_
_atom_site_type_symbol
_atom_site_label
_atom_site_fract_x
_atom_site_fract_y
_atom_site_fract_z
Si Si1 0.000000 0.890264 0.500000
Si Si2 0.412173 0.436084 0.056739
Si Si3 0.853696 0.937078 0.513585
Si Si4 0.846123 0.817544 0.974558
Si Si5 0.266948 0.325861 0.679911
Si Si6 0.995992 0.207644 0.788229
Si Si7 0.353538 0.751672 0.340841
O O1 0.927908 0.926752 0.571906
O O2 0.014078 0.847534 0.656342
O O3 0.395884 0.500000 0.995445
O O4 0.379737 0.434516 0.284779
O O5 0.500000 0.431917 0.000000
O O6 0.376412 0.381839 0.983272
O O7 0.798204 0.886970 0.599625
O O8 0.824674 0.000000 0.571081
O O9 0.779203 0.818928 0.886456
O O10 0.910829 0.782651 0.825017
O O11 0.836250 0.788326 0.177054
O O12 0.316751 0.279623 0.537644
O O13 0.186388 0.310648 0.673524
O O14 0.059630 0.252200 0.700903
O O15 0.000000 0.196452 0.000000
#
# Coordination Sequence:
#
# PCOD9172365 Si02
#       7
#     4   8   8   8   8   8   8
#     4  12  17  32  44  68  94 126 159 196 216 266
#     4  10  20  31  44  66  96 127 162 201 230 261
#     4  11  21  32  46  67  96 130 164 197 231 271
#     4  11  18  32  50  66  88 124 163 196 230 275
#     4  11  21  32  47  66  94 124 161 192 236 277
#     4  10  18  29  49  66  90 119 160 194 231 267
#     4  10  20  33  46  66  91 125 155 199 237 279
#
# _framework density 16.321103000000001
#
# number of rings (size 3 to 8) (size 9 to 14) (size 15 to 20)
#    0.000    1.385    4.615    3.923    0.000    0.615 
#    0.000    0.000    0.000    0.462    0.000    0.000 
#    0.000    5.538    0.000   13.308    0.000    1.077 
#
# Total GULP energy -144973.449705 kJ/mol
# GULP energy per Si atom -5575.901912 kJ/mol
# Density = 1.628396 g / cm^3
# Si number density = 16.321103 Si / 1000 Ang^3
#
#
#
# Elastic Constant Matrix: (Units=GPa)
#
#
# Indices 1 2 3 4 5 6 
#
# 1 55.7638 34.7991 0.8158 0.0000 1.9681 0.0000
# 2 34.7991 76.6401 4.7713 0.0000 0.0390 0.0000
# 3 0.8158 4.7713 42.4637 0.0000 5.6866 0.0000
# 4 0.0000 0.0000 0.0000 9.3281 0.0000 1.5178
# 5 1.9681 0.0390 5.6866 0.0000 15.9997 0.0000
# 6 0.0000 0.0000 0.0000 1.5178 0.0000 17.9943
#
#
#
# Elastic Compliance Matrix: (Units=1/GPa)
#
#
# Indices 1 2 3 4 5 6 
#
# 1 0.025239 -0.011538 0.001285 0.000000 -0.003533 0.000000
# 2 -0.011538 0.018419 -0.002133 0.000000 0.002133 0.000000
# 3 0.001285 -0.002133 0.024974 0.000000 -0.009029 0.000000
# 4 0.000000 0.000000 0.000000 0.108695 0.000000 -0.009168
# 5 -0.003533 0.002133 -0.009029 0.000000 0.066140 0.000000
# 6 0.000000 0.000000 0.000000 -0.009168 0.000000 0.056346
#
#
# Mechanical properties :
#
#
# Convention : Reuss Voigt Hill
#
# Bulk Modulus (GPa) = 22.80108 28.40443 25.60276
# Shear Modulus (GPa) = 14.74032 17.62985 16.18508
#
# Velocity S-wave (km/s) = 3.00850 3.29019 3.15249
# Velocity P-wave (km/s) = 5.10575 5.64580 5.38255
#
# Compressibility (1/GPa) = 0.04385757
#
# Stress axis : x y z
#
# Youngs Moduli (GPa) = 39.62114 54.29248 40.04214
#
# Poissons Ratio (x) = 0.62644 -0.05144
# Poissons Ratio (y) = 0.45716 0.08543
# Poissons Ratio (z) = -0.05090 0.11583
#
# Static dielectric constant tensor:
#      x y z
#    x 1.584740 0.000000 0.015360 
#    y 0.000000 1.548790 0.000000 
#    z 0.015360 0.000000 1.613830 
# 
# From -- ./inp_files/88723.got.cif
#   From: 2010.05.17/outbox.cif.g08.bks.cpg/sg12_45_cif.got.tgz:88723.got - 2010.06.03 13:09:07.
