data_PCOD9172817
_publ_section_title
;
Structure prediction by ZEFSAII (Michael W. Deem and Ramdas Pophale) SiO2 
 PCOD9172817
Probable space group: C 2/M
;
_chemical_formula_sum "Si O2"
_cell_formula_units_Z 48
_cell_length_a 27.600247
_cell_length_b 8.915927
_cell_length_c 12.246894
_cell_angle_alpha 90.000000
_cell_angle_beta 105.519300
_cell_angle_gamma 90.000000
_cell_volume 2903.857839
_symmetry_space_group_name_H-M "C 2/M"
_symmetry_group_IT_number 12
_symmetry_cell_setting 'monoclinic'
loop_
_space_group_symop_operation_xyz
x,y,z
-x,y,-z
-x,-y,-z
x,-y,z
1/2+x,1/2+y,z
1/2-x,1/2+y,-z
1/2-x,1/2-y,-z
1/2+x,1/2-y,z
loop_
_atom_site_type_symbol
_atom_site_label
_atom_site_fract_x
_atom_site_fract_y
_atom_site_fract_z
Si Si1 0.862012 0.679596 0.589322
Si Si2 0.630585 0.326775 0.754365
Si Si3 0.715592 0.326214 0.618734
Si Si4 0.942619 0.319472 0.456301
Si Si5 0.304540 0.681371 0.005297
Si Si6 0.318410 0.320740 0.762269
O O1 0.859939 0.500000 0.593552
O O2 0.813229 0.742040 0.495650
O O3 0.909263 0.724695 0.541907
O O4 0.860202 0.749275 0.708565
O O5 0.615403 0.500000 0.760199
O O6 0.676887 0.324052 0.696788
O O7 0.585828 0.239577 0.668188
O O8 0.653927 0.268192 0.881392
O O9 0.725525 0.500000 0.595787
O O10 0.765617 0.244253 0.687234
O O11 0.942496 0.500000 0.452671
O O12 0.000000 0.267055 0.500000
O O13 0.300268 0.500000 0.011918
O O14 0.320817 0.717906 0.891773
O O15 0.250000 0.750000 0.000000
O O16 0.319097 0.500000 0.751920
#
# Coordination Sequence:
#
# PCOD9172817 Si02
#       6
#     8   8   8   8   8   8
#     4  10  20  33  49  70  98 128 162 204 252 300
#     4   9  18  32  50  75 102 129 165 206 246 291
#     4  10  18  30  48  69  99 133 167 204 241 289
#     4   9  19  36  57  78  97 121 159 210 261 303
#     4  10  20  33  49  71 102 138 173 206 237 283
#     4  11  21  31  46  69 101 137 169 200 238 287
#
# _framework density 16.529734000000001
#
# number of rings (size 3 to 8) (size 9 to 14) (size 15 to 20)
#    0.000    2.167    1.667    2.000    0.000    3.000 
#    0.000    0.000    0.000    1.000    0.000    7.000 
#    0.000    0.000    0.000    0.000    0.000    0.000 
#
# Total GULP energy -133877.086364 kJ/mol
# GULP energy per Si atom -5578.211932 kJ/mol
# Density = 1.649211 g / cm^3
# Si number density = 16.529734 Si / 1000 Ang^3
#
#
#
# Elastic Constant Matrix: (Units=GPa)
#
#
# Indices 1 2 3 4 5 6 
#
# 1 88.0337 29.5025 74.5801 0.0000 9.8160 0.0000
# 2 29.5025 43.6405 43.0833 0.0000 -5.8174 0.0000
# 3 74.5801 43.0833 145.1229 0.0000 -9.1211 0.0000
# 4 0.0000 0.0000 0.0000 21.9848 0.0000 -1.6128
# 5 9.8160 -5.8174 -9.1211 0.0000 20.3083 0.0000
# 6 0.0000 0.0000 0.0000 -1.6128 0.0000 20.5507
#
#
#
# Elastic Compliance Matrix: (Units=1/GPa)
#
#
# Indices 1 2 3 4 5 6 
#
# 1 0.027791 -0.008831 -0.013032 0.000000 -0.021815 0.000000
# 2 -0.008831 0.035744 -0.005311 0.000000 0.012122 0.000000
# 3 -0.013032 -0.005311 0.015914 0.000000 0.011925 0.000000
# 4 0.000000 0.000000 0.000000 0.045749 0.000000 0.003590
# 5 -0.021815 0.012122 0.011925 0.000000 0.068614 0.000000
# 6 0.000000 0.000000 0.000000 0.003590 0.000000 0.048942
#
#
# Mechanical properties :
#
#
# Convention : Reuss Voigt Hill
#
# Bulk Modulus (GPa) = 39.83792 63.45877 51.64834
# Shear Modulus (GPa) = 16.36827 21.21084 18.78955
#
# Velocity S-wave (km/s) = 3.15021 3.58605 3.37517
# Velocity P-wave (km/s) = 6.11431 7.45791 6.81928
#
# Compressibility (1/GPa) = 0.02510171
#
# Stress axis : x y z
#
# Youngs Moduli (GPa) = 35.98238 27.97686 62.83692
#
# Poissons Ratio (x) = 0.24705 0.81888
# Poissons Ratio (y) = 0.31775 0.33376
# Poissons Ratio (z) = 0.46892 0.14860
#
# Static dielectric constant tensor:
#      x y z
#    x 1.551850 0.000000 -0.028760 
#    y 0.000000 1.560150 0.000000 
#    z -0.028760 0.000000 1.569560 
# 
# From -- ./inp_files/172094.got.cif
#   From: 2010.05.17/outbox.cif.g08.bks.cpg/sg12_87_cif.got.tgz:172094.got - 2010.06.03 13:09:07.
