data_PCOD9172282
_publ_section_title
;
Structure prediction by ZEFSAII (Michael W. Deem and Ramdas Pophale) SiO2 
 PCOD9172282
Probable space group: C 2/M
;
_chemical_formula_sum "Si O2"
_cell_formula_units_Z 64
_cell_length_a 25.382962
_cell_length_b 7.303711
_cell_length_c 15.967913
_cell_angle_alpha 90.000000
_cell_angle_beta 77.132812
_cell_angle_gamma 90.000000
_cell_volume 2885.952351
_symmetry_space_group_name_H-M "C 2/M"
_symmetry_group_IT_number 12
_symmetry_cell_setting 'monoclinic'
loop_
_space_group_symop_operation_xyz
x,y,z
-x,y,-z
-x,-y,-z
x,-y,z
1/2+x,1/2+y,z
1/2-x,1/2+y,-z
1/2-x,1/2-y,-z
1/2+x,1/2-y,z
loop_
_atom_site_type_symbol
_atom_site_label
_atom_site_fract_x
_atom_site_fract_y
_atom_site_fract_z
Si Si1 0.887753 0.777307 0.321408
Si Si2 0.050749 0.792929 0.922319
Si Si3 0.125658 0.775768 0.174621
Si Si4 0.000342 0.223312 0.228477
Si Si5 0.156207 0.222796 0.979517
Si Si6 0.304806 0.720408 0.208421
Si Si7 0.687554 0.712077 0.315752
Si Si8 0.812652 0.781055 0.499168
O O1 0.951072 0.726442 0.307948
O O2 0.857097 0.722190 0.245370
O O3 0.851316 0.712984 0.411655
O O4 0.886469 0.000000 0.321040
O O5 0.026571 0.709644 0.848013
O O6 0.099430 0.717061 0.958689
O O7 0.068907 0.000000 0.892726
O O8 0.000000 0.807457 0.000000
O O9 0.158063 0.711518 0.244506
O O10 0.062771 0.719125 0.207756
O O11 0.125990 0.000000 0.171753
O O12 0.153771 0.716648 0.076988
O O13 0.003150 0.000000 0.226506
O O14 0.195942 0.279541 0.889361
O O15 0.158796 0.000000 0.982394
O O16 0.304595 0.500000 0.208048
O O17 0.251381 0.780517 0.275428
O O18 0.670846 0.500000 0.325139
O O19 0.676085 0.791155 0.411442
O O20 0.750000 0.750000 0.500000
O O21 0.819914 0.000000 0.499189
#
# Coordination Sequence:
#
# PCOD9172282 Si02
#       8
#     8   8   8   8   8   8   8   8
#     4   9  16  26  43  70  95 112 144 198 242 267
#     4   9  12  16  31  58  88 114 143 181 222 262
#     4   9  17  28  41  61  96 134 156 178 225 286
#     4   9  14  22  39  63  93 123 148 184 235 277
#     4   9  15  23  39  65  94 121 153 192 229 266
#     4  10  18  29  48  72  94 119 155 197 235 266
#     4  10  21  34  46  65  96 129 157 185 227 285
#     4  10  19  32  50  70  93 120 153 193 235 276
#
# _framework density 22.176389
#
# number of rings (size 3 to 8) (size 9 to 14) (size 15 to 20)
#    0.000    2.625    3.750    0.000    0.000    0.500 
#    0.000    0.625    0.000    3.750    0.000    1.750 
#    0.000    3.750    0.000    0.000    0.000    0.000 
#
# Total GULP energy -178355.692350 kJ/mol
# GULP energy per Si atom -5573.615386 kJ/mol
# Density = 2.212591 g / cm^3
# Si number density = 22.176389 Si / 1000 Ang^3
#
#
#
# Elastic Constant Matrix: (Units=GPa)
#
#
# Indices 1 2 3 4 5 6 
#
# 1 40.6812 -5.7377 41.8684 0.0000 9.4943 0.0000
# 2 -5.7377 89.6462 6.2189 0.0000 3.3209 0.0000
# 3 41.8684 6.2189 187.7515 0.0000 -0.0965 0.0000
# 4 0.0000 0.0000 0.0000 -5.6891 0.0000 -1.5476
# 5 9.4943 3.3209 -0.0965 0.0000 37.4628 0.0000
# 6 0.0000 0.0000 0.0000 -1.5476 0.0000 2.1730
#
#
#
# Elastic Compliance Matrix: (Units=1/GPa)
#
#
# Indices 1 2 3 4 5 6 
#
# 1 0.035442 0.003168 -0.008013 0.000000 -0.009284 0.000000
# 2 0.003168 0.011501 -0.001088 0.000000 -0.001825 0.000000
# 3 -0.008013 -0.001088 0.007150 0.000000 0.002146 0.000000
# 4 0.000000 0.000000 0.000000 -0.147247 0.000000 -0.104866
# 5 -0.009284 -0.001825 0.002146 0.000000 0.029213 0.000000
# 6 0.000000 0.000000 0.000000 -0.104866 0.000000 0.385500
#
#
# Mechanical properties :
#
#
# Convention : Reuss Voigt Hill
#
# Bulk Modulus (GPa) = 23.68192 44.75313 34.21752
# Shear Modulus (GPa) = 14.38841 25.17129 19.77985
#
# Velocity S-wave (km/s) = 2.54995 3.37270 2.98976
# Velocity P-wave (km/s) = 4.40133 5.94905 5.23273
#
# Compressibility (1/GPa) = 0.04222631
#
# Stress axis : x y z
#
# Youngs Moduli (GPa) = 28.21512 86.95007 139.85446
#
# Poissons Ratio (x) = -0.27548 1.12069
# Poissons Ratio (y) = -0.08939 0.15222
# Poissons Ratio (z) = 0.22609 0.09464
#
# Static dielectric constant tensor:
#      x y z
#    x 1.784680 0.000000 -0.019590 
#    y 0.000000 1.943700 0.000000 
#    z -0.019590 0.000000 1.849370 
# 
# From -- ./inp_files/245108.got.cif
#   From: 2010.05.17/outbox.cif.g08.bks.cpg/sg12_123_cif.got.tgz:245108.got - 2010.06.03 13:09:07.
