data_PCOD9172719
_publ_section_title
;
Structure prediction by ZEFSAII (Michael W. Deem and Ramdas Pophale) SiO2 
 PCOD9172719
Probable space group: C 2/M
;
_chemical_formula_sum "Si O2"
_cell_formula_units_Z 64
_cell_length_a 29.331244
_cell_length_b 8.667617
_cell_length_c 21.598179
_cell_angle_alpha 90.000000
_cell_angle_beta 131.767246
_cell_angle_gamma 90.000000
_cell_volume 4095.461521
_symmetry_space_group_name_H-M "C 2/M"
_symmetry_group_IT_number 12
_symmetry_cell_setting 'monoclinic'
loop_
_space_group_symop_operation_xyz
x,y,z
-x,y,-z
-x,-y,-z
x,-y,z
1/2+x,1/2+y,z
1/2-x,1/2+y,-z
1/2-x,1/2-y,-z
1/2+x,1/2-y,z
loop_
_atom_site_type_symbol
_atom_site_label
_atom_site_fract_x
_atom_site_fract_y
_atom_site_fract_z
Si Si1 0.744237 0.815664 0.595232
Si Si2 0.949588 0.187966 0.504060
Si Si3 0.289591 0.815155 0.181017
Si Si4 0.185858 0.184899 0.661168
Si Si5 0.476925 0.313996 0.669234
Si Si6 0.845029 0.186160 0.590028
Si Si7 0.297606 0.185125 0.992581
Si Si8 0.606689 0.814478 0.824672
O O1 0.732669 0.739693 0.650863
O O2 0.807439 0.773072 0.617750
O O3 0.691157 0.759348 0.500378
O O4 0.741675 0.000000 0.598678
O O5 0.881845 0.236243 0.422395
O O6 0.966709 0.237631 0.588828
O O7 0.000000 0.238905 0.500000
O O8 0.949553 0.000000 0.504412
O O9 0.299817 0.753012 0.258834
O O10 0.346036 0.765154 0.187165
O O11 0.288352 0.000000 0.179617
O O12 0.226997 0.753231 0.093692
O O13 0.185828 0.000000 0.664659
O O14 0.480018 0.500000 0.671758
O O15 0.415840 0.268663 0.651303
O O16 0.539985 0.251273 0.752711
O O17 0.841703 0.000000 0.579585
O O18 0.362748 0.228495 0.081649
O O19 0.293850 0.000000 0.987200
O O20 0.250000 0.250000 0.000000
O O21 0.604131 0.000000 0.820037
#
# Coordination Sequence:
#
# PCOD9172719 Si02
#       8
#     8   8   8   8   8   8   8   8
#     4  10  19  31  49  69  92 121 157 202 248 284
#     4   9  17  28  42  62  90 125 162 194 222 264
#     4  10  20  33  48  70  99 127 162 200 236 282
#     4  11  20  32  49  68  95 127 162 198 237 285
#     4  10  18  30  47  67  93 126 165 198 228 278
#     4   9  18  33  49  67  91 123 161 201 240 283
#     4   9  17  31  49  69  95 126 160 198 240 281
#     4   9  19  32  46  69 100 127 155 196 238 279
#
# _framework density 15.627055
#
# number of rings (size 3 to 8) (size 9 to 14) (size 15 to 20)
#    0.000    2.375    1.250    3.000    0.000    5.000 
#    0.000    0.000    0.000    2.625    0.000    0.875 
#    0.000    7.000    0.000    0.000    0.000    0.000 
#
# Total GULP energy -178386.069815 kJ/mol
# GULP energy per Si atom -5574.564682 kJ/mol
# Density = 1.559149 g / cm^3
# Si number density = 15.627055 Si / 1000 Ang^3
#
#
#
# Elastic Constant Matrix: (Units=GPa)
#
#
# Indices 1 2 3 4 5 6 
#
# 1 105.5431 28.5718 71.2144 0.0000 10.8493 0.0000
# 2 28.5718 28.6251 34.2162 0.0000 2.4452 0.0000
# 3 71.2144 34.2162 146.0423 0.0000 14.8607 0.0000
# 4 0.0000 0.0000 0.0000 27.8702 0.0000 -0.0348
# 5 10.8493 2.4452 14.8607 0.0000 10.7258 0.0000
# 6 0.0000 0.0000 0.0000 -0.0348 0.0000 20.0020
#
#
#
# Elastic Compliance Matrix: (Units=1/GPa)
#
#
# Indices 1 2 3 4 5 6 
#
# 1 0.016120 -0.009670 -0.004843 0.000000 -0.007391 0.000000
# 2 -0.009670 0.054600 -0.009087 0.000000 0.009923 0.000000
# 3 -0.004843 -0.009087 0.012373 0.000000 -0.010173 0.000000
# 4 0.000000 0.000000 0.000000 0.035881 0.000000 0.000062
# 5 -0.007391 0.009923 -0.010173 0.000000 0.112541 0.000000
# 6 0.000000 0.000000 0.000000 0.000062 0.000000 0.049995
#
#
# Mechanical properties :
#
#
# Convention : Reuss Voigt Hill
#
# Bulk Modulus (GPa) = 27.85968 60.91282 44.38625
# Shear Modulus (GPa) = 14.67678 21.46679 18.07179
#
# Velocity S-wave (km/s) = 3.06795 3.71036 3.40434
# Velocity P-wave (km/s) = 5.51510 7.57756 6.62705
#
# Compressibility (1/GPa) = 0.03589416
#
# Stress axis : x y z
#
# Youngs Moduli (GPa) = 62.03441 18.31495 80.82134
#
# Poissons Ratio (x) = 0.17710 0.39142
# Poissons Ratio (y) = 0.59986 0.73440
# Poissons Ratio (z) = 0.30043 0.16642
#
# Static dielectric constant tensor:
#      x y z
#    x 1.513970 0.000000 0.008540 
#    y 0.000000 1.536160 0.000000 
#    z 0.008540 0.000000 1.513430 
# 
# From -- ./inp_files/326991.got.cif
#   From: 2010.05.17/outbox.cif.g08.bks.cpg/sg12_164_cif.got.tgz:326991.got - 2010.06.03 13:09:07.
