data_PCOD9172634
_publ_section_title
;
Structure prediction by ZEFSAII (Michael W. Deem and Ramdas Pophale) SiO2 
 PCOD9172634
Probable space group: C 2/M
;
_chemical_formula_sum "Si O2"
_cell_formula_units_Z 64
_cell_length_a 29.744341
_cell_length_b 7.729746
_cell_length_c 16.135404
_cell_angle_alpha 90.000000
_cell_angle_beta 89.080595
_cell_angle_gamma 90.000000
_cell_volume 3709.313171
_symmetry_space_group_name_H-M "C 2/M"
_symmetry_group_IT_number 12
_symmetry_cell_setting 'monoclinic'
loop_
_space_group_symop_operation_xyz
x,y,z
-x,y,-z
-x,-y,-z
x,-y,z
1/2+x,1/2+y,z
1/2-x,1/2+y,-z
1/2-x,1/2-y,-z
1/2+x,1/2-y,z
loop_
_atom_site_type_symbol
_atom_site_label
_atom_site_fract_x
_atom_site_fract_y
_atom_site_fract_z
Si Si1 0.948764 0.790883 0.182374
Si Si2 0.948259 0.288303 0.501699
Si Si3 0.108416 0.294681 0.655512
Si Si4 0.799815 0.796749 0.419149
Si Si5 0.391597 0.791930 0.662416
Si Si6 0.554637 0.300336 0.998020
Si Si7 0.051661 0.791177 0.178390
Si Si8 0.701457 0.799642 0.394609
O O1 0.916207 0.744199 0.257965
O O2 0.933434 0.724378 0.092049
O O3 0.000269 0.731488 0.196719
O O4 0.950374 0.000000 0.176772
O O5 0.948425 0.500000 0.501424
O O6 0.922009 0.229891 0.420337
O O7 0.922234 0.230064 0.584840
O O8 0.000000 0.232152 0.500000
O O9 0.111939 0.500000 0.646448
O O10 0.158543 0.223377 0.643259
O O11 0.751977 0.726331 0.387750
O O12 0.810567 0.709490 0.507133
O O13 0.793531 0.000000 0.437832
O O14 0.415552 0.753386 0.747990
O O15 0.340845 0.722829 0.652983
O O16 0.389116 0.000000 0.653981
O O17 0.570392 0.500000 0.997378
O O18 0.500000 0.303474 0.000000
O O19 0.566847 0.224035 0.087199
O O20 0.049671 0.000000 0.172106
O O21 0.705099 0.000000 0.369017
#
# Coordination Sequence:
#
# PCOD9172634 Si02
#       8
#     8   8   8   8   8   8   8   8
#     4   9  17  30  47  67  92 122 156 189 221 265
#     4   9  17  28  41  57  84 124 158 176 203 257
#     4  11  20  31  46  65  92 123 154 187 227 271
#     4  10  19  31  49  68  87 113 152 196 233 268
#     4  10  18  30  45  63  91 124 155 182 219 270
#     4   7  12  26  46  64  87 120 151 183 226 269
#     4   9  17  29  46  69  94 120 153 190 225 262
#     4   9  18  33  49  65  87 119 153 188 231 275
#
# _framework density 17.253867
#
# number of rings (size 3 to 8) (size 9 to 14) (size 15 to 20)
#    0.000    2.750    1.250    3.000    0.000    2.500 
#    0.000    0.625    0.000    4.875    0.000    0.875 
#    0.000    0.000    0.000    0.000    0.000    0.000 
#
# Total GULP energy -178317.185853 kJ/mol
# GULP energy per Si atom -5572.412058 kJ/mol
# Density = 1.721460 g / cm^3
# Si number density = 17.253867 Si / 1000 Ang^3
#
#
#
# Elastic Constant Matrix: (Units=GPa)
#
#
# Indices 1 2 3 4 5 6 
#
# 1 124.2156 2.3960 77.4822 0.0000 4.9661 0.0000
# 2 2.3960 28.2013 -3.4448 0.0000 -0.1712 0.0000
# 3 77.4822 -3.4448 143.2070 0.0000 4.0376 0.0000
# 4 0.0000 0.0000 0.0000 54.7222 0.0000 -18.0108
# 5 4.9661 -0.1712 4.0376 0.0000 9.8322 0.0000
# 6 0.0000 0.0000 0.0000 -18.0108 0.0000 18.4039
#
#
#
# Elastic Compliance Matrix: (Units=1/GPa)
#
#
# Indices 1 2 3 4 5 6 
#
# 1 0.012369 -0.001883 -0.006637 0.000000 -0.003555 0.000000
# 2 -0.001883 0.035851 0.001858 0.000000 0.000812 0.000000
# 3 -0.006637 0.001858 0.010647 0.000000 -0.000987 0.000000
# 4 0.000000 0.000000 0.000000 0.026957 0.000000 0.026381
# 5 -0.003555 0.000812 -0.000987 0.000000 0.103922 0.000000
# 6 0.000000 0.000000 0.000000 0.026381 0.000000 0.080154
#
#
# Mechanical properties :
#
#
# Convention : Reuss Voigt Hill
#
# Bulk Modulus (GPa) = 21.95747 49.83231 35.89489
# Shear Modulus (GPa) = 16.75574 31.20436 23.98005
#
# Velocity S-wave (km/s) = 3.11968 4.25731 3.73210
# Velocity P-wave (km/s) = 5.07250 7.28771 6.27858
#
# Compressibility (1/GPa) = 0.04554258
#
# Stress axis : x y z
#
# Youngs Moduli (GPa) = 80.84593 27.89301 93.92647
#
# Poissons Ratio (x) = 0.05253 0.62343
# Poissons Ratio (y) = 0.15225 -0.17455
# Poissons Ratio (z) = 0.53661 -0.05184
#
# Static dielectric constant tensor:
#      x y z
#    x 1.591130 0.000000 0.009240 
#    y 0.000000 1.648140 0.000000 
#    z 0.009240 0.000000 1.590850 
# 
# From -- ./inp_files/248368.got.cif
#   From: 2010.05.17/outbox.cif.g08.bks.cpg/sg12_125_cif.got.tgz:248368.got - 2010.06.03 13:09:07.
