data_PCOD9172234
_publ_section_title
;
Structure prediction by ZEFSAII (Michael W. Deem and Ramdas Pophale) SiO2 
 PCOD9172234
Probable space group: C 2/M
;
_chemical_formula_sum "Si O2"
_cell_formula_units_Z 40
_cell_length_a 20.627721
_cell_length_b 10.893160
_cell_length_c 8.858336
_cell_angle_alpha 90.000000
_cell_angle_beta 63.299729
_cell_angle_gamma 90.000000
_cell_volume 1778.231449
_symmetry_space_group_name_H-M "C 2/M"
_symmetry_group_IT_number 12
_symmetry_cell_setting 'monoclinic'
loop_
_space_group_symop_operation_xyz
x,y,z
-x,y,-z
-x,-y,-z
x,-y,z
1/2+x,1/2+y,z
1/2-x,1/2+y,-z
1/2-x,1/2-y,-z
1/2+x,1/2-y,z
loop_
_atom_site_type_symbol
_atom_site_label
_atom_site_fract_x
_atom_site_fract_y
_atom_site_fract_z
Si Si1 0.779041 0.127342 0.542639
Si Si2 0.310843 0.216639 0.757940
Si Si3 0.067634 0.136214 0.779027
Si Si4 0.151466 0.138849 0.000934
Si Si5 0.445651 0.139772 0.416616
O O1 0.750000 0.250000 0.500000
O O2 0.784471 0.154306 0.713417
O O3 0.858642 0.118916 0.392029
O O4 0.739288 0.000000 0.553024
O O5 0.235918 0.143397 0.857096
O O6 0.367123 0.159625 0.579945
O O7 0.350102 0.255064 0.871466
O O8 0.095819 0.160051 0.920133
O O9 0.036872 0.256493 0.727442
O O10 0.031423 0.000000 0.808838
O O11 0.137951 0.000000 0.071116
O O12 0.500000 0.154207 0.500000
O O13 0.450514 0.000000 0.353575
#
# Coordination Sequence:
#
# PCOD9172234 Si02
#       5
#     8   8   8   8   8
#     4  10  18  29  47  75 108 144 182 222 265 322
#     4  10  20  34  54  81 114 152 182 223 277 336
#     4   9  19  35  55  82 111 143 185 232 278 330
#     4  10  19  34  54  83 118 146 179 226 282 340
#     4  10  22  40  60  82 109 146 192 235 275 326
#
# _framework density 22.494261000000002
#
# number of rings (size 3 to 8) (size 9 to 14) (size 15 to 20)
#    0.000    2.200    2.000    1.200    0.000    4.400 
#    0.000    3.000    0.000    4.800    0.000    0.000 
#    0.000    0.000    0.000    0.000    0.000    0.000 
#
# Total GULP energy -111465.611695 kJ/mol
# GULP energy per Si atom -5573.280585 kJ/mol
# Density = 2.244306 g / cm^3
# Si number density = 22.494261 Si / 1000 Ang^3
#
#
#
# Elastic Constant Matrix: (Units=GPa)
#
#
# Indices 1 2 3 4 5 6 
#
# 1 81.5978 54.9279 21.1793 0.0000 13.5060 0.0000
# 2 54.9279 192.4942 45.3189 0.0000 32.3472 0.0000
# 3 21.1793 45.3189 67.1830 0.0000 16.8974 0.0000
# 4 0.0000 0.0000 0.0000 32.0799 0.0000 12.4032
# 5 13.5060 32.3472 16.8974 0.0000 43.1947 0.0000
# 6 0.0000 0.0000 0.0000 12.4032 0.0000 25.4242
#
#
#
# Elastic Compliance Matrix: (Units=1/GPa)
#
#
# Indices 1 2 3 4 5 6 
#
# 1 0.015507 -0.003730 -0.002058 0.000000 -0.001250 0.000000
# 2 -0.003730 0.007535 -0.003084 0.000000 -0.003270 0.000000
# 3 -0.002058 -0.003084 0.018712 0.000000 -0.004367 0.000000
# 4 0.000000 0.000000 0.000000 0.038419 0.000000 -0.018742
# 5 -0.001250 -0.003270 -0.004367 0.000000 0.027699 0.000000
# 6 0.000000 0.000000 0.000000 -0.018742 0.000000 0.048476
#
#
# Mechanical properties :
#
#
# Convention : Reuss Voigt Hill
#
# Bulk Modulus (GPa) = 41.65026 64.90302 53.27664
# Shear Modulus (GPa) = 27.45787 34.79634 31.12710
#
# Velocity S-wave (km/s) = 3.49759 3.93733 3.72395
# Velocity P-wave (km/s) = 5.90483 7.04172 6.49819
#
# Compressibility (1/GPa) = 0.02400945
#
# Stress axis : x y z
#
# Youngs Moduli (GPa) = 64.48507 132.71273 53.44044
#
# Poissons Ratio (x) = 0.49508 0.10997
# Poissons Ratio (y) = 0.24056 0.16483
# Poissons Ratio (z) = 0.13270 0.40935
#
# Static dielectric constant tensor:
#      x y z
#    x 1.933570 0.000000 0.016350 
#    y 0.000000 1.893500 0.000000 
#    z 0.016350 0.000000 1.867280 
# 
# From -- ./inp_files/83462.got.cif
#   From: 2010.05.17/outbox.cif.g08.bks.cpg/sg12_42_cif.got.tgz:83462.got - 2010.06.03 13:09:07.
