data_PCOD9172859
_publ_section_title
;
Structure prediction by ZEFSAII (Michael W. Deem and Ramdas Pophale) SiO2 
 PCOD9172859
Probable space group: C 2/M
;
_chemical_formula_sum "Si O2"
_cell_formula_units_Z 52
_cell_length_a 5.448935
_cell_length_b 25.651237
_cell_length_c 16.261169
_cell_angle_alpha 90.000000
_cell_angle_beta 103.289012
_cell_angle_gamma 90.000000
_cell_volume 2211.994567
_symmetry_space_group_name_H-M "C 2/M"
_symmetry_group_IT_number 12
_symmetry_cell_setting 'monoclinic'
loop_
_space_group_symop_operation_xyz
x,y,z
-x,y,-z
-x,-y,-z
x,-y,z
1/2+x,1/2+y,z
1/2-x,1/2+y,-z
1/2-x,1/2-y,-z
1/2+x,1/2-y,z
loop_
_atom_site_type_symbol
_atom_site_label
_atom_site_fract_x
_atom_site_fract_y
_atom_site_fract_z
Si Si1 0.929636 0.278158 0.897955
Si Si2 0.195700 0.940067 0.114871
Si Si3 0.294067 0.895191 0.872009
Si Si4 0.150348 0.062000 0.680941
Si Si5 0.500000 0.217168 0.500000
Si Si6 0.626538 0.215861 0.690566
Si Si7 0.836584 0.601444 0.301608
O O1 0.687447 0.240044 0.873913
O O2 0.830778 0.334052 0.863029
O O3 0.000000 0.281800 0.000000
O O4 0.434506 0.918090 0.084963
O O5 0.276646 0.935022 0.217623
O O6 0.939145 0.907785 0.087396
O O7 0.150210 0.000000 0.092744
O O8 0.219687 0.922294 0.780235
O O9 0.381839 0.086944 0.649193
O O10 0.878725 0.088532 0.648925
O O11 0.139184 0.000000 0.670524
O O12 0.250000 0.250000 0.500000
O O13 0.563722 0.193641 0.593459
O O14 0.374690 0.246887 0.701656
O O15 0.684198 0.160157 0.735690
#
# Coordination Sequence:
#
# PCOD9172859 Si02
#       7
#     8   8   8   8   4   8   8
#     4  10  21  37  54  72  96 127 161 195 232 278
#     4  10  19  33  51  72  98 127 158 193 236 284
#     4  10  18  32  53  73  93 125 163 194 229 280
#     4  10  19  33  50  71  97 126 159 194 235 283
#     4   8  16  30  48  64  87 126 163 194 234 276
#     4  10  19  32  47  69  99 127 158 197 235 279
#     4  10  18  30  48  72  95 127 161 190 236 283
#
# _framework density 23.508195000000001
#
# number of rings (size 3 to 8) (size 9 to 14) (size 15 to 20)
#    0.000    2.154    0.000    6.462    0.000    0.000 
#    0.000   18.462    0.000    5.077    0.000    5.923 
#    0.000    0.000    0.000    0.000    0.000    0.000 
#
# Total GULP energy -145221.642068 kJ/mol
# GULP energy per Si atom -5585.447772 kJ/mol
# Density = 2.345469 g / cm^3
# Si number density = 23.508195 Si / 1000 Ang^3
#
#
#
# Elastic Constant Matrix: (Units=GPa)
#
#
# Indices 1 2 3 4 5 6 
#
# 1 245.2722 74.0368 -7.1426 0.0000 -13.0589 0.0000
# 2 74.0368 176.9296 -14.3195 0.0000 -9.1242 0.0000
# 3 -7.1426 -14.3195 28.5360 0.0000 5.9962 0.0000
# 4 0.0000 0.0000 0.0000 12.6311 0.0000 0.9884
# 5 -13.0589 -9.1242 5.9962 0.0000 17.3940 0.0000
# 6 0.0000 0.0000 0.0000 0.9884 0.0000 47.2558
#
#
#
# Elastic Compliance Matrix: (Units=1/GPa)
#
#
# Indices 1 2 3 4 5 6 
#
# 1 0.004782 -0.001887 -0.000320 0.000000 0.002710 0.000000
# 2 -0.001887 0.006717 0.002648 0.000000 0.001194 0.000000
# 3 -0.000320 0.002648 0.038866 0.000000 -0.012249 0.000000
# 4 0.000000 0.000000 0.000000 0.079299 0.000000 -0.001659
# 5 0.002710 0.001194 -0.012249 0.000000 0.064375 0.000000
# 6 0.000000 0.000000 0.000000 -0.001659 0.000000 0.021196
#
#
# Mechanical properties :
#
#
# Convention : Reuss Voigt Hill
#
# Bulk Modulus (GPa) = 19.51330 61.76522 40.63926
# Shear Modulus (GPa) = 21.60427 42.00042 31.80234
#
# Velocity S-wave (km/s) = 3.03481 4.23144 3.68206
# Velocity P-wave (km/s) = 4.53858 7.08550 5.94992
#
# Compressibility (1/GPa) = 0.05124711
#
# Stress axis : x y z
#
# Youngs Moduli (GPa) = 209.13043 148.86573 25.72949
#
# Poissons Ratio (x) = 0.28091 0.00822
# Poissons Ratio (y) = 0.39463 -0.06812
# Poissons Ratio (z) = 0.06683 -0.39413
#
# Static dielectric constant tensor:
#      x y z
#    x 2.026100 0.000000 0.037620 
#    y 0.000000 1.814430 0.000000 
#    z 0.037620 0.000000 2.072560 
# 
# From -- ./inp_files/297822.got.cif
#   From: 2010.05.17/outbox.cif.g08.bks.cpg/sg12_149_cif.got.tgz:297822.got - 2010.06.03 13:09:07.
