data_PCOD9172195
_publ_section_title
;
Structure prediction by ZEFSAII (Michael W. Deem and Ramdas Pophale) SiO2 
 PCOD9172195
Probable space group: C 2/M
;
_chemical_formula_sum "Si O2"
_cell_formula_units_Z 64
_cell_length_a 28.463118
_cell_length_b 8.795950
_cell_length_c 21.243291
_cell_angle_alpha 90.000000
_cell_angle_beta 45.821430
_cell_angle_gamma 90.000000
_cell_volume 3814.256838
_symmetry_space_group_name_H-M "C 2/M"
_symmetry_group_IT_number 12
_symmetry_cell_setting 'monoclinic'
loop_
_space_group_symop_operation_xyz
x,y,z
-x,y,-z
-x,-y,-z
x,-y,z
1/2+x,1/2+y,z
1/2-x,1/2+y,-z
1/2-x,1/2-y,-z
1/2+x,1/2-y,z
loop_
_atom_site_type_symbol
_atom_site_label
_atom_site_fract_x
_atom_site_fract_y
_atom_site_fract_z
Si Si1 0.432572 0.819713 0.847972
Si Si2 0.398429 0.323663 0.012831
Si Si3 0.082870 0.320663 0.874211
Si Si4 0.212320 0.181124 0.593756
Si Si5 0.562837 0.682133 0.760087
Si Si6 0.806884 0.179299 0.902658
Si Si7 0.740618 0.173843 0.177135
Si Si8 0.224308 0.817716 0.722115
O O1 0.504865 0.749950 0.772230
O O2 0.376474 0.750303 0.856407
O O3 0.434277 0.000000 0.840557
O O4 0.412238 0.771083 0.937600
O O5 0.418122 0.500000 0.986653
O O6 0.430392 0.251673 0.045216
O O7 0.319604 0.322069 0.095820
O O8 0.069752 0.500000 0.886250
O O9 0.052397 0.241043 0.841367
O O10 0.160166 0.284225 0.792429
O O11 0.250000 0.250000 0.500000
O O12 0.136025 0.230404 0.670829
O O13 0.245647 0.212665 0.630714
O O14 0.211352 0.000000 0.587195
O O15 0.560418 0.500000 0.762436
O O16 0.789855 0.217996 0.846491
O O17 0.808166 0.000000 0.912758
O O18 0.750000 0.250000 0.000000
O O19 0.729003 0.208940 0.261773
O O20 0.719763 0.000000 0.183667
O O21 0.205848 0.000000 0.742360
#
# Coordination Sequence:
#
# PCOD9172195 Si02
#       8
#     8   8   8   8   8   8   8   8
#     4  12  24  36  51  72  97 129 175 222 261 302
#     4  10  19  32  49  68  96 135 173 211 259 303
#     4  10  18  29  47  71  98 129 171 214 249 293
#     4   9  18  33  56  83 109 137 165 200 246 308
#     4  10  21  38  53  70 101 137 169 204 256 310
#     4  12  23  35  51  72 100 136 178 222 265 304
#     4   9  17  31  51  71  97 133 176 220 258 298
#     4   8  16  31  49  72 104 138 169 203 255 307
#
# _framework density 16.779153000000001
#
# number of rings (size 3 to 8) (size 9 to 14) (size 15 to 20)
#    0.000    2.000    1.250    5.625    0.000    5.000 
#    0.000    2.500    0.000    0.000    0.000    0.875 
#    0.000    7.000    0.000    0.000    0.000    0.000 
#
# Total GULP energy -178561.525377 kJ/mol
# GULP energy per Si atom -5580.047668 kJ/mol
# Density = 1.674096 g / cm^3
# Si number density = 16.779153 Si / 1000 Ang^3
#
#
#
# Elastic Constant Matrix: (Units=GPa)
#
#
# Indices 1 2 3 4 5 6 
#
# 1 114.4863 51.1233 40.3246 -0.0015 4.7972 0.0037
# 2 51.1233 99.1068 22.6003 0.0028 0.9927 -0.0045
# 3 40.3246 22.6003 84.5644 -0.0002 13.9032 0.0006
# 4 -0.0015 0.0028 -0.0002 23.6812 0.0010 3.2403
# 5 4.7972 0.9927 13.9032 0.0010 17.3039 0.0010
# 6 0.0037 -0.0045 0.0006 3.2403 0.0010 28.7044
#
#
#
# Elastic Compliance Matrix: (Units=1/GPa)
#
#
# Indices 1 2 3 4 5 6 
#
# 1 0.012864 -0.005560 -0.004740 0.000002 0.000562 -0.000003
# 2 -0.005560 0.013206 -0.001160 -0.000002 0.001716 0.000003
# 3 -0.004740 -0.001160 0.016325 0.000000 -0.011736 0.000000
# 4 0.000002 -0.000002 0.000000 0.042890 -0.000003 -0.004842
# 5 0.000562 0.001716 -0.011736 -0.000003 0.066966 -0.000002
# 6 -0.000003 0.000003 0.000000 -0.004842 -0.000002 0.035384
#
#
# Mechanical properties :
#
#
# Convention : Reuss Voigt Hill
#
# Bulk Modulus (GPa) = 51.35197 58.47268 54.91232
# Shear Modulus (GPa) = 23.03643 26.21184 24.62414
#
# Velocity S-wave (km/s) = 3.70931 3.95671 3.83501
# Velocity P-wave (km/s) = 7.00117 7.46982 7.23929
#
# Compressibility (1/GPa) = 0.01947345
#
# Stress axis : x y z
#
# Youngs Moduli (GPa) = 77.73800 75.72505 61.25450
#
# Poissons Ratio (x) = 0.42105 0.29037
# Poissons Ratio (y) = 0.43224 0.07105
# Poissons Ratio (z) = 0.36851 0.08784
#
# Static dielectric constant tensor:
#      x y z
#    x 1.595000 0.000000 -0.004530 
#    y 0.000000 1.563660 0.000000 
#    z -0.004530 0.000000 1.578230 
# 
# From -- ./inp_files/326898.got.cif
#   From: 2010.05.17/outbox.cif.g08.bks.cpg/sg12_164_cif.got.tgz:326898.got - 2010.06.03 13:09:07.
