data_PCOD9172687
_publ_section_title
;
Structure prediction by ZEFSAII (Michael W. Deem and Ramdas Pophale) SiO2 
 PCOD9172687
Probable space group: C 2/M
;
_chemical_formula_sum "Si O2"
_cell_formula_units_Z 64
_cell_length_a 24.626624
_cell_length_b 8.295260
_cell_length_c 22.374326
_cell_angle_alpha 90.000000
_cell_angle_beta 50.862938
_cell_angle_gamma 90.000000
_cell_volume 3545.227292
_symmetry_space_group_name_H-M "C 2/M"
_symmetry_group_IT_number 12
_symmetry_cell_setting 'monoclinic'
loop_
_space_group_symop_operation_xyz
x,y,z
-x,y,-z
-x,-y,-z
x,-y,z
1/2+x,1/2+y,z
1/2-x,1/2+y,-z
1/2-x,1/2-y,-z
1/2+x,1/2-y,z
loop_
_atom_site_type_symbol
_atom_site_label
_atom_site_fract_x
_atom_site_fract_y
_atom_site_fract_z
Si Si1 0.427569 0.697492 0.783948
Si Si2 0.671884 0.308447 0.039486
Si Si3 0.115847 0.188834 0.827322
Si Si4 0.830520 0.691107 0.089995
Si Si5 0.822902 0.804286 0.757039
Si Si6 0.573687 0.697018 0.731151
Si Si7 0.727212 0.693045 0.580790
Si Si8 0.735344 0.307382 0.323308
O O1 0.428177 0.500000 0.782769
O O2 0.381234 0.750522 0.872810
O O3 0.387326 0.752491 0.752366
O O4 0.506980 0.749877 0.739557
O O5 0.672539 0.500000 0.042984
O O6 0.750000 0.250000 0.000000
O O7 0.650755 0.260667 0.987275
O O8 0.117958 0.268107 0.890955
O O9 0.069024 0.248878 0.804206
O O10 0.193973 0.217787 0.746846
O O11 0.102895 0.000000 0.844616
O O12 0.826297 0.500000 0.087338
O O13 0.751824 0.749137 0.162900
O O14 0.821282 0.763343 0.687949
O O15 0.822638 0.000000 0.760634
O O16 0.574539 0.500000 0.731865
O O17 0.647810 0.748269 0.651628
O O18 0.728417 0.500000 0.582411
O O19 0.750000 0.750000 0.500000
O O20 0.775688 0.760224 0.600602
O O21 0.747521 0.500000 0.310818
#
# Coordination Sequence:
#
# PCOD9172687 Si02
#       8
#     8   8   8   8   8   8   8   8
#     4   9  16  29  48  70  95 127 161 201 244 285
#     4  11  20  30  47  69  96 127 163 206 251 292
#     4   9  16  28  46  70  94 123 162 206 248 288
#     4  10  18  30  46  67  93 125 165 210 250 289
#     4   8  14  25  44  69  93 120 158 198 236 274
#     4   8  16  30  49  72  98 123 158 199 237 287
#     4  10  19  32  52  78 101 124 156 196 238 286
#     4   9  16  27  46  73 101 127 155 194 237 285
#
# _framework density 18.052439
#
# number of rings (size 3 to 8) (size 9 to 14) (size 15 to 20)
#    0.000    2.750    1.250    3.375    0.000    0.000 
#    0.000    0.625    0.000   13.500    0.000    5.250 
#    0.000    0.000    0.000    0.000    0.000    0.000 
#
# Total GULP energy -178241.251452 kJ/mol
# GULP energy per Si atom -5570.039108 kJ/mol
# Density = 1.801135 g / cm^3
# Si number density = 18.052439 Si / 1000 Ang^3
#
#
#
# Elastic Constant Matrix: (Units=GPa)
#
#
# Indices 1 2 3 4 5 6 
#
# 1 140.6663 9.6351 59.0285 0.0004 30.6668 0.0002
# 2 9.6351 16.3217 7.2067 0.0007 1.1720 0.0001
# 3 59.0285 7.2067 84.9118 0.0002 30.5734 -0.0001
# 4 0.0004 0.0007 0.0002 21.0586 -0.0001 8.5142
# 5 30.6668 1.1720 30.5734 -0.0001 30.8318 0.0002
# 6 0.0002 0.0001 -0.0001 8.5142 0.0002 18.1984
#
#
#
# Elastic Compliance Matrix: (Units=1/GPa)
#
#
# Indices 1 2 3 4 5 6 
#
# 1 0.010711 -0.003638 -0.005212 0.000000 -0.005347 0.000000
# 2 -0.003638 0.065305 -0.005323 -0.000002 0.006414 0.000001
# 3 -0.005212 -0.005323 0.021638 0.000000 -0.016070 0.000001
# 4 0.000000 -0.000002 0.000000 0.058565 0.000001 -0.027400
# 5 -0.005347 0.006414 -0.016070 0.000001 0.053445 -0.000001
# 6 0.000000 0.000001 0.000001 -0.027400 -0.000001 0.067769
#
#
# Mechanical properties :
#
#
# Convention : Reuss Voigt Hill
#
# Bulk Modulus (GPa) = 14.42826 43.73780 29.08303
# Shear Modulus (GPa) = 15.20303 25.08640 20.14472
#
# Velocity S-wave (km/s) = 2.90515 3.73183 3.34413
# Velocity P-wave (km/s) = 4.38896 6.54596 5.57281
#
# Compressibility (1/GPa) = 0.06930843
#
# Stress axis : x y z
#
# Youngs Moduli (GPa) = 93.36132 15.31271 46.21425
#
# Poissons Ratio (x) = 0.05570 0.24087
# Poissons Ratio (y) = 0.33962 0.24602
# Poissons Ratio (z) = 0.48660 0.08152
#
# Static dielectric constant tensor:
#      x y z
#    x 1.659820 0.000000 0.018080 
#    y 0.000000 1.640350 0.000000 
#    z 0.018080 0.000000 1.618860 
# 
# From -- ./inp_files/323698.got.cif
#   From: 2010.05.17/outbox.cif.g08.bks.cpg/sg12_162_cif.got.tgz:323698.got - 2010.06.03 13:09:07.
