data_PCOD9172756
_publ_section_title
;
Structure prediction by ZEFSAII (Michael W. Deem and Ramdas Pophale) SiO2 
 PCOD9172756
Probable space group: C 2/M
;
_chemical_formula_sum "Si O2"
_cell_formula_units_Z 56
_cell_length_a 25.864431
_cell_length_b 16.244538
_cell_length_c 10.423610
_cell_angle_alpha 90.000000
_cell_angle_beta 136.077184
_cell_angle_gamma 90.000000
_cell_volume 3038.037088
_symmetry_space_group_name_H-M "C 2/M"
_symmetry_group_IT_number 12
_symmetry_cell_setting 'monoclinic'
loop_
_space_group_symop_operation_xyz
x,y,z
-x,y,-z
-x,-y,-z
x,-y,z
1/2+x,1/2+y,z
1/2-x,1/2+y,-z
1/2-x,1/2-y,-z
1/2+x,1/2-y,z
loop_
_atom_site_type_symbol
_atom_site_label
_atom_site_fract_x
_atom_site_fract_y
_atom_site_fract_z
Si Si1 0.339750 0.148033 0.052587
Si Si2 0.961932 0.832803 0.563850
Si Si3 0.313846 0.334864 0.919152
Si Si4 0.002971 0.360483 0.356159
Si Si5 0.542651 0.402844 0.949510
Si Si6 0.179337 0.907576 0.783023
Si Si7 0.161106 0.403144 0.655599
O O1 0.421775 0.119823 0.152961
O O2 0.345665 0.142842 0.218495
O O3 0.323253 0.240291 0.976846
O O4 0.264768 0.098239 0.889779
O O5 0.987632 0.738483 0.627429
O O6 0.874206 0.844140 0.385436
O O7 0.000000 0.862344 0.500000
O O8 0.991169 0.884181 0.735177
O O9 0.232845 0.360291 0.721575
O O10 0.379316 0.359171 0.940277
O O11 0.322528 0.385087 0.069028
O O12 0.081106 0.394702 0.444041
O O13 0.000000 0.389205 0.500000
O O14 0.556000 0.500000 0.985454
O O15 0.500000 0.373354 0.000000
O O16 0.151011 0.000000 0.713963
O O17 0.175945 0.500000 0.704426
#
# Coordination Sequence:
#
# PCOD9172756 Si02
#       7
#     8   8   8   8   8   8   8
#     4  10  18  30  47  71 104 145 177 214 260 314
#     4  11  19  34  54  79 107 141 178 215 265 325
#     4  11  18  33  50  73 106 143 181 212 264 325
#     4   9  17  30  47  73 104 145 176 211 261 316
#     4  11  23  36  53  79 111 143 176 221 270 317
#     4  11  20  28  48  79 109 137 172 216 262 313
#     4  10  19  28  47  77 113 145 175 221 271 316
#
# _framework density 18.432956000000001
#
# number of rings (size 3 to 8) (size 9 to 14) (size 15 to 20)
#    0.000    1.571    2.857    7.286    0.000    3.714 
#    0.000    0.000    0.000    3.429    0.000    0.000 
#    0.000    4.000    0.000    0.000    0.000    0.000 
#
# Total GULP energy -156124.967163 kJ/mol
# GULP energy per Si atom -5575.891684 kJ/mol
# Density = 1.839100 g / cm^3
# Si number density = 18.432956 Si / 1000 Ang^3
#
#
#
# Elastic Constant Matrix: (Units=GPa)
#
#
# Indices 1 2 3 4 5 6 
#
# 1 95.0622 30.9971 47.2588 0.0000 25.6333 0.0000
# 2 30.9971 60.9869 -0.1655 0.0000 2.3053 0.0000
# 3 47.2588 -0.1655 74.8821 0.0000 38.4255 0.0000
# 4 0.0000 0.0000 0.0000 -1.6666 0.0000 6.7892
# 5 25.6333 2.3053 38.4255 0.0000 36.1710 0.0000
# 6 0.0000 0.0000 0.0000 6.7892 0.0000 15.3281
#
#
#
# Elastic Compliance Matrix: (Units=1/GPa)
#
#
# Indices 1 2 3 4 5 6 
#
# 1 0.020253 -0.010321 -0.012701 0.000000 -0.000203 0.000000
# 2 -0.010321 0.021750 0.007738 0.000000 -0.002292 0.000000
# 3 -0.012701 0.007738 0.037420 0.000000 -0.031245 0.000000
# 4 0.000000 0.000000 0.000000 -0.213963 0.000000 0.094769
# 5 -0.000203 -0.002292 -0.031245 0.000000 0.061129 0.000000
# 6 0.000000 0.000000 0.000000 0.094769 0.000000 0.023264
#
#
# Mechanical properties :
#
#
# Convention : Reuss Voigt Hill
#
# Bulk Modulus (GPa) = 20.46807 43.01245 31.74026
# Shear Modulus (GPa) = -1518.59679 20.15590 -749.22044
#
# Velocity S-wave (km/s) = -28.73390 3.31035 -20.18265
# Velocity P-wave (km/s) = 33.01093 6.16413 22.93169
#
# Compressibility (1/GPa) = 0.04885659
#
# Stress axis : x y z
#
# Youngs Moduli (GPa) = 49.37425 45.97656 26.72332
#
# Poissons Ratio (x) = 0.47451 0.33941
# Poissons Ratio (y) = 0.50958 -0.20678
# Poissons Ratio (z) = 0.62710 -0.35576
#
# Static dielectric constant tensor:
#      x y z
#    x 1.642190 0.000000 0.066710 
#    y 0.000000 1.636670 0.000000 
#    z 0.066710 0.000000 1.682900 
# 
# From -- ./inp_files/156134.got.cif
#   From: 2010.05.17/outbox.cif.g08.bks.cpg/sg12_79_cif.got.tgz:156134.got - 2010.06.03 13:09:07.
