data_PCOD9172211
_publ_section_title
;
Structure prediction by ZEFSAII (Michael W. Deem and Ramdas Pophale) SiO2 
 PCOD9172211
Probable space group: C 2/M
;
_chemical_formula_sum "Si O2"
_cell_formula_units_Z 48
_cell_length_a 23.350800
_cell_length_b 7.640113
_cell_length_c 21.578489
_cell_angle_alpha 90.000000
_cell_angle_beta 132.710633
_cell_angle_gamma 90.000000
_cell_volume 2828.688096
_symmetry_space_group_name_H-M "C 2/M"
_symmetry_group_IT_number 12
_symmetry_cell_setting 'monoclinic'
loop_
_space_group_symop_operation_xyz
x,y,z
-x,y,-z
-x,-y,-z
x,-y,z
1/2+x,1/2+y,z
1/2-x,1/2+y,-z
1/2-x,1/2-y,-z
1/2+x,1/2-y,z
loop_
_atom_site_type_symbol
_atom_site_label
_atom_site_fract_x
_atom_site_fract_y
_atom_site_fract_z
Si Si1 0.940592 0.786379 0.543753
Si Si2 0.988538 0.500000 0.889138
Si Si3 0.838404 0.209707 0.583058
Si Si4 0.281750 0.698188 0.795466
Si Si5 0.108908 0.791464 0.242034
Si Si6 0.388583 0.288041 0.369970
Si Si7 0.128342 0.500000 0.078369
O O1 0.896060 0.723215 0.571822
O O2 0.897468 0.733584 0.448490
O O3 0.030934 0.734204 0.604087
O O4 0.939985 0.000000 0.543606
O O5 0.963045 0.671974 0.832415
O O6 0.933107 0.500000 0.909466
O O7 0.076380 0.500000 0.978674
O O8 0.750000 0.250000 0.500000
O O9 0.860836 0.267863 0.668534
O O10 0.845925 0.000000 0.589412
O O11 0.301032 0.500000 0.826703
O O12 0.323526 0.734929 0.759849
O O13 0.189864 0.719433 0.718020
O O14 0.317652 0.831916 0.870899
O O15 0.091222 0.000000 0.230271
O O16 0.385012 0.500000 0.366347
#
# Coordination Sequence:
#
# PCOD9172211 Si02
#       7
#     8   4   8   8   8   8   4
#     4   8  16  28  45  66  93 131 167 197 234 274
#     4   9  18  32  52  68  98 125 158 190 241 291
#     4  10  19  30  44  67  98 130 166 196 231 275
#     4  10  18  29  47  72  99 124 155 194 244 285
#     4   9  19  31  46  70  99 128 158 193 236 284
#     4   9  15  28  47  67  94 128 165 199 237 278
#     4   9  18  32  48  75  94 124 154 195 239 299
#
# _framework density 16.968996000000001
#
# number of rings (size 3 to 8) (size 9 to 14) (size 15 to 20)
#    0.000    2.833    0.833    2.000    1.167    0.667 
#    0.000    5.833    0.000    0.000    0.000    1.167 
#    0.000    0.000    0.000    0.000    0.000    0.000 
#
# Total GULP energy -133801.219099 kJ/mol
# GULP energy per Si atom -5575.050796 kJ/mol
# Density = 1.693037 g / cm^3
# Si number density = 16.968996 Si / 1000 Ang^3
#
#
#
# Elastic Constant Matrix: (Units=GPa)
#
#
# Indices 1 2 3 4 5 6 
#
# 1 67.7037 25.4351 55.3000 0.0000 8.2153 0.0000
# 2 25.4351 56.0364 46.2752 0.0000 5.6787 0.0001
# 3 55.3000 46.2752 148.5823 0.0000 20.5976 0.0000
# 4 0.0000 0.0000 0.0000 12.1833 0.0000 0.4832
# 5 8.2153 5.6787 20.5976 0.0000 23.8415 0.0000
# 6 0.0000 0.0001 0.0000 0.4832 0.0000 6.7905
#
#
#
# Elastic Compliance Matrix: (Units=1/GPa)
#
#
# Indices 1 2 3 4 5 6 
#
# 1 0.021988 -0.004351 -0.006728 0.000000 -0.000728 0.000000
# 2 -0.004351 0.024900 -0.006273 0.000000 0.000988 0.000000
# 3 -0.006728 -0.006273 0.012110 0.000000 -0.006650 0.000000
# 4 0.000000 0.000000 0.000000 0.082312 0.000000 -0.005858
# 5 -0.000728 0.000988 -0.006650 0.000000 0.047704 0.000000
# 6 0.000000 0.000000 0.000000 -0.005858 0.000000 0.147682
#
#
# Mechanical properties :
#
#
# Convention : Reuss Voigt Hill
#
# Bulk Modulus (GPa) = 41.15958 58.48254 49.82106
# Shear Modulus (GPa) = 13.17531 18.25053 15.71292
#
# Velocity S-wave (km/s) = 2.78948 3.28307 3.04629
# Velocity P-wave (km/s) = 5.88926 6.99361 6.46506
#
# Compressibility (1/GPa) = 0.02429568
#
# Stress axis : x y z
#
# Youngs Moduli (GPa) = 45.47878 40.16008 82.57903
#
# Poissons Ratio (x) = 0.17474 0.55556
# Poissons Ratio (y) = 0.19788 0.51799
# Poissons Ratio (z) = 0.30597 0.25191
#
# Static dielectric constant tensor:
#      x y z
#    x 1.566850 0.000000 -0.008490 
#    y 0.000000 1.616630 0.000000 
#    z -0.008490 0.000000 1.547820 
# 
# From -- ./inp_files/287977.got.cif
#   From: 2010.05.17/outbox.cif.g08.bks.cpg/sg12_144_cif.got.tgz:287977.got - 2010.06.03 13:09:07.
