data_PCOD9172954
_publ_section_title
;
Structure prediction by ZEFSAII (Michael W. Deem and Ramdas Pophale) SiO2 
 PCOD9172954
Probable space group: C 2/M
;
_chemical_formula_sum "Si O2"
_cell_formula_units_Z 52
_cell_length_a 5.560229
_cell_length_b 23.247391
_cell_length_c 19.075248
_cell_angle_alpha 90.000000
_cell_angle_beta 55.800353
_cell_angle_gamma 90.000000
_cell_volume 2039.326349
_symmetry_space_group_name_H-M "C 2/M"
_symmetry_group_IT_number 12
_symmetry_cell_setting 'monoclinic'
loop_
_space_group_symop_operation_xyz
x,y,z
-x,y,-z
-x,-y,-z
x,-y,z
1/2+x,1/2+y,z
1/2-x,1/2+y,-z
1/2-x,1/2-y,-z
1/2+x,1/2-y,z
loop_
_atom_site_type_symbol
_atom_site_label
_atom_site_fract_x
_atom_site_fract_y
_atom_site_fract_z
Si Si1 0.199848 0.609740 0.195993
Si Si2 0.933079 0.259054 0.739834
Si Si3 0.814135 0.435554 0.386665
Si Si4 0.000000 0.715754 0.500000
Si Si5 0.426638 0.217770 0.080142
Si Si6 0.186573 0.888939 0.612275
Si Si7 0.293528 0.430417 0.807444
O O1 0.157662 0.676731 0.221528
O O2 0.532130 0.590389 0.152300
O O3 0.024452 0.575230 0.285306
O O4 0.032769 0.593038 0.152049
O O5 0.774120 0.244439 0.694358
O O6 0.788106 0.213077 0.818049
O O7 0.704981 0.500000 0.402134
O O8 0.529364 0.397982 0.417755
O O9 0.027228 0.426733 0.417291
O O10 0.250000 0.750000 0.500000
O O11 0.168934 0.672642 0.419703
O O12 0.724616 0.235686 0.070114
O O13 0.500000 0.178646 0.000000
O O14 0.979235 0.902294 0.712727
O O15 0.299830 0.500000 0.801276
#
# Coordination Sequence:
#
# PCOD9172954 Si02
#       7
#     8   8   8   4   8   8   8
#     4  10  18  30  49  72  99 129 156 190 238 289
#     4  10  19  30  42  65 101 132 161 198 230 271
#     4  10  19  36  56  78 102 121 150 198 245 284
#     4  12  26  44  57  72 101 132 162 196 224 266
#     4   8  14  25  41  58  82 122 164 199 237 271
#     4  10  20  37  57  76  96 127 160 189 232 283
#     4  10  19  35  54  75  99 120 151 199 244 282
#
# _framework density 25.498615000000001
#
# number of rings (size 3 to 8) (size 9 to 14) (size 15 to 20)
#    0.000    2.154    0.000    6.462    0.000    0.000 
#    0.000   22.692    0.000    0.000    0.000    0.000 
#    0.000    6.769    0.000    0.000    0.000    0.000 
#
# Total GULP energy -145016.240369 kJ/mol
# GULP energy per Si atom -5577.547706 kJ/mol
# Density = 2.544058 g / cm^3
# Si number density = 25.498615 Si / 1000 Ang^3
#
#
#
# Elastic Constant Matrix: (Units=GPa)
#
#
# Indices 1 2 3 4 5 6 
#
# 1 275.6522 52.6306 6.8471 0.0000 -11.1064 0.0000
# 2 52.6306 141.3161 1.9087 0.0000 -2.4078 0.0000
# 3 6.8471 1.9087 48.5652 0.0000 -6.2960 0.0000
# 4 0.0000 0.0000 0.0000 24.9838 0.0000 -11.9601
# 5 -11.1064 -2.4078 -6.2960 0.0000 26.8710 0.0000
# 6 0.0000 0.0000 0.0000 -11.9601 0.0000 50.9968
#
#
#
# Elastic Compliance Matrix: (Units=1/GPa)
#
#
# Indices 1 2 3 4 5 6 
#
# 1 0.003970 -0.001450 -0.000316 0.000000 0.001437 0.000000
# 2 -0.001450 0.007619 -0.000087 0.000000 0.000063 0.000000
# 3 -0.000316 -0.000087 0.021267 0.000000 0.004844 0.000000
# 4 0.000000 0.000000 0.000000 0.045088 0.000000 0.010574
# 5 0.001437 0.000063 0.004844 0.000000 0.038950 0.000000
# 6 0.000000 0.000000 0.000000 0.010574 0.000000 0.022089
#
#
# Mechanical properties :
#
#
# Convention : Reuss Voigt Hill
#
# Bulk Modulus (GPa) = 34.30610 65.36737 49.83673
# Shear Modulus (GPa) = 32.80722 47.51344 40.16033
#
# Velocity S-wave (km/s) = 3.59085 4.32136 3.97293
# Velocity P-wave (km/s) = 5.53855 7.11268 6.37439
#
# Compressibility (1/GPa) = 0.02914934
#
# Stress axis : x y z
#
# Youngs Moduli (GPa) = 251.86653 131.25803 47.02140
#
# Poissons Ratio (x) = 0.19031 0.01488
# Poissons Ratio (y) = 0.36519 0.00408
# Poissons Ratio (z) = 0.07972 0.01140
#
# Static dielectric constant tensor:
#      x y z
#    x 2.117980 0.000000 0.011620 
#    y 0.000000 2.084940 0.000000 
#    z 0.011620 0.000000 2.164990 
# 
# From -- ./inp_files/331246.got.cif
#   From: 2010.05.17/outbox.cif.g08.bks.cpg/sg12_166_cif.got.tgz:331246.got - 2010.06.03 13:09:07.
