data_PCOD9172915
_publ_section_title
;
Structure prediction by ZEFSAII (Michael W. Deem and Ramdas Pophale) SiO2 
 PCOD9172915
Probable space group: C 2/M
;
_chemical_formula_sum "Si O2"
_cell_formula_units_Z 48
_cell_length_a 24.358002
_cell_length_b 8.622024
_cell_length_c 14.075001
_cell_angle_alpha 90.000000
_cell_angle_beta 108.772097
_cell_angle_gamma 90.000000
_cell_volume 2798.725899
_symmetry_space_group_name_H-M "C 2/M"
_symmetry_group_IT_number 12
_symmetry_cell_setting 'monoclinic'
loop_
_space_group_symop_operation_xyz
x,y,z
-x,y,-z
-x,-y,-z
x,-y,z
1/2+x,1/2+y,z
1/2-x,1/2+y,-z
1/2-x,1/2-y,-z
1/2+x,1/2-y,z
loop_
_atom_site_type_symbol
_atom_site_label
_atom_site_fract_x
_atom_site_fract_y
_atom_site_fract_z
Si Si1 0.630176 0.686189 0.644618
Si Si2 0.556271 0.682461 0.419552
Si Si3 0.253545 0.314072 0.394738
Si Si4 0.124949 0.684584 0.287603
Si Si5 0.019010 0.185118 0.116569
Si Si6 0.050132 0.681664 0.749098
O O1 0.632776 0.500000 0.657488
O O2 0.582230 0.718207 0.536468
O O3 0.691177 0.742056 0.634782
O O4 0.608101 0.759393 0.730049
O O5 0.541012 0.500000 0.407465
O O6 0.605859 0.720747 0.370399
O O7 0.501896 0.780366 0.353686
O O8 0.259659 0.500000 0.406537
O O9 0.250000 0.250000 0.500000
O O10 0.192487 0.281972 0.308789
O O11 0.118802 0.500000 0.302010
O O12 0.078871 0.734193 0.182266
O O13 0.970353 0.233064 0.166484
O O14 0.027091 0.000000 0.125919
O O15 0.000000 0.228178 0.000000
O O16 0.052845 0.500000 0.768722
#
# Coordination Sequence:
#
# PCOD9172915 Si02
#       6
#     8   8   8   8   8   8
#     4  10  20  33  48  69 103 145 179 207 245 299
#     4  10  18  30  49  70 100 142 177 208 249 301
#     4  10  20  33  50  74 106 145 181 211 247 294
#     4  10  19  31  51  79 108 135 170 216 259 299
#     4  10  21  38  60  80  99 129 168 212 264 319
#     4  11  22  33  49  75 104 132 167 216 264 305
#
# _framework density 17.150660999999999
#
# number of rings (size 3 to 8) (size 9 to 14) (size 15 to 20)
#    0.000    1.833    1.667    5.500    0.000    6.000 
#    0.000    0.000    0.000    1.000    0.000    0.000 
#    0.000    0.000    0.000    0.000    0.000    0.000 
#
# Total GULP energy -133914.710009 kJ/mol
# GULP energy per Si atom -5579.779584 kJ/mol
# Density = 1.711163 g / cm^3
# Si number density = 17.150661 Si / 1000 Ang^3
#
#
#
# Elastic Constant Matrix: (Units=GPa)
#
#
# Indices 1 2 3 4 5 6 
#
# 1 109.9361 10.9111 37.1780 0.0000 -17.1482 0.0000
# 2 10.9111 22.0233 19.9091 0.0000 -3.5092 0.0000
# 3 37.1780 19.9091 83.2211 0.0000 -7.6884 0.0000
# 4 0.0000 0.0000 0.0000 3.9325 0.0000 7.3311
# 5 -17.1482 -3.5092 -7.6884 0.0000 9.6004 0.0000
# 6 0.0000 0.0000 0.0000 7.3311 0.0000 20.6059
#
#
#
# Elastic Compliance Matrix: (Units=1/GPa)
#
#
# Indices 1 2 3 4 5 6 
#
# 1 0.013859 0.000457 -0.004318 0.000000 0.021464 0.000000
# 2 0.000457 0.059023 -0.013235 0.000000 0.011792 0.000000
# 3 -0.004318 -0.013235 0.017226 0.000000 0.001245 0.000000
# 4 0.000000 0.000000 0.000000 0.755132 0.000000 -0.268660
# 5 0.021464 0.011792 0.001245 0.000000 0.147811 0.000000
# 6 0.000000 0.000000 0.000000 -0.268660 0.000000 0.144113
#
#
# Mechanical properties :
#
#
# Convention : Reuss Voigt Hill
#
# Bulk Modulus (GPa) = 17.88345 39.01965 28.45155
# Shear Modulus (GPa) = 4.20170 16.63992 10.42081
#
# Velocity S-wave (km/s) = 1.56691 3.11822 2.46764
# Velocity P-wave (km/s) = 3.70452 5.98037 4.97435
#
# Compressibility (1/GPa) = 0.05591763
#
# Stress axis : x y z
#
# Youngs Moduli (GPa) = 72.15478 16.94243 58.05053
#
# Poissons Ratio (x) = -0.00775 0.25065
# Poissons Ratio (y) = -0.03299 0.76830
# Poissons Ratio (z) = 0.31155 0.22423
#
# Static dielectric constant tensor:
#      x y z
#    x 1.622610 0.000000 0.003650 
#    y 0.000000 1.578920 0.000000 
#    z 0.003650 0.000000 1.558090 
# 
# From -- ./inp_files/236846.got.cif
#   From: 2010.05.17/outbox.cif.g08.bks.cpg/sg12_119_cif.got.tgz:236846.got - 2010.06.03 13:09:07.
