data_PCOD9172080
_publ_section_title
;
Structure prediction by ZEFSAII (Michael W. Deem and Ramdas Pophale) SiO2 
 PCOD9172080
Probable space group: C 2/M
;
_chemical_formula_sum "Si O2"
_cell_formula_units_Z 56
_cell_length_a 17.509225
_cell_length_b 14.122787
_cell_length_c 23.778771
_cell_angle_alpha 90.000000
_cell_angle_beta 145.159478
_cell_angle_gamma 90.000000
_cell_volume 3359.205202
_symmetry_space_group_name_H-M "C 2/M"
_symmetry_group_IT_number 12
_symmetry_cell_setting 'monoclinic'
loop_
_space_group_symop_operation_xyz
x,y,z
-x,y,-z
-x,-y,-z
x,-y,z
1/2+x,1/2+y,z
1/2-x,1/2+y,-z
1/2-x,1/2-y,-z
1/2+x,1/2-y,z
loop_
_atom_site_type_symbol
_atom_site_label
_atom_site_fract_x
_atom_site_fract_y
_atom_site_fract_z
Si Si1 0.882130 0.389461 0.243864
Si Si2 0.222904 0.112606 0.258111
Si Si3 0.451215 0.698338 0.138926
Si Si4 0.687257 0.889571 0.926129
Si Si5 0.093626 0.261217 0.417825
Si Si6 0.533127 0.392480 0.303770
Si Si7 0.657272 0.893717 0.550881
O O1 0.908377 0.500000 0.268636
O O2 0.789139 0.357675 0.239510
O O3 0.814249 0.378956 0.142432
O O4 0.021662 0.334845 0.332580
O O5 0.325025 0.122092 0.372160
O O6 0.089799 0.169826 0.193215
O O7 0.189219 0.000000 0.235024
O O8 0.416559 0.809752 0.115125
O O9 0.462072 0.664250 0.210418
O O10 0.330122 0.640837 0.037246
O O11 0.657558 0.000000 0.921027
O O12 0.250000 0.250000 0.500000
O O13 0.026893 0.162350 0.359287
O O14 0.085147 0.310262 0.473458
O O15 0.484698 0.500000 0.277252
O O16 0.689620 0.395530 0.379839
O O17 0.601775 0.000000 0.506971
#
# Coordination Sequence:
#
# PCOD9172080 Si02
#       7
#     8   8   8   8   8   8   8
#     4  10  20  33  49  78 110 130 162 212 265 307
#     4   9  18  32  52  76 106 138 165 203 255 313
#     4  10  18  33  53  75 103 139 171 202 250 306
#     4  10  20  32  52  81 106 131 168 212 253 298
#     4  10  18  29  46  68  99 131 169 206 256 294
#     4   9  16  28  46  68  94 125 170 207 238 293
#     4   8  15  27  45  68  93 126 162 197 243 301
#
# _framework density 16.670611000000001
#
# number of rings (size 3 to 8) (size 9 to 14) (size 15 to 20)
#    0.000    2.571    1.429    2.571    0.000    1.714 
#    0.000    4.286    0.000    0.857    0.000    3.000 
#    0.000    0.000    0.000    0.000    0.000    0.000 
#
# Total GULP energy -155927.811163 kJ/mol
# GULP energy per Si atom -5568.850399 kJ/mol
# Density = 1.663267 g / cm^3
# Si number density = 16.670611 Si / 1000 Ang^3
#
#
#
# Elastic Constant Matrix: (Units=GPa)
#
#
# Indices 1 2 3 4 5 6 
#
# 1 60.0174 39.9141 34.7369 0.0000 0.1430 0.0000
# 2 39.9141 114.9581 52.5460 0.0000 -0.4698 0.0000
# 3 34.7369 52.5460 94.6736 0.0000 -8.5897 0.0000
# 4 0.0000 0.0000 0.0000 28.8860 0.0000 -4.6225
# 5 0.1430 -0.4698 -8.5897 0.0000 13.1144 0.0000
# 6 0.0000 0.0000 0.0000 -4.6225 0.0000 15.5645
#
#
#
# Elastic Compliance Matrix: (Units=1/GPa)
#
#
# Indices 1 2 3 4 5 6 
#
# 1 0.023874 -0.005519 -0.006101 0.000000 -0.004454 0.000000
# 2 -0.005519 0.013139 -0.005549 0.000000 -0.003104 0.000000
# 3 -0.006101 -0.005549 0.016871 0.000000 0.010918 0.000000
# 4 0.000000 0.000000 0.000000 0.036346 0.000000 0.010795
# 5 -0.004454 -0.003104 0.010918 0.000000 0.083341 0.000000
# 6 0.000000 0.000000 0.000000 0.010795 0.000000 0.067455
#
#
# Mechanical properties :
#
#
# Convention : Reuss Voigt Hill
#
# Bulk Modulus (GPa) = 51.15858 58.22701 54.69279
# Shear Modulus (GPa) = 17.73822 21.00979 19.37401
#
# Velocity S-wave (km/s) = 3.26550 3.55391 3.41275
# Velocity P-wave (km/s) = 6.70616 7.20028 6.95761
#
# Compressibility (1/GPa) = 0.01954706
#
# Stress axis : x y z
#
# Youngs Moduli (GPa) = 41.88744 76.11153 59.27208
#
# Poissons Ratio (x) = 0.42004 0.36159
# Poissons Ratio (y) = 0.23117 0.32890
# Poissons Ratio (z) = 0.25554 0.42234
#
# Static dielectric constant tensor:
#      x y z
#    x 1.567800 0.000000 -0.007120 
#    y 0.000000 1.580720 0.000000 
#    z -0.007120 0.000000 1.580350 
# 
# From -- ./inp_files/310860.got.cif
#   From: 2010.05.17/outbox.cif.g08.bks.cpg/sg12_156_cif.got.tgz:310860.got - 2010.06.03 13:09:07.
