data_PCOD9172137
_publ_section_title
;
Structure prediction by ZEFSAII (Michael W. Deem and Ramdas Pophale) SiO2 
 PCOD9172137
Probable space group: C 2/M
;
_chemical_formula_sum "Si O2"
_cell_formula_units_Z 56
_cell_length_a 28.475481
_cell_length_b 8.788998
_cell_length_c 14.214096
_cell_angle_alpha 90.000000
_cell_angle_beta 82.732579
_cell_angle_gamma 90.000000
_cell_volume 3528.797188
_symmetry_space_group_name_H-M "C 2/M"
_symmetry_group_IT_number 12
_symmetry_cell_setting 'monoclinic'
loop_
_space_group_symop_operation_xyz
x,y,z
-x,y,-z
-x,-y,-z
x,-y,z
1/2+x,1/2+y,z
1/2-x,1/2+y,-z
1/2-x,1/2-y,-z
1/2+x,1/2-y,z
loop_
_atom_site_type_symbol
_atom_site_label
_atom_site_fract_x
_atom_site_fract_y
_atom_site_fract_z
Si Si1 0.736182 0.317866 0.285979
Si Si2 0.413801 0.680592 0.164624
Si Si3 0.709719 0.681740 0.077178
Si Si4 0.489522 0.824549 0.890275
Si Si5 0.888418 0.683124 0.968935
Si Si6 0.834661 0.817509 0.336250
Si Si7 0.799741 0.682067 0.525646
O O1 0.738484 0.500000 0.299189
O O2 0.722411 0.285155 0.182357
O O3 0.787526 0.247309 0.297390
O O4 0.698890 0.246498 0.369221
O O5 0.411777 0.500000 0.149978
O O6 0.468052 0.730794 0.166024
O O7 0.379613 0.718775 0.260030
O O8 0.395130 0.760848 0.074449
O O9 0.708398 0.500000 0.065717
O O10 0.659377 0.751150 0.061483
O O11 0.750000 0.750000 0.000000
O O12 0.435470 0.768772 0.898835
O O13 0.492171 0.000000 0.858404
O O14 0.500000 0.823283 0.000000
O O15 0.887554 0.500000 0.969572
O O16 0.836558 0.744016 0.439483
O O17 0.829999 0.000000 0.345776
O O18 0.798401 0.500000 0.525896
O O19 0.750000 0.750000 0.500000
#
# Coordination Sequence:
#
# PCOD9172137 Si02
#       7
#     8   8   8   8   8   8   8
#     4  10  20  33  47  65  91 123 156 189 227 269
#     4  10  19  29  46  71  96 123 154 191 233 275
#     4  11  23  35  49  69  94 126 160 193 227 267
#     4   8  16  30  46  65  90 121 154 189 232 276
#     4  10  20  33  48  66  93 127 159 193 230 271
#     4  10  19  30  45  68  96 122 150 187 230 273
#     4  10  18  29  47  67  88 118 152 187 228 272
#
# _framework density 15.869431000000001
#
# number of rings (size 3 to 8) (size 9 to 14) (size 15 to 20)
#    0.000    2.143    0.000    6.857    0.000   10.000 
#    0.000    0.000    0.000    0.000    0.000    1.000 
#    0.000    8.000    0.000    0.000    0.000    0.000 
#
# Total GULP energy -156136.427722 kJ/mol
# GULP energy per Si atom -5576.300990 kJ/mol
# Density = 1.583331 g / cm^3
# Si number density = 15.869431 Si / 1000 Ang^3
#
#
#
# Elastic Constant Matrix: (Units=GPa)
#
#
# Indices 1 2 3 4 5 6 
#
# 1 105.7000 42.8830 64.5090 0.0000 -19.6845 0.0000
# 2 42.8830 81.0778 70.3571 0.0000 -10.8774 0.0000
# 3 64.5090 70.3571 134.7607 0.0000 -20.9254 0.0000
# 4 0.0000 0.0000 0.0000 25.8885 0.0000 -3.7158
# 5 -19.6845 -10.8774 -20.9254 0.0000 22.1490 0.0000
# 6 0.0000 0.0000 0.0000 -3.7158 0.0000 25.3616
#
#
#
# Elastic Compliance Matrix: (Units=1/GPa)
#
#
# Indices 1 2 3 4 5 6 
#
# 1 0.014716 -0.003062 -0.004276 0.000000 0.007535 0.000000
# 2 -0.003062 0.023188 -0.010892 0.000000 -0.001625 0.000000
# 3 -0.004276 -0.010892 0.016094 0.000000 0.006056 0.000000
# 4 0.000000 0.000000 0.000000 0.039457 0.000000 0.005781
# 5 0.007535 -0.001625 0.006056 0.000000 0.056769 0.000000
# 6 0.000000 0.000000 0.000000 0.005781 0.000000 0.040277
#
#
# Mechanical properties :
#
#
# Convention : Reuss Voigt Hill
#
# Bulk Modulus (GPa) = 57.02077 75.22627 66.12352
# Shear Modulus (GPa) = 21.47704 24.26580 22.87142
#
# Velocity S-wave (km/s) = 3.68279 3.91460 3.80047
# Velocity P-wave (km/s) = 7.35481 8.24247 7.81126
#
# Compressibility (1/GPa) = 0.01753747
#
# Stress axis : x y z
#
# Youngs Moduli (GPa) = 67.95455 43.12642 62.13325
#
# Poissons Ratio (x) = 0.13206 0.26565
# Poissons Ratio (y) = 0.20809 0.67678
# Poissons Ratio (z) = 0.29054 0.46975
#
# Static dielectric constant tensor:
#      x y z
#    x 1.526710 0.000000 -0.018230 
#    y 0.000000 1.532870 0.000000 
#    z -0.018230 0.000000 1.547400 
# 
# From -- ./inp_files/247718.got.cif
#   From: 2010.05.17/outbox.cif.g08.bks.cpg/sg12_124_cif.got.tgz:247718.got - 2010.06.03 13:09:07.
