data_PCOD9172106
_publ_section_title
;
Structure prediction by ZEFSAII (Michael W. Deem and Ramdas Pophale) SiO2 
 PCOD9172106
Probable space group: C 2/M
;
_chemical_formula_sum "Si O2"
_cell_formula_units_Z 56
_cell_length_a 28.055085
_cell_length_b 7.763832
_cell_length_c 13.222071
_cell_angle_alpha 90.000000
_cell_angle_beta 60.253690
_cell_angle_gamma 90.000000
_cell_volume 2500.474191
_symmetry_space_group_name_H-M "C 2/M"
_symmetry_group_IT_number 12
_symmetry_cell_setting 'monoclinic'
loop_
_space_group_symop_operation_xyz
x,y,z
-x,y,-z
-x,-y,-z
x,-y,z
1/2+x,1/2+y,z
1/2-x,1/2+y,-z
1/2-x,1/2-y,-z
1/2+x,1/2-y,z
loop_
_atom_site_type_symbol
_atom_site_label
_atom_site_fract_x
_atom_site_fract_y
_atom_site_fract_z
Si Si1 0.028836 0.703165 0.270380
Si Si2 0.035443 0.206027 0.863200
Si Si3 0.765681 0.711925 0.737573
Si Si4 0.073360 0.802016 0.502930
Si Si5 0.157189 0.800178 0.766622
Si Si6 0.635422 0.804241 0.242110
Si Si7 0.829276 0.705094 0.467682
O O1 0.032274 0.500000 0.285886
O O2 0.091020 0.774876 0.211958
O O3 0.998658 0.728859 0.196369
O O4 0.989287 0.778654 0.398500
O O5 0.096716 0.278244 0.817849
O O6 0.041122 0.000000 0.841004
O O7 0.000000 0.236646 0.000000
O O8 0.766407 0.500000 0.738790
O O9 0.702781 0.771068 0.795655
O O10 0.806184 0.772382 0.784411
O O11 0.793988 0.762912 0.601401
O O12 0.099472 0.694462 0.384177
O O13 0.108812 0.751500 0.564326
O O14 0.083465 0.000000 0.466846
O O15 0.182703 0.790858 0.626756
O O16 0.149702 0.000000 0.802614
O O17 0.647005 0.000000 0.197310
O O18 0.823870 0.500000 0.462288
#
# Coordination Sequence:
#
# PCOD9172106 Si02
#       7
#     8   8   8   8   8   8   8
#     4  11  21  34  54  75 100 135 171 213 263 307
#     4  10  22  38  55  77 103 131 170 221 269 310
#     4   8  16  30  48  72 102 135 171 206 245 300
#     4  11  20  30  47  74 107 141 175 207 246 304
#     4  10  18  31  52  73  97 133 172 212 259 306
#     4   9  19  34  50  73 105 138 172 209 249 302
#     4  10  18  29  46  71 105 138 170 209 252 300
#
# _framework density 22.395752000000002
#
# number of rings (size 3 to 8) (size 9 to 14) (size 15 to 20)
#    0.000    2.143    1.429    3.857    0.000    3.143 
#    0.000    2.857    0.000    0.857    0.000    0.000 
#    0.000    0.000    0.000    0.000    0.000    0.143 
#
# Total GULP energy -156223.682132 kJ/mol
# GULP energy per Si atom -5579.417219 kJ/mol
# Density = 2.234478 g / cm^3
# Si number density = 22.395752 Si / 1000 Ang^3
#
#
#
# Elastic Constant Matrix: (Units=GPa)
#
#
# Indices 1 2 3 4 5 6 
#
# 1 171.4464 55.8935 -402.4856 0.0000 12.5040 -0.0001
# 2 55.8935 6.4052 364.5601 0.0000 -27.8862 0.0000
# 3 -402.4856 364.5601-2931.5461 -0.0001 216.5669 -0.0004
# 4 0.0000 0.0000 -0.0001 7.8961 0.0000 -0.6056
# 5 12.5040 -27.8862 216.5669 0.0000 -0.4709 0.0000
# 6 -0.0001 0.0000 -0.0004 -0.6056 0.0000 -1.8628
#
#
#
# Elastic Compliance Matrix: (Units=1/GPa)
#
#
# Indices 1 2 3 4 5 6 
#
# 1 0.004828 -0.000447 -0.000325 0.000000 0.005329 0.000000
# 2 -0.000447 0.019390 0.002524 0.000000 0.000696 0.000000
# 3 -0.000325 0.002524 0.000354 0.000000 0.004552 0.000000
# 4 0.000000 0.000000 0.000000 0.123563 0.000000 -0.040169
# 5 0.005329 0.000696 0.004552 0.000000 0.070356 0.000000
# 6 0.000000 0.000000 0.000000 -0.040169 0.000000 -0.523778
#
#
# Mechanical properties :
#
#
# Convention : Reuss Voigt Hill
#
# Bulk Modulus (GPa) = 35.61639 -301.97318 -133.17839
# Shear Modulus (GPa) = -16.69818 -183.66500 -100.18159
#
# Velocity S-wave (km/s) = -2.73352 -9.06570 -6.69548
# Velocity P-wave (km/s) = 2.44435 15.64322 10.92555
#
# Compressibility (1/GPa) = 0.02807696
#
# Stress axis : x y z
#
# Youngs Moduli (GPa) = 207.14546 51.57214 2827.59076
#
# Poissons Ratio (x) = 0.02304 0.91801
# Poissons Ratio (y) = 0.09253 -7.13711
# Poissons Ratio (z) = 0.06725 -0.13017
#
# Static dielectric constant tensor:
#      x y z
#    x 1.978250 0.000000 -0.033740 
#    y 0.000000 1.831530 0.000000 
#    z -0.033740 0.000000 1.777560 
# 
# From -- ./inp_files/180836.got.cif
#   From: 2010.05.17/outbox.cif.g08.bks.cpg/sg12_91_cif.got.tgz:180836.got - 2010.06.03 13:09:07.
