data_PCOD9172778
_publ_section_title
;
Structure prediction by ZEFSAII (Michael W. Deem and Ramdas Pophale) SiO2 
 PCOD9172778
Probable space group: C 2/M
;
_chemical_formula_sum "Si O2"
_cell_formula_units_Z 64
_cell_length_a 29.795814
_cell_length_b 7.287249
_cell_length_c 12.992477
_cell_angle_alpha 90.000000
_cell_angle_beta 87.772381
_cell_angle_gamma 90.000000
_cell_volume 2818.918360
_symmetry_space_group_name_H-M "C 2/M"
_symmetry_group_IT_number 12
_symmetry_cell_setting 'monoclinic'
loop_
_space_group_symop_operation_xyz
x,y,z
-x,y,-z
-x,-y,-z
x,-y,z
1/2+x,1/2+y,z
1/2-x,1/2+y,-z
1/2-x,1/2-y,-z
1/2+x,1/2-y,z
loop_
_atom_site_type_symbol
_atom_site_label
_atom_site_fract_x
_atom_site_fract_y
_atom_site_fract_z
Si Si1 0.998320 0.276820 0.670535
Si Si2 0.697793 0.219604 0.031527
Si Si3 0.628089 0.223525 0.863993
Si Si4 0.794372 0.289405 0.746577
Si Si5 0.173327 0.276020 0.474914
Si Si6 0.475165 0.776025 0.106604
Si Si7 0.697171 0.778449 0.692888
Si Si8 0.570270 0.777088 0.496547
O O1 0.998072 0.500000 0.671979
O O2 0.001477 0.217903 0.788374
O O3 0.041652 0.220995 0.598938
O O4 0.955931 0.220147 0.604737
O O5 0.689374 0.291892 0.147453
O O6 0.692435 0.000000 0.035214
O O7 0.750000 0.250000 0.000000
O O8 0.662290 0.285132 0.950310
O O9 0.576967 0.281922 0.884217
O O10 0.651473 0.276590 0.754378
O O11 0.627311 0.000000 0.864891
O O12 0.810188 0.500000 0.743591
O O13 0.808778 0.208930 0.636012
O O14 0.740392 0.286592 0.751122
O O15 0.175509 0.500000 0.474714
O O16 0.199223 0.215499 0.574898
O O17 0.121620 0.221321 0.492540
O O18 0.475547 0.000000 0.105983
O O19 0.500000 0.717275 0.000000
O O20 0.698574 0.000000 0.694038
O O21 0.569886 0.000000 0.497343
#
# Coordination Sequence:
#
# PCOD9172778 Si02
#       8
#     8   8   8   8   8   8   8   8
#     4   8  13  21  34  52  75 107 144 177 210 254
#     4  10  19  32  48  65  89 119 152 190 225 264
#     4   9  17  28  43  62  83 116 157 186 218 269
#     4  10  20  31  44  65  91 116 147 191 231 261
#     4   9  17  27  40  61  87 117 150 182 223 269
#     4   9  16  24  35  55  84 114 143 177 219 267
#     4  10  18  30  48  64  86 121 155 183 218 270
#     4   8  13  22  36  53  76 108 145 179 210 256
#
# _framework density 22.703742999999999
#
# number of rings (size 3 to 8) (size 9 to 14) (size 15 to 20)
#    0.000    2.875    1.250    1.875    0.000    4.000 
#    0.000    5.000    0.000    0.000    0.000    0.000 
#    0.000    2.000    0.000   28.375    0.000   31.250 
#
# Total GULP energy -178726.055136 kJ/mol
# GULP energy per Si atom -5585.189223 kJ/mol
# Density = 2.265207 g / cm^3
# Si number density = 22.703743 Si / 1000 Ang^3
#
#
#
# Elastic Constant Matrix: (Units=GPa)
#
#
# Indices 1 2 3 4 5 6 
#
# 1 28.4176 -9.6844 15.6614 0.0000 5.8292 0.0000
# 2 -9.6844 97.5596 4.5427 0.0000 1.3281 0.0000
# 3 15.6614 4.5427 178.0404 0.0000 13.2440 0.0000
# 4 0.0000 0.0000 0.0000 -11.2599 0.0000 0.3940
# 5 5.8292 1.3281 13.2440 0.0000 28.7528 0.0000
# 6 0.0000 0.0000 0.0000 0.3940 0.0000 -1.9659
#
#
#
# Elastic Compliance Matrix: (Units=1/GPa)
#
#
# Indices 1 2 3 4 5 6 
#
# 1 0.039718 0.004179 -0.003093 0.000000 -0.006820 0.000000
# 2 0.004179 0.010706 -0.000560 0.000000 -0.001084 0.000000
# 3 -0.003093 -0.000560 0.006062 0.000000 -0.002139 0.000000
# 4 0.000000 0.000000 0.000000 -0.089438 0.000000 -0.017925
# 5 -0.006820 -0.001084 -0.002139 0.000000 0.037198 0.000000
# 6 0.000000 0.000000 0.000000 -0.017925 0.000000 -0.512277
#
#
# Mechanical properties :
#
#
# Convention : Reuss Voigt Hill
#
# Bulk Modulus (GPa) = 17.37980 36.11746 26.74863
# Shear Modulus (GPa) = -10.20606 22.67191 6.23293
#
# Velocity S-wave (km/s) = -2.12252 3.16349 1.65870
# Velocity P-wave (km/s) = 1.29030 5.41168 3.93390
#
# Compressibility (1/GPa) = 0.05753805
#
# Stress axis : x y z
#
# Youngs Moduli (GPa) = 25.17781 93.40674 164.95598
#
# Poissons Ratio (x) = -0.39039 0.51022
# Poissons Ratio (y) = -0.10523 0.09241
# Poissons Ratio (z) = 0.07788 0.05233
#
# Static dielectric constant tensor:
#      x y z
#    x 1.782010 0.000000 0.004570 
#    y 0.000000 2.306240 0.000000 
#    z 0.004570 0.000000 1.832510 
# 
# From -- ./inp_files/182047.got.cif
#   From: 2010.05.17/outbox.cif.g08.bks.cpg/sg12_92_cif.got.tgz:182047.got - 2010.06.03 13:09:07.
