data_PCOD9172509
_publ_section_title
;
Structure prediction by ZEFSAII (Michael W. Deem and Ramdas Pophale) SiO2 
 PCOD9172509
Probable space group: C 2/M
;
_chemical_formula_sum "Si O2"
_cell_formula_units_Z 56
_cell_length_a 19.862997
_cell_length_b 19.612515
_cell_length_c 9.012735
_cell_angle_alpha 90.000000
_cell_angle_beta 60.390060
_cell_angle_gamma 90.000000
_cell_volume 3052.522764
_symmetry_space_group_name_H-M "C 2/M"
_symmetry_group_IT_number 12
_symmetry_cell_setting 'monoclinic'
loop_
_space_group_symop_operation_xyz
x,y,z
-x,y,-z
-x,-y,-z
x,-y,z
1/2+x,1/2+y,z
1/2-x,1/2+y,-z
1/2-x,1/2-y,-z
1/2+x,1/2-y,z
loop_
_atom_site_type_symbol
_atom_site_label
_atom_site_fract_x
_atom_site_fract_y
_atom_site_fract_z
Si Si1 0.743187 0.079054 0.121637
Si Si2 0.243886 0.794210 0.360091
Si Si3 0.901106 0.926308 0.765130
Si Si4 0.412416 0.720498 0.641653
Si Si5 0.823172 0.293911 0.973971
Si Si6 0.545609 0.577953 0.817981
Si Si7 0.717718 0.581796 0.580254
O O1 0.692058 0.131583 0.081568
O O2 0.746402 0.094906 0.294509
O O3 0.718977 0.000000 0.131566
O O4 0.831100 0.082583 0.959706
O O5 0.250000 0.750000 0.500000
O O6 0.162858 0.766166 0.377973
O O7 0.247526 0.872450 0.413362
O O8 0.311509 0.789738 0.162965
O O9 0.903742 0.861005 0.661714
O O10 0.983811 0.926567 0.755441
O O11 0.889515 0.000000 0.703413
O O12 0.500000 0.737236 0.500000
O O13 0.395361 0.757034 0.817871
O O14 0.750000 0.250000 0.000000
O O15 0.564212 0.500000 0.848946
O O16 0.628307 0.606035 0.688856
O O17 0.500000 0.613936 0.000000
O O18 0.722232 0.500000 0.548707
#
# Coordination Sequence:
#
# PCOD9172509 Si02
#       7
#     8   8   8   8   8   8   8
#     4  10  18  32  56  80 106 146 188 224 271 330
#     4  11  23  36  54  79 112 147 180 234 284 319
#     4  10  18  29  50  78 110 145 183 217 257 320
#     4  11  23  39  57  80 107 151 193 229 274 332
#     4  10  20  38  56  74 107 146 185 234 276 324
#     4   9  15  24  40  68 108 145 173 207 249 301
#     4  10  19  30  48  77 110 145 184 222 267 327
#
# _framework density 18.345482000000001
#
# number of rings (size 3 to 8) (size 9 to 14) (size 15 to 20)
#    0.000    1.857    4.286    2.571    0.000    1.429 
#    0.000    0.714    0.000    0.429    0.000    0.000 
#    0.000    4.571    0.000    0.000    0.000    0.000 
#
# Total GULP energy -155947.877721 kJ/mol
# GULP energy per Si atom -5569.567061 kJ/mol
# Density = 1.830373 g / cm^3
# Si number density = 18.345482 Si / 1000 Ang^3
#
#
#
# Elastic Constant Matrix: (Units=GPa)
#
#
# Indices 1 2 3 4 5 6 
#
# 1 40.0370 13.3209 31.9955 0.0000 1.7007 0.0000
# 2 13.3209 65.1831 39.7459 0.0000 -1.9286 0.0000
# 3 31.9955 39.7459 132.9559 0.0000 -9.3664 0.0000
# 4 0.0000 0.0000 0.0000 30.4737 0.0000 10.4305
# 5 1.7007 -1.9286 -9.3664 0.0000 21.4149 0.0000
# 6 0.0000 0.0000 0.0000 10.4305 0.0000 15.7336
#
#
#
# Elastic Compliance Matrix: (Units=1/GPa)
#
#
# Indices 1 2 3 4 5 6 
#
# 1 0.031906 -0.002151 -0.007457 0.000000 -0.005989 0.000000
# 2 -0.002151 0.018919 -0.005165 0.000000 -0.000385 0.000000
# 3 -0.007457 -0.005165 0.011214 0.000000 0.005032 0.000000
# 4 0.000000 0.000000 0.000000 0.042447 0.000000 -0.028140
# 5 -0.005989 -0.000385 0.005032 0.000000 0.049338 0.000000
# 6 0.000000 0.000000 0.000000 -0.028140 0.000000 0.082213
#
#
# Mechanical properties :
#
#
# Convention : Reuss Voigt Hill
#
# Bulk Modulus (GPa) = 30.77513 45.36673 38.07093
# Shear Modulus (GPa) = 18.08872 23.73201 20.91037
#
# Velocity S-wave (km/s) = 3.14348 3.60059 3.37977
# Velocity P-wave (km/s) = 5.47604 6.48602 6.00231
#
# Compressibility (1/GPa) = 0.03249377
#
# Stress axis : x y z
#
# Youngs Moduli (GPa) = 31.34187 52.85679 89.17075
#
# Poissons Ratio (x) = 0.11367 0.66496
# Poissons Ratio (y) = 0.06740 0.46059
# Poissons Ratio (z) = 0.23372 0.27302
#
# Static dielectric constant tensor:
#      x y z
#    x 1.669470 0.000000 0.010000 
#    y 0.000000 1.715830 0.000000 
#    z 0.010000 0.000000 1.701210 
# 
# From -- ./inp_files/89063.got.cif
#   From: 2010.05.17/outbox.cif.g08.bks.cpg/sg12_45_cif.got.tgz:89063.got - 2010.06.03 13:09:07.
