data_PCOD9172255
_publ_section_title
;
Structure prediction by ZEFSAII (Michael W. Deem and Ramdas Pophale) SiO2 
 PCOD9172255
Probable space group: C 2/M
;
_chemical_formula_sum "Si O2"
_cell_formula_units_Z 64
_cell_length_a 24.586229
_cell_length_b 7.830163
_cell_length_c 20.598653
_cell_angle_alpha 90.000000
_cell_angle_beta 58.822680
_cell_angle_gamma 90.000000
_cell_volume 3392.787924
_symmetry_space_group_name_H-M "C 2/M"
_symmetry_group_IT_number 12
_symmetry_cell_setting 'monoclinic'
loop_
_space_group_symop_operation_xyz
x,y,z
-x,y,-z
-x,-y,-z
x,-y,z
1/2+x,1/2+y,z
1/2-x,1/2+y,-z
1/2-x,1/2-y,-z
1/2+x,1/2-y,z
loop_
_atom_site_type_symbol
_atom_site_label
_atom_site_fract_x
_atom_site_fract_y
_atom_site_fract_z
Si Si1 0.037596 0.204242 0.539728
Si Si2 0.031927 0.205824 0.288256
Si Si3 0.696467 0.695166 0.840162
Si Si4 0.193465 0.698096 0.695846
Si Si5 0.170322 0.296105 0.404217
Si Si6 0.943458 0.205832 0.229225
Si Si7 0.166805 0.705903 0.256769
Si Si8 0.441708 0.290228 0.080913
O O1 0.111855 0.238817 0.484201
O O2 0.000000 0.273123 0.500000
O O3 0.006685 0.270918 0.624943
O O4 0.028773 0.000000 0.545753
O O5 0.105376 0.249325 0.253335
O O6 0.997786 0.268624 0.244164
O O7 0.027262 0.000000 0.290493
O O8 0.696772 0.500000 0.863821
O O9 0.695388 0.695740 0.761830
O O10 0.765557 0.772534 0.812230
O O11 0.627839 0.770373 0.900356
O O12 0.192148 0.500000 0.714939
O O13 0.259521 0.734643 0.619179
O O14 0.127060 0.742976 0.703329
O O15 0.170929 0.500000 0.402555
O O16 0.158888 0.233534 0.336615
O O17 0.950207 0.264767 0.150503
O O18 0.945643 0.000000 0.226401
O O19 0.171769 0.500000 0.256635
O O20 0.439826 0.500000 0.082024
O O21 0.500000 0.237113 0.000000
#
# Coordination Sequence:
#
# PCOD9172255 Si02
#       8
#     8   8   8   8   8   8   8   8
#     4  10  19  31  46  67  94 120 157 204 241 276
#     4  10  20  32  47  66  92 127 157 192 238 280
#     4   8  15  28  45  70  99 123 153 193 233 273
#     4  10  18  29  48  70  92 121 157 196 238 280
#     4  10  19  31  48  69  93 122 158 200 243 279
#     4   9  18  33  49  68  96 124 155 190 231 283
#     4   9  17  28  44  66  92 122 156 194 230 273
#     4   8  13  25  50  77  95 116 152 195 230 267
#
# _framework density 18.863541000000001
#
# number of rings (size 3 to 8) (size 9 to 14) (size 15 to 20)
#    0.000    2.750    1.250    3.000    0.000    3.250 
#    0.000    0.625    0.000    6.750    0.000    0.000 
#    0.000    0.000    0.000    0.000    0.000    1.000 
#
# Total GULP energy -178300.699388 kJ/mol
# GULP energy per Si atom -5571.896856 kJ/mol
# Density = 1.882061 g / cm^3
# Si number density = 18.863541 Si / 1000 Ang^3
#
#
#
# Elastic Constant Matrix: (Units=GPa)
#
#
# Indices 1 2 3 4 5 6 
#
# 1 169.2093 -0.8089 75.8594 0.0001 -30.5561 0.0013
# 2 -0.8089 25.0925 1.8670 0.0026 6.9427 0.0011
# 3 75.8594 1.8670 91.2910 0.0015 -32.2366 -0.0009
# 4 0.0001 0.0026 0.0015 -1.4295 -0.0010 -2.5331
# 5 -30.5561 6.9427 -32.2366 -0.0010 32.4160 0.0005
# 6 0.0013 0.0011 -0.0009 -2.5331 0.0005 17.9102
#
#
#
# Elastic Compliance Matrix: (Units=1/GPa)
#
#
# Indices 1 2 3 4 5 6 
#
# 1 0.009483 0.000424 -0.007343 -0.000005 0.001546 -0.000002
# 2 0.000424 0.044849 -0.006967 0.000073 -0.016134 0.000008
# 3 -0.007343 -0.006967 0.023551 -0.000003 0.017992 0.000001
# 4 -0.000005 0.000073 -0.000003 -0.559374 -0.000039 -0.079113
# 5 0.001546 -0.016134 0.017992 -0.000039 0.053654 -0.000005
# 6 -0.000002 0.000008 0.000001 -0.079113 -0.000005 0.044645
#
#
# Mechanical properties :
#
#
# Convention : Reuss Voigt Hill
#
# Bulk Modulus (GPa) = 19.95537 48.82532 34.39035
# Shear Modulus (GPa) = -14.76157 23.69103 4.46473
#
# Velocity S-wave (km/s) = -2.80044 3.54774 1.54013
# Velocity P-wave (km/s) = 0.38104 6.53617 4.62962
#
# Compressibility (1/GPa) = 0.05011182
#
# Stress axis : x y z
#
# Youngs Moduli (GPa) = 105.45296 22.29722 42.46062
#
# Poissons Ratio (x) = -0.00946 0.31178
# Poissons Ratio (y) = -0.04475 0.29583
# Poissons Ratio (z) = 0.77432 0.15535
#
# Static dielectric constant tensor:
#      x y z
#    x 1.682540 0.000000 -0.026180 
#    y 0.000000 1.681890 0.000000 
#    z -0.026180 0.000000 1.644420 
# 
# From -- ./inp_files/319993.got.cif
#   From: 2010.05.17/outbox.cif.g08.bks.cpg/sg12_160_cif.got.tgz:319993.got - 2010.06.03 13:09:07.
