data_PCOD9172483
_publ_section_title
;
Structure prediction by ZEFSAII (Michael W. Deem and Ramdas Pophale) SiO2 
 PCOD9172483
Probable space group: C 2/M
;
_chemical_formula_sum "Si O2"
_cell_formula_units_Z 64
_cell_length_a 19.413336
_cell_length_b 20.875179
_cell_length_c 19.087131
_cell_angle_alpha 90.000000
_cell_angle_beta 31.662752
_cell_angle_gamma 90.000000
_cell_volume 4060.344219
_symmetry_space_group_name_H-M "C 2/M"
_symmetry_group_IT_number 12
_symmetry_cell_setting 'monoclinic'
loop_
_space_group_symop_operation_xyz
x,y,z
-x,y,-z
-x,-y,-z
x,-y,z
1/2+x,1/2+y,z
1/2-x,1/2+y,-z
1/2-x,1/2-y,-z
1/2+x,1/2-y,z
loop_
_atom_site_type_symbol
_atom_site_label
_atom_site_fract_x
_atom_site_fract_y
_atom_site_fract_z
Si Si1 0.571679 0.810698 0.132023
Si Si2 0.616414 0.730521 0.346218
Si Si3 0.406252 0.385510 0.146368
Si Si4 0.629577 0.927139 0.176941
Si Si5 0.927216 0.072810 0.868954
Si Si6 0.406542 0.769018 0.146370
Si Si7 0.371577 0.689342 0.821503
Si Si8 0.883932 0.614832 0.653688
O O1 0.561330 0.874811 0.186794
O O2 0.462131 0.801017 0.168157
O O3 0.574802 0.750156 0.181561
O O4 0.714133 0.811222 0.970610
O O5 0.500000 0.714103 0.500000
O O6 0.757674 0.714026 0.256579
O O7 0.601121 0.698630 0.283727
O O8 0.615823 0.807855 0.336785
O O9 0.461784 0.415804 0.169049
O O10 0.414173 0.308285 0.148142
O O11 0.257570 0.402892 0.255798
O O12 0.500000 0.403171 0.000000
O O13 0.599699 0.915318 0.284075
O O14 0.597991 0.000000 0.184677
O O15 0.786430 0.917643 0.029618
O O16 0.929853 0.125427 0.805764
O O17 0.931746 0.000000 0.839090
O O18 0.500000 0.785554 0.000000
O O19 0.000000 0.597832 0.500000
#
# Coordination Sequence:
#
# PCOD9172483 Si02
#       8
#     8   8   8   8   8   8   8   8
#     4  10  18  30  54  78 101 130 174 214 249 295
#     4  10  20  34  52  78 109 134 165 211 260 303
#     4  10  18  29  50  75 104 134 172 205 247 301
#     4  10  20  33  50  74 106 140 169 206 256 301
#     4  10  20  32  50  78 105 132 170 217 255 293
#     4  10  18  30  52  81 101 130 172 212 251 298
#     4  10  18  31  53  77 101 136 168 210 257 297
#     4  10  20  33  49  74 108 142 170 199 247 311
#
# _framework density 15.76221
#
# number of rings (size 3 to 8) (size 9 to 14) (size 15 to 20)
#    0.000    2.000    5.000    0.000    0.000    1.000 
#    0.000    1.875    0.000    1.500    0.000    0.000 
#    0.000    0.000    0.000    0.000    0.000    0.000 
#
# Total GULP energy -178539.728014 kJ/mol
# GULP energy per Si atom -5579.366500 kJ/mol
# Density = 1.572633 g / cm^3
# Si number density = 15.762210 Si / 1000 Ang^3
#
#
#
# Elastic Constant Matrix: (Units=GPa)
#
#
# Indices 1 2 3 4 5 6 
#
# 1 119.1337 54.5117 55.8712 -0.0004 7.7972 0.0000
# 2 54.5117 75.6612 40.7219 -0.0015 9.4744 0.0006
# 3 55.8712 40.7219 91.2169 -0.0020 2.5465 0.0006
# 4 -0.0004 -0.0015 -0.0020 11.0637 0.0005 2.7602
# 5 7.7972 9.4744 2.5465 0.0005 22.7045 -0.0001
# 6 0.0000 0.0006 0.0006 2.7602 -0.0001 22.1592
#
#
#
# Elastic Compliance Matrix: (Units=1/GPa)
#
#
# Indices 1 2 3 4 5 6 
#
# 1 0.014383 -0.007209 -0.005555 -0.000002 -0.001308 0.000001
# 2 -0.007209 0.021992 -0.005232 0.000002 -0.006115 -0.000001
# 3 -0.005555 -0.005232 0.016639 0.000002 0.002225 -0.000001
# 4 -0.000002 0.000002 0.000002 0.093285 -0.000003 -0.011620
# 5 -0.001308 -0.006115 0.002225 -0.000003 0.046796 0.000001
# 6 0.000001 -0.000001 -0.000001 -0.011620 0.000001 0.046575
#
#
# Mechanical properties :
#
#
# Convention : Reuss Voigt Hill
#
# Bulk Modulus (GPa) = 58.74476 65.35795 62.05135
# Shear Modulus (GPa) = 17.77235 20.17928 18.97581
#
# Velocity S-wave (km/s) = 3.36151 3.58191 3.47346
# Velocity P-wave (km/s) = 7.23993 7.65910 7.45246
#
# Compressibility (1/GPa) = 0.01702280
#
# Stress axis : x y z
#
# Youngs Moduli (GPa) = 69.52417 45.47060 60.10034
#
# Poissons Ratio (x) = 0.32781 0.33386
# Poissons Ratio (y) = 0.50122 0.31442
# Poissons Ratio (z) = 0.38621 0.23788
#
# Static dielectric constant tensor:
#      x y z
#    x 1.498300 0.000000 -0.007780 
#    y 0.000000 1.528370 0.000000 
#    z -0.007780 0.000000 1.516170 
# 
# From -- ./inp_files/178185.got.cif
#   From: 2010.05.17/outbox.cif.g08.bks.cpg/sg12_90_cif.got.tgz:178185.got - 2010.06.03 13:09:07.
