data_PCOD9172580
_publ_section_title
;
Structure prediction by ZEFSAII (Michael W. Deem and Ramdas Pophale) SiO2 
 PCOD9172580
Probable space group: C 2/M
;
_chemical_formula_sum "Si O2"
_cell_formula_units_Z 40
_cell_length_a 16.645195
_cell_length_b 15.160398
_cell_length_c 21.636646
_cell_angle_alpha 90.000000
_cell_angle_beta 24.543016
_cell_angle_gamma 90.000000
_cell_volume 2267.937809
_symmetry_space_group_name_H-M "C 2/M"
_symmetry_group_IT_number 12
_symmetry_cell_setting 'monoclinic'
loop_
_space_group_symop_operation_xyz
x,y,z
-x,y,-z
-x,-y,-z
x,-y,z
1/2+x,1/2+y,z
1/2-x,1/2+y,-z
1/2-x,1/2-y,-z
1/2+x,1/2-y,z
loop_
_atom_site_type_symbol
_atom_site_label
_atom_site_fract_x
_atom_site_fract_y
_atom_site_fract_z
Si Si1 0.723993 0.900210 0.038814
Si Si2 0.056739 0.773018 0.025746
Si Si3 0.807100 0.101325 0.845551
Si Si4 0.019856 0.899571 0.575496
Si Si5 0.809897 0.663093 0.280456
O O1 0.506838 0.881597 0.166702
O O2 0.737844 0.000000 0.051973
O O3 0.792190 0.830762 0.041514
O O4 0.852956 0.891437 0.886209
O O5 0.879107 0.750307 0.195818
O O6 0.153042 0.678378 0.942320
O O7 0.000000 0.814200 0.000000
O O8 0.977206 0.115082 0.677234
O O9 0.736377 0.000000 0.885512
O O10 0.815826 0.890598 0.681999
O O11 0.166930 0.833358 0.439137
O O12 0.091592 0.000000 0.516471
#
# Coordination Sequence:
#
# PCOD9172580 Si02
#       5
#     8   8   8   8   8
#     4  10  21  36  54  74 100 138 179 218 250 290
#     4  11  21  36  52  73 105 138 178 214 251 296
#     4   9  18  32  52  79 106 131 162 204 261 314
#     4  10  18  29  52  82 110 135 155 197 264 326
#     4  10  18  32  52  78 108 130 163 205 256 313
#
# _framework density 17.637169
#
# number of rings (size 3 to 8) (size 9 to 14) (size 15 to 20)
#    0.000    2.000    2.000    4.800    0.000    2.400 
#    0.000    4.000    0.000    0.000    0.000    2.800 
#    0.000    0.000    0.000    0.000    0.000    0.000 
#
# Total GULP energy -111359.223679 kJ/mol
# GULP energy per Si atom -5567.961184 kJ/mol
# Density = 1.759703 g / cm^3
# Si number density = 17.637169 Si / 1000 Ang^3
#
#
#
# Elastic Constant Matrix: (Units=GPa)
#
#
# Indices 1 2 3 4 5 6 
#
# 1 78.3150 39.6638 47.2923 -0.0044 17.5716 0.0208
# 2 39.6638 51.0449 29.5699 0.0347 5.6501 -0.0111
# 3 47.2923 29.5699 87.2475 0.0040 18.0054 0.0089
# 4 -0.0044 0.0347 0.0040 12.5311 0.0080 -1.5054
# 5 17.5716 5.6501 18.0054 0.0080 15.9568 -0.0151
# 6 0.0208 -0.0111 0.0089 -1.5054 -0.0151 2.9367
#
#
#
# Elastic Compliance Matrix: (Units=1/GPa)
#
#
# Indices 1 2 3 4 5 6 
#
# 1 0.029641 -0.017294 -0.006170 0.000032 -0.019555 -0.000341
# 2 -0.017294 0.034476 -0.004851 -0.000073 0.012310 0.000294
# 3 -0.006170 -0.004851 0.019154 0.000002 -0.013101 -0.000099
# 4 0.000032 -0.000073 0.000002 0.085038 -0.000013 0.043590
# 5 -0.019555 0.012310 -0.013101 -0.000013 0.094628 0.000704
# 6 -0.000341 0.000294 -0.000099 0.043590 0.000704 0.362868
#
#
# Mechanical properties :
#
#
# Convention : Reuss Voigt Hill
#
# Bulk Modulus (GPa) = 37.53543 49.96215 43.74879
# Shear Modulus (GPa) = 7.23258 12.95702 10.09480
#
# Velocity S-wave (km/s) = 2.02723 2.71337 2.39500
# Velocity P-wave (km/s) = 5.17762 6.18108 5.70147
#
# Compressibility (1/GPa) = 0.02664149
#
# Stress axis : x y z
#
# Youngs Moduli (GPa) = 33.73678 29.00558 52.20856
#
# Poissons Ratio (x) = 0.50161 0.32213
# Poissons Ratio (y) = 0.58343 0.25328
# Poissons Ratio (z) = 0.20816 0.14071
#
# Static dielectric constant tensor:
#      x y z
#    x 1.614820 0.000000 0.038230 
#    y 0.000000 1.598650 0.000000 
#    z 0.038230 0.000000 1.638790 
# 
# From -- ./inp_files/59237.got.cif
#   From: 2010.05.17/outbox.cif.g08.bks.cpg/sg12_30_cif.got.tgz:59237.got - 2010.06.03 13:09:07.
