data_PCOD9172373
_publ_section_title
;
Structure prediction by ZEFSAII (Michael W. Deem and Ramdas Pophale) SiO2 
 PCOD9172373
Probable space group: C 2/M
;
_chemical_formula_sum "Si O2"
_cell_formula_units_Z 56
_cell_length_a 13.733920
_cell_length_b 21.380956
_cell_length_c 12.421177
_cell_angle_alpha 90.000000
_cell_angle_beta 77.535041
_cell_angle_gamma 90.000000
_cell_volume 3561.432315
_symmetry_space_group_name_H-M "C 2/M"
_symmetry_group_IT_number 12
_symmetry_cell_setting 'monoclinic'
loop_
_space_group_symop_operation_xyz
x,y,z
-x,y,-z
-x,-y,-z
x,-y,z
1/2+x,1/2+y,z
1/2-x,1/2+y,-z
1/2-x,1/2-y,-z
1/2+x,1/2-y,z
loop_
_atom_site_type_symbol
_atom_site_label
_atom_site_fract_x
_atom_site_fract_y
_atom_site_fract_z
Si Si1 0.626744 0.748524 0.155465
Si Si2 0.667415 0.190975 0.929338
Si Si3 0.587623 0.188663 0.553898
Si Si4 0.533334 0.072515 0.324257
Si Si5 0.906048 0.777979 0.242950
Si Si6 0.791306 0.338054 0.676302
Si Si7 0.430350 0.931988 0.120616
O O1 0.714494 0.702830 0.095627
O O2 0.524308 0.713055 0.204257
O O3 0.661542 0.786532 0.252936
O O4 0.618966 0.798002 0.058314
O O5 0.624542 0.243384 0.859672
O O6 0.642913 0.125106 0.881825
O O7 0.500000 0.217842 0.500000
O O8 0.541380 0.121431 0.599792
O O9 0.608000 0.229978 0.653724
O O10 0.680650 0.179709 0.452717
O O11 0.644736 0.099680 0.314068
O O12 0.499320 0.076497 0.208462
O O13 0.525261 0.000000 0.360022
O O14 0.827307 0.834063 0.278070
O O15 0.380268 0.000000 0.143455
O O16 0.500000 0.933229 0.000000
#
# Coordination Sequence:
#
# PCOD9172373 Si02
#       7
#     8   8   8   8   8   8   8
#     4  10  19  31  47  72  97 130 156 197 244 293
#     4  10  19  30  49  70 100 124 158 198 243 294
#     4  10  18  31  46  67  97 125 156 202 239 286
#     4  10  19  32  49  72 100 129 161 202 248 291
#     4  11  18  31  48  68  96 125 159 195 241 294
#     4  10  20  30  47  69  95 127 159 197 241 287
#     4  10  18  29  49  72  96 125 158 200 243 288
#
# _framework density 15.724011000000001
#
# number of rings (size 3 to 8) (size 9 to 14) (size 15 to 20)
#    0.000    1.857    4.286    2.571    0.000    2.571 
#    0.000    0.000    0.000    0.857    0.000    0.000 
#    0.000   13.143    0.000    0.000    0.000    0.000 
#
# Total GULP energy -155948.280414 kJ/mol
# GULP energy per Si atom -5569.581443 kJ/mol
# Density = 1.568822 g / cm^3
# Si number density = 15.724011 Si / 1000 Ang^3
#
#
#
# Elastic Constant Matrix: (Units=GPa)
#
#
# Indices 1 2 3 4 5 6 
#
# 1 74.0963 20.1089 18.6199 0.0000 -15.1353 0.0000
# 2 20.1089 59.3334 10.2543 0.0000 -5.0935 0.0000
# 3 18.6199 10.2543 89.4932 0.0000 -0.2358 0.0000
# 4 0.0000 0.0000 0.0000 4.0522 0.0000 0.7065
# 5 -15.1353 -5.0935 -0.2358 0.0000 25.0266 0.0000
# 6 0.0000 0.0000 0.0000 0.7065 0.0000 21.1771
#
#
#
# Elastic Compliance Matrix: (Units=1/GPa)
#
#
# Indices 1 2 3 4 5 6 
#
# 1 0.017473 -0.004563 -0.003087 0.000000 0.009609 0.000000
# 2 -0.004563 0.018695 -0.001190 0.000000 0.001034 0.000000
# 3 -0.003087 -0.001190 0.011947 0.000000 -0.001997 0.000000
# 4 0.000000 0.000000 0.000000 0.248226 0.000000 -0.008282
# 5 0.009609 0.001034 -0.001997 0.000000 0.045961 0.000000
# 6 0.000000 0.000000 0.000000 -0.008282 0.000000 0.047497
#
#
# Mechanical properties :
#
#
# Convention : Reuss Voigt Hill
#
# Bulk Modulus (GPa) = 32.85764 35.65435 34.25600
# Shear Modulus (GPa) = 11.97247 21.64715 16.80981
#
# Velocity S-wave (km/s) = 2.76237 3.71441 3.27319
# Velocity P-wave (km/s) = 5.57818 6.41249 6.00983
#
# Compressibility (1/GPa) = 0.03043432
#
# Stress axis : x y z
#
# Youngs Moduli (GPa) = 57.23095 53.49053 83.69986
#
# Poissons Ratio (x) = 0.24410 0.25840
# Poissons Ratio (y) = 0.26117 0.09960
# Poissons Ratio (z) = 0.17669 0.06365
#
# Static dielectric constant tensor:
#      x y z
#    x 1.545870 0.000000 0.004110 
#    y 0.000000 1.532730 0.000000 
#    z 0.004110 0.000000 1.559030 
# 
# From -- ./inp_files/147077.got.cif
#   From: 2010.05.17/outbox.cif.g08.bks.cpg/sg12_74_cif.got.tgz:147077.got - 2010.06.03 13:09:07.
