data_PCOD9172379
_publ_section_title
;
Structure prediction by ZEFSAII (Michael W. Deem and Ramdas Pophale) SiO2 
 PCOD9172379
Probable space group: C 2/M
;
_chemical_formula_sum "Si O2"
_cell_formula_units_Z 64
_cell_length_a 26.992249
_cell_length_b 7.412881
_cell_length_c 14.311101
_cell_angle_alpha 90.000000
_cell_angle_beta 93.961312
_cell_angle_gamma 90.000000
_cell_volume 2856.671770
_symmetry_space_group_name_H-M "C 2/M"
_symmetry_group_IT_number 12
_symmetry_cell_setting 'monoclinic'
loop_
_space_group_symop_operation_xyz
x,y,z
-x,y,-z
-x,-y,-z
x,-y,z
1/2+x,1/2+y,z
1/2-x,1/2+y,-z
1/2-x,1/2-y,-z
1/2+x,1/2-y,z
loop_
_atom_site_type_symbol
_atom_site_label
_atom_site_fract_x
_atom_site_fract_y
_atom_site_fract_z
Si Si1 0.177603 0.281037 0.756299
Si Si2 0.952681 0.203799 0.945158
Si Si3 0.367938 0.714746 0.817190
Si Si4 0.015896 0.719166 0.695150
Si Si5 0.905608 0.716508 0.627983
Si Si6 0.416403 0.783079 0.130020
Si Si7 0.267207 0.283577 0.895500
Si Si8 0.110864 0.720328 0.583234
O O1 0.180575 0.500000 0.753010
O O2 0.132165 0.234353 0.818613
O O3 0.227202 0.216967 0.813758
O O4 0.157933 0.221678 0.652133
O O5 0.915723 0.198840 0.028598
O O6 0.967254 0.000000 0.920995
O O7 0.920794 0.291315 0.859679
O O8 0.000000 0.294853 0.000000
O O9 0.370816 0.500000 0.834542
O O10 0.367590 0.740778 0.706280
O O11 0.321264 0.784519 0.869949
O O12 0.015112 0.500000 0.693624
O O13 0.036169 0.770278 0.800435
O O14 0.059407 0.773347 0.628350
O O15 0.961145 0.783630 0.661279
O O16 0.909145 0.500000 0.623030
O O17 0.889709 0.780970 0.523613
O O18 0.416891 0.000000 0.120858
O O19 0.268771 0.500000 0.887202
O O20 0.250000 0.250000 0.000000
O O21 0.110935 0.500000 0.584286
#
# Coordination Sequence:
#
# PCOD9172379 Si02
#       8
#     8   8   8   8   8   8   8   8
#     4   8  15  29  49  72  94 116 147 189 236 279
#     4  10  20  32  44  60  88 126 158 182 219 275
#     4  10  22  36  47  65  96 129 156 188 237 287
#     4   8  14  25  44  73 102 123 149 190 237 275
#     4  10  18  29  49  73  95 124 161 196 226 265
#     4   9  16  27  46  70  92 114 145 189 234 273
#     4  10  20  35  55  74  93 121 155 193 238 283
#     4   8  14  26  47  74  99 122 154 195 233 271
#
# _framework density 22.403696
#
# number of rings (size 3 to 8) (size 9 to 14) (size 15 to 20)
#    0.000    2.875    0.000    3.375    0.000    2.750 
#    0.000    0.625    0.000    5.250    0.000    0.000 
#    0.000    0.000    0.000    0.000    0.000    0.000 
#
# Total GULP energy -178598.769700 kJ/mol
# GULP energy per Si atom -5581.211553 kJ/mol
# Density = 2.235270 g / cm^3
# Si number density = 22.403696 Si / 1000 Ang^3
#
#
#
# Elastic Constant Matrix: (Units=GPa)
#
#
# Indices 1 2 3 4 5 6 
#
# 1 118.7228 8.5309 54.1098 0.0000 15.9752 0.0000
# 2 8.5309 78.5727 1.7879 0.0000 1.4511 0.0000
# 3 54.1098 1.7879 153.6312 0.0000 3.2867 0.0000
# 4 0.0000 0.0000 0.0000 23.0788 0.0000 -15.2053
# 5 15.9752 1.4511 3.2867 0.0000 30.7576 0.0000
# 6 0.0000 0.0000 0.0000 -15.2053 0.0000 1.1928
#
#
#
# Elastic Compliance Matrix: (Units=1/GPa)
#
#
# Indices 1 2 3 4 5 6 
#
# 1 0.010888 -0.001001 -0.003712 0.000000 -0.005211 0.000000
# 2 -0.001001 0.012833 0.000206 0.000000 -0.000107 0.000000
# 3 -0.003712 0.000206 0.007791 0.000000 0.001086 0.000000
# 4 0.000000 0.000000 0.000000 -0.005856 0.000000 -0.074655
# 5 -0.005211 -0.000107 0.001086 0.000000 0.035108 0.000000
# 6 0.000000 0.000000 0.000000 -0.074655 0.000000 -0.113313
#
#
# Mechanical properties :
#
#
# Convention : Reuss Voigt Hill
#
# Bulk Modulus (GPa) = 44.45068 53.30934 48.88001
# Shear Modulus (GPa) = -138.75057 30.10569 -54.32244
#
# Velocity S-wave (km/s) = -7.87823 3.66974 -4.92948
# Velocity P-wave (km/s) = 7.92915 6.46549 3.24568
#
# Compressibility (1/GPa) = 0.02249685
#
# Stress axis : x y z
#
# Youngs Moduli (GPa) = 91.84627 77.92351 128.35785
#
# Poissons Ratio (x) = 0.07803 0.47641
# Poissons Ratio (y) = 0.09198 -0.02640
# Poissons Ratio (z) = 0.34090 -0.01603
#
# Static dielectric constant tensor:
#      x y z
#    x 1.859770 0.000000 0.014840 
#    y 0.000000 1.796910 0.000000 
#    z 0.014840 0.000000 1.817140 
# 
# From -- ./inp_files/174646.got.cif
#   From: 2010.05.17/outbox.cif.g08.bks.cpg/sg12_88_cif.got.tgz:174646.got - 2010.06.03 13:09:07.
