data_PCOD9172532
_publ_section_title
;
Structure prediction by ZEFSAII (Michael W. Deem and Ramdas Pophale) SiO2 
 PCOD9172532
Probable space group: C 2/M
;
_chemical_formula_sum "Si O2"
_cell_formula_units_Z 36
_cell_length_a 8.230337
_cell_length_b 24.541863
_cell_length_c 10.681011
_cell_angle_alpha 90.000000
_cell_angle_beta 39.743806
_cell_angle_gamma 90.000000
_cell_volume 1379.368084
_symmetry_space_group_name_H-M "C 2/M"
_symmetry_group_IT_number 12
_symmetry_cell_setting 'monoclinic'
loop_
_space_group_symop_operation_xyz
x,y,z
-x,y,-z
-x,-y,-z
x,-y,z
1/2+x,1/2+y,z
1/2-x,1/2+y,-z
1/2-x,1/2-y,-z
1/2+x,1/2-y,z
loop_
_atom_site_type_symbol
_atom_site_label
_atom_site_fract_x
_atom_site_fract_y
_atom_site_fract_z
Si Si1 0.537313 0.584970 0.203125
Si Si2 0.000000 0.107214 0.500000
Si Si3 0.243249 0.500000 0.238777
Si Si4 0.871240 0.199740 0.244722
Si Si5 0.924354 0.500000 0.901082
Si Si6 0.446539 0.188936 0.308223
O O1 0.540751 0.574050 0.349099
O O2 0.289790 0.554263 0.293003
O O3 0.548052 0.649030 0.174537
O O4 0.771654 0.557180 0.996368
O O5 0.256328 0.143379 0.365934
O O6 0.500000 0.500000 0.000000
O O7 0.001587 0.500000 0.289699
O O8 0.726533 0.183486 0.202741
O O9 0.694024 0.200858 0.475162
O O10 0.960427 0.262086 0.199311
O O11 0.000000 0.500000 0.000000
#
# Coordination Sequence:
#
# PCOD9172532 Si02
#       6
#     8   4   4   8   4   8
#     4   9  18  32  53  77 106 136 169 216 263 312
#     4  10  18  29  50  86 116 139 166 202 262 320
#     4   8  18  36  51  68  91 127 174 217 255 295
#     4   9  15  26  44  69 103 144 172 199 244 300
#     4  10  22  40  59  75  93 130 184 230 263 306
#     4   9  16  25  41  71 112 142 167 194 238 317
#
# _framework density 26.098908000000002
#
# number of rings (size 3 to 8) (size 9 to 14) (size 15 to 20)
#    0.000    3.111    0.000    4.000    0.000    3.556 
#    0.000    0.000    0.000   44.000    0.000   80.889 
#    0.000    0.000    0.000    0.000    0.000    0.000 
#
# Total GULP energy -100203.361091 kJ/mol
# GULP energy per Si atom -5566.853394 kJ/mol
# Density = 2.603951 g / cm^3
# Si number density = 26.098908 Si / 1000 Ang^3
#
#
#
# Elastic Constant Matrix: (Units=GPa)
#
#
# Indices 1 2 3 4 5 6 
#
# 1 150.6624 1.8358 13.4065 0.0000 44.2956 0.0000
# 2 1.8358 75.4830 20.3054 0.0000 3.7049 0.0000
# 3 13.4065 20.3054 71.4560 0.0000 12.5066 0.0000
# 4 0.0000 0.0000 0.0000 -22.0716 0.0000 -90.3206
# 5 44.2956 3.7049 12.5066 0.0000 48.1734 0.0000
# 6 0.0000 0.0000 0.0000 -90.3206 0.0000 -208.3607
#
#
#
# Elastic Compliance Matrix: (Units=1/GPa)
#
#
# Indices 1 2 3 4 5 6 
#
# 1 0.009106 0.000276 -0.000333 0.000000 -0.008308 0.000000
# 2 0.000276 0.014353 -0.004078 0.000000 -0.000299 0.000000
# 3 -0.000333 -0.004078 0.015827 0.000000 -0.003489 0.000000
# 4 0.000000 0.000000 0.000000 0.058545 0.000000 -0.025378
# 5 -0.008308 -0.000299 -0.003489 0.000000 0.029326 0.000000
# 6 0.000000 0.000000 0.000000 -0.025378 0.000000 0.006202
#
#
# Mechanical properties :
#
#
# Convention : Reuss Voigt Hill
#
# Bulk Modulus (GPa) = 32.24167 40.96630 36.60399
# Shear Modulus (GPa) = 32.90168 -18.98153 6.96007
#
# Velocity S-wave (km/s) = 3.55442 -2.69976 1.63481
# Velocity P-wave (km/s) = 5.40608 2.45201 4.19750
#
# Compressibility (1/GPa) = 0.03101576
#
# Stress axis : x y z
#
# Youngs Moduli (GPa) = 109.81524 69.67185 63.18469
#
# Poissons Ratio (x) = -0.01922 0.02103
# Poissons Ratio (y) = -0.03029 0.25767
# Poissons Ratio (z) = 0.03654 0.28413
#
# Static dielectric constant tensor:
#      x y z
#    x 2.264900 0.000000 -0.108970 
#    y 0.000000 2.018000 0.000000 
#    z -0.108970 0.000000 2.190510 
# 
# From -- ./inp_files/121650.got.cif
#   From: 2010.05.17/outbox.cif.g08.bks.cpg/sg12_61_cif.got.tgz:121650.got - 2010.06.03 13:09:07.
