data_PCOD9172744
_publ_section_title
;
Structure prediction by ZEFSAII (Michael W. Deem and Ramdas Pophale) SiO2 
 PCOD9172744
Probable space group: C 2/M
;
_chemical_formula_sum "Si O2"
_cell_formula_units_Z 40
_cell_length_a 21.217006
_cell_length_b 8.400957
_cell_length_c 22.308976
_cell_angle_alpha 90.000000
_cell_angle_beta 144.742960
_cell_angle_gamma 90.000000
_cell_volume 2295.371970
_symmetry_space_group_name_H-M "C 2/M"
_symmetry_group_IT_number 12
_symmetry_cell_setting 'monoclinic'
loop_
_space_group_symop_operation_xyz
x,y,z
-x,y,-z
-x,-y,-z
x,-y,z
1/2+x,1/2+y,z
1/2-x,1/2+y,-z
1/2-x,1/2-y,-z
1/2+x,1/2-y,z
loop_
_atom_site_type_symbol
_atom_site_label
_atom_site_fract_x
_atom_site_fract_y
_atom_site_fract_z
Si Si1 0.621525 0.306186 0.772098
Si Si2 0.522301 0.694808 0.449773
Si Si3 0.250245 0.309849 0.431888
Si Si4 0.321163 0.809206 0.998646
Si Si5 0.517465 0.689983 0.218584
O O1 0.619966 0.500000 0.771133
O O2 0.569083 0.253071 0.669147
O O3 0.543577 0.255998 0.767149
O O4 0.745885 0.258513 0.884004
O O5 0.500000 0.747907 0.500000
O O6 0.521561 0.500000 0.449384
O O7 0.640399 0.745785 0.516838
O O8 0.253395 0.500000 0.435904
O O9 0.250000 0.250000 0.500000
O O10 0.139242 0.255670 0.313896
O O11 0.441282 0.742737 0.104181
O O12 0.326410 0.000000 0.003571
O O13 0.250000 0.750000 0.000000
O O14 0.521038 0.500000 0.223176
#
# Coordination Sequence:
#
# PCOD9172744 Si02
#       5
#     8   8   8   8   8
#     4   8  14  26  44  68  97 125 157 200 242 284
#     4   9  17  30  49  73 100 130 163 200 245 295
#     4  11  20  31  50  75 101 130 164 203 250 298
#     4   9  16  26  43  69 100 129 160 201 249 297
#     4  10  18  30  47  70 100 128 163 207 249 291
#
# _framework density 17.426369999999999
#
# number of rings (size 3 to 8) (size 9 to 14) (size 15 to 20)
#    0.000    2.600    2.000    3.000    0.000    0.000 
#    0.000    0.000    0.000    3.600    0.000    8.400 
#    0.000    0.000    0.000    0.000    0.000    0.000 
#
# Total GULP energy -111420.387239 kJ/mol
# GULP energy per Si atom -5571.019362 kJ/mol
# Density = 1.738671 g / cm^3
# Si number density = 17.426370 Si / 1000 Ang^3
#
#
#
# Elastic Constant Matrix: (Units=GPa)
#
#
# Indices 1 2 3 4 5 6 
#
# 1 88.7389 14.4420 76.4127 0.0000 -4.5898 0.0000
# 2 14.4420 26.7401 22.3748 0.0000 2.1627 0.0000
# 3 76.4127 22.3748 210.8865 0.0000 0.6231 0.0000
# 4 0.0000 0.0000 0.0000 27.4953 0.0000 3.0923
# 5 -4.5898 2.1627 0.6231 0.0000 19.1296 0.0000
# 6 0.0000 0.0000 0.0000 3.0923 0.0000 11.8166
#
#
#
# Elastic Compliance Matrix: (Units=1/GPa)
#
#
# Indices 1 2 3 4 5 6 
#
# 1 0.017275 -0.004912 -0.005753 0.000000 0.004887 0.000000
# 2 -0.004912 0.042828 -0.002747 0.000000 -0.005931 0.000000
# 3 -0.005753 -0.002747 0.007122 0.000000 -0.001302 0.000000
# 4 0.000000 0.000000 0.000000 0.037473 0.000000 -0.009806
# 5 0.004887 -0.005931 -0.001302 0.000000 0.054161 0.000000
# 6 0.000000 0.000000 0.000000 -0.009806 0.000000 0.087193
#
#
# Mechanical properties :
#
#
# Convention : Reuss Voigt Hill
#
# Bulk Modulus (GPa) = 24.75123 61.42493 43.08808
# Shear Modulus (GPa) = 17.46179 25.89738 21.67958
#
# Velocity S-wave (km/s) = 3.16892 3.85918 3.53096
# Velocity P-wave (km/s) = 5.25581 7.42849 6.43452
#
# Compressibility (1/GPa) = 0.04040204
#
# Stress axis : x y z
#
# Youngs Moduli (GPa) = 57.88796 23.34931 140.41817
#
# Poissons Ratio (x) = 0.11468 0.80778
# Poissons Ratio (y) = 0.28432 0.38570
# Poissons Ratio (z) = 0.33301 0.06414
#
# Static dielectric constant tensor:
#      x y z
#    x 1.562400 0.000000 -0.000920 
#    y 0.000000 1.604990 0.000000 
#    z -0.000920 0.000000 1.635560 
# 
# From -- ./inp_files/151855.got.cif
#   From: 2010.05.17/outbox.cif.g08.bks.cpg/sg12_76_cif.got.tgz:151855.got - 2010.06.03 13:09:07.
