data_PCOD9172614
_publ_section_title
;
Structure prediction by ZEFSAII (Michael W. Deem and Ramdas Pophale) SiO2 
 PCOD9172614
Probable space group: C 2/M
;
_chemical_formula_sum "Si O2"
_cell_formula_units_Z 56
_cell_length_a 18.390310
_cell_length_b 18.810976
_cell_length_c 9.559671
_cell_angle_alpha 90.000000
_cell_angle_beta 89.935238
_cell_angle_gamma 90.000000
_cell_volume 3307.067414
_symmetry_space_group_name_H-M "C 2/M"
_symmetry_group_IT_number 12
_symmetry_cell_setting 'monoclinic'
loop_
_space_group_symop_operation_xyz
x,y,z
-x,y,-z
-x,-y,-z
x,-y,z
1/2+x,1/2+y,z
1/2-x,1/2+y,-z
1/2-x,1/2-y,-z
1/2+x,1/2-y,z
loop_
_atom_site_type_symbol
_atom_site_label
_atom_site_fract_x
_atom_site_fract_y
_atom_site_fract_z
Si Si1 0.424201 0.921197 0.228361
Si Si2 0.770866 0.417896 0.065313
Si Si3 0.064773 0.789080 0.412623
Si Si4 0.971198 0.707555 0.854992
Si Si5 0.313082 0.158544 0.793480
Si Si6 0.218713 0.816011 0.303151
Si Si7 0.642489 0.853767 0.509368
O O1 0.352793 0.916421 0.130174
O O2 0.479331 0.859371 0.187385
O O3 0.397913 0.907901 0.387730
O O4 0.455867 0.000000 0.212706
O O5 0.747291 0.500000 0.068388
O O6 0.726270 0.367454 0.170156
O O7 0.770993 0.386997 0.908200
O O8 0.030129 0.765396 0.266145
O O9 0.141118 0.826791 0.379380
O O10 0.090871 0.715076 0.486256
O O11 0.000000 0.823923 0.500000
O O12 0.888814 0.680640 0.865709
O O13 0.000000 0.736658 0.000000
O O14 0.277632 0.233905 0.748369
O O15 0.334715 0.121600 0.646194
O O16 0.284852 0.830463 0.408471
#
# Coordination Sequence:
#
# PCOD9172614 Si02
#       7
#     8   8   8   8   8   8   8
#     4  10  19  30  45  64 100 144 169 193 239 290
#     4  10  20  33  48  70 100 137 169 202 242 294
#     4  10  18  31  51  73  96 123 162 210 257 286
#     4  10  18  30  43  67 101 131 161 202 236 287
#     4  10  19  30  51  72  96 128 171 208 244 289
#     4   9  19  34  52  73  98 129 164 208 253 293
#     4   9  18  33  48  71  98 128 166 210 245 288
#
# _framework density 16.933432
#
# number of rings (size 3 to 8) (size 9 to 14) (size 15 to 20)
#    0.000    2.571    2.857    2.143    0.000    1.429 
#    0.000    5.000    0.000    0.429    0.000    0.000 
#    0.000   22.857    0.000    0.000    0.000    2.286 
#
# Total GULP energy -156008.524523 kJ/mol
# GULP energy per Si atom -5571.733019 kJ/mol
# Density = 1.689489 g / cm^3
# Si number density = 16.933432 Si / 1000 Ang^3
#
#
#
# Elastic Constant Matrix: (Units=GPa)
#
#
# Indices 1 2 3 4 5 6 
#
# 1 40.8439 -5.8765 6.3965 0.0000 8.0620 0.0000
# 2 -5.8765 16.3348 -1.5755 0.0000 -0.0716 0.0000
# 3 6.3965 -1.5755 80.5315 0.0000 7.9511 0.0000
# 4 0.0000 0.0000 0.0000 3.0751 0.0000 3.4912
# 5 8.0620 -0.0716 7.9511 0.0000 19.7416 0.0000
# 6 0.0000 0.0000 0.0000 3.4912 0.0000 2.9442
#
#
#
# Elastic Compliance Matrix: (Units=1/GPa)
#
#
# Indices 1 2 3 4 5 6 
#
# 1 0.028272 0.010030 -0.000951 0.000000 -0.011126 0.000000
# 2 0.010030 0.064895 0.000889 0.000000 -0.004219 0.000000
# 3 -0.000951 0.000889 0.012988 0.000000 -0.004840 0.000000
# 4 0.000000 0.000000 0.000000 -0.939181 0.000000 1.113678
# 5 -0.011126 -0.004219 -0.004840 0.000000 0.057132 0.000000
# 6 0.000000 0.000000 0.000000 1.113678 0.000000 -0.980941
#
#
# Mechanical properties :
#
#
# Convention : Reuss Voigt Hill
#
# Bulk Modulus (GPa) = 7.93071 15.06659 11.49865
# Shear Modulus (GPa) = -2.88227 14.40322 5.76047
#
# Velocity S-wave (km/s) = -1.30607 2.91963 1.84641
# Velocity P-wave (km/s) = 1.55538 4.50361 3.36911
#
# Compressibility (1/GPa) = 0.12609205
#
# Stress axis : x y z
#
# Youngs Moduli (GPa) = 35.37120 15.40962 76.99267
#
# Poissons Ratio (x) = -0.15456 0.07321
# Poissons Ratio (y) = -0.35478 -0.06848
# Poissons Ratio (z) = 0.03363 -0.01371
#
# Static dielectric constant tensor:
#      x y z
#    x 1.581670 0.000000 -0.018150 
#    y 0.000000 1.566300 0.000000 
#    z -0.018150 0.000000 1.607330 
# 
# From -- ./inp_files/76882.got.cif
#   From: 2010.05.17/outbox.cif.g08.bks.cpg/sg12_39_cif.got.tgz:76882.got - 2010.06.03 13:09:07.
