data_PCOD9172522
_publ_section_title
;
Structure prediction by ZEFSAII (Michael W. Deem and Ramdas Pophale) SiO2 
 PCOD9172522
Probable space group: C 2/M
;
_chemical_formula_sum "Si O2"
_cell_formula_units_Z 48
_cell_length_a 19.730744
_cell_length_b 18.974704
_cell_length_c 13.691061
_cell_angle_alpha 90.000000
_cell_angle_beta 153.510113
_cell_angle_gamma 90.000000
_cell_volume 2286.279035
_symmetry_space_group_name_H-M "C 2/M"
_symmetry_group_IT_number 12
_symmetry_cell_setting 'monoclinic'
loop_
_space_group_symop_operation_xyz
x,y,z
-x,y,-z
-x,-y,-z
x,-y,z
1/2+x,1/2+y,z
1/2-x,1/2+y,-z
1/2-x,1/2-y,-z
1/2+x,1/2-y,z
loop_
_atom_site_type_symbol
_atom_site_label
_atom_site_fract_x
_atom_site_fract_y
_atom_site_fract_z
Si Si1 0.665191 0.798480 0.968198
Si Si2 0.666940 0.080354 0.260447
Si Si3 0.213514 0.920407 0.373000
Si Si4 0.900682 0.773015 0.755228
Si Si5 0.957963 0.643967 0.555462
Si Si6 0.703876 0.708560 0.662461
O O1 0.533460 0.759136 0.860635
O O2 0.590770 0.859955 0.807514
O O3 0.750000 0.750000 0.000000
O O4 0.778504 0.814145 0.202723
O O5 0.675076 0.083432 0.388269
O O6 0.797033 0.134388 0.394369
O O7 0.697212 0.000000 0.269683
O O8 0.500000 0.098624 0.000000
O O9 0.092929 0.857587 0.230489
O O10 0.315562 0.899234 0.412186
O O11 0.154463 0.000000 0.291349
O O12 0.750000 0.750000 0.500000
O O13 0.850856 0.744589 0.798123
O O14 0.914860 0.727784 0.498591
O O15 0.000000 0.624046 0.500000
#
# Coordination Sequence:
#
# PCOD9172522 Si02
#       6
#     8   8   8   8   8   8
#     4  12  22  34  58  90 113 151 188 237 295 333
#     4  10  18  29  50  82 112 138 179 236 288 335
#     4  10  20  35  58  82 111 151 191 232 287 339
#     4  11  19  36  59  84 112 143 194 240 275 330
#     4  11  21  37  54  84 115 148 194 241 281 343
#     4  11  20  35  59  82 114 147 192 241 283 330
#
# _framework density 20.994810999999999
#
# number of rings (size 3 to 8) (size 9 to 14) (size 15 to 20)
#    0.000    1.167    6.667    2.500    0.000    0.333 
#    0.000    0.000    0.000   10.500    0.000    0.000 
#    0.000    0.000    0.000    0.000    0.000    0.000 
#
# Total GULP energy -133758.356130 kJ/mol
# GULP energy per Si atom -5573.264839 kJ/mol
# Density = 2.094703 g / cm^3
# Si number density = 20.994811 Si / 1000 Ang^3
#
#
#
# Elastic Constant Matrix: (Units=GPa)
#
#
# Indices 1 2 3 4 5 6 
#
# 1 134.5208 0.5096 7.5398 0.0000 -27.9195 0.0000
# 2 0.5096 107.8778 -15.9788 0.0000 -7.7419 0.0000
# 3 7.5398 -15.9788 19.6771 0.0000 -13.5820 0.0000
# 4 0.0000 0.0000 0.0000 13.5788 0.0000 2.4241
# 5 -27.9195 -7.7419 -13.5820 0.0000 36.0363 0.0000
# 6 0.0000 0.0000 0.0000 2.4241 0.0000 17.9256
#
#
#
# Elastic Compliance Matrix: (Units=1/GPa)
#
#
# Indices 1 2 3 4 5 6 
#
# 1 0.008992 0.001030 0.003180 0.000000 0.008387 0.000000
# 2 0.001030 0.012360 0.016255 0.000000 0.009580 0.000000
# 3 0.003180 0.016255 0.090441 0.000000 0.040043 0.000000
# 4 0.000000 0.000000 0.000000 0.075466 0.000000 -0.010205
# 5 0.008387 0.009580 0.040043 0.000000 0.051398 0.000000
# 6 0.000000 0.000000 0.000000 -0.010205 0.000000 0.057166
#
#
# Mechanical properties :
#
#
# Convention : Reuss Voigt Hill
#
# Bulk Modulus (GPa) = 6.54780 27.35745 16.95263
# Shear Modulus (GPa) = 16.35055 31.50848 23.92952
#
# Velocity S-wave (km/s) = 2.79371 3.87819 3.37973
# Velocity P-wave (km/s) = 3.67858 5.75436 4.82932
#
# Compressibility (1/GPa) = 0.15272306
#
# Stress axis : x y z
#
# Youngs Moduli (GPa) = 111.20605 80.90602 11.05698
#
# Poissons Ratio (x) = -0.08337 -0.03516
# Poissons Ratio (y) = -0.11459 -0.17973
# Poissons Ratio (z) = -0.35364 -1.31510
#
# Static dielectric constant tensor:
#      x y z
#    x 1.760630 0.000000 -0.061190 
#    y 0.000000 1.790780 0.000000 
#    z -0.061190 0.000000 1.952280 
# 
# From -- ./inp_files/234348.got.cif
#   From: 2010.05.17/outbox.cif.g08.bks.cpg/sg12_118_cif.got.tgz:234348.got - 2010.06.03 13:09:07.
