data_PCOD9172022
_publ_section_title
;
Structure prediction by ZEFSAII (Michael W. Deem and Ramdas Pophale) SiO2 
 PCOD9172022
Probable space group: C 2/M
;
_chemical_formula_sum "Si O2"
_cell_formula_units_Z 56
_cell_length_a 20.041790
_cell_length_b 8.525044
_cell_length_c 22.589305
_cell_angle_alpha 90.000000
_cell_angle_beta 54.832096
_cell_angle_gamma 90.000000
_cell_volume 3155.052534
_symmetry_space_group_name_H-M "C 2/M"
_symmetry_group_IT_number 12
_symmetry_cell_setting 'monoclinic'
loop_
_space_group_symop_operation_xyz
x,y,z
-x,y,-z
-x,-y,-z
x,-y,z
1/2+x,1/2+y,z
1/2-x,1/2+y,-z
1/2-x,1/2-y,-z
1/2+x,1/2-y,z
loop_
_atom_site_type_symbol
_atom_site_label
_atom_site_fract_x
_atom_site_fract_y
_atom_site_fract_z
Si Si1 0.809072 0.187911 0.419167
Si Si2 0.379543 0.187243 0.948640
Si Si3 0.217005 0.190785 0.701640
Si Si4 0.161870 0.691648 0.260558
Si Si5 0.466407 0.687705 0.187933
Si Si6 0.986066 0.311832 0.310012
Si Si7 0.241464 0.689138 0.096418
O O1 0.750000 0.250000 0.500000
O O2 0.781119 0.242065 0.367695
O O3 0.902110 0.244868 0.378657
O O4 0.808349 0.000000 0.419744
O O5 0.469379 0.255220 0.893356
O O6 0.325170 0.237558 0.919151
O O7 0.383512 0.000000 0.946635
O O8 0.328276 0.245515 0.031017
O O9 0.290044 0.246072 0.706009
O O10 0.128047 0.234266 0.773041
O O11 0.219652 0.000000 0.699760
O O12 0.161705 0.500000 0.261054
O O13 0.210809 0.739398 0.176442
O O14 0.068007 0.740907 0.301601
O O15 0.469444 0.500000 0.190670
O O16 0.491347 0.758177 0.238938
O O17 0.982791 0.500000 0.312875
O O18 0.245117 0.500000 0.093743
#
# Coordination Sequence:
#
# PCOD9172022 Si02
#       7
#     8   8   8   8   8   8   8
#     4  10  20  36  57  81 105 133 166 201 242 291
#     4  10  18  29  45  70  98 130 172 216 258 296
#     4   8  17  32  52  76 100 128 166 208 246 291
#     4   9  16  31  52  75 101 128 167 212 250 294
#     4  10  18  30  49  73 100 133 173 213 250 296
#     4  10  18  31  54  80 102 130 165 206 251 294
#     4   9  17  29  46  70  96 128 167 213 259 296
#
# _framework density 17.749309
#
# number of rings (size 3 to 8) (size 9 to 14) (size 15 to 20)
#    0.000    2.571    1.429    2.571    0.000    0.571 
#    0.000    1.429    0.000   24.000    0.000    0.000 
#    0.000    0.000    0.000    0.000    0.000    0.000 
#
# Total GULP energy -156125.957734 kJ/mol
# GULP energy per Si atom -5575.927062 kJ/mol
# Density = 1.770891 g / cm^3
# Si number density = 17.749309 Si / 1000 Ang^3
#
#
#
# Elastic Constant Matrix: (Units=GPa)
#
#
# Indices 1 2 3 4 5 6 
#
# 1 134.6923 20.7080 71.7907 0.0000 -15.0824 0.0002
# 2 20.7080 29.7191 27.2114 -0.0002 -4.4027 0.0003
# 3 71.7907 27.2114 150.0295 0.0000 -19.3080 0.0000
# 4 0.0000 -0.0002 0.0000 29.5579 0.0000 -4.1345
# 5 -15.0824 -4.4027 -19.3080 0.0000 17.6037 0.0000
# 6 0.0002 0.0003 0.0000 -4.1345 0.0000 16.2135
#
#
#
# Elastic Compliance Matrix: (Units=1/GPa)
#
#
# Indices 1 2 3 4 5 6 
#
# 1 0.010427 -0.003094 -0.003933 0.000000 0.003846 0.000000
# 2 -0.003094 0.041355 -0.005857 0.000000 0.001268 -0.000001
# 3 -0.003933 -0.005857 0.010465 0.000000 0.006643 0.000000
# 4 0.000000 0.000000 0.000000 0.035083 0.000000 0.008946
# 5 0.003846 0.001268 0.006643 0.000000 0.067704 0.000000
# 6 0.000000 -0.000001 0.000000 0.008946 0.000000 0.063958
#
#
# Mechanical properties :
#
#
# Convention : Reuss Voigt Hill
#
# Bulk Modulus (GPa) = 27.41398 61.54012 44.47705
# Shear Modulus (GPa) = 18.73212 25.65707 22.19460
#
# Velocity S-wave (km/s) = 3.25217 3.80613 3.54000
# Velocity P-wave (km/s) = 5.43882 7.35273 6.46697
#
# Compressibility (1/GPa) = 0.03647774
#
# Stress axis : x y z
#
# Youngs Moduli (GPa) = 95.90338 24.18086 95.55933
#
# Poissons Ratio (x) = 0.07482 0.37587
# Poissons Ratio (y) = 0.29676 0.55967
# Poissons Ratio (z) = 0.37722 0.14162
#
# Static dielectric constant tensor:
#      x y z
#    x 1.613990 0.000000 -0.008230 
#    y 0.000000 1.606550 0.000000 
#    z -0.008230 0.000000 1.590650 
# 
# From -- ./inp_files/342345.got.cif
#   From: 2010.05.17/outbox.cif.g08.bks.cpg/sg12_172_cif.got.tgz:342345.got - 2010.06.03 13:09:07.
