data_PCOD9172944
_publ_section_title
;
Structure prediction by ZEFSAII (Michael W. Deem and Ramdas Pophale) SiO2 
 PCOD9172944
Probable space group: C 2/M
;
_chemical_formula_sum "Si O2"
_cell_formula_units_Z 40
_cell_length_a 25.975936
_cell_length_b 8.744387
_cell_length_c 22.283537
_cell_angle_alpha 90.000000
_cell_angle_beta 151.261258
_cell_angle_gamma 90.000000
_cell_volume 2433.683276
_symmetry_space_group_name_H-M "C 2/M"
_symmetry_group_IT_number 12
_symmetry_cell_setting 'monoclinic'
loop_
_space_group_symop_operation_xyz
x,y,z
-x,y,-z
-x,-y,-z
x,-y,z
1/2+x,1/2+y,z
1/2-x,1/2+y,-z
1/2-x,1/2-y,-z
1/2+x,1/2-y,z
loop_
_atom_site_type_symbol
_atom_site_label
_atom_site_fract_x
_atom_site_fract_y
_atom_site_fract_z
Si Si1 0.604059 0.683892 0.895599
Si Si2 0.604385 0.315589 0.643007
Si Si3 0.153087 0.682518 0.821473
Si Si4 0.336438 0.183573 0.832420
Si Si5 0.510261 0.316287 0.102489
O O1 0.603806 0.500000 0.888777
O O2 0.592710 0.758774 0.819051
O O3 0.517539 0.725981 0.857606
O O4 0.721917 0.728259 0.041286
O O5 0.500000 0.263657 0.500000
O O6 0.601618 0.500000 0.643704
O O7 0.610144 0.251341 0.716003
O O8 0.714430 0.273313 0.721564
O O9 0.149176 0.500000 0.814716
O O10 0.383706 0.244796 0.818145
O O11 0.346696 0.000000 0.845048
O O12 0.412752 0.255855 0.961444
O O13 0.513913 0.500000 0.101621
#
# Coordination Sequence:
#
# PCOD9172944 Si02
#       5
#     8   8   8   8   8
#     4   9  18  31  48  72 102 132 158 195 250 302
#     4  10  21  36  52  70  99 137 170 203 244 291
#     4  10  19  31  49  74 100 128 165 205 246 291
#     4  10  19  30  47  72  99 128 166 203 242 290
#     4  10  18  30  49  72 102 131 157 197 249 298
#
# _framework density 16.435993
#
# number of rings (size 3 to 8) (size 9 to 14) (size 15 to 20)
#    0.000    2.200    2.000    3.000    0.000    3.600 
#    0.000    0.000    0.000    1.200    0.000    0.000 
#    0.000    0.000    0.000    0.000    0.000    0.000 
#
# Total GULP energy -111549.765156 kJ/mol
# GULP energy per Si atom -5577.488258 kJ/mol
# Density = 1.639858 g / cm^3
# Si number density = 16.435993 Si / 1000 Ang^3
#
#
#
# Elastic Constant Matrix: (Units=GPa)
#
#
# Indices 1 2 3 4 5 6 
#
# 1 179.5746 40.6398 70.8142 0.0000 -4.9293 0.0000
# 2 40.6398 28.5573 26.2847 0.0000 -0.5824 0.0000
# 3 70.8142 26.2847 90.9541 0.0000 -5.3047 0.0000
# 4 0.0000 0.0000 0.0000 11.2892 0.0000 -9.2808
# 5 -4.9293 -0.5824 -5.3047 0.0000 18.6463 0.0000
# 6 0.0000 0.0000 0.0000 -9.2808 0.0000 25.2323
#
#
#
# Elastic Compliance Matrix: (Units=1/GPa)
#
#
# Indices 1 2 3 4 5 6 
#
# 1 0.009536 -0.009219 -0.004708 0.000000 0.000894 0.000000
# 2 -0.009219 0.056732 -0.009412 0.000000 -0.003343 0.000000
# 3 -0.004708 -0.009412 0.017582 0.000000 0.003463 0.000000
# 4 0.000000 0.000000 0.000000 0.126974 0.000000 0.046703
# 5 0.000894 -0.003343 0.003463 0.000000 0.054747 0.000000
# 6 0.000000 0.000000 0.000000 0.046703 0.000000 0.056810
#
#
# Mechanical properties :
#
#
# Convention : Reuss Voigt Hill
#
# Bulk Modulus (GPa) = 26.90242 63.84039 45.37140
# Shear Modulus (GPa) = 13.10783 21.79006 17.44894
#
# Velocity S-wave (km/s) = 2.82708 3.64504 3.26180
# Velocity P-wave (km/s) = 5.20193 7.52604 6.46921
#
# Compressibility (1/GPa) = 0.03717138
#
# Stress axis : x y z
#
# Youngs Moduli (GPa) = 104.86133 17.62674 56.87532
#
# Poissons Ratio (x) = 0.16251 0.26779
# Poissons Ratio (y) = 0.96675 0.53531
# Poissons Ratio (z) = 0.49373 0.16590
#
# Static dielectric constant tensor:
#      x y z
#    x 1.569640 0.000000 0.015610 
#    y 0.000000 1.551690 0.000000 
#    z 0.015610 0.000000 1.522950 
# 
# From -- ./inp_files/171392.got.cif
#   From: 2010.05.17/outbox.cif.g08.bks.cpg/sg12_86_cif.got.tgz:171392.got - 2010.06.03 13:09:07.
