data_PCOD9172005
_publ_section_title
;
Structure prediction by ZEFSAII (Michael W. Deem and Ramdas Pophale) SiO2 
 PCOD9172005
Probable space group: C 2/M
;
_chemical_formula_sum "Si O2"
_cell_formula_units_Z 64
_cell_length_a 8.803641
_cell_length_b 24.242330
_cell_length_c 17.452405
_cell_angle_alpha 90.000000
_cell_angle_beta 100.971133
_cell_angle_gamma 90.000000
_cell_volume 3656.629992
_symmetry_space_group_name_H-M "C 2/M"
_symmetry_group_IT_number 12
_symmetry_cell_setting 'monoclinic'
loop_
_space_group_symop_operation_xyz
x,y,z
-x,y,-z
-x,-y,-z
x,-y,z
1/2+x,1/2+y,z
1/2-x,1/2+y,-z
1/2-x,1/2-y,-z
1/2+x,1/2-y,z
loop_
_atom_site_type_symbol
_atom_site_label
_atom_site_fract_x
_atom_site_fract_y
_atom_site_fract_z
Si Si1 0.316662 0.311277 0.495461
Si Si2 0.274484 0.691571 0.325277
Si Si3 0.855712 0.815250 0.665149
Si Si4 0.269354 0.650416 0.820522
Si Si5 0.424997 0.855324 0.833068
Si Si6 0.224655 0.734478 0.087604
Si Si7 0.060395 0.856096 0.927510
Si Si8 0.833751 0.435385 0.944400
O O1 0.500000 0.306096 0.500000
O O2 0.250000 0.250000 0.500000
O O3 0.253384 0.334177 0.408795
O O4 0.297868 0.338199 0.577294
O O5 0.217209 0.754515 0.329286
O O6 0.456848 0.689285 0.321013
O O7 0.169908 0.665124 0.249444
O O8 0.798286 0.848160 0.733198
O O9 0.277612 0.712237 0.858857
O O10 0.413654 0.618534 0.871460
O O11 0.100145 0.631752 0.827854
O O12 0.414072 0.806518 0.897549
O O13 0.350368 0.909875 0.861604
O O14 0.367449 0.692492 0.116677
O O15 0.250000 0.750000 0.000000
O O16 0.193580 0.898850 0.963417
O O17 0.000000 0.829859 0.000000
O O18 0.801947 0.500000 0.944292
O O19 0.000000 0.425083 0.000000
#
# Coordination Sequence:
#
# PCOD9172005 Si02
#       8
#     8   8   8   8   8   8   8   8
#     4   8  16  28  44  63  94 138 182 213 241 290
#     4  10  18  31  46  70 100 139 182 214 251 295
#     4  10  18  29  45  68 104 145 176 210 250 297
#     4  12  22  32  48  77 110 140 173 208 253 308
#     4  11  23  34  53  75 103 136 177 216 257 314
#     4  11  22  34  48  70 106 144 174 209 249 301
#     4  11  22  36  53  76 101 132 176 216 258 312
#     4  10  23  43  61  75  95 129 174 227 277 316
#
# _framework density 17.502452999999999
#
# number of rings (size 3 to 8) (size 9 to 14) (size 15 to 20)
#    0.000    1.625    2.500    3.750    1.750    1.250 
#    0.000    0.625    0.000    0.000    0.000    0.000 
#    0.000   14.500    0.000    0.000    0.000    0.250 
#
# Total GULP energy -178273.098540 kJ/mol
# GULP energy per Si atom -5571.034329 kJ/mol
# Density = 1.746262 g / cm^3
# Si number density = 17.502453 Si / 1000 Ang^3
#
#
#
# Elastic Constant Matrix: (Units=GPa)
#
#
# Indices 1 2 3 4 5 6 
#
# 1 81.0597 8.5887 18.6748 0.0000 -8.2552 0.0000
# 2 8.5887 32.6825 0.6232 0.0000 1.2994 0.0000
# 3 18.6748 0.6232 115.4810 0.0000 -12.1433 0.0000
# 4 0.0000 0.0000 0.0000 10.4711 0.0000 3.6205
# 5 -8.2552 1.2994 -12.1433 0.0000 27.4714 0.0000
# 6 0.0000 0.0000 0.0000 3.6205 0.0000 13.6615
#
#
#
# Elastic Compliance Matrix: (Units=1/GPa)
#
#
# Indices 1 2 3 4 5 6 
#
# 1 0.013487 -0.003646 -0.001801 0.000000 0.003429 0.000000
# 2 -0.003646 0.031653 0.000153 0.000000 -0.002525 0.000000
# 3 -0.001801 0.000153 0.009326 0.000000 0.003574 0.000000
# 4 0.000000 0.000000 0.000000 0.105135 0.000000 -0.027862
# 5 0.003429 -0.002525 0.003574 0.000000 0.039131 0.000000
# 6 0.000000 0.000000 0.000000 -0.027862 0.000000 0.080582
#
#
# Mechanical properties :
#
#
# Convention : Reuss Voigt Hill
#
# Bulk Modulus (GPa) = 22.79031 31.66630 27.22830
# Shear Modulus (GPa) = 16.41886 23.74324 20.08105
#
# Velocity S-wave (km/s) = 3.06615 3.68715 3.39090
# Velocity P-wave (km/s) = 5.05811 6.02151 5.56071
#
# Compressibility (1/GPa) = 0.04387830
#
# Stress axis : x y z
#
# Youngs Moduli (GPa) = 74.14527 31.59244 107.23157
#
# Poissons Ratio (x) = 0.11520 0.19310
# Poissons Ratio (y) = 0.27036 -0.01644
# Poissons Ratio (z) = 0.13352 -0.00484
#
# Static dielectric constant tensor:
#      x y z
#    x 1.652200 0.000000 0.014710 
#    y 0.000000 1.566260 0.000000 
#    z 0.014710 0.000000 1.675530 
# 
# From -- ./inp_files/258959.got.cif
#   From: 2010.05.17/outbox.cif.g08.bks.cpg/sg12_130_cif.got.tgz:258959.got - 2010.06.03 13:09:07.
