data_PCOD9172200
_publ_section_title
;
Structure prediction by ZEFSAII (Michael W. Deem and Ramdas Pophale) SiO2 
 PCOD9172200
Probable space group: C 2/M
;
_chemical_formula_sum "Si O2"
_cell_formula_units_Z 56
_cell_length_a 24.571440
_cell_length_b 7.373040
_cell_length_c 16.425722
_cell_angle_alpha 90.000000
_cell_angle_beta 124.434834
_cell_angle_gamma 90.000000
_cell_volume 2454.338450
_symmetry_space_group_name_H-M "C 2/M"
_symmetry_group_IT_number 12
_symmetry_cell_setting 'monoclinic'
loop_
_space_group_symop_operation_xyz
x,y,z
-x,y,-z
-x,-y,-z
x,-y,z
1/2+x,1/2+y,z
1/2-x,1/2+y,-z
1/2-x,1/2-y,-z
1/2+x,1/2-y,z
loop_
_atom_site_type_symbol
_atom_site_label
_atom_site_fract_x
_atom_site_fract_y
_atom_site_fract_z
Si Si1 0.953696 0.721109 0.386653
Si Si2 0.455439 0.221199 0.205926
Si Si3 0.679867 0.219163 0.646392
Si Si4 0.324870 0.212226 0.836506
Si Si5 0.319421 0.217079 0.015369
Si Si6 0.325745 0.784054 0.541082
Si Si7 0.414186 0.777902 0.766718
O O1 0.956153 0.500000 0.389188
O O2 0.973374 0.779035 0.312800
O O3 0.878507 0.774903 0.342626
O O4 0.000000 0.781365 0.500000
O O5 0.510837 0.275443 0.187793
O O6 0.455339 0.000000 0.207218
O O7 0.382623 0.282646 0.119349
O O8 0.752525 0.275440 0.735146
O O9 0.663526 0.284253 0.541315
O O10 0.680313 0.000000 0.645299
O O11 0.321663 0.288615 0.924827
O O12 0.378671 0.286662 0.818723
O O13 0.340910 0.000000 0.858766
O O14 0.325751 0.000000 0.016666
O O15 0.250000 0.250000 0.000000
O O16 0.250000 0.750000 0.500000
O O17 0.371600 0.716648 0.652548
O O18 0.336904 0.000000 0.547077
O O19 0.411961 0.000000 0.766174
#
# Coordination Sequence:
#
# PCOD9172200 Si02
#       7
#     8   8   8   8   8   8   8
#     4   9  16  27  45  71 100 127 161 206 251 293
#     4   9  17  30  49  72  99 131 166 207 250 294
#     4  10  19  30  49  76 102 132 170 208 246 294
#     4  10  20  33  50  74 102 132 165 205 253 300
#     4  10  21  36  55  77 100 130 168 209 256 302
#     4  10  18  29  47  72 103 136 167 201 245 293
#     4   9  17  30  48  72 103 134 166 205 249 297
#
# _framework density 22.816738000000001
#
# number of rings (size 3 to 8) (size 9 to 14) (size 15 to 20)
#    0.000    2.429    1.429    1.714    0.000    5.714 
#    0.000    2.857    0.000    2.143    0.000    2.000 
#    0.000    0.000    0.000    0.000    0.000    0.000 
#
# Total GULP energy -156469.887077 kJ/mol
# GULP energy per Si atom -5588.210253 kJ/mol
# Density = 2.276481 g / cm^3
# Si number density = 22.816738 Si / 1000 Ang^3
#
#
#
# Elastic Constant Matrix: (Units=GPa)
#
#
# Indices 1 2 3 4 5 6 
#
# 1 196.0744 -2.7917 87.6003 0.0000 -11.4102 0.0000
# 2 -2.7917 80.6002 4.4442 0.0000 -5.5835 0.0000
# 3 87.6003 4.4442 146.2028 0.0000 -15.7767 0.0000
# 4 0.0000 0.0000 0.0000 4.3009 0.0000 4.8183
# 5 -11.4102 -5.5835 -15.7767 0.0000 43.1142 0.0000
# 6 0.0000 0.0000 0.0000 4.8183 0.0000 11.1835
#
#
#
# Elastic Compliance Matrix: (Units=1/GPa)
#
#
# Indices 1 2 3 4 5 6 
#
# 1 0.006989 0.000499 -0.004160 0.000000 0.000392 0.000000
# 2 0.000499 0.012561 -0.000511 0.000000 0.001572 0.000000
# 3 -0.004160 -0.000511 0.009601 0.000000 0.002346 0.000000
# 4 0.000000 0.000000 0.000000 0.449443 0.000000 -0.193637
# 5 0.000392 0.001572 0.002346 0.000000 0.024360 0.000000
# 6 0.000000 0.000000 0.000000 -0.193637 0.000000 0.172843
#
#
# Mechanical properties :
#
#
# Convention : Reuss Voigt Hill
#
# Bulk Modulus (GPa) = 48.06340 66.82033 57.44187
# Shear Modulus (GPa) = 7.23508 33.96136 20.59822
#
# Velocity S-wave (km/s) = 1.78265 3.86222 3.00787
# Velocity P-wave (km/s) = 5.03466 7.01699 6.10680
#
# Compressibility (1/GPa) = 0.02080585
#
# Stress axis : x y z
#
# Youngs Moduli (GPa) = 143.08805 79.60993 104.15308
#
# Poissons Ratio (x) = -0.03969 0.43331
# Poissons Ratio (y) = -0.07134 0.05322
# Poissons Ratio (z) = 0.59529 0.04068
#
# Static dielectric constant tensor:
#      x y z
#    x 1.810150 0.000000 -0.018320 
#    y 0.000000 1.919970 0.000000 
#    z -0.018320 0.000000 1.814160 
# 
# From -- ./inp_files/238977.got.cif
#   From: 2010.05.17/outbox.cif.g08.bks.cpg/sg12_120_cif.got.tgz:238977.got - 2010.06.03 13:09:07.
