data_PCOD9172980
_publ_section_title
;
Structure prediction by ZEFSAII (Michael W. Deem and Ramdas Pophale) SiO2 
 PCOD9172980
Probable space group: C 2/M
;
_chemical_formula_sum "Si O2"
_cell_formula_units_Z 64
_cell_length_a 17.556169
_cell_length_b 14.567557
_cell_length_c 20.931282
_cell_angle_alpha 90.000000
_cell_angle_beta 53.579693
_cell_angle_gamma 90.000000
_cell_volume 4307.619789
_symmetry_space_group_name_H-M "C 2/M"
_symmetry_group_IT_number 12
_symmetry_cell_setting 'monoclinic'
loop_
_space_group_symop_operation_xyz
x,y,z
-x,y,-z
-x,-y,-z
x,-y,z
1/2+x,1/2+y,z
1/2-x,1/2+y,-z
1/2-x,1/2-y,-z
1/2+x,1/2-y,z
loop_
_atom_site_type_symbol
_atom_site_label
_atom_site_fract_x
_atom_site_fract_y
_atom_site_fract_z
Si Si1 0.523217 0.888436 0.590085
Si Si2 0.668424 0.607031 0.752262
Si Si3 0.473048 0.890170 0.755869
Si Si4 0.751147 0.105010 0.144912
Si Si5 0.607542 0.104533 0.919347
Si Si6 0.966200 0.728506 0.154196
Si Si7 0.669358 0.244354 0.986425
Si Si8 0.848840 0.388561 0.586701
O O1 0.518555 0.859965 0.665808
O O2 0.428171 0.860425 0.599224
O O3 0.611710 0.859470 0.502067
O O4 0.522282 0.000000 0.591101
O O5 0.642235 0.500000 0.754239
O O6 0.721379 0.610267 0.794455
O O7 0.582637 0.677318 0.800234
O O8 0.744940 0.638389 0.661273
O O9 0.360051 0.874329 0.807734
O O10 0.513565 0.835759 0.795377
O O11 0.486756 0.000000 0.756708
O O12 0.812638 0.173387 0.071977
O O13 0.766607 0.000000 0.116316
O O14 0.599840 0.171820 0.862432
O O15 0.669921 0.151508 0.943641
O O16 0.635847 0.000000 0.890220
O O17 0.500000 0.100999 0.000000
O O18 0.066066 0.748533 0.069826
O O19 0.750000 0.250000 0.000000
O O20 0.848804 0.500000 0.587493
#
# Coordination Sequence:
#
# PCOD9172980 Si02
#       8
#     8   8   8   8   8   8   8   8
#     4   8  13  23  44  72  96 116 148 192 233 275
#     4  10  19  32  49  69  96 129 156 186 235 287
#     4  10  18  30  49  73  94 120 156 198 239 273
#     4  10  19  32  50  69  92 121 158 200 236 273
#     4   9  19  34  49  66  89 120 154 190 237 281
#     4  11  21  32  49  66  96 128 158 194 231 282
#     4  11  21  34  48  68  92 120 161 202 235 271
#     4   8  13  24  44  70  96 121 148 185 234 282
#
# _framework density 14.857393
#
# number of rings (size 3 to 8) (size 9 to 14) (size 15 to 20)
#    0.000    2.375    3.750    1.125    0.000    1.500 
#    0.000    1.875    0.000    0.000    0.000    0.000 
#    0.000    0.000    0.000    5.750    0.000    0.750 
#
# Total GULP energy -178202.482187 kJ/mol
# GULP energy per Si atom -5568.827568 kJ/mol
# Density = 1.482358 g / cm^3
# Si number density = 14.857393 Si / 1000 Ang^3
#
#
#
# Elastic Constant Matrix: (Units=GPa)
#
#
# Indices 1 2 3 4 5 6 
#
# 1 61.2676 31.8342 29.5560 0.0000 3.3246 0.0000
# 2 31.8342 65.3626 45.9945 0.0000 -4.3507 0.0000
# 3 29.5560 45.9945 114.8560 0.0000 -0.6672 0.0000
# 4 0.0000 0.0000 0.0000 15.2618 0.0000 4.0929
# 5 3.3246 -4.3507 -0.6672 0.0000 18.3322 0.0000
# 6 0.0000 0.0000 0.0000 4.0929 0.0000 18.5232
#
#
#
# Elastic Compliance Matrix: (Units=1/GPa)
#
#
# Indices 1 2 3 4 5 6 
#
# 1 0.022927 -0.010348 -0.001795 0.000000 -0.006679 0.000000
# 2 -0.010348 0.026394 -0.007861 0.000000 0.007854 0.000000
# 3 -0.001795 -0.007861 0.012310 0.000000 -0.001092 0.000000
# 4 0.000000 0.000000 0.000000 0.069650 0.000000 -0.015390
# 5 -0.006679 0.007854 -0.001092 0.000000 0.057584 0.000000
# 6 0.000000 0.000000 0.000000 -0.015390 0.000000 0.057387
#
#
# Mechanical properties :
#
#
# Convention : Reuss Voigt Hill
#
# Bulk Modulus (GPa) = 46.24667 50.69506 48.47086
# Shear Modulus (GPa) = 17.03770 19.36353 18.20062
#
# Velocity S-wave (km/s) = 3.39004 3.61403 3.50383
# Velocity P-wave (km/s) = 6.82040 7.18402 7.00457
#
# Compressibility (1/GPa) = 0.02162318
#
# Stress axis : x y z
#
# Youngs Moduli (GPa) = 43.61719 37.88806 81.23494
#
# Poissons Ratio (x) = 0.39206 0.14579
# Poissons Ratio (y) = 0.45135 0.63858
# Poissons Ratio (z) = 0.07828 0.29784
#
# Static dielectric constant tensor:
#      x y z
#    x 1.487570 0.000000 0.003250 
#    y 0.000000 1.481320 0.000000 
#    z 0.003250 0.000000 1.507920 
# 
# From -- ./inp_files/270255.got.cif
#   From: 2010.05.17/outbox.cif.g08.bks.cpg/sg12_136_cif.got.tgz:270255.got - 2010.06.03 13:09:07.
