data_PCOD9172158
_publ_section_title
;
Structure prediction by ZEFSAII (Michael W. Deem and Ramdas Pophale) SiO2 
 PCOD9172158
Probable space group: C 2/M
;
_chemical_formula_sum "Si O2"
_cell_formula_units_Z 64
_cell_length_a 23.547387
_cell_length_b 9.354537
_cell_length_c 17.290661
_cell_angle_alpha 90.000000
_cell_angle_beta 96.942880
_cell_angle_gamma 90.000000
_cell_volume 3780.770072
_symmetry_space_group_name_H-M "C 2/M"
_symmetry_group_IT_number 12
_symmetry_cell_setting 'monoclinic'
loop_
_space_group_symop_operation_xyz
x,y,z
-x,y,-z
-x,-y,-z
x,-y,z
1/2+x,1/2+y,z
1/2-x,1/2+y,-z
1/2-x,1/2-y,-z
1/2+x,1/2-y,z
loop_
_atom_site_type_symbol
_atom_site_label
_atom_site_fract_x
_atom_site_fract_y
_atom_site_fract_z
Si Si1 0.689320 0.332240 0.284274
Si Si2 0.981570 0.335947 0.337019
Si Si3 0.304946 0.667082 0.263689
Si Si4 0.987312 0.673795 0.084280
Si Si5 0.604544 0.333175 0.579607
Si Si6 0.609458 0.834663 0.820659
Si Si7 0.424940 0.826781 0.765708
Si Si8 0.192067 0.168205 0.468671
O O1 0.689963 0.500000 0.264375
O O2 0.748179 0.256734 0.270251
O O3 0.635454 0.249836 0.240375
O O4 0.683496 0.320159 0.376085
O O5 0.989187 0.500000 0.362496
O O6 0.951562 0.247914 0.399868
O O7 0.936482 0.335356 0.257650
O O8 0.039951 0.283844 0.306257
O O9 0.292253 0.500000 0.250742
O O10 0.347498 0.679082 0.344668
O O11 0.339424 0.734302 0.197748
O O12 0.986171 0.500000 0.082917
O O13 0.036276 0.712614 0.153928
O O14 0.926380 0.716050 0.110912
O O15 0.000000 0.724659 0.000000
O O16 0.590495 0.500000 0.567531
O O17 0.637316 0.279113 0.508652
O O18 0.627785 0.000000 0.833747
O O19 0.419681 0.000000 0.763132
O O20 0.250000 0.250000 0.500000
O O21 0.199282 0.000000 0.489950
#
# Coordination Sequence:
#
# PCOD9172158 Si02
#       8
#     8   8   8   8   8   8   8   8
#     4  11  22  33  48  69  96 131 166 201 244 292
#     4   8  15  28  46  67  91 123 158 193 236 282
#     4  10  18  29  47  69  95 127 163 203 243 285
#     4   8  14  28  54  83 104 126 157 194 238 285
#     4   9  17  29  46  68  91 117 156 205 249 284
#     4   8  14  26  46  73 101 123 153 197 236 281
#     4   9  18  33  51  72 100 129 160 197 235 287
#     4  10  20  33  47  67  94 124 163 207 249 289
#
# _framework density 16.927768
#
# number of rings (size 3 to 8) (size 9 to 14) (size 15 to 20)
#    0.000    2.875    1.250    2.250    0.000    2.000 
#    0.000    2.500    0.000    6.000    0.000    0.000 
#    0.000    0.000    0.000    0.000    0.000    0.000 
#
# Total GULP energy -178299.111846 kJ/mol
# GULP energy per Si atom -5571.847245 kJ/mol
# Density = 1.688924 g / cm^3
# Si number density = 16.927768 Si / 1000 Ang^3
#
#
#
# Elastic Constant Matrix: (Units=GPa)
#
#
# Indices 1 2 3 4 5 6 
#
# 1 56.7190 36.6988 25.5952 0.0000 -18.7778 0.0000
# 2 36.6988 51.7767 26.2307 0.0000 -10.9580 0.0000
# 3 25.5952 26.2307 59.1700 0.0000 -26.3674 0.0000
# 4 0.0000 0.0000 0.0000 12.7906 0.0000 -4.7566
# 5 -18.7778 -10.9580 -26.3674 0.0000 27.6806 0.0000
# 6 0.0000 0.0000 0.0000 -4.7566 0.0000 28.2712
#
#
#
# Elastic Compliance Matrix: (Units=1/GPa)
#
#
# Indices 1 2 3 4 5 6 
#
# 1 0.038785 -0.024839 0.002740 0.000000 0.019088 0.000000
# 2 -0.024839 0.040836 -0.013316 0.000000 -0.013368 0.000000
# 3 0.002740 -0.013316 0.034921 0.000000 0.029851 0.000000
# 4 0.000000 0.000000 0.000000 0.083401 0.000000 0.014032
# 5 0.019088 -0.013368 0.029851 0.000000 0.072218 0.000000
# 6 0.000000 0.000000 0.000000 0.014032 0.000000 0.037733
#
#
# Mechanical properties :
#
#
# Convention : Reuss Voigt Hill
#
# Bulk Modulus (GPa) = 22.87660 38.30169 30.58915
# Shear Modulus (GPa) = 12.71317 19.02455 15.86886
#
# Velocity S-wave (km/s) = 2.74346 3.35605 3.06509
# Velocity P-wave (km/s) = 4.85582 6.13947 5.53498
#
# Compressibility (1/GPa) = 0.04371278
#
# Stress axis : x y z
#
# Youngs Moduli (GPa) = 25.78306 24.48826 28.63640
#
# Poissons Ratio (x) = 0.60826 -0.07847
# Poissons Ratio (y) = 0.64042 0.38131
# Poissons Ratio (z) = -0.07065 0.32608
#
# Static dielectric constant tensor:
#      x y z
#    x 1.568570 0.000000 -0.015170 
#    y 0.000000 1.567240 0.000000 
#    z -0.015170 0.000000 1.577930 
# 
# From -- ./inp_files/287614.got.cif
#   From: 2010.05.17/outbox.cif.g08.bks.cpg/sg12_144_cif.got.tgz:287614.got - 2010.06.03 13:09:07.
