data_PCOD9172733
_publ_section_title
;
Structure prediction by ZEFSAII (Michael W. Deem and Ramdas Pophale) SiO2 
 PCOD9172733
Probable space group: C 2/M
;
_chemical_formula_sum "Si O2"
_cell_formula_units_Z 64
_cell_length_a 26.022203
_cell_length_b 9.053384
_cell_length_c 17.378329
_cell_angle_alpha 90.000000
_cell_angle_beta 88.770608
_cell_angle_gamma 90.000000
_cell_volume 4093.200650
_symmetry_space_group_name_H-M "C 2/M"
_symmetry_group_IT_number 12
_symmetry_cell_setting 'monoclinic'
loop_
_space_group_symop_operation_xyz
x,y,z
-x,y,-z
-x,-y,-z
x,-y,z
1/2+x,1/2+y,z
1/2-x,1/2+y,-z
1/2-x,1/2-y,-z
1/2+x,1/2-y,z
loop_
_atom_site_type_symbol
_atom_site_label
_atom_site_fract_x
_atom_site_fract_y
_atom_site_fract_z
Si Si1 0.562440 0.170022 0.995633
Si Si2 0.399855 0.678060 0.681833
Si Si3 0.560504 0.675870 0.837284
Si Si4 0.299065 0.323333 0.592220
Si Si5 0.903090 0.323042 0.318207
Si Si6 0.994065 0.677413 0.589088
Si Si7 0.809890 0.175882 0.412032
Si Si8 0.061858 0.176324 0.153336
O O1 0.579183 0.241656 0.075548
O O2 0.578535 0.000000 0.988747
O O3 0.500000 0.173274 0.000000
O O4 0.577347 0.261344 0.919510
O O5 0.404256 0.500000 0.677705
O O6 0.344957 0.719212 0.647874
O O7 0.445421 0.747348 0.630294
O O8 0.408299 0.720797 0.770465
O O9 0.567455 0.500000 0.833615
O O10 0.588969 0.755011 0.766368
O O11 0.499041 0.706286 0.831753
O O12 0.290104 0.500000 0.598729
O O13 0.246165 0.237962 0.607989
O O14 0.315937 0.293812 0.503373
O O15 0.898852 0.500000 0.314162
O O16 0.954235 0.286147 0.365782
O O17 0.854157 0.255228 0.362635
O O18 0.987392 0.500000 0.591611
O O19 0.000000 0.722232 0.500000
O O20 0.812267 0.000000 0.400800
O O21 0.066809 0.000000 0.141959
#
# Coordination Sequence:
#
# PCOD9172733 Si02
#       8
#     8   8   8   8   8   8   8   8
#     4   9  17  28  44  66  94 128 163 195 235 284
#     4  10  19  32  50  72  97 128 164 201 242 290
#     4  10  18  30  47  68  97 129 163 200 238 285
#     4   9  19  35  53  72  95 125 164 210 253 290
#     4  11  21  32  48  70  99 131 164 202 245 291
#     4  10  21  33  45  66  98 133 164 196 240 292
#     4  10  20  34  52  72  94 125 167 211 252 291
#     4   9  17  29  45  68  97 128 161 197 237 284
#
# _framework density 15.635686
#
# number of rings (size 3 to 8) (size 9 to 14) (size 15 to 20)
#    0.000    2.250    1.250    2.250    0.000    4.250 
#    0.000    0.000    0.000    0.000    0.000    0.875 
#    0.000    0.000    0.000    0.000    0.000    0.000 
#
# Total GULP energy -178525.995596 kJ/mol
# GULP energy per Si atom -5578.937362 kJ/mol
# Density = 1.560010 g / cm^3
# Si number density = 15.635686 Si / 1000 Ang^3
#
#
#
# Elastic Constant Matrix: (Units=GPa)
#
#
# Indices 1 2 3 4 5 6 
#
# 1 78.0656 41.2134 58.9555 0.0000 11.1977 0.0000
# 2 41.2134 48.6334 49.0714 0.0000 1.6220 0.0000
# 3 58.9555 49.0714 129.4325 0.0000 16.4152 0.0000
# 4 0.0000 0.0000 0.0000 28.0433 0.0000 -5.1242
# 5 11.1977 1.6220 16.4152 0.0000 18.1842 0.0000
# 6 0.0000 0.0000 0.0000 -5.1242 0.0000 23.5809
#
#
#
# Elastic Compliance Matrix: (Units=1/GPa)
#
#
# Indices 1 2 3 4 5 6 
#
# 1 0.027378 -0.018998 -0.003777 0.000000 -0.011755 0.000000
# 2 -0.018998 0.048009 -0.011845 0.000000 0.018109 0.000000
# 3 -0.003777 -0.011845 0.015255 0.000000 -0.010388 0.000000
# 4 0.000000 0.000000 0.000000 0.037134 0.000000 0.008069
# 5 -0.011755 0.018109 -0.010388 0.000000 0.069994 0.000000
# 6 0.000000 0.000000 0.000000 0.008069 0.000000 0.044161
#
#
# Mechanical properties :
#
#
# Convention : Reuss Voigt Hill
#
# Bulk Modulus (GPa) = 46.72426 61.62356 54.17391
# Shear Modulus (GPa) = 15.70836 21.08775 18.39805
#
# Velocity S-wave (km/s) = 3.17306 3.67644 3.43398
# Velocity P-wave (km/s) = 6.58577 7.58415 7.10252
#
# Compressibility (1/GPa) = 0.02140216
#
# Stress axis : x y z
#
# Youngs Moduli (GPa) = 36.52602 20.82960 65.55402
#
# Poissons Ratio (x) = 0.39571 0.24760
# Poissons Ratio (y) = 0.69391 0.77647
# Poissons Ratio (z) = 0.13796 0.24672
#
# Static dielectric constant tensor:
#      x y z
#    x 1.488830 0.000000 0.014580 
#    y 0.000000 1.519150 0.000000 
#    z 0.014580 0.000000 1.515060 
# 
# From -- ./inp_files/238693.got.cif
#   From: 2010.05.17/outbox.cif.g08.bks.cpg/sg12_120_cif.got.tgz:238693.got - 2010.06.03 13:09:07.
