data_PCOD9172279
_publ_section_title
;
Structure prediction by ZEFSAII (Michael W. Deem and Ramdas Pophale) SiO2 
 PCOD9172279
Probable space group: C 2/M
;
_chemical_formula_sum "Si O2"
_cell_formula_units_Z 48
_cell_length_a 30.938123
_cell_length_b 8.719098
_cell_length_c 24.193818
_cell_angle_alpha 90.000000
_cell_angle_beta 154.090663
_cell_angle_gamma 90.000000
_cell_volume 2851.675204
_symmetry_space_group_name_H-M "C 2/M"
_symmetry_group_IT_number 12
_symmetry_cell_setting 'monoclinic'
loop_
_space_group_symop_operation_xyz
x,y,z
-x,y,-z
-x,-y,-z
x,-y,z
1/2+x,1/2+y,z
1/2-x,1/2+y,-z
1/2-x,1/2-y,-z
1/2+x,1/2-y,z
loop_
_atom_site_type_symbol
_atom_site_label
_atom_site_fract_x
_atom_site_fract_y
_atom_site_fract_z
Si Si1 0.854406 0.680428 0.484426
Si Si2 0.642844 0.681917 0.394321
Si Si3 0.903153 0.814347 0.422562
Si Si4 0.993431 0.681097 0.134286
Si Si5 0.187323 0.685328 0.137918
Si Si6 0.349615 0.820332 0.780269
O O1 0.871524 0.500000 0.506771
O O2 0.885080 0.758837 0.576843
O O3 0.901245 0.749433 0.482466
O O4 0.737672 0.717378 0.344289
O O5 0.652899 0.500000 0.406271
O O6 0.750000 0.750000 0.500000
O O7 0.558155 0.733774 0.254309
O O8 0.801277 0.764672 0.274822
O O9 0.000000 0.768311 0.500000
O O10 0.901034 0.000000 0.423496
O O11 0.989059 0.500000 0.143971
O O12 0.055010 0.691840 0.147952
O O13 0.883845 0.740786 0.992973
O O14 0.187935 0.500000 0.133517
O O15 0.139551 0.719278 0.142971
O O16 0.317008 0.000000 0.740548
#
# Coordination Sequence:
#
# PCOD9172279 Si02
#       6
#     8   8   8   8   8   8
#     4  11  21  33  51  76 105 136 173 216 257 300
#     4  12  23  35  50  71 103 141 179 213 249 300
#     4   9  18  35  59  82 104 133 169 212 261 310
#     4  10  18  29  48  72 103 140 173 207 248 301
#     4   8  15  28  48  76 103 132 170 207 252 308
#     4   9  16  28  47  70 101 138 172 205 245 302
#
# _framework density 16.83221
#
# number of rings (size 3 to 8) (size 9 to 14) (size 15 to 20)
#    0.000    2.167    1.667    4.500    0.000    2.333 
#    0.000    3.333    0.000    6.000    0.000    0.000 
#    0.000    0.000    0.000    0.000    0.000    0.000 
#
# Total GULP energy -133802.593748 kJ/mol
# GULP energy per Si atom -5575.108073 kJ/mol
# Density = 1.679390 g / cm^3
# Si number density = 16.832210 Si / 1000 Ang^3
#
#
#
# Elastic Constant Matrix: (Units=GPa)
#
#
# Indices 1 2 3 4 5 6 
#
# 1 84.5179 36.7620 72.1068 0.0000 -0.5951 0.0000
# 2 36.7620 68.3518 46.3506 0.0000 -3.9405 0.0000
# 3 72.1068 46.3506 137.0677 0.0000 -22.6522 0.0000
# 4 0.0000 0.0000 0.0000 18.1255 0.0000 -5.5886
# 5 -0.5951 -3.9405 -22.6522 0.0000 19.1699 0.0000
# 6 0.0000 0.0000 0.0000 -5.5886 0.0000 18.4784
#
#
#
# Elastic Compliance Matrix: (Units=1/GPa)
#
#
# Indices 1 2 3 4 5 6 
#
# 1 0.027414 -0.005108 -0.015815 0.000000 -0.018887 0.000000
# 2 -0.005108 0.020264 -0.004353 0.000000 -0.001137 0.000000
# 3 -0.015815 -0.004353 0.020950 0.000000 0.023370 0.000000
# 4 0.000000 0.000000 0.000000 0.060845 0.000000 0.018402
# 5 -0.018887 -0.001137 0.023370 0.000000 0.078960 0.000000
# 6 0.000000 0.000000 0.000000 0.018402 0.000000 0.059683
#
#
# Mechanical properties :
#
#
# Convention : Reuss Voigt Hill
#
# Bulk Modulus (GPa) = 55.32803 66.70845 61.01824
# Shear Modulus (GPa) = 15.39920 20.13597 17.76758
#
# Velocity S-wave (km/s) = 3.02796 3.46247 3.25248
# Velocity P-wave (km/s) = 6.72059 7.46341 7.10172
#
# Compressibility (1/GPa) = 0.01807402
#
# Stress axis : x y z
#
# Youngs Moduli (GPa) = 36.47821 49.34880 47.73323
#
# Poissons Ratio (x) = 0.25208 0.75492
# Poissons Ratio (y) = 0.18634 0.20779
# Poissons Ratio (z) = 0.57692 0.21482
#
# Static dielectric constant tensor:
#      x y z
#    x 1.557960 0.000000 -0.004220 
#    y 0.000000 1.572300 0.000000 
#    z -0.004220 0.000000 1.596140 
# 
# From -- ./inp_files/352754.got.cif
#   From: 2010.05.17/outbox.cif.g08.bks.cpg/sg12_177_cif.got.tgz:352754.got - 2010.06.03 13:09:07.
