data_PCOD9172630
_publ_section_title
;
Structure prediction by ZEFSAII (Michael W. Deem and Ramdas Pophale) SiO2 
 PCOD9172630
Probable space group: C 2/M
;
_chemical_formula_sum "Si O2"
_cell_formula_units_Z 48
_cell_length_a 24.802598
_cell_length_b 7.492065
_cell_length_c 20.674761
_cell_angle_alpha 90.000000
_cell_angle_beta 139.675916
_cell_angle_gamma 90.000000
_cell_volume 2486.093885
_symmetry_space_group_name_H-M "C 2/M"
_symmetry_group_IT_number 12
_symmetry_cell_setting 'monoclinic'
loop_
_space_group_symop_operation_xyz
x,y,z
-x,y,-z
-x,-y,-z
x,-y,z
1/2+x,1/2+y,z
1/2-x,1/2+y,-z
1/2-x,1/2-y,-z
1/2+x,1/2-y,z
loop_
_atom_site_type_symbol
_atom_site_label
_atom_site_fract_x
_atom_site_fract_y
_atom_site_fract_z
Si Si1 0.214710 0.789071 0.562907
Si Si2 0.938144 0.792988 0.388823
Si Si3 0.034852 0.701820 0.351026
Si Si4 0.262007 0.711263 0.261594
Si Si5 0.920552 0.718658 0.886284
Si Si6 0.599914 0.218692 0.280592
O O1 0.131378 0.700058 0.461516
O O2 0.220097 0.770567 0.645421
O O3 0.304229 0.724361 0.619352
O O4 0.207157 0.000000 0.542323
O O5 0.844841 0.715234 0.303268
O O6 0.000000 0.713830 0.500000
O O7 0.982427 0.789365 0.360119
O O8 0.926626 0.000000 0.397980
O O9 0.003518 0.500000 0.317898
O O10 0.040197 0.779817 0.283713
O O11 0.256004 0.500000 0.240663
O O12 0.168384 0.781466 0.166612
O O13 0.919314 0.500000 0.885172
O O14 0.924281 0.771456 0.814140
O O15 0.000000 0.776028 0.000000
O O16 0.601100 0.000000 0.283146
#
# Coordination Sequence:
#
# PCOD9172630 Si02
#       6
#     8   8   8   8   8   8
#     4   9  15  28  45  59  83 120 151 175 207 253
#     4  10  18  30  45  59  82 123 158 177 202 246
#     4  11  20  27  38  62  94 121 143 175 216 255
#     4   8  14  25  42  63  83 106 145 185 212 243
#     4   8  13  24  45  68  85 104 136 184 230 258
#     4   8  16  27  40  61  89 115 141 177 221 262
#
# _framework density 19.307397000000002
#
# number of rings (size 3 to 8) (size 9 to 14) (size 15 to 20)
#    0.000    3.000    1.667    3.000    0.000    0.333 
#    0.000    0.833    0.000    1.000    0.000    0.000 
#    0.000   31.333    0.000    0.000    0.000    0.167 
#
# Total GULP energy -133762.550788 kJ/mol
# GULP energy per Si atom -5573.439616 kJ/mol
# Density = 1.926345 g / cm^3
# Si number density = 19.307397 Si / 1000 Ang^3
#
#
#
# Elastic Constant Matrix: (Units=GPa)
#
#
# Indices 1 2 3 4 5 6 
#
# 1 150.2383 6.0789 67.4694 0.0000 19.7294 0.0000
# 2 6.0789 45.8011 4.5792 0.0000 1.4276 -0.0002
# 3 67.4694 4.5792 119.6749 0.0000 19.4756 0.0000
# 4 0.0000 0.0000 0.0000 1.6005 0.0000 -5.7507
# 5 19.7294 1.4276 19.4756 0.0000 17.1990 0.0000
# 6 0.0000 -0.0002 0.0000 -5.7507 0.0000 -23.5068
#
#
#
# Elastic Compliance Matrix: (Units=1/GPa)
#
#
# Indices 1 2 3 4 5 6 
#
# 1 0.009386 -0.000632 -0.004320 0.000000 -0.005823 0.000000
# 2 -0.000632 0.021976 -0.000375 0.000000 -0.000674 0.000000
# 3 -0.004320 -0.000375 0.012252 0.000000 -0.008887 0.000000
# 4 0.000000 0.000000 0.000000 0.332517 0.000000 -0.081346
# 5 -0.005823 -0.000674 -0.008887 0.000000 0.074942 0.000000
# 6 0.000000 0.000000 0.000000 -0.081346 0.000000 -0.022640
#
#
# Mechanical properties :
#
#
# Convention : Reuss Voigt Hill
#
# Bulk Modulus (GPa) = 30.33934 52.44104 41.39019
# Shear Modulus (GPa) = 11.10927 14.89766 13.00347
#
# Velocity S-wave (km/s) = 2.40133 2.78079 2.59800
# Velocity P-wave (km/s) = 4.84112 6.12621 5.52118
#
# Compressibility (1/GPa) = 0.03296051
#
# Stress axis : x y z
#
# Youngs Moduli (GPa) = 106.53733 45.50433 81.61887
#
# Poissons Ratio (x) = 0.02878 0.35259
# Poissons Ratio (y) = 0.06737 0.03057
# Poissons Ratio (z) = 0.46024 0.01705
#
# Static dielectric constant tensor:
#      x y z
#    x 1.701500 0.000000 0.012730 
#    y 0.000000 1.707720 0.000000 
#    z 0.012730 0.000000 1.653660 
# 
# From -- ./inp_files/323516.got.cif
#   From: 2010.05.17/outbox.cif.g08.bks.cpg/sg12_162_cif.got.tgz:323516.got - 2010.06.03 13:09:07.
