data_PCOD9172939
_publ_section_title
;
Structure prediction by ZEFSAII (Michael W. Deem and Ramdas Pophale) SiO2 
 PCOD9172939
Probable space group: C 2/M
;
_chemical_formula_sum "Si O2"
_cell_formula_units_Z 56
_cell_length_a 19.428624
_cell_length_b 8.637738
_cell_length_c 23.782283
_cell_angle_alpha 90.000000
_cell_angle_beta 127.811366
_cell_angle_gamma 90.000000
_cell_volume 3153.124158
_symmetry_space_group_name_H-M "C 2/M"
_symmetry_group_IT_number 12
_symmetry_cell_setting 'monoclinic'
loop_
_space_group_symop_operation_xyz
x,y,z
-x,y,-z
-x,-y,-z
x,-y,z
1/2+x,1/2+y,z
1/2-x,1/2+y,-z
1/2-x,1/2-y,-z
1/2+x,1/2-y,z
loop_
_atom_site_type_symbol
_atom_site_label
_atom_site_fract_x
_atom_site_fract_y
_atom_site_fract_z
Si Si1 0.368579 0.313355 0.717025
Si Si2 0.171382 0.315010 0.999440
Si Si3 0.938031 0.186257 0.148756
Si Si4 0.789482 0.313545 0.281305
Si Si5 0.282078 0.813646 0.147754
Si Si6 0.246058 0.685145 0.435517
Si Si7 0.904388 0.813250 0.433668
O O1 0.366418 0.500000 0.712296
O O2 0.465628 0.267810 0.783318
O O3 0.297442 0.265002 0.728263
O O4 0.335613 0.245596 0.641543
O O5 0.172458 0.500000 0.999466
O O6 0.086566 0.251698 0.925107
O O7 0.250000 0.250000 0.000000
O O8 0.196687 0.251646 0.073295
O O9 0.866191 0.250551 0.156353
O O10 0.931724 0.000000 0.144180
O O11 0.793011 0.500000 0.284336
O O12 0.786574 0.265726 0.215001
O O13 0.870810 0.249107 0.357225
O O14 0.281288 0.000000 0.143565
O O15 0.244088 0.500000 0.436244
O O16 0.250000 0.750000 0.500000
O O17 0.331925 0.734145 0.443295
O O18 0.000000 0.760196 0.500000
O O19 0.905043 0.000000 0.431571
#
# Coordination Sequence:
#
# PCOD9172939 Si02
#       7
#     8   8   8   8   8   8   8
#     4   9  19  36  54  72  98 132 167 202 243 292
#     4  10  18  30  49  72 100 131 164 203 246 290
#     4  10  19  32  52  75  99 129 165 205 247 290
#     4   9  19  35  53  73  98 130 165 201 243 289
#     4  10  19  32  51  75 102 129 163 205 246 292
#     4  10  20  34  53  75 100 131 164 202 246 291
#     4   9  19  35  53  73  98 129 164 201 243 290
#
# _framework density 17.760162999999999
#
# number of rings (size 3 to 8) (size 9 to 14) (size 15 to 20)
#    0.000    2.429    0.000    4.286    0.000    4.286 
#    0.000    5.000    0.000    4.286    0.000    0.000 
#    0.000    0.000    0.000    0.000    0.000    0.000 
#
# Total GULP energy -156165.062894 kJ/mol
# GULP energy per Si atom -5577.323675 kJ/mol
# Density = 1.771974 g / cm^3
# Si number density = 17.760163 Si / 1000 Ang^3
#
#
#
# Elastic Constant Matrix: (Units=GPa)
#
#
# Indices 1 2 3 4 5 6 
#
# 1 52.8711 23.3939 84.1019 0.0000 -6.1756 0.0000
# 2 23.3939 51.0452 51.9319 0.0000 -0.4036 0.0000
# 3 84.1019 51.9319 225.9908 0.0000 -5.1335 0.0000
# 4 0.0000 0.0000 0.0000 34.9252 0.0000 -1.6528
# 5 -6.1756 -0.4036 -5.1335 0.0000 35.3465 0.0000
# 6 0.0000 0.0000 0.0000 -1.6528 0.0000 19.3294
#
#
#
# Elastic Compliance Matrix: (Units=1/GPa)
#
#
# Indices 1 2 3 4 5 6 
#
# 1 0.048512 -0.005164 -0.016731 0.000000 0.005987 0.000000
# 2 -0.005164 0.026129 -0.004110 0.000000 -0.001201 0.000000
# 3 -0.016731 -0.004110 0.011566 0.000000 -0.001290 0.000000
# 4 0.000000 0.000000 0.000000 0.028749 0.000000 0.002458
# 5 0.005987 -0.001201 -0.001290 0.000000 0.029136 0.000000
# 6 0.000000 0.000000 0.000000 0.002458 0.000000 0.051945
#
#
# Mechanical properties :
#
#
# Convention : Reuss Voigt Hill
#
# Bulk Modulus (GPa) = 29.24168 72.08471 50.66320
# Shear Modulus (GPa) = 19.27182 29.28551 24.27866
#
# Velocity S-wave (km/s) = 3.29768 4.06512 3.70135
# Velocity P-wave (km/s) = 5.56777 7.91894 6.84506
#
# Compressibility (1/GPa) = 0.03419776
#
# Stress axis : x y z
#
# Youngs Moduli (GPa) = 20.61347 38.27188 86.45694
#
# Poissons Ratio (x) = 0.19764 1.44651
# Poissons Ratio (y) = 0.10645 0.35532
# Poissons Ratio (z) = 0.34488 0.15729
#
# Static dielectric constant tensor:
#      x y z
#    x 1.601010 0.000000 0.003070 
#    y 0.000000 1.601890 0.000000 
#    z 0.003070 0.000000 1.615540 
# 
# From -- ./inp_files/342514.got.cif
#   From: 2010.05.17/outbox.cif.g08.bks.cpg/sg12_172_cif.got.tgz:342514.got - 2010.06.03 13:09:07.
