data_PCOD9172495
_publ_section_title
;
Structure prediction by ZEFSAII (Michael W. Deem and Ramdas Pophale) SiO2 
 PCOD9172495
Probable space group: C 2/M
;
_chemical_formula_sum "Si O2"
_cell_formula_units_Z 40
_cell_length_a 20.867095
_cell_length_b 8.864443
_cell_length_c 14.634868
_cell_angle_alpha 90.000000
_cell_angle_beta 59.781216
_cell_angle_gamma 90.000000
_cell_volume 2339.220748
_symmetry_space_group_name_H-M "C 2/M"
_symmetry_group_IT_number 12
_symmetry_cell_setting 'monoclinic'
loop_
_space_group_symop_operation_xyz
x,y,z
-x,y,-z
-x,-y,-z
x,-y,z
1/2+x,1/2+y,z
1/2-x,1/2+y,-z
1/2-x,1/2-y,-z
1/2+x,1/2-y,z
loop_
_atom_site_type_symbol
_atom_site_label
_atom_site_fract_x
_atom_site_fract_y
_atom_site_fract_z
Si Si1 0.427300 0.674545 0.486405
Si Si2 0.054503 0.319562 0.043266
Si Si3 0.521444 0.821686 0.273433
Si Si4 0.216432 0.179879 0.931176
Si Si5 0.839350 0.181561 0.720701
O O1 0.500000 0.679232 0.500000
O O2 0.415887 0.500000 0.468854
O O3 0.449933 0.769868 0.382236
O O4 0.361460 0.724752 0.600967
O O5 0.069365 0.500000 0.027474
O O6 0.017965 0.290306 0.168349
O O7 0.131983 0.232949 0.982860
O O8 0.000000 0.278970 0.000000
O O9 0.592644 0.735657 0.263934
O O10 0.533208 0.000000 0.278073
O O11 0.265851 0.243639 0.812884
O O12 0.222025 0.000000 0.931738
O O13 0.250000 0.250000 0.000000
O O14 0.834996 0.000000 0.727786
#
# Coordination Sequence:
#
# PCOD9172495 Si02
#       5
#     8   8   8   8   8
#     4   8  16  29  46  71 104 139 171 211 268 317
#     4  10  22  39  56  77 109 147 182 218 267 323
#     4  10  18  29  50  77 105 139 177 219 263 313
#     4  12  23  35  55  81 109 141 178 224 271 317
#     4  10  19  32  51  76 107 140 173 217 269 319
#
# _framework density 17.099710000000002
#
# number of rings (size 3 to 8) (size 9 to 14) (size 15 to 20)
#    0.000    2.000    2.000    4.200    0.000    5.600 
#    0.000    0.000    0.000    1.200    0.000    0.000 
#    0.000    0.000    0.000    0.000    0.000    0.000 
#
# Total GULP energy -111573.976431 kJ/mol
# GULP energy per Si atom -5578.698822 kJ/mol
# Density = 1.706079 g / cm^3
# Si number density = 17.099710 Si / 1000 Ang^3
#
#
#
# Elastic Constant Matrix: (Units=GPa)
#
#
# Indices 1 2 3 4 5 6 
#
# 1 70.1214 47.4249 59.4326 0.0000 1.9941 0.0000
# 2 47.4249 85.6425 78.3090 0.0000 -0.6994 0.0000
# 3 59.4326 78.3090 178.3905 0.0000 -7.1373 0.0000
# 4 0.0000 0.0000 0.0000 31.2945 0.0000 -6.9387
# 5 1.9941 -0.6994 -7.1373 0.0000 16.7271 0.0000
# 6 0.0000 0.0000 0.0000 -6.9387 0.0000 16.6385
#
#
#
# Elastic Compliance Matrix: (Units=1/GPa)
#
#
# Indices 1 2 3 4 5 6 
#
# 1 0.024540 -0.009973 -0.004000 0.000000 -0.005049 0.000000
# 2 -0.009973 0.023697 -0.007114 0.000000 -0.000856 0.000000
# 3 -0.004000 -0.007114 0.010243 0.000000 0.004550 0.000000
# 4 0.000000 0.000000 0.000000 0.035210 0.000000 0.014684
# 5 -0.005049 -0.000856 0.004550 0.000000 0.062291 0.000000
# 6 0.000000 0.000000 0.000000 0.014684 0.000000 0.066225
#
#
# Mechanical properties :
#
#
# Convention : Reuss Voigt Hill
#
# Bulk Modulus (GPa) = 61.32610 78.27640 69.80125
# Shear Modulus (GPa) = 18.53129 22.86455 20.69792
#
# Velocity S-wave (km/s) = 3.29556 3.66065 3.48289
# Velocity P-wave (km/s) = 7.10089 7.98392 7.55532
#
# Compressibility (1/GPa) = 0.01630627
#
# Stress axis : x y z
#
# Youngs Moduli (GPa) = 40.75063 42.19981 97.62609
#
# Poissons Ratio (x) = 0.42085 0.39048
# Poissons Ratio (y) = 0.40640 0.69451
# Poissons Ratio (z) = 0.16299 0.30021
#
# Static dielectric constant tensor:
#      x y z
#    x 1.540310 0.000000 -0.004080 
#    y 0.000000 1.575370 0.000000 
#    z -0.004080 0.000000 1.615350 
# 
# From -- ./inp_files/220590.got.cif
#   From: 2010.05.17/outbox.cif.g08.bks.cpg/sg12_111_cif.got.tgz:220590.got - 2010.06.03 13:09:07.
