data_PCOD9172343
_publ_section_title
;
Structure prediction by ZEFSAII (Michael W. Deem and Ramdas Pophale) SiO2 
 PCOD9172343
Probable space group: C 2/M
;
_chemical_formula_sum "Si O2"
_cell_formula_units_Z 52
_cell_length_a 5.500088
_cell_length_b 24.703702
_cell_length_c 19.442852
_cell_angle_alpha 90.000000
_cell_angle_beta 123.410233
_cell_angle_gamma 90.000000
_cell_volume 2205.199238
_symmetry_space_group_name_H-M "C 2/M"
_symmetry_group_IT_number 12
_symmetry_cell_setting 'monoclinic'
loop_
_space_group_symop_operation_xyz
x,y,z
-x,y,-z
-x,-y,-z
x,-y,z
1/2+x,1/2+y,z
1/2-x,1/2+y,-z
1/2-x,1/2-y,-z
1/2+x,1/2-y,z
loop_
_atom_site_type_symbol
_atom_site_label
_atom_site_fract_x
_atom_site_fract_y
_atom_site_fract_z
Si Si1 0.605957 0.770184 0.618337
Si Si2 0.202475 0.115523 0.141694
Si Si3 0.854067 0.500000 0.554269
Si Si4 0.337687 0.500000 0.227913
Si Si5 0.649290 0.119270 0.447733
Si Si6 0.548016 0.228912 0.804065
Si Si7 0.593226 0.910498 0.086469
Si Si8 0.358774 0.000000 0.236814
O O1 0.306788 0.736203 0.581582
O O2 0.506795 0.831439 0.614342
O O3 0.831949 0.751270 0.711735
O O4 0.395475 0.165242 0.198860
O O5 0.309175 0.112995 0.079337
O O6 0.865577 0.126775 0.107058
O O7 0.260854 0.055346 0.182305
O O8 0.500000 0.500000 0.500000
O O9 0.914064 0.560191 0.592493
O O10 0.000000 0.500000 0.500000
O O11 0.221551 0.450032 0.164692
O O12 0.680047 0.500000 0.278392
O O13 0.203883 0.500000 0.282409
O O14 0.500000 0.119867 0.500000
O O15 0.000000 0.127705 0.500000
O O16 0.360002 0.241743 0.843063
O O17 0.500000 0.937402 0.000000
#
# Coordination Sequence:
#
# PCOD9172343 Si02
#       8
#     8   8   4   4   8   8   8   4
#     4  10  21  35  53  78 107 137 179 227 262 299
#     4  10  19  33  53  75 101 135 171 209 262 314
#     4   8  16  30  48  74 108 147 178 201 245 312
#     4   8  15  26  42  70 107 139 158 189 251 318
#     4  10  19  32  53  81 114 146 175 211 259 311
#     4  10  21  38  58  73  95 136 184 224 260 304
#     4  10  18  29  48  76 108 134 164 207 257 319
#     4   8  16  28  47  76 101 126 164 208 253 312
#
# _framework density 23.580636999999999
#
# number of rings (size 3 to 8) (size 9 to 14) (size 15 to 20)
#    0.000    2.462    0.000    2.538    0.000    1.846 
#    0.000    4.615    0.000   16.615    0.000    0.000 
#    0.000    0.000    0.000    0.000    0.000    0.000 
#
# Total GULP energy -144795.618092 kJ/mol
# GULP energy per Si atom -5569.062234 kJ/mol
# Density = 2.352697 g / cm^3
# Si number density = 23.580637 Si / 1000 Ang^3
#
#
#
# Elastic Constant Matrix: (Units=GPa)
#
#
# Indices 1 2 3 4 5 6 
#
# 1 255.2407 22.2256 20.0376 0.0000 34.6451 0.0000
# 2 22.2256 171.8120 29.6096 0.0000 22.1388 0.0000
# 3 20.0376 29.6096 37.9829 0.0000 10.5513 0.0000
# 4 0.0000 0.0000 0.0000 12.8060 0.0000 11.3968
# 5 34.6451 22.1388 10.5513 0.0000 24.9542 0.0000
# 6 0.0000 0.0000 0.0000 11.3968 0.0000 32.8367
#
#
#
# Elastic Compliance Matrix: (Units=1/GPa)
#
#
# Indices 1 2 3 4 5 6 
#
# 1 0.004871 0.000410 -0.001030 0.000000 -0.006691 0.000000
# 2 0.000410 0.007180 -0.004403 0.000000 -0.005077 0.000000
# 3 -0.001030 -0.004403 0.032657 0.000000 -0.008471 0.000000
# 4 0.000000 0.000000 0.000000 0.112989 0.000000 -0.039216
# 5 -0.006691 -0.005077 -0.008471 0.000000 0.057448 0.000000
# 6 0.000000 0.000000 0.000000 -0.039216 0.000000 0.044065
#
#
# Mechanical properties :
#
#
# Convention : Reuss Voigt Hill
#
# Bulk Modulus (GPa) = 28.85136 67.64235 48.24686
# Shear Modulus (GPa) = 17.80547 40.33022 29.06785
#
# Velocity S-wave (km/s) = 2.75087 4.14008 3.51479
# Velocity P-wave (km/s) = 4.72773 7.18342 6.08083
#
# Compressibility (1/GPa) = 0.03466041
#
# Stress axis : x y z
#
# Youngs Moduli (GPa) = 205.28561 139.26860 30.62139
#
# Poissons Ratio (x) = -0.05704 0.03155
# Poissons Ratio (y) = -0.08408 0.13483
# Poissons Ratio (z) = 0.21154 0.61322
#
# Static dielectric constant tensor:
#      x y z
#    x 1.682980 0.000000 0.245420 
#    y 0.000000 0.890820 0.000000 
#    z 0.245420 0.000000 1.677990 
# 
# From -- ./inp_files/298135.got.cif
#   From: 2010.05.17/outbox.cif.g08.bks.cpg/sg12_150_cif.got.tgz:298135.got - 2010.06.03 13:09:07.
