data_PCOD9172736
_publ_section_title
;
Structure prediction by ZEFSAII (Michael W. Deem and Ramdas Pophale) SiO2 
 PCOD9172736
Probable space group: C 2/M
;
_chemical_formula_sum "Si O2"
_cell_formula_units_Z 32
_cell_length_a 19.810017
_cell_length_b 5.462908
_cell_length_c 11.683964
_cell_angle_alpha 90.000000
_cell_angle_beta 105.772519
_cell_angle_gamma 90.000000
_cell_volume 1216.833924
_symmetry_space_group_name_H-M "C 2/M"
_symmetry_group_IT_number 12
_symmetry_cell_setting 'monoclinic'
loop_
_space_group_symop_operation_xyz
x,y,z
-x,y,-z
-x,-y,-z
x,-y,z
1/2+x,1/2+y,z
1/2-x,1/2+y,-z
1/2-x,1/2-y,-z
1/2+x,1/2-y,z
loop_
_atom_site_type_symbol
_atom_site_label
_atom_site_fract_x
_atom_site_fract_y
_atom_site_fract_z
Si Si1 0.986579 0.000000 0.680846
Si Si2 0.584537 0.000000 0.276805
Si Si3 0.888370 0.000000 0.007846
Si Si4 0.389498 0.500000 0.415605
Si Si5 0.601735 0.000000 0.016705
Si Si6 0.241317 0.000000 0.879463
Si Si7 0.681956 0.000000 0.538414
Si Si8 0.775805 0.000000 0.770331
O O1 0.960040 0.745315 0.721353
O O2 0.945532 0.000000 0.542397
O O3 0.068961 0.000000 0.685690
O O4 0.605355 0.000000 0.154791
O O5 0.652729 0.000000 0.394398
O O6 0.930168 0.248933 0.040786
O O7 0.853061 0.000000 0.863956
O O8 0.822851 0.000000 0.063550
O O9 0.349097 0.247049 0.420115
O O10 0.684004 0.000000 0.019757
O O11 0.243398 0.249445 0.807017
O O12 0.762082 0.000000 0.626294
#
# Coordination Sequence:
#
# PCOD9172736 Si02
#       8
#     4   4   4   4   4   4   4   4
#     4   9  17  30  47  65  90 126 159 189 226 262
#     4  10  19  30  45  69 100 126 153 187 220 271
#     4  10  19  33  50  68  93 118 154 203 237 264
#     4   9  17  30  47  65  90 126 159 189 226 262
#     4  10  18  30  47  69  94 123 152 189 234 272
#     4  10  19  33  50  68  93 118 154 203 237 264
#     4  10  19  30  45  69 100 126 153 187 220 271
#     4  10  18  30  47  69  94 123 152 189 234 272
#
# _framework density 26.297757000000001
#
# number of rings (size 3 to 8) (size 9 to 14) (size 15 to 20)
#    0.000    2.250    0.000    6.000    0.000    3.000 
#    0.000    5.000    0.000    0.000    0.000    0.000 
#    0.000  116.000    0.000    0.000    0.000    0.000 
#
# Total GULP energy -89436.657025 kJ/mol
# GULP energy per Si atom -5589.791064 kJ/mol
# Density = 2.623790 g / cm^3
# Si number density = 26.297757 Si / 1000 Ang^3
#
#
#
# Elastic Constant Matrix: (Units=GPa)
#
#
# Indices 1 2 3 4 5 6 
#
# 1 61.1760 32.3129 40.8459 0.0000 1.1890 0.0000
# 2 32.3129 309.0335 38.2792 0.0000 -27.8950 0.0000
# 3 40.8459 38.2792 91.4787 0.0000 28.1540 0.0000
# 4 0.0000 0.0000 0.0000 14.6036 0.0000 -46.8378
# 5 1.1890 -27.8950 28.1540 0.0000 56.4323 0.0000
# 6 0.0000 0.0000 0.0000 -46.8378 0.0000 -31.6350
#
#
#
# Elastic Compliance Matrix: (Units=1/GPa)
#
#
# Indices 1 2 3 4 5 6 
#
# 1 0.024939 -0.000553 -0.012591 0.000000 0.005483 0.000000
# 2 -0.000553 0.003858 -0.002313 0.000000 0.003072 0.000000
# 3 -0.012591 -0.002313 0.021019 0.000000 -0.011364 0.000000
# 4 0.000000 0.000000 0.000000 0.011912 0.000000 -0.017636
# 5 0.005483 0.003072 -0.011364 0.000000 0.024793 0.000000
# 6 0.000000 0.000000 0.000000 -0.017636 0.000000 -0.005499
#
#
# Mechanical properties :
#
#
# Convention : Reuss Voigt Hill
#
# Bulk Modulus (GPa) = 52.90774 76.06267 64.48521
# Shear Modulus (GPa) = 42.28811 31.23020 36.75916
#
# Velocity S-wave (km/s) = 4.01440 3.44984 3.74278
# Velocity P-wave (km/s) = 6.45365 6.69738 6.57665
#
# Compressibility (1/GPa) = 0.01890083
#
# Stress axis : x y z
#
# Youngs Moduli (GPa) = 40.09798 259.23354 47.57592
#
# Poissons Ratio (x) = 0.14336 0.59905
# Poissons Ratio (y) = 0.02218 0.11003
# Poissons Ratio (z) = 0.50489 0.59955
#
# Static dielectric constant tensor:
#      x y z
#    x 2.082680 0.000000 0.014920 
#    y 0.000000 2.087950 0.000000 
#    z 0.014920 0.000000 2.025480 
# 
# From -- ./inp_files/170980.got.cif
#   From: 2010.05.17/outbox.cif.g08.bks.cpg/sg12_86_cif.got.tgz:170980.got - 2010.06.03 13:09:07.
