data_PCOD9172825
_publ_section_title
;
Structure prediction by ZEFSAII (Michael W. Deem and Ramdas Pophale) SiO2 
 PCOD9172825
Probable space group: C 2/M
;
_chemical_formula_sum "Si O2"
_cell_formula_units_Z 64
_cell_length_a 29.962471
_cell_length_b 7.449150
_cell_length_c 14.544440
_cell_angle_alpha 90.000000
_cell_angle_beta 87.010060
_cell_angle_gamma 90.000000
_cell_volume 3241.826339
_symmetry_space_group_name_H-M "C 2/M"
_symmetry_group_IT_number 12
_symmetry_cell_setting 'monoclinic'
loop_
_space_group_symop_operation_xyz
x,y,z
-x,y,-z
-x,-y,-z
x,-y,z
1/2+x,1/2+y,z
1/2-x,1/2+y,-z
1/2-x,1/2-y,-z
1/2+x,1/2-y,z
loop_
_atom_site_type_symbol
_atom_site_label
_atom_site_fract_x
_atom_site_fract_y
_atom_site_fract_z
Si Si1 0.605163 0.705167 0.657073
Si Si2 0.182283 0.778696 0.772565
Si Si3 0.198917 0.785419 0.978079
Si Si4 0.509457 0.719782 0.603870
Si Si5 0.583984 0.717079 0.312456
Si Si6 0.153382 0.290127 0.467869
Si Si7 0.273220 0.787697 0.675929
Si Si8 0.842848 0.216717 0.831810
O O1 0.595821 0.500000 0.685336
O O2 0.635907 0.783632 0.733624
O O3 0.557295 0.784861 0.634997
O O4 0.636016 0.703488 0.562743
O O5 0.189074 0.719243 0.876684
O O6 0.224254 0.718245 0.705726
O O7 0.183008 0.000000 0.771181
O O8 0.192955 0.000000 0.975259
O O9 0.250000 0.750000 0.000000
O O10 0.168778 0.716284 0.065492
O O11 0.500000 0.775347 0.500000
O O12 0.510901 0.500000 0.602091
O O13 0.466835 0.775493 0.668663
O O14 0.583873 0.500000 0.312562
O O15 0.613990 0.772600 0.396539
O O16 0.611040 0.778291 0.219764
O O17 0.160142 0.500000 0.486624
O O18 0.197777 0.215362 0.412786
O O19 0.303688 0.764838 0.763878
O O20 0.269040 0.000000 0.659839
O O21 0.843891 0.000000 0.835080
#
# Coordination Sequence:
#
# PCOD9172825 Si02
#       8
#     8   8   8   8   8   8   8   8
#     4  10  19  32  48  64  86 122 160 185 218 267
#     4   9  18  31  47  65  89 122 154 184 218 267
#     4  10  18  30  48  70  92 117 150 185 223 264
#     4   9  15  26  47  69  85 111 154 194 220 256
#     4   9  16  29  47  67  91 116 147 187 225 265
#     4  10  19  29  43  66  94 120 147 184 225 265
#     4   9  17  30  45  63  91 123 150 177 218 270
#     4   9  17  27  45  71  92 113 145 187 226 260
#
# _framework density 19.741956999999999
#
# number of rings (size 3 to 8) (size 9 to 14) (size 15 to 20)
#    0.000    2.625    2.500    0.375    0.000    1.000 
#    0.000    2.500    0.000    0.750    0.000    5.250 
#    0.000    0.000    0.000    8.500    0.000    9.000 
#
# Total GULP energy -178542.383082 kJ/mol
# GULP energy per Si atom -5579.449471 kJ/mol
# Density = 1.969702 g / cm^3
# Si number density = 19.741957 Si / 1000 Ang^3
#
#
#
# Elastic Constant Matrix: (Units=GPa)
#
#
# Indices 1 2 3 4 5 6 
#
# 1 151.4252 0.7525 70.7926 0.0000 2.4986 0.0000
# 2 0.7525 60.9959 -6.4943 0.0000 -0.8623 0.0000
# 3 70.7926 -6.4943 92.5478 0.0000 -0.0511 0.0000
# 4 0.0000 0.0000 0.0000 9.3403 0.0000 -4.0598
# 5 2.4986 -0.8623 -0.0511 0.0000 28.4065 0.0000
# 6 0.0000 0.0000 0.0000 -4.0598 0.0000 12.0961
#
#
#
# Elastic Compliance Matrix: (Units=1/GPa)
#
#
# Indices 1 2 3 4 5 6 
#
# 1 0.010364 -0.000993 -0.007998 0.000000 -0.000956 0.000000
# 2 -0.000993 0.016620 0.001926 0.000000 0.000595 0.000000
# 3 -0.007998 0.001926 0.017058 0.000000 0.000793 0.000000
# 4 0.000000 0.000000 0.000000 0.125349 0.000000 0.042070
# 5 -0.000956 0.000595 0.000793 0.000000 0.035307 0.000000
# 6 0.000000 0.000000 0.000000 0.042070 0.000000 0.096791
#
#
# Mechanical properties :
#
#
# Convention : Reuss Voigt Hill
#
# Bulk Modulus (GPa) = 33.42973 48.34118 40.88545
# Shear Modulus (GPa) = 15.35678 25.96312 20.65995
#
# Velocity S-wave (km/s) = 2.79207 3.63040 3.23847
# Velocity P-wave (km/s) = 5.23109 6.48943 5.89394
#
# Compressibility (1/GPa) = 0.02991350
#
# Stress axis : x y z
#
# Youngs Moduli (GPa) = 96.49166 60.16748 58.62195
#
# Poissons Ratio (x) = 0.05974 0.46884
# Poissons Ratio (y) = 0.09581 -0.11291
# Poissons Ratio (z) = 0.77170 -0.11589
#
# Static dielectric constant tensor:
#      x y z
#    x 1.702420 0.000000 -0.017860 
#    y 0.000000 1.397990 0.000000 
#    z -0.017860 0.000000 1.694590 
# 
# From -- ./inp_files/248343.got.cif
#   From: 2010.05.17/outbox.cif.g08.bks.cpg/sg12_125_cif.got.tgz:248343.got - 2010.06.03 13:09:07.
