data_PCOD9172301
_publ_section_title
;
Structure prediction by ZEFSAII (Michael W. Deem and Ramdas Pophale) SiO2 
 PCOD9172301
Probable space group: C 2/M
;
_chemical_formula_sum "Si O2"
_cell_formula_units_Z 64
_cell_length_a 12.572223
_cell_length_b 17.584212
_cell_length_c 15.425776
_cell_angle_alpha 90.000000
_cell_angle_beta 50.121974
_cell_angle_gamma 90.000000
_cell_volume 2617.038345
_symmetry_space_group_name_H-M "C 2/M"
_symmetry_group_IT_number 12
_symmetry_cell_setting 'monoclinic'
loop_
_space_group_symop_operation_xyz
x,y,z
-x,y,-z
-x,-y,-z
x,-y,z
1/2+x,1/2+y,z
1/2-x,1/2+y,-z
1/2-x,1/2-y,-z
1/2+x,1/2-y,z
loop_
_atom_site_type_symbol
_atom_site_label
_atom_site_fract_x
_atom_site_fract_y
_atom_site_fract_z
Si Si1 0.980901 0.259473 0.689404
Si Si2 0.478066 0.614514 0.607611
Si Si3 0.700346 0.295764 0.696010
Si Si4 0.495466 0.587750 0.899727
Si Si5 0.725879 0.322858 0.072551
Si Si6 0.678157 0.858185 0.807286
Si Si7 0.766667 0.417339 0.543477
Si Si8 0.480353 0.085649 0.275865
O O1 0.132048 0.252974 0.653524
O O2 0.931464 0.345868 0.726531
O O3 0.989592 0.207136 0.601034
O O4 0.892574 0.208230 0.801423
O O5 0.500000 0.585799 0.500000
O O6 0.321877 0.595539 0.718033
O O7 0.603110 0.589223 0.604630
O O8 0.603117 0.357272 0.795224
O O9 0.713184 0.228615 0.758931
O O10 0.806250 0.349761 0.588407
O O11 0.525533 0.500000 0.865437
O O12 0.342300 0.610385 0.946828
O O13 0.500000 0.600735 0.000000
O O14 0.842988 0.351366 0.078132
O O15 0.750000 0.250000 0.000000
O O16 0.565939 0.890330 0.797604
O O17 0.794723 0.500000 0.568094
O O18 0.848134 0.414649 0.409939
O O19 0.538346 0.000000 0.245441
#
# Coordination Sequence:
#
# PCOD9172301 Si02
#       8
#     8   8   8   8   8   8   8   8
#     4   8  19  33  50  73  96 138 173 205 258 303
#     4  10  18  29  48  73 103 133 170 217 254 302
#     4   9  18  32  51  73 103 134 179 216 251 311
#     4  10  20  35  56  80 106 137 170 214 267 314
#     4  10  20  37  58  80 106 132 170 218 262 312
#     4  10  20  32  51  80 101 134 173 213 270 300
#     4  10  20  31  48  74 106 145 175 211 261 306
#     4  10  20  34  51  73 106 141 176 212 254 311
#
# _framework density 24.455124999999999
#
# number of rings (size 3 to 8) (size 9 to 14) (size 15 to 20)
#    0.000    2.375    1.250    1.875    1.750    2.750 
#    0.000    0.625    0.000    7.125    0.000    0.000 
#    0.000    0.000    0.000    0.000    0.000    0.000 
#
# Total GULP energy -178407.201318 kJ/mol
# GULP energy per Si atom -5575.225041 kJ/mol
# Density = 2.439946 g / cm^3
# Si number density = 24.455125 Si / 1000 Ang^3
#
#
#
# Elastic Constant Matrix: (Units=GPa)
#
#
# Indices 1 2 3 4 5 6 
#
# 1 52.1472 14.2962 16.4800 0.0000 24.6752 0.0000
# 2 14.2962 154.4173 20.6727 0.0000 18.2039 0.0000
# 3 16.4800 20.6727 66.3119 0.0000 28.3424 0.0000
# 4 0.0000 0.0000 0.0000 22.8146 0.0000 4.0411
# 5 24.6752 18.2039 28.3424 0.0000 34.1086 0.0000
# 6 0.0000 0.0000 0.0000 4.0411 0.0000 18.8156
#
#
#
# Elastic Compliance Matrix: (Units=1/GPa)
#
#
# Indices 1 2 3 4 5 6 
#
# 1 0.029499 -0.000338 0.002820 0.000000 -0.023503 0.000000
# 2 -0.000338 0.006949 -0.000933 0.000000 -0.002689 0.000000
# 3 0.002820 -0.000933 0.023772 0.000000 -0.021295 0.000000
# 4 0.000000 0.000000 0.000000 0.045565 0.000000 -0.009786
# 5 -0.023503 -0.002689 -0.021295 0.000000 0.065452 0.000000
# 6 0.000000 0.000000 0.000000 -0.009786 0.000000 0.055249
#
#
# Mechanical properties :
#
#
# Convention : Reuss Voigt Hill
#
# Bulk Modulus (GPa) = 15.79322 41.75269 28.77296
# Shear Modulus (GPa) = 20.45031 29.90961 25.17996
#
# Velocity S-wave (km/s) = 2.89492 3.50099 3.21228
# Velocity P-wave (km/s) = 4.20073 5.78384 5.05465
#
# Compressibility (1/GPa) = 0.06331831
#
# Stress axis : x y z
#
# Youngs Moduli (GPa) = 33.89893 143.90231 42.06590
#
# Poissons Ratio (x) = 0.04861 -0.11861
# Poissons Ratio (y) = 0.01145 0.03925
# Poissons Ratio (z) = -0.09558 0.13428
#
# Static dielectric constant tensor:
#      x y z
#    x 2.088740 0.000000 -0.015600 
#    y 0.000000 2.018800 0.000000 
#    z -0.015600 0.000000 2.001140 
# 
# From -- ./inp_files/216774.got.cif
#   From: 2010.05.17/outbox.cif.g08.bks.cpg/sg12_109_cif.got.tgz:216774.got - 2010.06.03 13:09:07.
