data_PCOD9172060
_publ_section_title
;
Structure prediction by ZEFSAII (Michael W. Deem and Ramdas Pophale) SiO2 
 PCOD9172060
Probable space group: C 2/M
;
_chemical_formula_sum "Si O2"
_cell_formula_units_Z 64
_cell_length_a 26.828684
_cell_length_b 16.280098
_cell_length_c 8.245485
_cell_angle_alpha 90.000000
_cell_angle_beta 81.055026
_cell_angle_gamma 90.000000
_cell_volume 3557.610296
_symmetry_space_group_name_H-M "C 2/M"
_symmetry_group_IT_number 12
_symmetry_cell_setting 'monoclinic'
loop_
_space_group_symop_operation_xyz
x,y,z
-x,y,-z
-x,-y,-z
x,-y,z
1/2+x,1/2+y,z
1/2-x,1/2+y,-z
1/2-x,1/2-y,-z
1/2+x,1/2-y,z
loop_
_atom_site_type_symbol
_atom_site_label
_atom_site_fract_x
_atom_site_fract_y
_atom_site_fract_z
Si Si1 0.374043 0.747741 0.552735
Si Si2 0.650730 0.282242 0.798982
Si Si3 0.667382 0.904481 0.322576
Si Si4 0.606249 0.410152 0.054952
Si Si5 0.714960 0.170461 0.978279
Si Si6 0.195005 0.876076 0.268568
Si Si7 0.773589 0.909752 0.389914
Si Si8 0.445042 0.406316 0.604872
O O1 0.368602 0.748633 0.363099
O O2 0.377348 0.840317 0.616342
O O3 0.323744 0.715420 0.672743
O O4 0.412993 0.673240 0.566503
O O5 0.669134 0.208364 0.900542
O O6 0.697991 0.341486 0.729236
O O7 0.613305 0.339354 0.921091
O O8 0.713745 0.892768 0.427608
O O9 0.652760 0.000000 0.330855
O O10 0.694024 0.879906 0.139919
O O11 0.606429 0.500000 0.977181
O O12 0.652989 0.405959 0.161248
O O13 0.558226 0.402433 0.197838
O O14 0.751859 0.118085 0.846335
O O15 0.750000 0.250000 0.000000
O O16 0.201148 0.912305 0.445257
O O17 0.779266 0.000000 0.310558
O O18 0.500000 0.400784 0.500000
O O19 0.425653 0.500000 0.573064
#
# Coordination Sequence:
#
# PCOD9172060 Si02
#       8
#     8   8   8   8   8   8   8   8
#     4  10  20  35  53  73 103 138 173 218 266 316
#     4  11  20  30  48  71 102 142 178 212 261 302
#     4  11  22  35  50  72 101 141 185 225 261 300
#     4  10  18  29  46  72 103 133 166 208 253 311
#     4  12  18  31  47  67  99 139 181 224 256 294
#     4  10  18  29  46  67  97 140 180 217 261 297
#     4  10  19  29  43  69 102 139 183 222 254 294
#     4   9  19  37  61  85 107 132 165 207 261 324
#
# _framework density 17.989602999999999
#
# number of rings (size 3 to 8) (size 9 to 14) (size 15 to 20)
#    0.000    1.625    3.750    2.250    0.000    7.500 
#    0.000    1.250    0.000    2.625    0.000    0.000 
#    0.000    2.000    0.000    0.000    0.000    0.000 
#
# Total GULP energy -178249.767795 kJ/mol
# GULP energy per Si atom -5570.305244 kJ/mol
# Density = 1.794866 g / cm^3
# Si number density = 17.989603 Si / 1000 Ang^3
#
#
#
# Elastic Constant Matrix: (Units=GPa)
#
#
# Indices 1 2 3 4 5 6 
#
# 1 25.1690 27.6624 22.2489 0.0000 -18.0561 0.0000
# 2 27.6624 112.4462 31.8872 0.0000 -8.7301 0.0000
# 3 22.2489 31.8872 83.1392 0.0000 -14.0293 0.0000
# 4 0.0000 0.0000 0.0000 14.4446 0.0000 -6.0938
# 5 -18.0561 -8.7301 -14.0293 0.0000 22.7284 0.0000
# 6 0.0000 0.0000 0.0000 -6.0938 0.0000 16.7754
#
#
#
# Elastic Compliance Matrix: (Units=1/GPa)
#
#
# Indices 1 2 3 4 5 6 
#
# 1 0.157593 -0.026527 -0.014057 0.000000 0.106330 0.000000
# 2 -0.026527 0.014499 -0.001204 0.000000 -0.016248 0.000000
# 3 -0.014057 -0.001204 0.015950 0.000000 -0.001784 0.000000
# 4 0.000000 0.000000 0.000000 0.081759 0.000000 0.029700
# 5 0.106330 -0.016248 -0.001784 0.000000 0.121128 0.000000
# 6 0.000000 0.000000 0.000000 0.029700 0.000000 0.070400
#
#
# Mechanical properties :
#
#
# Convention : Reuss Voigt Hill
#
# Bulk Modulus (GPa) = 9.57240 42.70572 26.13906
# Shear Modulus (GPa) = 8.62476 20.05340 14.33908
#
# Velocity S-wave (km/s) = 2.19196 3.34237 2.82632
# Velocity P-wave (km/s) = 3.42621 6.21980 5.02119
#
# Compressibility (1/GPa) = 0.10446701
#
# Stress axis : x y z
#
# Youngs Moduli (GPa) = 6.34547 68.97079 62.69453
#
# Poissons Ratio (x) = 1.82961 0.88127
# Poissons Ratio (y) = 0.16833 0.07546
# Poissons Ratio (z) = 0.08920 0.08302
#
# Static dielectric constant tensor:
#      x y z
#    x 1.641390 0.000000 -0.000800 
#    y 0.000000 1.685370 0.000000 
#    z -0.000800 0.000000 1.630660 
# 
# From -- ./inp_files/104568.got.cif
#   From: 2010.05.17/outbox.cif.g08.bks.cpg/sg12_53_cif.got.tgz:104568.got - 2010.06.03 13:09:07.
