data_PCOD9172571
_publ_section_title
;
Structure prediction by ZEFSAII (Michael W. Deem and Ramdas Pophale) SiO2 
 PCOD9172571
Probable space group: C 2/M
;
_chemical_formula_sum "Si O2"
_cell_formula_units_Z 36
_cell_length_a 14.320869
_cell_length_b 15.450240
_cell_length_c 12.076985
_cell_angle_alpha 90.000000
_cell_angle_beta 36.994259
_cell_angle_gamma 90.000000
_cell_volume 1607.934672
_symmetry_space_group_name_H-M "C 2/M"
_symmetry_group_IT_number 12
_symmetry_cell_setting 'monoclinic'
loop_
_space_group_symop_operation_xyz
x,y,z
-x,y,-z
-x,-y,-z
x,-y,z
1/2+x,1/2+y,z
1/2-x,1/2+y,-z
1/2-x,1/2-y,-z
1/2+x,1/2-y,z
loop_
_atom_site_type_symbol
_atom_site_label
_atom_site_fract_x
_atom_site_fract_y
_atom_site_fract_z
Si Si1 0.626551 0.812684 0.173959
Si Si2 0.019449 0.000000 0.615888
Si Si3 0.702617 0.000000 0.063226
Si Si4 0.823701 0.184833 0.209386
Si Si5 0.179065 0.000000 0.795551
Si Si6 0.608684 0.687220 0.508032
O O1 0.704361 0.822802 0.220538
O O2 0.472582 0.756950 0.335261
O O3 0.750000 0.750000 0.000000
O O4 0.618551 0.907363 0.125772
O O5 0.104687 0.909424 0.558220
O O6 0.000000 0.000000 0.500000
O O7 0.858531 0.000000 0.839280
O O8 0.739774 0.000000 0.160278
O O9 0.796655 0.090458 0.290094
O O10 0.771267 0.270781 0.321073
O O11 0.000000 0.190492 0.000000
O O12 0.000000 0.000000 0.000000
O O13 0.500000 0.684145 0.500000
#
# Coordination Sequence:
#
# PCOD9172571 Si02
#       6
#     8   4   4   8   4   8
#     4  10  18  31  51  76 100 129 167 213 246 297
#     4  10  18  30  48  73 101 139 171 204 241 299
#     4  10  18  29  52  77 100 131 169 206 257 291
#     4   9  18  33  52  75 100 134 165 204 258 304
#     4   8  16  31  53  72  97 132 162 205 256 310
#     4   9  18  31  50  74  99 129 171 205 248 298
#
# _framework density 22.38897
#
# number of rings (size 3 to 8) (size 9 to 14) (size 15 to 20)
#    0.000    2.667    2.222    0.000    0.000    0.889 
#    0.000    6.111    0.000    0.000    0.000    0.000 
#    0.000    0.000    0.000    0.000    0.000    0.000 
#
# Total GULP energy -100293.085551 kJ/mol
# GULP energy per Si atom -5571.838086 kJ/mol
# Density = 2.233801 g / cm^3
# Si number density = 22.388970 Si / 1000 Ang^3
#
#
#
# Elastic Constant Matrix: (Units=GPa)
#
#
# Indices 1 2 3 4 5 6 
#
# 1 67.7760 7.6691 -3.1507 -0.0001 11.5504 0.0002
# 2 7.6691 280.0580 89.9573 -0.0002 -0.5908 0.0002
# 3 -3.1507 89.9573 88.2427 -0.0004 3.6127 0.0004
# 4 -0.0001 -0.0002 -0.0004 35.0452 0.0002 -6.9836
# 5 11.5504 -0.5908 3.6127 0.0002 20.9198 -0.0002
# 6 0.0002 0.0002 0.0004 -6.9836 -0.0002 -12.2674
#
#
#
# Elastic Compliance Matrix: (Units=1/GPa)
#
#
# Indices 1 2 3 4 5 6 
#
# 1 0.016624 -0.001178 0.002187 0.000000 -0.009589 0.000000
# 2 -0.001178 0.005418 -0.005638 0.000000 0.001777 0.000000
# 3 0.002187 -0.005638 0.017336 0.000000 -0.004360 0.000000
# 4 0.000000 0.000000 0.000000 0.025627 -0.000001 -0.014589
# 5 -0.009589 0.001777 -0.004360 -0.000001 0.053899 -0.000001
# 6 0.000000 0.000000 0.000000 -0.014589 -0.000001 -0.073212
#
#
# Mechanical properties :
#
#
# Convention : Reuss Voigt Hill
#
# Bulk Modulus (GPa) = 33.20035 69.44755 51.32395
# Shear Modulus (GPa) = 76.93534 31.51293 54.22413
#
# Velocity S-wave (km/s) = 5.86836 3.75576 4.92663
# Velocity P-wave (km/s) = 7.79602 7.06354 7.43880
#
# Compressibility (1/GPa) = 0.03012016
#
# Stress axis : x y z
#
# Youngs Moduli (GPa) = 60.15521 184.58524 57.68297
#
# Poissons Ratio (x) = 0.21743 -0.12615
# Poissons Ratio (y) = 0.07086 0.32519
# Poissons Ratio (z) = -0.13156 1.04062
#
# Static dielectric constant tensor:
#      x y z
#    x 5.044710 0.000000 3.087480 
#    y 0.000000 1.952550 0.000000 
#    z 3.087480 0.000000 4.727120 
# 
# From -- ./inp_files/58385.got.cif
#   From: 2010.05.17/outbox.cif.g08.bks.cpg/sg12_30_cif.got.tgz:58385.got - 2010.06.03 13:09:07.
