data_PCOD9172692
_publ_section_title
;
Structure prediction by ZEFSAII (Michael W. Deem and Ramdas Pophale) SiO2 
 PCOD9172692
Probable space group: C 2/M
;
_chemical_formula_sum "Si O2"
_cell_formula_units_Z 64
_cell_length_a 26.221034
_cell_length_b 8.732513
_cell_length_c 21.943516
_cell_angle_alpha 90.000000
_cell_angle_beta 53.480364
_cell_angle_gamma 90.000000
_cell_volume 4037.976794
_symmetry_space_group_name_H-M "C 2/M"
_symmetry_group_IT_number 12
_symmetry_cell_setting 'monoclinic'
loop_
_space_group_symop_operation_xyz
x,y,z
-x,y,-z
-x,-y,-z
x,-y,z
1/2+x,1/2+y,z
1/2-x,1/2+y,-z
1/2-x,1/2-y,-z
1/2+x,1/2-y,z
loop_
_atom_site_type_symbol
_atom_site_label
_atom_site_fract_x
_atom_site_fract_y
_atom_site_fract_z
Si Si1 0.193049 0.815977 0.999823
Si Si2 0.189677 0.816680 0.318754
Si Si3 0.237000 0.682986 0.411577
Si Si4 0.775595 0.684130 0.833571
Si Si5 0.109380 0.184128 0.166019
Si Si6 0.506850 0.183560 0.681373
Si Si7 0.458308 0.315312 0.588265
Si Si8 0.652865 0.815491 0.587684
O O1 0.130336 0.771511 0.082164
O O2 0.195572 0.000000 0.000000
O O3 0.250000 0.750000 0.000000
O O4 0.212701 0.771689 0.917331
O O5 0.219845 0.756472 0.359501
O O6 0.222743 0.748286 0.235440
O O7 0.115170 0.772206 0.368909
O O8 0.192981 0.000000 0.314447
O O9 0.237367 0.500000 0.405840
O O10 0.303518 0.740496 0.391744
O O11 0.184373 0.726057 0.500137
O O12 0.780827 0.500000 0.828889
O O13 0.836414 0.750912 0.826922
O O14 0.042447 0.248864 0.235041
O O15 0.109404 0.000000 0.171277
O O16 0.485134 0.241580 0.630494
O O17 0.579497 0.230384 0.641621
O O18 0.503579 0.000000 0.684850
O O19 0.500000 0.271221 0.500000
O O20 0.461294 0.500000 0.592370
O O21 0.656794 0.000000 0.590519
#
# Coordination Sequence:
#
# PCOD9172692 Si02
#       8
#     8   8   8   8   8   8   8   8
#     4   8  16  28  44  65  92 127 162 197 237 282
#     4  11  21  32  48  71 101 133 162 200 246 290
#     4  10  20  35  55  74  93 124 166 210 249 289
#     4  10  18  30  47  69  97 129 165 201 239 289
#     4  10  18  30  46  68  99 131 163 199 240 289
#     4  11  21  32  49  72  99 131 163 201 244 289
#     4  10  21  34  47  66  96 133 167 198 238 291
#     4   9  20  37  53  72  97 125 162 208 253 290
#
# _framework density 15.849522
#
# number of rings (size 3 to 8) (size 9 to 14) (size 15 to 20)
#    0.000    2.125    1.250    2.625    0.000    3.250 
#    0.000    0.000    0.000    0.000    0.000    0.875 
#    0.000    7.000    0.000    0.000    0.000    0.000 
#
# Total GULP energy -178457.336937 kJ/mol
# GULP energy per Si atom -5576.791779 kJ/mol
# Density = 1.581345 g / cm^3
# Si number density = 15.849522 Si / 1000 Ang^3
#
#
#
# Elastic Constant Matrix: (Units=GPa)
#
#
# Indices 1 2 3 4 5 6 
#
# 1 100.7521 37.1023 85.2328 0.0000 -2.2829 -0.0001
# 2 37.1023 35.1397 47.0804 0.0014 0.9740 0.0006
# 3 85.2328 47.0804 172.3655 -0.0002 -3.3165 0.0001
# 4 0.0000 0.0014 -0.0002 16.1853 -0.0001 -0.9087
# 5 -2.2829 0.9740 -3.3165 -0.0001 15.8365 0.0001
# 6 -0.0001 0.0006 0.0001 -0.9087 0.0001 22.7418
#
#
#
# Elastic Compliance Matrix: (Units=1/GPa)
#
#
# Indices 1 2 3 4 5 6 
#
# 1 0.020072 -0.012648 -0.006426 0.000001 0.002326 0.000000
# 2 -0.012648 0.053309 -0.008439 -0.000005 -0.006869 -0.000002
# 3 -0.006426 -0.008439 0.011322 0.000001 0.001964 0.000000
# 4 0.000001 -0.000005 0.000001 0.061923 0.000001 0.002474
# 5 0.002326 -0.006869 0.001964 0.000001 0.064314 0.000000
# 6 0.000000 -0.000002 0.000000 0.002474 0.000000 0.044071
#
#
# Mechanical properties :
#
#
# Convention : Reuss Voigt Hill
#
# Bulk Modulus (GPa) = 33.69562 71.89872 52.79717
# Shear Modulus (GPa) = 15.62849 20.20884 17.91867
#
# Velocity S-wave (km/s) = 3.14356 3.57465 3.36601
# Velocity P-wave (km/s) = 5.87212 7.90565 6.96352
#
# Compressibility (1/GPa) = 0.02967745
#
# Stress axis : x y z
#
# Youngs Moduli (GPa) = 49.82145 18.75856 88.32409
#
# Poissons Ratio (x) = 0.23726 0.56755
# Poissons Ratio (y) = 0.63013 0.74536
# Poissons Ratio (z) = 0.32014 0.15830
#
# Static dielectric constant tensor:
#      x y z
#    x 1.486680 0.000000 -0.009340 
#    y 0.000000 1.531620 0.000000 
#    z -0.009340 0.000000 1.560770 
# 
# From -- ./inp_files/319821.got.cif
#   From: 2010.05.17/outbox.cif.g08.bks.cpg/sg12_160_cif.got.tgz:319821.got - 2010.06.03 13:09:07.
