data_PCOD9172344
_publ_section_title
;
Structure prediction by ZEFSAII (Michael W. Deem and Ramdas Pophale) SiO2 
 PCOD9172344
Probable space group: C 2/M
;
_chemical_formula_sum "Si O2"
_cell_formula_units_Z 64
_cell_length_a 27.116247
_cell_length_b 15.397558
_cell_length_c 24.793310
_cell_angle_alpha 90.000000
_cell_angle_beta 20.804790
_cell_angle_gamma 90.000000
_cell_volume 3676.805835
_symmetry_space_group_name_H-M "C 2/M"
_symmetry_group_IT_number 12
_symmetry_cell_setting 'monoclinic'
loop_
_space_group_symop_operation_xyz
x,y,z
-x,y,-z
-x,-y,-z
x,-y,z
1/2+x,1/2+y,z
1/2-x,1/2+y,-z
1/2-x,1/2-y,-z
1/2+x,1/2-y,z
loop_
_atom_site_type_symbol
_atom_site_label
_atom_site_fract_x
_atom_site_fract_y
_atom_site_fract_z
Si Si1 0.929883 0.836157 0.013395
Si Si2 0.001160 0.664998 0.885292
Si Si3 0.945758 0.897201 0.422934
Si Si4 0.722496 0.898933 0.744665
Si Si5 0.758119 0.269642 0.428888
Si Si6 0.845429 0.603623 0.651494
Si Si7 0.700289 0.401613 0.686163
Si Si8 0.277098 0.599350 0.807493
O O1 0.774786 0.865556 0.185216
O O2 0.000000 0.816514 0.000000
O O3 0.929756 0.755014 0.973913
O O4 0.041077 0.899222 0.870683
O O5 0.098511 0.642358 0.837043
O O6 0.103870 0.677419 0.730417
O O7 0.872957 0.600689 0.011238
O O8 0.856537 0.893995 0.569491
O O9 0.868185 0.830959 0.462201
O O10 0.100168 0.866165 0.280568
O O11 0.944373 0.000000 0.406742
O O12 0.754766 0.860902 0.770534
O O13 0.684038 0.000000 0.791252
O O14 0.750000 0.250000 0.500000
O O15 0.770502 0.177582 0.384410
O O16 0.852981 0.500000 0.651012
O O17 0.791580 0.618533 0.645908
O O18 0.000000 0.640835 0.500000
O O19 0.730814 0.500000 0.635821
O O20 0.322110 0.500000 0.751077
#
# Coordination Sequence:
#
# PCOD9172344 Si02
#       8
#     8   8   8   8   8   8   8   8
#     4   9  16  27  44  68  99 131 160 191 234 290
#     4  10  19  30  46  72 101 132 173 211 244 293
#     4   9  19  34  52  76 106 138 171 206 248 301
#     4   9  16  28  47  73 108 144 170 193 229 289
#     4  10  22  39  55  72  93 127 176 226 267 299
#     4   9  17  29  47  73 103 130 154 186 236 300
#     4   9  18  33  52  74  99 128 164 204 247 298
#     4  10  18  29  48  76 110 142 166 195 243 302
#
# _framework density 17.406413000000001
#
# number of rings (size 3 to 8) (size 9 to 14) (size 15 to 20)
#    0.000    2.625    0.000    2.250    0.000    7.000 
#    0.000    0.625    0.000    0.000    0.000    7.000 
#    0.000    0.000    0.000    0.000    0.000    0.000 
#
# Total GULP energy -178216.852786 kJ/mol
# GULP energy per Si atom -5569.276650 kJ/mol
# Density = 1.736679 g / cm^3
# Si number density = 17.406413 Si / 1000 Ang^3
#
#
#
# Elastic Constant Matrix: (Units=GPa)
#
#
# Indices 1 2 3 4 5 6 
#
# 1 78.5606 40.7394 76.0896 -0.0065 -2.3376 0.0019
# 2 40.7394 55.1395 32.4004 -0.0130 1.6961 0.0052
# 3 76.0896 32.4004 112.3409 -0.0104 -21.0188 0.0045
# 4 -0.0065 -0.0130 -0.0104 15.3511 0.0039 -2.7760
# 5 -2.3376 1.6961 -21.0188 0.0039 21.9947 -0.0005
# 6 0.0019 0.0052 0.0045 -2.7760 -0.0005 20.1513
#
#
#
# Elastic Compliance Matrix: (Units=1/GPa)
#
#
# Indices 1 2 3 4 5 6 
#
# 1 0.067675 -0.021808 -0.046136 -0.000011 -0.035214 0.000007
# 2 -0.021808 0.030578 0.006182 0.000020 0.001232 -0.000004
# 3 -0.046136 0.006182 0.045494 0.000006 0.038095 -0.000006
# 4 -0.000011 0.000020 0.000006 0.066806 -0.000009 0.009203
# 5 -0.035214 0.001232 0.038095 -0.000009 0.078033 -0.000005
# 6 0.000007 -0.000004 -0.000006 0.009203 -0.000005 0.050892
#
#
# Mechanical properties :
#
#
# Convention : Reuss Voigt Hill
#
# Bulk Modulus (GPa) = 49.44601 60.49996 54.97298
# Shear Modulus (GPa) = 10.64414 17.95353 14.29883
#
# Velocity S-wave (km/s) = 2.47555 3.21508 2.86924
# Velocity P-wave (km/s) = 6.05306 6.97245 6.52896
#
# Compressibility (1/GPa) = 0.02022408
#
# Stress axis : x y z
#
# Youngs Moduli (GPa) = 14.77656 32.70340 21.98091
#
# Poissons Ratio (x) = 0.71320 1.01410
# Poissons Ratio (y) = 0.32225 -0.13590
# Poissons Ratio (z) = 0.68172 -0.20219
#
# Static dielectric constant tensor:
#      x y z
#    x 1.569510 0.000000 -0.028170 
#    y 0.000000 1.652640 0.000000 
#    z -0.028170 0.000000 1.615400 
# 
# From -- ./inp_files/97706.got.cif
#   From: 2010.05.17/outbox.cif.g08.bks.cpg/sg12_49_cif.got.tgz:97706.got - 2010.06.03 13:09:07.
