data_PCOD9172579
_publ_section_title
;
Structure prediction by ZEFSAII (Michael W. Deem and Ramdas Pophale) SiO2 
 PCOD9172579
Probable space group: C 2/M
;
_chemical_formula_sum "Si O2"
_cell_formula_units_Z 56
_cell_length_a 24.853558
_cell_length_b 14.260592
_cell_length_c 7.458213
_cell_angle_alpha 90.000000
_cell_angle_beta 116.054322
_cell_angle_gamma 90.000000
_cell_volume 2374.761651
_symmetry_space_group_name_H-M "C 2/M"
_symmetry_group_IT_number 12
_symmetry_cell_setting 'monoclinic'
loop_
_space_group_symop_operation_xyz
x,y,z
-x,y,-z
-x,-y,-z
x,-y,z
1/2+x,1/2+y,z
1/2-x,1/2+y,-z
1/2-x,1/2-y,-z
1/2+x,1/2-y,z
loop_
_atom_site_type_symbol
_atom_site_label
_atom_site_fract_x
_atom_site_fract_y
_atom_site_fract_z
Si Si1 0.181025 0.896658 0.688358
Si Si2 0.875429 0.341191 0.651292
Si Si3 0.700068 0.677290 0.354208
Si Si4 0.712995 0.181036 0.798955
Si Si5 0.542795 0.600505 0.393467
Si Si6 0.121618 0.605256 0.940591
Si Si7 0.999519 0.703125 0.207375
O O1 0.200450 0.900000 0.507316
O O2 0.205560 0.795384 0.793628
O O3 0.109259 0.884723 0.570597
O O4 0.195249 0.000000 0.789747
O O5 0.861316 0.235382 0.708655
O O6 0.828165 0.358046 0.425309
O O7 0.939293 0.348125 0.645998
O O8 0.869923 0.395394 0.830492
O O9 0.750000 0.750000 0.500000
O O10 0.721103 0.655766 0.184144
O O11 0.681535 0.139416 0.928548
O O12 0.500000 0.592903 0.500000
O O13 0.543907 0.500000 0.296399
O O14 0.514847 0.688061 0.250186
O O15 0.107667 0.500000 0.862680
O O16 0.064476 0.671288 0.813060
O O17 0.000000 0.678094 0.000000
#
# Coordination Sequence:
#
# PCOD9172579 Si02
#       7
#     8   8   8   8   8   8   8
#     4   9  16  30  56  83 111 146 185 231 286 353
#     4   9  19  38  59  80 112 151 189 241 299 342
#     4   8  16  33  58  85 109 150 192 229 290 351
#     4  10  20  38  62  86 118 153 194 243 298 354
#     4  10  18  29  52  82 109 143 183 227 286 353
#     4  11  25  39  56  85 117 156 207 251 287 343
#     4  10  20  35  56  77 114 154 189 238 291 349
#
# _framework density 23.581313999999999
#
# number of rings (size 3 to 8) (size 9 to 14) (size 15 to 20)
#    0.000    2.714    2.857    0.857    0.000    4.571 
#    0.000    6.429    0.000    4.286    0.000    0.000 
#    0.000    0.000    0.000    0.000    0.000    0.000 
#
# Total GULP energy -155924.419128 kJ/mol
# GULP energy per Si atom -5568.729255 kJ/mol
# Density = 2.352764 g / cm^3
# Si number density = 23.581314 Si / 1000 Ang^3
#
#
#
# Elastic Constant Matrix: (Units=GPa)
#
#
# Indices 1 2 3 4 5 6 
#
# 1 113.3633 5.3560 16.2625 0.0000 -2.9732 0.0000
# 2 5.3560 97.3976 -10.9057 0.0000 4.4684 0.0000
# 3 16.2625 -10.9057 38.9277 0.0000 -11.6621 0.0000
# 4 0.0000 0.0000 0.0000 -57.8189 0.0000 -102.9385
# 5 -2.9732 4.4684 -11.6621 0.0000 31.6816 0.0000
# 6 0.0000 0.0000 0.0000 -102.9385 0.0000 -107.5592
#
#
#
# Elastic Compliance Matrix: (Units=1/GPa)
#
#
# Indices 1 2 3 4 5 6 
#
# 1 0.009486 -0.000989 -0.004419 0.000000 -0.000597 0.000000
# 2 -0.000989 0.010709 0.003296 0.000000 -0.000390 0.000000
# 3 -0.004419 0.003296 0.031689 0.000000 0.010785 0.000000
# 4 0.000000 0.000000 0.000000 0.024572 0.000000 -0.023516
# 5 -0.000597 -0.000390 0.010785 0.000000 0.035533 0.000000
# 6 0.000000 0.000000 0.000000 -0.023516 0.000000 0.013209
#
#
# Mechanical properties :
#
#
# Convention : Reuss Voigt Hill
#
# Bulk Modulus (GPa) = 20.98140 30.12379 25.55260
# Shear Modulus (GPa) = 34.40981 -10.80758 11.80111
#
# Velocity S-wave (km/s) = 3.82409 -2.14314 2.23949
# Velocity P-wave (km/s) = 5.33057 2.58420 4.18886
#
# Compressibility (1/GPa) = 0.04766126
#
# Stress axis : x y z
#
# Youngs Moduli (GPa) = 105.41655 93.38314 31.55632
#
# Poissons Ratio (x) = 0.09236 0.13944
# Poissons Ratio (y) = 0.10426 -0.10403
# Poissons Ratio (z) = 0.46582 -0.30784
#
# Static dielectric constant tensor:
#      x y z
#    x 1.982670 0.000000 0.030470 
#    y 0.000000 1.983910 0.000000 
#    z 0.030470 0.000000 2.027790 
# 
# From -- ./inp_files/96461.got.cif
#   From: 2010.05.17/outbox.cif.g08.bks.cpg/sg12_49_cif.got.tgz:96461.got - 2010.06.03 13:09:07.
