data_PCOD9172253
_publ_section_title
;
Structure prediction by ZEFSAII (Michael W. Deem and Ramdas Pophale) SiO2 
 PCOD9172253
Probable space group: C 2/M
;
_chemical_formula_sum "Si O2"
_cell_formula_units_Z 56
_cell_length_a 15.223590
_cell_length_b 11.155202
_cell_length_c 17.263532
_cell_angle_alpha 90.000000
_cell_angle_beta 58.853949
_cell_angle_gamma 90.000000
_cell_volume 2509.127116
_symmetry_space_group_name_H-M "C 2/M"
_symmetry_group_IT_number 12
_symmetry_cell_setting 'monoclinic'
loop_
_space_group_symop_operation_xyz
x,y,z
-x,y,-z
-x,-y,-z
x,-y,z
1/2+x,1/2+y,z
1/2-x,1/2+y,-z
1/2-x,1/2-y,-z
1/2+x,1/2-y,z
loop_
_atom_site_type_symbol
_atom_site_label
_atom_site_fract_x
_atom_site_fract_y
_atom_site_fract_z
Si Si1 0.172609 0.859276 0.699784
Si Si2 0.986000 0.869458 0.886590
Si Si3 0.353020 0.870973 0.782109
Si Si4 0.193117 0.871491 0.154552
Si Si5 0.885682 0.370634 0.954042
Si Si6 0.388820 0.860768 0.545770
Si Si7 0.908833 0.365451 0.359806
O O1 0.292666 0.825813 0.641497
O O2 0.122945 0.751788 0.672585
O O3 0.104053 0.859996 0.808350
O O4 0.165275 0.000000 0.674420
O O5 0.916953 0.871461 0.838995
O O6 0.948553 0.748780 0.944176
O O7 0.965118 0.000000 0.932726
O O8 0.297975 0.744564 0.796892
O O9 0.366381 0.873231 0.870236
O O10 0.466844 0.865480 0.694206
O O11 0.305935 0.000000 0.781532
O O12 0.205509 0.000000 0.188865
O O13 0.278394 0.864627 0.048244
O O14 0.934729 0.500000 0.950399
O O15 0.500000 0.798975 0.500000
O O16 0.362306 0.856095 0.466954
O O17 0.403636 0.000000 0.560012
O O18 0.882115 0.500000 0.340823
#
# Coordination Sequence:
#
# PCOD9172253 Si02
#       7
#     8   8   8   8   8   8   8
#     4  10  18  29  48  70  91 118 151 189 229 268
#     4   9  15  22  34  55  82 111 142 175 214 255
#     4   9  15  22  34  55  82 111 142 175 214 255
#     4   9  15  22  33  51  83 121 144 167 213 265
#     4   9  15  22  33  51  83 121 144 167 213 265
#     4   9  19  34  49  67  92 121 154 188 224 273
#     4  10  18  29  48  70  91 118 151 189 229 268
#
# _framework density 22.318518000000001
#
# number of rings (size 3 to 8) (size 9 to 14) (size 15 to 20)
#    0.000    2.714    2.857    2.143    0.000    1.714 
#    0.000    0.000    0.000    1.714    0.000    0.000 
#    0.000    4.571    0.000   54.286    0.000    2.286 
#
# Total GULP energy -156018.396258 kJ/mol
# GULP energy per Si atom -5572.085581 kJ/mol
# Density = 2.226772 g / cm^3
# Si number density = 22.318518 Si / 1000 Ang^3
#
#
#
# Elastic Constant Matrix: (Units=GPa)
#
#
# Indices 1 2 3 4 5 6 
#
# 1 43.1226 38.0297 20.1435 0.0000 -7.7684 0.0000
# 2 38.0297 216.0997 39.5647 0.0000 -8.7971 0.0000
# 3 20.1435 39.5647 98.4192 0.0000 -19.8391 0.0000
# 4 0.0000 0.0000 0.0000 29.9722 0.0000 -4.4221
# 5 -7.7684 -8.7971 -19.8391 0.0000 35.9007 0.0000
# 6 0.0000 0.0000 0.0000 -4.4221 0.0000 -6.0439
#
#
#
# Elastic Compliance Matrix: (Units=1/GPa)
#
#
# Indices 1 2 3 4 5 6 
#
# 1 0.029307 -0.004368 -0.003578 0.000000 0.003294 0.000000
# 2 -0.004368 0.005647 -0.001449 0.000000 -0.000362 0.000000
# 3 -0.003578 -0.001449 0.012658 0.000000 0.005866 0.000000
# 4 0.000000 0.000000 0.000000 0.030113 0.000000 -0.022033
# 5 0.003294 -0.000362 0.005866 0.000000 0.031720 0.000000
# 6 0.000000 0.000000 0.000000 -0.022033 0.000000 -0.149335
#
#
# Mechanical properties :
#
#
# Convention : Reuss Voigt Hill
#
# Bulk Modulus (GPa) = 34.69750 61.45746 48.07748
# Shear Modulus (GPa) = -435.08494 29.29269 -202.89613
#
# Velocity S-wave (km/s) = -13.97736 3.62675 -9.54498
# Velocity P-wave (km/s) = 15.64956 6.71819 9.99436
#
# Compressibility (1/GPa) = 0.02882052
#
# Stress axis : x y z
#
# Youngs Moduli (GPa) = 34.12165 177.09223 79.00248
#
# Poissons Ratio (x) = 0.77359 0.28269
# Poissons Ratio (y) = 0.14905 0.11447
# Poissons Ratio (z) = 0.12210 0.25660
#
# Static dielectric constant tensor:
#      x y z
#    x 1.873180 0.000000 -0.009840 
#    y 0.000000 1.874030 0.000000 
#    z -0.009840 0.000000 1.799000 
# 
# From -- ./inp_files/342999.got.cif
#   From: 2010.05.17/outbox.cif.g08.bks.cpg/sg12_172_cif.got.tgz:342999.got - 2010.06.03 13:09:07.
