data_PCOD9172283
_publ_section_title
;
Structure prediction by ZEFSAII (Michael W. Deem and Ramdas Pophale) SiO2 
 PCOD9172283
Probable space group: C 2/M
;
_chemical_formula_sum "Si O2"
_cell_formula_units_Z 48
_cell_length_a 13.774271
_cell_length_b 13.760437
_cell_length_c 18.460979
_cell_angle_alpha 90.000000
_cell_angle_beta 141.899926
_cell_angle_gamma 90.000000
_cell_volume 2159.069927
_symmetry_space_group_name_H-M "C 2/M"
_symmetry_group_IT_number 12
_symmetry_cell_setting 'monoclinic'
loop_
_space_group_symop_operation_xyz
x,y,z
-x,y,-z
-x,-y,-z
x,-y,z
1/2+x,1/2+y,z
1/2-x,1/2+y,-z
1/2-x,1/2-y,-z
1/2+x,1/2-y,z
loop_
_atom_site_type_symbol
_atom_site_label
_atom_site_fract_x
_atom_site_fract_y
_atom_site_fract_z
Si Si1 0.254156 0.500000 0.113930
Si Si2 0.689820 0.390300 0.500840
Si Si3 0.925482 0.185898 0.259617
Si Si4 0.751947 0.316666 0.688946
Si Si5 0.675507 0.107745 0.636382
Si Si6 0.938742 0.500000 0.846619
Si Si7 0.062119 0.603624 0.732642
O O1 0.358661 0.596945 0.174810
O O2 0.160859 0.500000 0.136300
O O3 0.119700 0.500000 0.974839
O O4 0.626722 0.500000 0.458847
O O5 0.605024 0.329432 0.389555
O O6 0.660042 0.350707 0.563545
O O7 0.877380 0.393229 0.603627
O O8 0.839705 0.181856 0.288504
O O9 0.898754 0.292150 0.210552
O O10 0.784434 0.202783 0.692505
O O11 0.884637 0.400428 0.775286
O O12 0.500000 0.126052 0.500000
O O13 0.650679 0.100704 0.707969
O O14 0.726561 0.000000 0.639279
O O15 0.093186 0.500000 0.788438
#
# Coordination Sequence:
#
# PCOD9172283 Si02
#       7
#     4   8   8   8   8   4   8
#     4   9  18  31  49  69  95 128 153 202 246 275
#     4  11  19  28  45  74 103 127 152 192 239 291
#     4  10  18  30  47  70 100 124 161 193 237 292
#     4  10  18  29  48  72  95 130 156 198 239 279
#     4   9  17  31  47  67  99 136 163 188 229 285
#     4   9  18  31  47  73  97 118 163 202 242 282
#     4   9  19  31  45  68  98 131 159 188 230 284
#
# _framework density 22.231795000000002
#
# number of rings (size 3 to 8) (size 9 to 14) (size 15 to 20)
#    0.000    2.333    1.667    3.000    0.000    0.667 
#    0.000    0.000    1.833    2.000    0.000    7.000 
#    0.000    0.000    0.000    0.000    0.000    0.000 
#
# Total GULP energy -133946.536181 kJ/mol
# GULP energy per Si atom -5581.105674 kJ/mol
# Density = 2.218119 g / cm^3
# Si number density = 22.231795 Si / 1000 Ang^3
#
#
#
# Elastic Constant Matrix: (Units=GPa)
#
#
# Indices 1 2 3 4 5 6 
#
# 1 65.4586 22.1851 5.0042 0.0001 -5.4395 0.0000
# 2 22.1851 260.3771 65.8976 0.0001 -4.9645 0.0000
# 3 5.0042 65.8976 86.3044 0.0004 -3.2174 0.0002
# 4 0.0001 0.0001 0.0004 5.4402 0.0002 -0.1413
# 5 -5.4395 -4.9645 -3.2174 0.0002 11.7568 0.0000
# 6 0.0000 0.0000 0.0002 -0.1413 0.0000 25.9404
#
#
#
# Elastic Compliance Matrix: (Units=1/GPa)
#
#
# Indices 1 2 3 4 5 6 
#
# 1 0.016292 -0.001340 0.000342 0.000000 0.007066 0.000000
# 2 -0.001340 0.004883 -0.003634 0.000000 0.000447 0.000000
# 3 0.000342 -0.003634 0.014438 -0.000001 0.002575 0.000000
# 4 0.000000 0.000000 -0.000001 0.183843 -0.000003 0.001002
# 5 0.007066 0.000447 0.002575 -0.000003 0.089220 0.000000
# 6 0.000000 0.000000 0.000000 0.001002 0.000000 0.038555
#
#
# Mechanical properties :
#
#
# Convention : Reuss Voigt Hill
#
# Bulk Modulus (GPa) = 37.95276 66.47933 52.21605
# Shear Modulus (GPa) = 13.68817 29.89768 21.79293
#
# Velocity S-wave (km/s) = 2.48403 3.67115 3.13431
# Velocity P-wave (km/s) = 5.03345 6.92369 6.05282
#
# Compressibility (1/GPa) = 0.02634854
#
# Stress axis : x y z
#
# Youngs Moduli (GPa) = 61.37994 204.79199 69.26254
#
# Poissons Ratio (x) = 0.27441 -0.02368
# Poissons Ratio (y) = 0.08225 0.25170
# Poissons Ratio (z) = -0.02098 0.74422
#
# Static dielectric constant tensor:
#      x y z
#    x 1.879240 0.000000 0.042650 
#    y 0.000000 1.904980 0.000000 
#    z 0.042650 0.000000 1.729920 
# 
# From -- ./inp_files/343614.got.cif
#   From: 2010.05.17/outbox.cif.g08.bks.cpg/sg12_172_cif.got.tgz:343614.got - 2010.06.03 13:09:07.
