data_PCOD9172359
_publ_section_title
;
Structure prediction by ZEFSAII (Michael W. Deem and Ramdas Pophale) SiO2 
 PCOD9172359
Probable space group: C 2/M
;
_chemical_formula_sum "Si O2"
_cell_formula_units_Z 40
_cell_length_a 16.069002
_cell_length_b 18.302225
_cell_length_c 5.433595
_cell_angle_alpha 90.000000
_cell_angle_beta 89.290700
_cell_angle_gamma 90.000000
_cell_volume 1597.889635
_symmetry_space_group_name_H-M "C 2/M"
_symmetry_group_IT_number 12
_symmetry_cell_setting 'monoclinic'
loop_
_space_group_symop_operation_xyz
x,y,z
-x,y,-z
-x,-y,-z
x,-y,z
1/2+x,1/2+y,z
1/2-x,1/2+y,-z
1/2-x,1/2-y,-z
1/2+x,1/2-y,z
loop_
_atom_site_type_symbol
_atom_site_label
_atom_site_fract_x
_atom_site_fract_y
_atom_site_fract_z
Si Si1 0.302475 0.588974 0.039299
Si Si2 0.906140 0.087268 0.538796
Si Si3 0.633439 0.816434 0.025948
Si Si4 0.920723 0.415395 0.336562
Si Si5 0.339359 0.783458 0.478198
O O1 0.279503 0.500000 0.027865
O O2 0.352514 0.599525 0.292762
O O3 0.357351 0.606354 0.793130
O O4 0.225718 0.647247 0.040544
O O5 0.000000 0.117698 0.500000
O O6 0.915074 0.000000 0.559314
O O7 0.580623 0.886077 0.941328
O O8 0.624217 0.764962 0.788112
O O9 0.612430 0.773389 0.271385
O O10 0.909333 0.500000 0.345946
O O11 0.842904 0.372104 0.456330
O O12 0.000000 0.395611 0.500000
O O13 0.250000 0.750000 0.500000
#
# Coordination Sequence:
#
# PCOD9172359 Si02
#       5
#     8   8   8   8   8
#     4  10  18  29  48  78 111 148 193 248 315 374
#     4   9  17  28  44  67 102 147 195 243 297 358
#     4  10  21  36  61  89 123 164 213 263 321 388
#     4   9  21  39  64 100 139 175 216 275 340 397
#     4  10  22  40  64  89 123 172 216 267 321 393
#
# _framework density 25.03302
#
# number of rings (size 3 to 8) (size 9 to 14) (size 15 to 20)
#    1.200    1.200    0.000    3.000    0.000    4.800 
#    0.000    2.000    0.000    7.200    0.000    0.000 
#    0.000    0.800    0.000    0.200    0.000    0.000 
#
# Total GULP energy -111502.449015 kJ/mol
# GULP energy per Si atom -5575.122451 kJ/mol
# Density = 2.497604 g / cm^3
# Si number density = 25.033020 Si / 1000 Ang^3
#
#
#
# Elastic Constant Matrix: (Units=GPa)
#
#
# Indices 1 2 3 4 5 6 
#
# 1 115.5778 32.7792 44.7123 0.0000 1.4445 0.0000
# 2 32.7792 95.1539 3.8604 0.0000 0.4661 0.0000
# 3 44.7123 3.8604 211.0790 0.0000 20.8017 0.0000
# 4 0.0000 0.0000 0.0000 -60.2290 0.0000 68.9295
# 5 1.4445 0.4661 20.8017 0.0000 38.0495 0.0000
# 6 0.0000 0.0000 0.0000 68.9295 0.0000 -48.0338
#
#
#
# Elastic Compliance Matrix: (Units=1/GPa)
#
#
# Indices 1 2 3 4 5 6 
#
# 1 0.010514 -0.003535 -0.002249 0.000000 0.000873 0.000000
# 2 -0.003535 0.011706 0.000566 0.000000 -0.000319 0.000000
# 3 -0.002249 0.000566 0.005492 0.000000 -0.002924 0.000000
# 4 0.000000 0.000000 0.000000 0.025849 0.000000 0.037094
# 5 0.000873 -0.000319 -0.002924 0.000000 0.027851 0.000000
# 6 0.000000 0.000000 0.000000 0.037094 0.000000 0.032411
#
#
# Mechanical properties :
#
#
# Convention : Reuss Voigt Hill
#
# Bulk Modulus (GPa) = 57.88256 64.94608 61.41432
# Shear Modulus (GPa) = 38.45702 8.65461 23.55582
#
# Velocity S-wave (km/s) = 3.92376 1.86139 3.07088
# Velocity P-wave (km/s) = 6.61064 5.53355 6.09593
#
# Compressibility (1/GPa) = 0.01727636
#
# Stress axis : x y z
#
# Youngs Moduli (GPa) = 95.11445 85.42916 182.09467
#
# Poissons Ratio (x) = 0.30198 0.40944
# Poissons Ratio (y) = 0.33622 -0.10308
# Poissons Ratio (z) = 0.21387 -0.04836
#
# Static dielectric constant tensor:
#      x y z
#    x 5.706110 0.000000 -1.137710 
#    y 0.000000 2.025780 0.000000 
#    z -1.137710 0.000000 2.467690 
# 
# From -- ./inp_files/11313.got.cif
#   From: 2010.05.17/outbox.cif.g08.bks.cpg/sg12_6_cif.got.tgz:11313.got - 2010.06.03 13:09:07.
