data_PCOD9172860
_publ_section_title
;
Structure prediction by ZEFSAII (Michael W. Deem and Ramdas Pophale) SiO2 
 PCOD9172860
Probable space group: C 2/M
;
_chemical_formula_sum "Si O2"
_cell_formula_units_Z 56
_cell_length_a 9.460019
_cell_length_b 22.569503
_cell_length_c 17.650048
_cell_angle_alpha 90.000000
_cell_angle_beta 60.486643
_cell_angle_gamma 90.000000
_cell_volume 3279.437618
_symmetry_space_group_name_H-M "C 2/M"
_symmetry_group_IT_number 12
_symmetry_cell_setting 'monoclinic'
loop_
_space_group_symop_operation_xyz
x,y,z
-x,y,-z
-x,-y,-z
x,-y,z
1/2+x,1/2+y,z
1/2-x,1/2+y,-z
1/2-x,1/2-y,-z
1/2+x,1/2-y,z
loop_
_atom_site_type_symbol
_atom_site_label
_atom_site_fract_x
_atom_site_fract_y
_atom_site_fract_z
Si Si1 0.700853 0.355621 0.286059
Si Si2 0.197567 0.717283 0.262534
Si Si3 0.931129 0.383956 0.597296
Si Si4 0.061291 0.762790 0.144558
Si Si5 0.749713 0.067514 0.578616
Si Si6 0.614139 0.831338 0.909737
Si Si7 0.398196 0.431584 0.377042
O O1 0.684275 0.284642 0.297588
O O2 0.742672 0.387216 0.353851
O O3 0.825647 0.363392 0.183012
O O4 0.531171 0.386556 0.310955
O O5 0.108835 0.669387 0.336284
O O6 0.115224 0.721597 0.201339
O O7 0.391011 0.704624 0.208137
O O8 0.769937 0.419840 0.620554
O O9 0.000000 0.359035 0.500000
O O10 0.068794 0.426312 0.593786
O O11 0.218760 0.805277 0.097423
O O12 0.003039 0.722159 0.089834
O O13 0.864707 0.080187 0.475603
O O14 0.781259 0.000000 0.594735
O O15 0.500000 0.864335 0.000000
O O16 0.445777 0.500000 0.355962
#
# Coordination Sequence:
#
# PCOD9172860 Si02
#       7
#     8   8   8   8   8   8   8
#     4  10  20  32  49  72  98 128 156 193 240 288
#     4  10  18  32  47  72 103 128 156 190 240 298
#     4  10  19  30  47  71  99 127 157 199 244 282
#     4   8  17  30  47  66  96 132 159 188 228 282
#     4  10  20  34  51  70  93 126 169 206 233 271
#     4  10  18  30  48  72  98 125 159 195 235 285
#     4  10  20  34  51  70  93 126 169 206 233 271
#
# _framework density 17.076098000000002
#
# number of rings (size 3 to 8) (size 9 to 14) (size 15 to 20)
#    0.000    2.571    0.000    5.143    0.000    4.000 
#    0.000    3.571    0.000    1.714    0.000    0.000 
#    0.000    4.571    0.000    0.000    0.000    0.000 
#
# Total GULP energy -155934.211950 kJ/mol
# GULP energy per Si atom -5569.078998 kJ/mol
# Density = 1.703723 g / cm^3
# Si number density = 17.076098 Si / 1000 Ang^3
#
#
#
# Elastic Constant Matrix: (Units=GPa)
#
#
# Indices 1 2 3 4 5 6 
#
# 1 88.4438 2.9458 7.9038 0.0000 -9.4585 0.0000
# 2 2.9458 56.9743 32.9898 0.0000 -5.7094 0.0000
# 3 7.9038 32.9898 75.8375 0.0000 -16.1316 0.0000
# 4 0.0000 0.0000 0.0000 6.3900 0.0000 5.9045
# 5 -9.4585 -5.7094 -16.1316 0.0000 22.0490 0.0000
# 6 0.0000 0.0000 0.0000 5.9045 0.0000 -4.8274
#
#
#
# Elastic Compliance Matrix: (Units=1/GPa)
#
#
# Indices 1 2 3 4 5 6 
#
# 1 0.011852 -0.000015 -0.000175 0.000000 0.004952 0.000000
# 2 -0.000015 0.023512 -0.010579 0.000000 -0.001658 0.000000
# 3 -0.000175 -0.010579 0.020379 0.000000 0.012095 0.000000
# 4 0.000000 0.000000 0.000000 0.073465 0.000000 0.089856
# 5 0.004952 -0.001658 0.012095 0.000000 0.055898 0.000000
# 6 0.000000 0.000000 0.000000 0.089856 0.000000 -0.097245
#
#
# Mechanical properties :
#
#
# Convention : Reuss Voigt Hill
#
# Bulk Modulus (GPa) = 29.23567 34.32605 31.78086
# Shear Modulus (GPa) = 41.39041 16.55007 28.97024
#
# Velocity S-wave (km/s) = 4.92863 3.11657 4.12337
# Velocity P-wave (km/s) = 7.03893 5.75292 6.42817
#
# Compressibility (1/GPa) = 0.03420480
#
# Stress axis : x y z
#
# Youngs Moduli (GPa) = 84.37110 42.53161 49.06988
#
# Poissons Ratio (x) = 0.00064 0.00860
# Poissons Ratio (y) = 0.00127 0.51911
# Poissons Ratio (z) = 0.01479 0.44994
#
# Static dielectric constant tensor:
#      x y z
#    x 1.631570 0.000000 0.003740 
#    y 0.000000 1.536140 0.000000 
#    z 0.003740 0.000000 1.604000 
# 
# From -- ./inp_files/257996.got.cif
#   From: 2010.05.17/outbox.cif.g08.bks.cpg/sg12_129_cif.got.tgz:257996.got - 2010.06.03 13:09:07.
