data_PCOD9172360
_publ_section_title
;
Structure prediction by ZEFSAII (Michael W. Deem and Ramdas Pophale) SiO2 
 PCOD9172360
Probable space group: C 2/M
;
_chemical_formula_sum "Si O2"
_cell_formula_units_Z 64
_cell_length_a 19.857940
_cell_length_b 19.789632
_cell_length_c 16.913313
_cell_angle_alpha 90.000000
_cell_angle_beta 30.313762
_cell_angle_gamma 90.000000
_cell_volume 3354.779737
_symmetry_space_group_name_H-M "C 2/M"
_symmetry_group_IT_number 12
_symmetry_cell_setting 'monoclinic'
loop_
_space_group_symop_operation_xyz
x,y,z
-x,y,-z
-x,-y,-z
x,-y,z
1/2+x,1/2+y,z
1/2-x,1/2+y,-z
1/2-x,1/2-y,-z
1/2+x,1/2-y,z
loop_
_atom_site_type_symbol
_atom_site_label
_atom_site_fract_x
_atom_site_fract_y
_atom_site_fract_z
Si Si1 0.797446 0.922636 0.854105
Si Si2 0.972215 0.573431 0.434190
Si Si3 0.225205 0.788622 0.868875
Si Si4 0.319035 0.204832 0.599662
Si Si5 0.952946 0.657159 0.958719
Si Si6 0.542725 0.290412 0.292671
Si Si7 0.228125 0.926263 0.931402
Si Si8 0.382063 0.246765 0.310152
O O1 0.908204 0.864108 0.729067
O O2 0.826570 0.000000 0.798934
O O3 0.658330 0.895628 0.958513
O O4 0.785107 0.923294 0.961446
O O5 0.912329 0.500000 0.476976
O O6 0.880753 0.635754 0.504601
O O7 0.000000 0.576159 0.500000
O O8 0.115052 0.578046 0.248007
O O9 0.307586 0.798008 0.704865
O O10 0.331555 0.759697 0.823995
O O11 0.167008 0.860475 0.952969
O O12 0.119841 0.729825 0.961849
O O13 0.420785 0.263500 0.469876
O O14 0.173360 0.216129 0.711123
O O15 0.064831 0.674741 0.778137
O O16 0.000000 0.639518 0.000000
O O17 0.492640 0.281941 0.253256
O O18 0.179768 0.000000 0.952364
O O19 0.250000 0.250000 0.500000
#
# Coordination Sequence:
#
# PCOD9172360 Si02
#       8
#     8   8   8   8   8   8   8   8
#     4  10  23  40  61  83 111 154 202 253 300 350
#     4  10  18  29  48  78 116 149 184 227 273 335
#     4  11  19  33  59  86 116 148 191 244 291 340
#     4  11  19  33  55  85 120 154 186 236 291 349
#     4  11  22  38  59  88 115 146 195 252 303 355
#     4  10  20  36  57  82 111 150 197 238 295 343
#     4  10  19  32  53  83 114 148 191 235 281 338
#     4  10  22  36  56  87 119 152 186 239 294 356
#
# _framework density 19.077259000000002
#
# number of rings (size 3 to 8) (size 9 to 14) (size 15 to 20)
#    0.000    1.625    3.750    1.875    1.750    2.250 
#    0.000    0.625    0.000   10.125    0.000    0.000 
#    0.000    0.000    0.000    0.000    0.000    0.000 
#
# Total GULP energy -178402.409419 kJ/mol
# GULP energy per Si atom -5575.075294 kJ/mol
# Density = 1.903384 g / cm^3
# Si number density = 19.077259 Si / 1000 Ang^3
#
#
#
# Elastic Constant Matrix: (Units=GPa)
#
#
# Indices 1 2 3 4 5 6 
#
# 1 74.4932 31.7136 12.1923 0.0027 -7.8768 -0.0020
# 2 31.7136 138.2959 19.8385 0.0041 -0.6667 -0.0033
# 3 12.1923 19.8385 56.8391 0.0060 8.2997 -0.0046
# 4 0.0027 0.0041 0.0060 61.3431 -0.0028 -27.0306
# 5 -7.8768 -0.6667 8.2997 -0.0028 21.9943 0.0021
# 6 -0.0020 -0.0033 -0.0046 -27.0306 0.0021 41.3810
#
#
#
# Elastic Compliance Matrix: (Units=1/GPa)
#
#
# Indices 1 2 3 4 5 6 
#
# 1 0.016052 -0.003167 -0.003348 0.000000 0.006916 0.000000
# 2 -0.003167 0.008273 -0.002200 0.000000 -0.000053 0.000000
# 3 -0.003348 -0.002200 0.020388 -0.000002 -0.008959 0.000001
# 4 0.000000 0.000000 -0.000002 0.022890 0.000002 0.014952
# 5 0.006916 -0.000053 -0.008959 0.000002 0.051322 -0.000002
# 6 0.000000 0.000000 0.000001 0.014952 -0.000002 0.033933
#
#
# Mechanical properties :
#
#
# Convention : Reuss Voigt Hill
#
# Bulk Modulus (GPa) = 36.65446 44.12411 40.38929
# Shear Modulus (GPa) = 27.87360 38.66928 33.27144
#
# Velocity S-wave (km/s) = 3.82657 4.50709 4.18070
# Velocity P-wave (km/s) = 6.22727 7.08975 6.67246
#
# Compressibility (1/GPa) = 0.02728181
#
# Stress axis : x y z
#
# Youngs Moduli (GPa) = 62.29900 120.88162 49.04915
#
# Poissons Ratio (x) = 0.38288 0.16419
# Poissons Ratio (y) = 0.19732 0.10792
# Poissons Ratio (z) = 0.20855 0.26596
#
# Static dielectric constant tensor:
#      x y z
#    x 1.674510 0.000000 0.012240 
#    y 0.000000 1.694790 0.000000 
#    z 0.012240 0.000000 1.717210 
# 
# From -- ./inp_files/285175.got.cif
#   From: 2010.05.17/outbox.cif.g08.bks.cpg/sg12_143_cif.got.tgz:285175.got - 2010.06.03 13:09:07.
