data_PCOD9172326
_publ_section_title
;
Structure prediction by ZEFSAII (Michael W. Deem and Ramdas Pophale) SiO2 
 PCOD9172326
Probable space group: C 2/M
;
_chemical_formula_sum "Si O2"
_cell_formula_units_Z 56
_cell_length_a 21.755603
_cell_length_b 12.630248
_cell_length_c 12.338103
_cell_angle_alpha 90.000000
_cell_angle_beta 92.190167
_cell_angle_gamma 90.000000
_cell_volume 3387.770815
_symmetry_space_group_name_H-M "C 2/M"
_symmetry_group_IT_number 12
_symmetry_cell_setting 'monoclinic'
loop_
_space_group_symop_operation_xyz
x,y,z
-x,y,-z
-x,-y,-z
x,-y,z
1/2+x,1/2+y,z
1/2-x,1/2+y,-z
1/2-x,1/2-y,-z
1/2+x,1/2-y,z
loop_
_atom_site_type_symbol
_atom_site_label
_atom_site_fract_x
_atom_site_fract_y
_atom_site_fract_z
Si Si1 0.465878 0.120580 0.855265
Si Si2 0.184565 0.874978 0.984084
Si Si3 0.735704 0.243380 0.187433
Si Si4 0.864307 0.375565 0.674789
Si Si5 0.910034 0.301744 0.064690
Si Si6 0.069150 0.628384 0.533119
Si Si7 0.845026 0.378197 0.265559
O O1 0.429206 0.131347 0.742672
O O2 0.522341 0.198717 0.878306
O O3 0.489962 0.000000 0.864438
O O4 0.418665 0.141258 0.950134
O O5 0.231844 0.840886 0.891624
O O6 0.122117 0.810682 0.954061
O O7 0.177319 0.000000 0.987353
O O8 0.208285 0.828906 0.100587
O O9 0.685044 0.190284 0.260637
O O10 0.786947 0.300790 0.264548
O O11 0.846543 0.500000 0.672465
O O12 0.881230 0.339669 0.554996
O O13 0.868132 0.367946 0.143662
O O14 0.065639 0.500000 0.528807
O O15 0.099008 0.654667 0.651262
O O16 0.000000 0.666777 0.500000
O O17 0.829206 0.500000 0.289203
#
# Coordination Sequence:
#
# PCOD9172326 Si02
#       7
#     8   8   8   8   8   8   8
#     4  10  18  29  48  75 102 128 162 205 248 295
#     4  10  20  34  49  69 102 135 167 208 248 294
#     4  10  20  33  49  72  97 133 173 201 240 302
#     4  10  19  32  51  73 103 132 161 204 248 294
#     4  10  18  30  48  72  99 127 166 201 247 302
#     4   9  18  32  50  75 101 126 157 199 253 298
#     4  10  19  31  49  72 100 132 163 200 247 294
#
# _framework density 16.530042999999999
#
# number of rings (size 3 to 8) (size 9 to 14) (size 15 to 20)
#    0.000    2.143    1.429    3.429    0.000    2.857 
#    0.000    1.429    0.000    0.000    0.000    1.000 
#    0.000   21.143    0.000    0.000    0.000    0.000 
#
# Total GULP energy -156046.766275 kJ/mol
# GULP energy per Si atom -5573.098796 kJ/mol
# Density = 1.649242 g / cm^3
# Si number density = 16.530043 Si / 1000 Ang^3
#
#
#
# Elastic Constant Matrix: (Units=GPa)
#
#
# Indices 1 2 3 4 5 6 
#
# 1 79.7730 42.5781 19.9012 0.0000 3.3557 0.0000
# 2 42.5781 83.1506 21.5306 0.0000 6.8473 0.0000
# 3 19.9012 21.5306 56.7975 0.0000 0.7913 0.0000
# 4 0.0000 0.0000 0.0000 13.8601 0.0000 1.8726
# 5 3.3557 6.8473 0.7913 0.0000 22.6468 0.0000
# 6 0.0000 0.0000 0.0000 1.8726 0.0000 20.3381
#
#
#
# Elastic Compliance Matrix: (Units=1/GPa)
#
#
# Indices 1 2 3 4 5 6 
#
# 1 0.017720 -0.008277 -0.003071 0.000000 -0.000016 0.000000
# 2 -0.008277 0.017547 -0.003696 0.000000 -0.003950 0.000000
# 3 -0.003071 -0.003696 0.020072 0.000000 0.000871 0.000000
# 4 0.000000 0.000000 0.000000 0.073058 0.000000 -0.006727
# 5 -0.000016 -0.003950 0.000871 0.000000 0.045322 0.000000
# 6 0.000000 0.000000 0.000000 -0.006727 0.000000 0.049788
#
#
# Mechanical properties :
#
#
# Convention : Reuss Voigt Hill
#
# Bulk Modulus (GPa) = 39.60477 43.08232 41.34354
# Shear Modulus (GPa) = 19.08292 20.41641 19.74967
#
# Velocity S-wave (km/s) = 3.40139 3.51823 3.46030
# Velocity P-wave (km/s) = 6.27991 6.52867 6.40549
#
# Compressibility (1/GPa) = 0.02524948
#
# Stress axis : x y z
#
# Youngs Moduli (GPa) = 56.43236 56.98889 49.82179
#
# Poissons Ratio (x) = 0.47172 0.15300
# Poissons Ratio (y) = 0.46711 0.18416
# Poissons Ratio (z) = 0.17330 0.21066
#
# Static dielectric constant tensor:
#      x y z
#    x 1.591130 0.000000 -0.005250 
#    y 0.000000 1.524190 0.000000 
#    z -0.005250 0.000000 1.572880 
# 
# From -- ./inp_files/164925.got.cif
#   From: 2010.05.17/outbox.cif.g08.bks.cpg/sg12_83_cif.got.tgz:164925.got - 2010.06.03 13:09:07.
