data_PCOD9172853
_publ_section_title
;
Structure prediction by ZEFSAII (Michael W. Deem and Ramdas Pophale) SiO2 
 PCOD9172853
Probable space group: C 2/M
;
_chemical_formula_sum "Si O2"
_cell_formula_units_Z 48
_cell_length_a 22.796805
_cell_length_b 8.673649
_cell_length_c 20.073263
_cell_angle_alpha 90.000000
_cell_angle_beta 44.394145
_cell_angle_gamma 90.000000
_cell_volume 2776.755224
_symmetry_space_group_name_H-M "C 2/M"
_symmetry_group_IT_number 12
_symmetry_cell_setting 'monoclinic'
loop_
_space_group_symop_operation_xyz
x,y,z
-x,y,-z
-x,-y,-z
x,-y,z
1/2+x,1/2+y,z
1/2-x,1/2+y,-z
1/2-x,1/2-y,-z
1/2+x,1/2-y,z
loop_
_atom_site_type_symbol
_atom_site_label
_atom_site_fract_x
_atom_site_fract_y
_atom_site_fract_z
Si Si1 0.343401 0.316753 0.785863
Si Si2 0.698373 0.316096 0.978555
Si Si3 0.130211 0.314979 0.636880
Si Si4 0.904787 0.683397 0.597348
Si Si5 0.689190 0.683567 0.451867
Si Si6 0.053957 0.684583 0.172115
O O1 0.343132 0.500000 0.794701
O O2 0.377093 0.269116 0.686689
O O3 0.402543 0.242902 0.794914
O O4 0.249655 0.251908 0.874951
O O5 0.702315 0.500000 0.975037
O O6 0.604622 0.259159 0.069746
O O7 0.750000 0.250000 0.000000
O O8 0.130526 0.500000 0.625174
O O9 0.214037 0.276844 0.610062
O O10 0.137719 0.233189 0.559372
O O11 0.043957 0.275468 0.743616
O O12 0.901114 0.500000 0.611905
O O13 0.845936 0.730677 0.583791
O O14 0.000000 0.723821 0.500000
O O15 0.682762 0.500000 0.447609
O O16 0.063071 0.500000 0.161388
#
# Coordination Sequence:
#
# PCOD9172853 Si02
#       6
#     8   8   8   8   8   8
#     4  11  21  33  50  74 103 133 166 205 249 294
#     4  10  18  30  48  72 101 131 165 204 248 293
#     4   9  19  34  52  74 102 134 165 203 249 294
#     4  11  23  37  52  72 101 135 167 201 247 299
#     4  10  20  34  52  75 101 131 169 207 245 291
#     4  10  18  31  51  75 103 133 166 203 247 295
#
# _framework density 17.286363999999999
#
# number of rings (size 3 to 8) (size 9 to 14) (size 15 to 20)
#    0.000    1.833    0.000    7.500    0.000    7.333 
#    0.000    0.000    0.000    1.000    0.000    7.000 
#    0.000    0.000    0.000    0.000    0.000    0.000 
#
# Total GULP energy -133976.789372 kJ/mol
# GULP energy per Si atom -5582.366224 kJ/mol
# Density = 1.724702 g / cm^3
# Si number density = 17.286364 Si / 1000 Ang^3
#
#
#
# Elastic Constant Matrix: (Units=GPa)
#
#
# Indices 1 2 3 4 5 6 
#
# 1 38.8332 14.8867 29.8481 0.0001 -1.1932 0.0000
# 2 14.8867 80.8673 51.2044 -0.0003 -4.6299 0.0005
# 3 29.8481 51.2044 142.6273 0.0001 -16.4784 0.0001
# 4 0.0001 -0.0003 0.0001 33.2298 0.0000 -0.2903
# 5 -1.1932 -4.6299 -16.4784 0.0000 22.6160 -0.0001
# 6 0.0000 0.0005 0.0001 -0.2903 -0.0001 14.6137
#
#
#
# Elastic Compliance Matrix: (Units=1/GPa)
#
#
# Indices 1 2 3 4 5 6 
#
# 1 0.031171 -0.002013 -0.006178 0.000000 -0.003269 0.000000
# 2 -0.002013 0.016155 -0.005469 0.000000 -0.000784 0.000000
# 3 -0.006178 -0.005469 0.011029 0.000000 0.006590 0.000000
# 4 0.000000 0.000000 0.000000 0.030099 0.000000 0.000598
# 5 -0.003269 -0.000784 0.006590 0.000000 0.048685 0.000000
# 6 0.000000 0.000000 0.000000 0.000598 0.000000 0.068441
#
#
# Mechanical properties :
#
#
# Convention : Reuss Voigt Hill
#
# Bulk Modulus (GPa) = 32.22285 50.46737 41.34511
# Shear Modulus (GPa) = 20.55541 25.18449 22.86995
#
# Velocity S-wave (km/s) = 3.45209 3.82108 3.64126
# Velocity P-wave (km/s) = 5.87965 6.98038 6.45353
#
# Compressibility (1/GPa) = 0.03103388
#
# Stress axis : x y z
#
# Youngs Moduli (GPa) = 32.08082 61.90225 90.67040
#
# Poissons Ratio (x) = 0.12464 0.56017
# Poissons Ratio (y) = 0.06459 0.49586
# Poissons Ratio (z) = 0.19820 0.33853
#
# Static dielectric constant tensor:
#      x y z
#    x 1.566190 0.000000 -0.025570 
#    y 0.000000 1.578830 0.000000 
#    z -0.025570 0.000000 1.614430 
# 
# From -- ./inp_files/280804.got.cif
#   From: 2010.05.17/outbox.cif.g08.bks.cpg/sg12_141_cif.got.tgz:280804.got - 2010.06.03 13:09:07.
