data_PCOD9172437
_publ_section_title
;
Structure prediction by ZEFSAII (Michael W. Deem and Ramdas Pophale) SiO2 
 PCOD9172437
Probable space group: C 2/M
;
_chemical_formula_sum "Si O2"
_cell_formula_units_Z 64
_cell_length_a 19.221910
_cell_length_b 23.437254
_cell_length_c 11.555145
_cell_angle_alpha 90.000000
_cell_angle_beta 134.509997
_cell_angle_gamma 90.000000
_cell_volume 3712.327152
_symmetry_space_group_name_H-M "C 2/M"
_symmetry_group_IT_number 12
_symmetry_cell_setting 'monoclinic'
loop_
_space_group_symop_operation_xyz
x,y,z
-x,y,-z
-x,-y,-z
x,-y,z
1/2+x,1/2+y,z
1/2-x,1/2+y,-z
1/2-x,1/2-y,-z
1/2+x,1/2-y,z
loop_
_atom_site_type_symbol
_atom_site_label
_atom_site_fract_x
_atom_site_fract_y
_atom_site_fract_z
Si Si1 0.475037 0.432144 0.602636
Si Si2 0.114375 0.846010 0.109484
Si Si3 0.794406 0.144880 0.376997
Si Si4 0.236352 0.344148 0.055514
Si Si5 0.569080 0.754604 0.468648
Si Si6 0.726611 0.812997 0.521224
Si Si7 0.666332 0.567795 0.981850
Si Si8 0.889366 0.236585 0.109178
O O1 0.500000 0.414840 0.500000
O O2 0.460255 0.500000 0.587560
O O3 0.375836 0.399757 0.513479
O O4 0.566952 0.419651 0.792140
O O5 0.180706 0.833861 0.297375
O O6 0.150385 0.902943 0.086684
O O7 0.126104 0.793780 0.031970
O O8 0.000000 0.851170 0.000000
O O9 0.747592 0.132593 0.198293
O O10 0.854442 0.203495 0.423102
O O11 0.718537 0.151813 0.393177
O O12 0.248588 0.397171 0.983378
O O13 0.323790 0.300402 0.121429
O O14 0.144694 0.302210 0.934377
O O15 0.500000 0.764447 0.500000
O O16 0.634044 0.807162 0.498074
O O17 0.498748 0.734740 0.282734
O O18 0.750000 0.750000 0.500000
O O19 0.680321 0.500000 0.001008
#
# Coordination Sequence:
#
# PCOD9172437 Si02
#       8
#     8   8   8   8   8   8   8   8
#     4  10  18  29  49  78 106 133 171 213 258 315
#     4  11  21  36  53  76 113 150 175 217 271 326
#     4  11  18  33  50  74 105 139 170 212 264 317
#     4  10  19  31  51  75 103 135 173 225 269 319
#     4  11  20  31  50  75 106 140 172 215 262 319
#     4  10  22  34  50  76 106 140 181 214 257 324
#     4  10  21  34  51  77 108 142 184 220 261 326
#     4  10  20  31  49  76 102 134 178 216 273 323
#
# _framework density 17.239861000000001
#
# number of rings (size 3 to 8) (size 9 to 14) (size 15 to 20)
#    0.000    1.625    2.500    5.625    3.500    0.250 
#    0.000    0.625    0.000    0.000    0.000    2.625 
#    0.000    2.500    0.000    0.000    0.000    0.000 
#
# Total GULP energy -178450.280259 kJ/mol
# GULP energy per Si atom -5576.571258 kJ/mol
# Density = 1.720062 g / cm^3
# Si number density = 17.239861 Si / 1000 Ang^3
#
#
#
# Elastic Constant Matrix: (Units=GPa)
#
#
# Indices 1 2 3 4 5 6 
#
# 1 79.5592 15.3687 16.4819 0.0000 -11.0072 0.0000
# 2 15.3687 65.8047 11.8687 0.0000 -6.8536 0.0000
# 3 16.4819 11.8687 39.1030 0.0000 -19.5560 0.0000
# 4 0.0000 0.0000 0.0000 20.1904 0.0000 0.5342
# 5 -11.0072 -6.8536 -19.5560 0.0000 20.5437 0.0000
# 6 0.0000 0.0000 0.0000 0.5342 0.0000 20.4446
#
#
#
# Elastic Compliance Matrix: (Units=1/GPa)
#
#
# Indices 1 2 3 4 5 6 
#
# 1 0.014235 -0.002321 -0.003566 0.000000 0.003458 0.000000
# 2 -0.002321 0.016475 -0.003618 0.000000 0.000809 0.000000
# 3 -0.003566 -0.003618 0.050800 0.000000 0.045240 0.000000
# 4 0.000000 0.000000 0.000000 0.049563 0.000000 -0.001295
# 5 0.003458 0.000809 0.045240 0.000000 0.093865 0.000000
# 6 0.000000 0.000000 0.000000 -0.001295 0.000000 0.048947
#
#
# Mechanical properties :
#
#
# Convention : Reuss Voigt Hill
#
# Bulk Modulus (GPa) = 15.99995 30.21173 23.10584
# Shear Modulus (GPa) = 15.93737 21.61890 18.77814
#
# Velocity S-wave (km/s) = 3.04377 3.54504 3.30393
# Velocity P-wave (km/s) = 4.65335 5.85822 5.29020
#
# Compressibility (1/GPa) = 0.06250019
#
# Stress axis : x y z
#
# Youngs Moduli (GPa) = 70.25026 60.69672 19.68499
#
# Poissons Ratio (x) = 0.14089 0.07020
# Poissons Ratio (y) = 0.16307 0.07122
# Poissons Ratio (z) = 0.25052 0.21959
#
# Static dielectric constant tensor:
#      x y z
#    x 1.636080 0.000000 -0.024170 
#    y 0.000000 1.585060 0.000000 
#    z -0.024170 0.000000 1.600950 
# 
# From -- ./inp_files/160321.got.cif
#   From: 2010.05.17/outbox.cif.g08.bks.cpg/sg12_81_cif.got.tgz:160321.got - 2010.06.03 13:09:07.
