data_PCOD9172937
_publ_section_title
;
Structure prediction by ZEFSAII (Michael W. Deem and Ramdas Pophale) SiO2 
 PCOD9172937
Probable space group: C 2/M
;
_chemical_formula_sum "Si O2"
_cell_formula_units_Z 64
_cell_length_a 30.424965
_cell_length_b 7.379392
_cell_length_c 12.154095
_cell_angle_alpha 90.000000
_cell_angle_beta 91.800278
_cell_angle_gamma 90.000000
_cell_volume 2727.463063
_symmetry_space_group_name_H-M "C 2/M"
_symmetry_group_IT_number 12
_symmetry_cell_setting 'monoclinic'
loop_
_space_group_symop_operation_xyz
x,y,z
-x,y,-z
-x,-y,-z
x,-y,z
1/2+x,1/2+y,z
1/2-x,1/2+y,-z
1/2-x,1/2-y,-z
1/2+x,1/2-y,z
loop_
_atom_site_type_symbol
_atom_site_label
_atom_site_fract_x
_atom_site_fract_y
_atom_site_fract_z
Si Si1 0.798530 0.714359 0.955427
Si Si2 0.395437 0.707611 0.981603
Si Si3 0.824015 0.782254 0.569334
Si Si4 0.006287 0.220891 0.373873
Si Si5 0.242174 0.712587 0.261123
Si Si6 0.074122 0.221962 0.787104
Si Si7 0.402471 0.721555 0.733035
Si Si8 0.664189 0.278313 0.679704
O O1 0.806056 0.500000 0.958990
O O2 0.843309 0.793653 0.007783
O O3 0.792099 0.787005 0.830327
O O4 0.750000 0.750000 0.000000
O O5 0.410154 0.500000 0.972428
O O6 0.399927 0.785993 0.859284
O O7 0.422512 0.784971 0.086273
O O8 0.777638 0.731983 0.619672
O O9 0.861723 0.716666 0.655411
O O10 0.832212 0.719672 0.446559
O O11 0.825870 0.000000 0.566770
O O12 0.052629 0.274126 0.324362
O O13 0.000000 0.279888 0.500000
O O14 0.967038 0.278601 0.289804
O O15 0.005608 0.000000 0.376215
O O16 0.245194 0.500000 0.236003
O O17 0.291356 0.785559 0.257162
O O18 0.119162 0.278327 0.731413
O O19 0.073750 0.000000 0.789173
O O20 0.400908 0.500000 0.734650
O O21 0.664775 0.500000 0.680765
#
# Coordination Sequence:
#
# PCOD9172937 Si02
#       8
#     8   8   8   8   8   8   8   8
#     4  11  22  35  53  75 103 140 180 219 258 307
#     4  10  19  33  51  73 106 140 173 215 263 313
#     4  10  18  30  49  71  99 131 164 207 254 302
#     4   9  16  27  45  73 107 138 172 214 264 319
#     4  10  20  33  48  70  99 130 168 209 251 305
#     4   9  17  29  47  71 102 139 172 210 264 315
#     4   9  17  28  45  71 102 135 170 213 260 306
#     4   9  17  29  45  67  96 131 168 206 254 305
#
# _framework density 23.465029000000001
#
# number of rings (size 3 to 8) (size 9 to 14) (size 15 to 20)
#    0.000    2.375    1.250    2.250    0.000    6.000 
#    0.000    2.500    0.000    0.750    0.000    2.625 
#    0.000    3.500    0.000    0.000    0.000    0.000 
#
# Total GULP energy -178825.146732 kJ/mol
# GULP energy per Si atom -5588.285835 kJ/mol
# Density = 2.341162 g / cm^3
# Si number density = 23.465029 Si / 1000 Ang^3
#
#
#
# Elastic Constant Matrix: (Units=GPa)
#
#
# Indices 1 2 3 4 5 6 
#
# 1 115.0230 -7.4298 26.6491 0.0000 8.3156 0.0000
# 2 -7.4298 87.1082 -4.8012 0.0000 4.1471 0.0000
# 3 26.6491 -4.8012 99.1002 0.0000 14.2576 0.0000
# 4 0.0000 0.0000 0.0000 -2.1244 0.0000 -5.2313
# 5 8.3156 4.1471 14.2576 0.0000 42.3284 0.0000
# 6 0.0000 0.0000 0.0000 -5.2313 0.0000 3.8654
#
#
#
# Elastic Compliance Matrix: (Units=1/GPa)
#
#
# Indices 1 2 3 4 5 6 
#
# 1 0.009360 0.000724 -0.002319 0.000000 -0.001128 0.000000
# 2 0.000724 0.011644 0.000582 0.000000 -0.001479 0.000000
# 3 -0.002319 0.000582 0.011230 0.000000 -0.003384 0.000000
# 4 0.000000 0.000000 0.000000 -0.108645 0.000000 -0.147038
# 5 -0.001128 -0.001479 -0.003384 0.000000 0.025131 0.000000
# 6 0.000000 0.000000 0.000000 -0.147038 0.000000 0.059710
#
#
# Mechanical properties :
#
#
# Convention : Reuss Voigt Hill
#
# Bulk Modulus (GPa) = 33.10453 36.67419 34.88936
# Shear Modulus (GPa) = 243.59954 27.93475 135.76715
#
# Velocity S-wave (km/s) = 10.19996 3.45408 7.61479
# Velocity P-wave (km/s) = 12.36356 5.61879 9.60282
#
# Compressibility (1/GPa) = 0.03020734
#
# Stress axis : x y z
#
# Youngs Moduli (GPa) = 106.84147 85.87921 89.05054
#
# Poissons Ratio (x) = -0.06219 0.20655
# Poissons Ratio (y) = -0.07737 -0.05185
# Poissons Ratio (z) = 0.24782 -0.05000
#
# Static dielectric constant tensor:
#      x y z
#    x 1.835770 0.000000 0.009300 
#    y 0.000000 1.945180 0.000000 
#    z 0.009300 0.000000 1.902210 
# 
# From -- ./inp_files/187626.got.cif
#   From: 2010.05.17/outbox.cif.g08.bks.cpg/sg12_94_cif.got.tgz:187626.got - 2010.06.03 13:09:07.
