data_PCOD9172172
_publ_section_title
;
Structure prediction by ZEFSAII (Michael W. Deem and Ramdas Pophale) SiO2 
 PCOD9172172
Probable space group: C 2/M
;
_chemical_formula_sum "Si O2"
_cell_formula_units_Z 56
_cell_length_a 20.320685
_cell_length_b 9.121510
_cell_length_c 19.547659
_cell_angle_alpha 90.000000
_cell_angle_beta 67.589065
_cell_angle_gamma 90.000000
_cell_volume 3349.609689
_symmetry_space_group_name_H-M "C 2/M"
_symmetry_group_IT_number 12
_symmetry_cell_setting 'monoclinic'
loop_
_space_group_symop_operation_xyz
x,y,z
-x,y,-z
-x,-y,-z
x,-y,z
1/2+x,1/2+y,z
1/2-x,1/2+y,-z
1/2-x,1/2-y,-z
1/2+x,1/2-y,z
loop_
_atom_site_type_symbol
_atom_site_label
_atom_site_fract_x
_atom_site_fract_y
_atom_site_fract_z
Si Si1 0.180072 0.175888 0.494702
Si Si2 0.388852 0.669398 0.342775
Si Si3 0.548033 0.671971 0.049037
Si Si4 0.226708 0.330253 0.347514
Si Si5 0.714632 0.173903 0.802334
Si Si6 0.943911 0.326606 0.193875
Si Si7 0.698612 0.175980 0.965670
O O1 0.250000 0.250000 0.500000
O O2 0.117877 0.208051 0.574327
O O3 0.177218 0.241352 0.419859
O O4 0.189010 0.000000 0.489164
O O5 0.411673 0.500000 0.327110
O O6 0.307484 0.676669 0.346274
O O7 0.434426 0.771745 0.275377
O O8 0.563475 0.500000 0.053730
O O9 0.503401 0.737849 0.129501
O O10 0.500000 0.685493 0.000000
O O11 0.619865 0.761655 0.008791
O O12 0.206183 0.500000 0.353311
O O13 0.234732 0.260416 0.269610
O O14 0.632468 0.201521 0.812704
O O15 0.722070 0.212777 0.878759
O O16 0.726588 0.000000 0.788990
O O17 0.957535 0.500000 0.185387
O O18 0.698790 0.000000 0.971913
O O19 0.750000 0.250000 0.000000
#
# Coordination Sequence:
#
# PCOD9172172 Si02
#       7
#     8   8   8   8   8   8   8
#     4   9  15  23  35  53  82 120 158 195 239 290
#     4   8  15  25  36  56  87 122 157 196 241 291
#     4  11  22  35  54  77 101 132 170 212 255 304
#     4   9  16  24  38  59  85 119 159 200 240 290
#     4   9  18  31  47  67  94 127 163 204 249 298
#     4  10  18  29  47  70  95 126 164 207 251 296
#     4  11  23  39  56  76 103 134 170 212 260 308
#
# _framework density 16.718367000000001
#
# number of rings (size 3 to 8) (size 9 to 14) (size 15 to 20)
#    0.000    2.429    1.429    3.000    0.000    6.286 
#    0.000    0.000    0.000    0.000    0.000    0.000 
#    0.000    1.143    0.000   12.000    0.000    8.571 
#
# Total GULP energy -156044.577025 kJ/mol
# GULP energy per Si atom -5573.020608 kJ/mol
# Density = 1.668031 g / cm^3
# Si number density = 16.718367 Si / 1000 Ang^3
#
#
#
# Elastic Constant Matrix: (Units=GPa)
#
#
# Indices 1 2 3 4 5 6 
#
# 1 32.4043 29.2632 33.6895 0.0000 10.2658 0.0000
# 2 29.2632 86.4353 86.5416 0.0000 12.2134 -0.0001
# 3 33.6895 86.5416 172.7027 0.0000 21.7880 0.0000
# 4 0.0000 0.0000 0.0000 35.5098 0.0000 -0.0396
# 5 10.2658 12.2134 21.7880 0.0000 10.0909 0.0000
# 6 0.0000 -0.0001 0.0000 -0.0396 0.0000 16.3975
#
#
#
# Elastic Compliance Matrix: (Units=1/GPa)
#
#
# Indices 1 2 3 4 5 6 
#
# 1 0.055827 -0.014751 0.001944 0.000000 -0.043138 0.000000
# 2 -0.014751 0.027240 -0.011691 0.000000 0.007280 0.000000
# 3 0.001944 -0.011691 0.013378 0.000000 -0.016713 0.000000
# 4 0.000000 0.000000 0.000000 0.028161 0.000000 0.000068
# 5 -0.043138 0.007280 -0.016713 0.000000 0.170259 0.000000
# 6 0.000000 0.000000 0.000000 0.000068 0.000000 0.060985
#
#
# Mechanical properties :
#
#
# Convention : Reuss Voigt Hill
#
# Bulk Modulus (GPa) = 21.07566 65.61454 43.34510
# Shear Modulus (GPa) = 11.88598 21.86949 16.87773
#
# Velocity S-wave (km/s) = 2.66926 3.62071 3.18076
# Velocity P-wave (km/s) = 4.70464 7.53734 6.28272
#
# Compressibility (1/GPa) = 0.04744809
#
# Stress axis : x y z
#
# Youngs Moduli (GPa) = 17.91250 36.71048 74.74992
#
# Poissons Ratio (x) = 0.54153 -0.14531
# Poissons Ratio (y) = 0.26423 0.87390
# Poissons Ratio (z) = -0.03482 0.42918
#
# Static dielectric constant tensor:
#      x y z
#    x 1.542210 0.000000 0.015860 
#    y 0.000000 1.554170 0.000000 
#    z 0.015860 0.000000 1.585550 
# 
# From -- ./inp_files/313724.got.cif
#   From: 2010.05.17/outbox.cif.g08.bks.cpg/sg12_157_cif.got.tgz:313724.got - 2010.06.03 13:09:07.
