data_PCOD9172318
_publ_section_title
;
Structure prediction by ZEFSAII (Michael W. Deem and Ramdas Pophale) SiO2 
 PCOD9172318
Probable space group: C 2/M
;
_chemical_formula_sum "Si O2"
_cell_formula_units_Z 64
_cell_length_a 5.627896
_cell_length_b 23.874387
_cell_length_c 19.092165
_cell_angle_alpha 90.000000
_cell_angle_beta 105.137874
_cell_angle_gamma 90.000000
_cell_volume 2476.257916
_symmetry_space_group_name_H-M "C 2/M"
_symmetry_group_IT_number 12
_symmetry_cell_setting 'monoclinic'
loop_
_space_group_symop_operation_xyz
x,y,z
-x,y,-z
-x,-y,-z
x,-y,z
1/2+x,1/2+y,z
1/2-x,1/2+y,-z
1/2-x,1/2-y,-z
1/2+x,1/2-y,z
loop_
_atom_site_type_symbol
_atom_site_label
_atom_site_fract_x
_atom_site_fract_y
_atom_site_fract_z
Si Si1 0.269568 0.564022 0.387079
Si Si2 0.872600 0.862252 0.752164
Si Si3 0.395274 0.232011 0.418099
Si Si4 0.548908 0.401519 0.909498
Si Si5 0.031249 0.563283 0.889514
Si Si6 0.873531 0.353580 0.751909
Si Si7 0.289612 0.101310 0.407713
Si Si8 0.161412 0.770866 0.917302
O O1 0.256480 0.500000 0.361955
O O2 0.197728 0.607426 0.319911
O O3 0.551950 0.577307 0.428268
O O4 0.057327 0.573205 0.428823
O O5 0.633563 0.826134 0.753191
O O6 0.799371 0.899922 0.680488
O O7 0.942260 0.902912 0.821337
O O8 0.113947 0.826524 0.752194
O O9 0.500000 0.255754 0.500000
O O10 0.631623 0.238559 0.385342
O O11 0.329972 0.167131 0.423849
O O12 0.306668 0.418866 0.934221
O O13 0.610069 0.336273 0.922161
O O14 0.806370 0.433769 0.927150
O O15 0.049092 0.500000 0.864445
O O16 0.946369 0.606686 0.823017
O O17 0.396061 0.758567 0.885412
O O18 0.250000 0.750000 0.000000
#
# Coordination Sequence:
#
# PCOD9172318 Si02
#       8
#     8   8   8   8   8   8   8   8
#     4  10  18  29  48  74 105 142 176 205 241 297
#     4   8  16  28  45  71 104 138 165 200 254 302
#     4  10  21  38  59  78  94 122 172 226 270 312
#     4  10  19  33  51  77 111 137 169 216 249 296
#     4  10  18  29  48  77 111 146 171 197 251 309
#     4   8  15  26  42  67 102 142 180 204 227 285
#     4  10  19  33  51  74 105 136 170 211 256 305
#     4  10  21  38  59  81  97 126 177 222 258 293
#
# _framework density 25.845452000000002
#
# number of rings (size 3 to 8) (size 9 to 14) (size 15 to 20)
#    0.000    2.500    0.000    2.625    0.000    0.000 
#    0.000    8.750    0.000    2.250    0.000   35.000 
#    0.000    0.000    0.000    0.000    0.000    0.000 
#
# Total GULP energy -178709.636841 kJ/mol
# GULP energy per Si atom -5584.676151 kJ/mol
# Density = 2.578663 g / cm^3
# Si number density = 25.845452 Si / 1000 Ang^3
#
#
#
# Elastic Constant Matrix: (Units=GPa)
#
#
# Indices 1 2 3 4 5 6 
#
# 1 338.6937 30.1965 34.4144 0.0000 32.1413 0.0000
# 2 30.1965 91.5663 5.5346 0.0000 13.5298 0.0000
# 3 34.4144 5.5346 80.0510 0.0000 8.8655 0.0000
# 4 0.0000 0.0000 0.0000 102.0456 0.0000 9.0380
# 5 32.1413 13.5298 8.8655 0.0000 37.3060 0.0000
# 6 0.0000 0.0000 0.0000 9.0380 0.0000 35.0270
#
#
#
# Elastic Compliance Matrix: (Units=1/GPa)
#
#
# Indices 1 2 3 4 5 6 
#
# 1 0.003354 -0.000687 -0.001132 0.000000 -0.002371 0.000000
# 2 -0.000687 0.011689 -0.000112 0.000000 -0.003621 0.000000
# 3 -0.001132 -0.000112 0.013222 0.000000 -0.002127 0.000000
# 4 0.000000 0.000000 0.000000 0.010029 0.000000 -0.002588
# 5 -0.002371 -0.003621 -0.002127 0.000000 0.030667 0.000000
# 6 0.000000 0.000000 0.000000 -0.002588 0.000000 0.029217
#
#
# Mechanical properties :
#
#
# Convention : Reuss Voigt Hill
#
# Bulk Modulus (GPa) = 40.97738 72.28911 56.63325
# Shear Modulus (GPa) = 45.38291 64.22009 54.80150
#
# Velocity S-wave (km/s) = 4.19493 4.99016 4.60973
# Velocity P-wave (km/s) = 6.27316 7.82513 7.09173
#
# Compressibility (1/GPa) = 0.02440370
#
# Stress axis : x y z
#
# Youngs Moduli (GPa) = 298.16797 85.54738 75.63276
#
# Poissons Ratio (x) = 0.05879 0.08559
# Poissons Ratio (y) = 0.20491 0.00845
# Poissons Ratio (z) = 0.33743 0.00956
#
# Static dielectric constant tensor:
#      x y z
#    x 2.146040 0.000000 -0.034280 
#    y 0.000000 1.898560 0.000000 
#    z -0.034280 0.000000 2.128060 
# 
# From -- ./inp_files/331450.got.cif
#   From: 2010.05.17/outbox.cif.g08.bks.cpg/sg12_166_cif.got.tgz:331450.got - 2010.06.03 13:09:07.
