data_PCOD9172113
_publ_section_title
;
Structure prediction by ZEFSAII (Michael W. Deem and Ramdas Pophale) SiO2 
 PCOD9172113
Probable space group: C 2/M
;
_chemical_formula_sum "Si O2"
_cell_formula_units_Z 40
_cell_length_a 16.712041
_cell_length_b 19.590378
_cell_length_c 17.546129
_cell_angle_alpha 90.000000
_cell_angle_beta 24.004186
_cell_angle_gamma 90.000000
_cell_volume 2336.889539
_symmetry_space_group_name_H-M "C 2/M"
_symmetry_group_IT_number 12
_symmetry_cell_setting 'monoclinic'
loop_
_space_group_symop_operation_xyz
x,y,z
-x,y,-z
-x,-y,-z
x,-y,z
1/2+x,1/2+y,z
1/2-x,1/2+y,-z
1/2-x,1/2-y,-z
1/2+x,1/2-y,z
loop_
_atom_site_type_symbol
_atom_site_label
_atom_site_fract_x
_atom_site_fract_y
_atom_site_fract_z
Si Si1 0.579674 0.076552 0.616368
Si Si2 0.435019 0.783328 0.295666
Si Si3 0.448188 0.576712 0.185574
Si Si4 0.843238 0.786571 0.017133
Si Si5 0.178421 0.358644 0.292485
O O1 0.576044 0.135619 0.682275
O O2 0.792118 0.078447 0.390110
O O3 0.428236 0.096736 0.680240
O O4 0.541646 0.000000 0.676424
O O5 0.250000 0.750000 0.500000
O O6 0.479098 0.758553 0.171279
O O7 0.634866 0.761354 0.165692
O O8 0.527018 0.500000 0.109722
O O9 0.603121 0.637306 0.060332
O O10 0.322179 0.596806 0.219930
O O11 0.797935 0.799979 0.145044
O O12 0.000000 0.332202 0.500000
#
# Coordination Sequence:
#
# PCOD9172113 Si02
#       5
#     8   8   8   8   8
#     4   9  17  30  49  70  96 133 165 194 236 279
#     4  10  19  34  48  62  91 126 167 207 235 271
#     4  10  18  29  46  72 104 133 160 191 227 282
#     4  10  20  30  47  67  88 132 168 194 237 272
#     4   9  18  30  45  70 104 133 160 194 225 282
#
# _framework density 17.116769000000001
#
# number of rings (size 3 to 8) (size 9 to 14) (size 15 to 20)
#    0.000    2.400    2.000    1.200    0.000    7.200 
#    0.000    0.000    0.000    0.000    0.000    0.000 
#    0.000    4.000    0.000    5.800    0.000    3.800 
#
# Total GULP energy -111381.033530 kJ/mol
# GULP energy per Si atom -5569.051677 kJ/mol
# Density = 1.707781 g / cm^3
# Si number density = 17.116769 Si / 1000 Ang^3
#
#
#
# Elastic Constant Matrix: (Units=GPa)
#
#
# Indices 1 2 3 4 5 6 
#
# 1 21.2516 35.4373 23.8104 0.0097 6.0622 0.0049
# 2 35.4373 105.8037 55.6133 0.0178 24.5626 0.0051
# 3 23.8104 55.6133 123.1461 0.0266 11.3937 -0.0041
# 4 0.0097 0.0178 0.0266 28.2839 -0.0075 6.1183
# 5 6.0622 24.5626 11.3937 -0.0075 33.6200 -0.0039
# 6 0.0049 0.0051 -0.0041 6.1183 -0.0039 15.9213
#
#
#
# Elastic Compliance Matrix: (Units=1/GPa)
#
#
# Indices 1 2 3 4 5 6 
#
# 1 0.111844 -0.036223 -0.006038 -0.000003 0.008344 -0.000021
# 2 -0.036223 0.026201 -0.003781 -0.000004 -0.011330 0.000000
# 3 -0.006038 -0.003781 0.010983 -0.000008 0.000129 0.000009
# 4 -0.000003 -0.000004 -0.000008 0.038561 0.000013 -0.014819
# 5 0.008344 -0.011330 0.000129 0.000013 0.036474 0.000005
# 6 -0.000021 0.000000 0.000009 -0.014819 0.000005 0.068503
#
#
# Mechanical properties :
#
#
# Convention : Reuss Voigt Hill
#
# Bulk Modulus (GPa) = 17.56124 53.32481 35.44303
# Shear Modulus (GPa) = 12.38751 24.58773 18.48762
#
# Velocity S-wave (km/s) = 2.69310 3.79419 3.29003
# Velocity P-wave (km/s) = 4.46680 7.10040 5.93161
#
# Compressibility (1/GPa) = 0.05694359
#
# Stress axis : x y z
#
# Youngs Moduli (GPa) = 8.94106 38.16598 91.04667
#
# Poissons Ratio (x) = 1.38250 0.54977
# Poissons Ratio (y) = 0.32388 0.34421
# Poissons Ratio (z) = 0.05399 0.14429
#
# Static dielectric constant tensor:
#      x y z
#    x 1.620350 -0.000010 -0.003480 
#    y -0.000010 1.593380 0.000010 
#    z -0.003480 0.000010 1.668760 
# 
# From -- ./inp_files/112166.got.cif
#   From: 2010.05.17/outbox.cif.g08.bks.cpg/sg12_57_cif.got.tgz:112166.got - 2010.06.03 13:09:07.
