data_PCOD9172039
_publ_section_title
;
Structure prediction by ZEFSAII (Michael W. Deem and Ramdas Pophale) SiO2 
 PCOD9172039
Probable space group: C 2/M
;
_chemical_formula_sum "Si O2"
_cell_formula_units_Z 64
_cell_length_a 28.202849
_cell_length_b 8.660237
_cell_length_c 24.809230
_cell_angle_alpha 90.000000
_cell_angle_beta 44.071512
_cell_angle_gamma 90.000000
_cell_volume 4214.712240
_symmetry_space_group_name_H-M "C 2/M"
_symmetry_group_IT_number 12
_symmetry_cell_setting 'monoclinic'
loop_
_space_group_symop_operation_xyz
x,y,z
-x,y,-z
-x,-y,-z
x,-y,z
1/2+x,1/2+y,z
1/2-x,1/2+y,-z
1/2-x,1/2-y,-z
1/2+x,1/2-y,z
loop_
_atom_site_type_symbol
_atom_site_label
_atom_site_fract_x
_atom_site_fract_y
_atom_site_fract_z
Si Si1 0.932514 0.687335 0.025489
Si Si2 0.561586 0.321816 0.493453
Si Si3 0.744996 0.816529 0.089726
Si Si4 0.718437 0.184767 0.824362
Si Si5 0.598969 0.684298 0.178515
Si Si6 0.951030 0.187250 0.663957
Si Si7 0.658964 0.182329 0.331192
Si Si8 0.389610 0.184987 0.941677
O O1 0.935997 0.500000 0.022186
O O2 0.861501 0.726381 0.113364
O O3 0.924779 0.734713 0.969183
O O4 0.000000 0.745931 0.000000
O O5 0.500000 0.320159 0.500000
O O6 0.445980 0.500000 0.663667
O O7 0.523624 0.267424 0.578601
O O8 0.621750 0.225606 0.417428
O O9 0.753802 0.769014 0.144908
O O10 0.676674 0.737598 0.124500
O O11 0.740148 0.000000 0.087463
O O12 0.813267 0.753690 0.005979
O O13 0.768229 0.236455 0.736186
O O14 0.723288 0.000000 0.828386
O O15 0.596391 0.500000 0.176191
O O16 0.559376 0.730692 0.265415
O O17 0.575525 0.758275 0.141521
O O18 0.891173 0.256322 0.675479
O O19 0.083275 0.000000 0.481791
O O20 0.666160 0.000000 0.320051
O O21 0.384692 0.000000 0.945782
#
# Coordination Sequence:
#
# PCOD9172039 Si02
#       8
#     8   8   8   8   8   8   8   8
#     4   8  16  32  52  69  84 107 142 183 224 264
#     4   8  15  28  42  56  78 113 152 185 217 254
#     4  11  20  30  43  61  86 115 149 184 217 253
#     4  10  18  29  46  66  88 115 146 181 221 264
#     4  11  20  30  44  61  87 119 151 182 212 253
#     4   9  18  30  43  57  81 119 155 184 217 253
#     4  11  19  26  40  62  88 116 148 185 216 254
#     4  10  20  32  46  64  86 112 143 180 220 261
#
# _framework density 15.184904
#
# number of rings (size 3 to 8) (size 9 to 14) (size 15 to 20)
#    0.000    2.250    1.250    5.250    0.000    2.750 
#    0.000    0.000    0.000   13.500    0.000    0.000 
#    0.000    1.000    0.000    2.000    0.000    2.750 
#
# Total GULP energy -178374.818339 kJ/mol
# GULP energy per Si atom -5574.213073 kJ/mol
# Density = 1.515034 g / cm^3
# Si number density = 15.184904 Si / 1000 Ang^3
#
#
#
# Elastic Constant Matrix: (Units=GPa)
#
#
# Indices 1 2 3 4 5 6 
#
# 1 51.7366 3.1581 46.8185 -0.0012 -3.3013 0.0016
# 2 3.1581 28.1642 22.1624 -0.0023 0.8149 0.0137
# 3 46.8185 22.1624 126.5275 -0.0008 9.9639 0.0039
# 4 -0.0012 -0.0023 -0.0008 18.3140 0.0004 7.1705
# 5 -3.3013 0.8149 9.9639 0.0004 13.3189 -0.0020
# 6 0.0016 0.0137 0.0039 7.1705 -0.0020 7.4710
#
#
#
# Elastic Compliance Matrix: (Units=1/GPa)
#
#
# Indices 1 2 3 4 5 6 
#
# 1 0.034201 0.007855 -0.015579 0.000008 0.019651 -0.000016
# 2 0.007855 0.043104 -0.011053 0.000054 0.007579 -0.000125
# 3 -0.015579 -0.011053 0.016847 -0.000009 -0.015789 0.000019
# 4 0.000008 0.000054 -0.000009 0.087474 -0.000010 -0.083955
# 5 0.019651 0.007579 -0.015789 -0.000010 0.091300 0.000025
# 6 -0.000016 -0.000125 0.000019 -0.083955 0.000025 0.214429
#
#
# Mechanical properties :
#
#
# Convention : Reuss Voigt Hill
#
# Bulk Modulus (GPa) = 17.66836 38.96737 28.31786
# Shear Modulus (GPa) = 9.19499 16.77340 12.98419
#
# Velocity S-wave (km/s) = 2.46343 3.32717 2.92733
# Velocity P-wave (km/s) = 4.44433 6.36221 5.48770
#
# Compressibility (1/GPa) = 0.05659836
#
# Stress axis : x y z
#
# Youngs Moduli (GPa) = 29.23913 23.19970 59.35656
#
# Poissons Ratio (x) = -0.18224 0.92469
# Poissons Ratio (y) = -0.22968 0.65610
# Poissons Ratio (z) = 0.45550 0.25644
#
# Static dielectric constant tensor:
#      x y z
#    x 1.480030 0.000000 0.015760 
#    y 0.000000 1.508670 0.000000 
#    z 0.015760 0.000000 1.558870 
# 
# From -- ./inp_files/350914.got.cif
#   From: 2010.05.17/outbox.cif.g08.bks.cpg/sg12_176_cif.got.tgz:350914.got - 2010.06.03 13:09:07.
