data_PCOD9172721
_publ_section_title
;
Structure prediction by ZEFSAII (Michael W. Deem and Ramdas Pophale) SiO2 
 PCOD9172721
Probable space group: C 2/M
;
_chemical_formula_sum "Si O2"
_cell_formula_units_Z 40
_cell_length_a 13.608656
_cell_length_b 23.528699
_cell_length_c 11.495572
_cell_angle_alpha 90.000000
_cell_angle_beta 32.222990
_cell_angle_gamma 90.000000
_cell_volume 1962.667453
_symmetry_space_group_name_H-M "C 2/M"
_symmetry_group_IT_number 12
_symmetry_cell_setting 'monoclinic'
loop_
_space_group_symop_operation_xyz
x,y,z
-x,y,-z
-x,-y,-z
x,-y,z
1/2+x,1/2+y,z
1/2-x,1/2+y,-z
1/2-x,1/2-y,-z
1/2+x,1/2-y,z
loop_
_atom_site_type_symbol
_atom_site_label
_atom_site_fract_x
_atom_site_fract_y
_atom_site_fract_z
Si Si1 0.456339 0.743514 0.393591
Si Si2 0.737187 0.151089 0.499839
Si Si3 0.147172 0.764956 0.948004
Si Si4 0.084189 0.897540 0.033390
Si Si5 0.973133 0.435619 0.664843
O O1 0.330456 0.799900 0.523396
O O2 0.323180 0.689023 0.517240
O O3 0.645730 0.741355 0.277074
O O4 0.554712 0.749458 0.165408
O O5 0.570155 0.107050 0.657904
O O6 0.911116 0.113719 0.287542
O O7 0.159566 0.833590 0.933139
O O8 0.000000 0.746145 0.000000
O O9 0.255660 0.932634 0.905187
O O10 0.000000 0.922267 0.000000
O O11 0.042930 0.500000 0.605753
O O12 0.000000 0.419086 0.500000
#
# Coordination Sequence:
#
# PCOD9172721 Si02
#       5
#     8   8   8   8   8
#     4   9  18  31  50  77 103 139 175 212 262 315
#     4  10  19  32  48  69 102 135 171 219 256 297
#     4   9  17  30  51  76 105 138 169 208 260 316
#     4  10  18  30  47  67  96 140 178 209 247 305
#     4  11  22  33  48  71 103 142 186 220 251 306
#
# _framework density 20.380427000000001
#
# number of rings (size 3 to 8) (size 9 to 14) (size 15 to 20)
#    0.000    2.200    4.000    0.000    0.000    1.200 
#    0.000    3.000    0.000    0.000    0.000    0.000 
#    0.000    4.800    0.000    0.000    0.000    0.000 
#
# Total GULP energy -111460.711943 kJ/mol
# GULP energy per Si atom -5573.035597 kJ/mol
# Density = 2.033404 g / cm^3
# Si number density = 20.380427 Si / 1000 Ang^3
#
#
#
# Elastic Constant Matrix: (Units=GPa)
#
#
# Indices 1 2 3 4 5 6 
#
# 1 66.6006 18.7409 10.0125 0.0000 -40.8208 0.0000
# 2 18.7409 61.5852 13.5721 0.0000 -20.7531 0.0000
# 3 10.0125 13.5721 85.8504 0.0001 -35.6052 0.0001
# 4 0.0000 0.0000 0.0001 19.5951 0.0000 -9.7623
# 5 -40.8208 -20.7531 -35.6052 0.0000 43.5158 0.0000
# 6 0.0000 0.0000 0.0001 -9.7623 0.0000 15.9374
#
#
#
# Elastic Compliance Matrix: (Units=1/GPa)
#
#
# Indices 1 2 3 4 5 6 
#
# 1 0.053834 0.002230 0.022332 0.000000 0.069836 0.000000
# 2 0.002230 0.019516 0.002092 0.000000 0.013111 0.000000
# 3 0.022332 0.002092 0.026966 0.000000 0.044011 0.000000
# 4 0.000000 0.000000 0.000000 0.073447 0.000000 0.044989
# 5 0.069836 0.013111 0.044011 0.000000 0.130753 0.000000
# 6 0.000000 0.000000 0.000000 0.044989 0.000000 0.090303
#
#
# Mechanical properties :
#
#
# Convention : Reuss Voigt Hill
#
# Bulk Modulus (GPa) = 6.50939 33.18747 19.84843
# Shear Modulus (GPa) = 12.73180 27.25705 19.99442
#
# Velocity S-wave (km/s) = 2.50213 3.66103 3.13559
# Velocity P-wave (km/s) = 3.39829 5.84724 4.78219
#
# Compressibility (1/GPa) = 0.15362415
#
# Stress axis : x y z
#
# Youngs Moduli (GPa) = 18.57575 51.23939 37.08426
#
# Poissons Ratio (x) = -0.11425 -0.82818
# Poissons Ratio (y) = -0.04142 -0.07759
# Poissons Ratio (z) = -0.41484 -0.10721
#
# Static dielectric constant tensor:
#      x y z
#    x 1.835960 0.000000 0.046210 
#    y 0.000000 1.708910 0.000000 
#    z 0.046210 0.000000 1.820630 
# 
# From -- ./inp_files/217328.got.cif
#   From: 2010.05.17/outbox.cif.g08.bks.cpg/sg12_109_cif.got.tgz:217328.got - 2010.06.03 13:09:07.
