data_PCOD9172042
_publ_section_title
;
Structure prediction by ZEFSAII (Michael W. Deem and Ramdas Pophale) SiO2 
 PCOD9172042
Probable space group: C 2/M
;
_chemical_formula_sum "Si O2"
_cell_formula_units_Z 56
_cell_length_a 24.123839
_cell_length_b 7.829792
_cell_length_c 19.179533
_cell_angle_alpha 90.000000
_cell_angle_beta 53.465231
_cell_angle_gamma 90.000000
_cell_volume 2910.839510
_symmetry_space_group_name_H-M "C 2/M"
_symmetry_group_IT_number 12
_symmetry_cell_setting 'monoclinic'
loop_
_space_group_symop_operation_xyz
x,y,z
-x,y,-z
-x,-y,-z
x,-y,z
1/2+x,1/2+y,z
1/2-x,1/2+y,-z
1/2-x,1/2-y,-z
1/2+x,1/2-y,z
loop_
_atom_site_type_symbol
_atom_site_label
_atom_site_fract_x
_atom_site_fract_y
_atom_site_fract_z
Si Si1 0.211486 0.304358 0.127049
Si Si2 0.786492 0.792445 0.711786
Si Si3 0.500156 0.199939 0.153863
Si Si4 0.562595 0.291203 0.405159
Si Si5 0.939248 0.802635 0.753384
Si Si6 0.637715 0.208282 0.814142
Si Si7 0.362675 0.205889 0.022666
O O1 0.199392 0.500000 0.118049
O O2 0.215486 0.276556 0.207782
O O3 0.140587 0.209850 0.161829
O O4 0.288512 0.255097 0.045862
O O5 0.860781 0.741485 0.626185
O O6 0.714238 0.739291 0.731579
O O7 0.786385 0.000000 0.717171
O O8 0.512107 0.214339 0.227068
O O9 0.428224 0.271916 0.179154
O O10 0.499545 0.000000 0.135163
O O11 0.569252 0.273426 0.066534
O O12 0.500000 0.231764 0.500000
O O13 0.560988 0.500000 0.405680
O O14 0.556502 0.235184 0.328967
O O15 0.958673 0.000000 0.736842
O O16 0.632594 0.257342 0.899514
O O17 0.637081 0.000000 0.812556
O O18 0.363204 0.000000 0.020756
#
# Coordination Sequence:
#
# PCOD9172042 Si02
#       7
#     8   8   8   8   8   8   8
#     4  10  18  29  46  66  90 119 151 189 229 270
#     4   8  14  27  48  71  93 117 147 185 225 264
#     4  10  19  30  46  66  90 122 157 192 225 261
#     4   8  14  27  50  75  91 108 143 187 225 267
#     4  10  20  33  47  65  92 121 148 183 229 278
#     4   8  14  27  47  68  89 118 157 192 220 254
#     4   9  17  30  47  66  88 118 158 197 227 256
#
# _framework density 19.238436
#
# number of rings (size 3 to 8) (size 9 to 14) (size 15 to 20)
#    0.000    3.000    0.000    3.857    0.000    2.857 
#    0.000    2.857    0.000   15.857    0.000    0.000 
#    0.000    0.000    0.000    0.000    0.000    0.571 
#
# Total GULP energy -155990.134826 kJ/mol
# GULP energy per Si atom -5571.076244 kJ/mol
# Density = 1.919465 g / cm^3
# Si number density = 19.238436 Si / 1000 Ang^3
#
#
#
# Elastic Constant Matrix: (Units=GPa)
#
#
# Indices 1 2 3 4 5 6 
#
# 1 143.4514 -4.3644 65.2070 -0.0008 -24.3291 0.0002
# 2 -4.3644 21.4736 0.6927 -0.0006 -3.5250 0.0002
# 3 65.2070 0.6927 119.5855 -0.0007 -31.1126 0.0001
# 4 -0.0008 -0.0006 -0.0007 5.9120 0.0002 2.9188
# 5 -24.3291 -3.5250 -31.1126 0.0002 21.7287 0.0003
# 6 0.0002 0.0002 0.0001 2.9188 0.0003 15.2447
#
#
#
# Elastic Compliance Matrix: (Units=1/GPa)
#
#
# Indices 1 2 3 4 5 6 
#
# 1 0.009819 0.003114 -0.003794 0.000001 0.006068 0.000000
# 2 0.003114 0.049416 0.001607 0.000006 0.013805 -0.000002
# 3 -0.003794 0.001607 0.014956 0.000001 0.017428 -0.000001
# 4 0.000001 0.000006 0.000001 0.186805 0.000003 -0.035766
# 5 0.006068 0.013805 0.017428 0.000003 0.080009 -0.000002
# 6 0.000000 -0.000002 -0.000001 -0.035766 -0.000002 0.072445
#
#
# Mechanical properties :
#
#
# Convention : Reuss Voigt Hill
#
# Bulk Modulus (GPa) = 13.14982 45.28677 29.21830
# Shear Modulus (GPa) = 11.44314 23.44208 17.44261
#
# Velocity S-wave (km/s) = 2.44151 3.49449 3.01434
# Velocity P-wave (km/s) = 3.84681 6.31449 5.22833
#
# Compressibility (1/GPa) = 0.07604666
#
# Stress axis : x y z
#
# Youngs Moduli (GPa) = 101.84102 20.23631 66.86456
#
# Poissons Ratio (x) = -0.06302 0.25366
# Poissons Ratio (y) = -0.31715 -0.10747
# Poissons Ratio (z) = 0.38634 -0.03253
#
# Static dielectric constant tensor:
#      x y z
#    x 1.690460 0.000000 -0.028500 
#    y 0.000000 1.688190 0.000000 
#    z -0.028500 0.000000 1.688550 
# 
# From -- ./inp_files/295112.got.cif
#   From: 2010.05.17/outbox.cif.g08.bks.cpg/sg12_148_cif.got.tgz:295112.got - 2010.06.03 13:09:07.
