data_PCOD9172405
_publ_section_title
;
Structure prediction by ZEFSAII (Michael W. Deem and Ramdas Pophale) SiO2 
 PCOD9172405
Probable space group: C 2/M
;
_chemical_formula_sum "Si O2"
_cell_formula_units_Z 56
_cell_length_a 24.933553
_cell_length_b 10.722105
_cell_length_c 18.683386
_cell_angle_alpha 90.000000
_cell_angle_beta 140.873362
_cell_angle_gamma 90.000000
_cell_volume 3151.913707
_symmetry_space_group_name_H-M "C 2/M"
_symmetry_group_IT_number 12
_symmetry_cell_setting 'monoclinic'
loop_
_space_group_symop_operation_xyz
x,y,z
-x,y,-z
-x,-y,-z
x,-y,z
1/2+x,1/2+y,z
1/2-x,1/2+y,-z
1/2-x,1/2-y,-z
1/2+x,1/2-y,z
loop_
_atom_site_type_symbol
_atom_site_label
_atom_site_fract_x
_atom_site_fract_y
_atom_site_fract_z
Si Si1 0.329362 0.861603 0.004936
Si Si2 0.182855 0.859768 0.610648
Si Si3 0.704359 0.147430 0.402090
Si Si4 0.994231 0.136854 0.651990
Si Si5 0.785623 0.366502 0.128979
Si Si6 0.508321 0.857060 0.237823
Si Si7 0.916071 0.719074 0.373564
O O1 0.313753 0.857535 0.075068
O O2 0.430529 0.846206 0.101712
O O3 0.303716 0.000000 0.953747
O O4 0.273859 0.750840 0.916019
O O5 0.263643 0.828878 0.645624
O O6 0.151910 0.764920 0.638690
O O7 0.103844 0.862795 0.473236
O O8 0.191938 0.000000 0.649614
O O9 0.750000 0.250000 0.500000
O O10 0.602995 0.158495 0.305479
O O11 0.726071 0.000000 0.440939
O O12 0.006004 0.249581 0.718712
O O13 0.047319 0.165414 0.635132
O O14 0.016912 0.000000 0.704161
O O15 0.741352 0.500000 0.091646
O O16 0.866608 0.362090 0.264574
O O17 0.502918 0.000000 0.261285
O O18 0.000000 0.665716 0.500000
#
# Coordination Sequence:
#
# PCOD9172405 Si02
#       7
#     8   8   8   8   8   8   8
#     4   9  19  35  53  75 105 140 176 218 265 310
#     4   9  18  32  47  72 107 141 177 214 253 309
#     4  10  19  32  52  75 104 140 177 221 265 309
#     4  10  18  29  49  75 104 139 175 210 254 308
#     4  10  20  35  53  78 108 137 175 218 263 317
#     4  10  19  32  51  76 106 136 170 216 267 312
#     4  10  20  33  51  78 112 144 172 209 265 318
#
# _framework density 17.766984000000001
#
# number of rings (size 3 to 8) (size 9 to 14) (size 15 to 20)
#    0.000    2.286    2.857    0.429    0.000    3.714 
#    0.000    2.857    0.000    0.857    0.000    5.000 
#    0.000    0.000    0.000    0.000    0.000    0.000 
#
# Total GULP energy -155940.211146 kJ/mol
# GULP energy per Si atom -5569.293255 kJ/mol
# Density = 1.772655 g / cm^3
# Si number density = 17.766984 Si / 1000 Ang^3
#
#
#
# Elastic Constant Matrix: (Units=GPa)
#
#
# Indices 1 2 3 4 5 6 
#
# 1 76.7962 37.9926 15.6342 0.0000 13.5853 0.0000
# 2 37.9926 109.7465 48.9788 0.0000 13.2916 0.0000
# 3 15.6342 48.9788 64.6001 0.0000 9.8366 0.0000
# 4 0.0000 0.0000 0.0000 16.5230 0.0000 6.4149
# 5 13.5853 13.2916 9.8366 0.0000 22.7406 0.0000
# 6 0.0000 0.0000 0.0000 6.4149 0.0000 9.5226
#
#
#
# Elastic Compliance Matrix: (Units=1/GPa)
#
#
# Indices 1 2 3 4 5 6 
#
# 1 0.016775 -0.005448 0.001190 0.000000 -0.007352 0.000000
# 2 -0.005448 0.015852 -0.010475 0.000000 -0.001480 0.000000
# 3 0.001190 -0.010475 0.023883 0.000000 -0.004919 0.000000
# 4 0.000000 0.000000 0.000000 0.081957 0.000000 -0.055211
# 5 -0.007352 -0.001480 -0.004919 0.000000 0.051359 0.000000
# 6 0.000000 0.000000 0.000000 -0.055211 0.000000 0.142207
#
#
# Mechanical properties :
#
#
# Convention : Reuss Voigt Hill
#
# Bulk Modulus (GPa) = 36.97621 50.70600 43.84110
# Shear Modulus (GPa) = 13.49480 19.65970 16.57725
#
# Velocity S-wave (km/s) = 2.75897 3.33006 3.05788
# Velocity P-wave (km/s) = 5.56832 6.58689 6.09891
#
# Compressibility (1/GPa) = 0.02704442
#
# Stress axis : x y z
#
# Youngs Moduli (GPa) = 59.61251 63.08340 41.87113
#
# Poissons Ratio (x) = 0.34368 -0.04984
# Poissons Ratio (y) = 0.32477 0.43860
# Poissons Ratio (z) = -0.07096 0.66080
#
# Static dielectric constant tensor:
#      x y z
#    x 1.613930 0.000000 0.014560 
#    y 0.000000 1.641010 0.000000 
#    z 0.014560 0.000000 1.619060 
# 
# From -- ./inp_files/289184.got.cif
#   From: 2010.05.17/outbox.cif.g08.bks.cpg/sg12_145_cif.got.tgz:289184.got - 2010.06.03 13:09:07.
