data_PCOD9172368
_publ_section_title
;
Structure prediction by ZEFSAII (Michael W. Deem and Ramdas Pophale) SiO2 
 PCOD9172368
Probable space group: C 2/M
;
_chemical_formula_sum "Si O2"
_cell_formula_units_Z 64
_cell_length_a 16.640321
_cell_length_b 28.089437
_cell_length_c 9.394071
_cell_angle_alpha 90.000000
_cell_angle_beta 121.887859
_cell_angle_gamma 90.000000
_cell_volume 3728.284525
_symmetry_space_group_name_H-M "C 2/M"
_symmetry_group_IT_number 12
_symmetry_cell_setting 'monoclinic'
loop_
_space_group_symop_operation_xyz
x,y,z
-x,y,-z
-x,-y,-z
x,-y,z
1/2+x,1/2+y,z
1/2-x,1/2+y,-z
1/2-x,1/2-y,-z
1/2+x,1/2-y,z
loop_
_atom_site_type_symbol
_atom_site_label
_atom_site_fract_x
_atom_site_fract_y
_atom_site_fract_z
Si Si1 0.042499 0.802523 0.385351
Si Si2 0.835848 0.816582 0.121597
Si Si3 0.150935 0.446874 0.248546
Si Si4 0.226337 0.854579 0.661000
Si Si5 0.202287 0.715138 0.767541
Si Si6 0.061783 0.552293 0.849411
Si Si7 0.864293 0.293525 0.615097
Si Si8 0.961924 0.646757 0.308179
O O1 0.124220 0.840740 0.497990
O O2 0.087850 0.758564 0.341369
O O3 0.000000 0.784932 0.500000
O O4 0.948651 0.821968 0.222645
O O5 0.789551 0.855451 0.183323
O O6 0.808847 0.768710 0.186003
O O7 0.792450 0.808902 0.925923
O O8 0.191386 0.500000 0.310511
O O9 0.223412 0.403606 0.339383
O O10 0.052756 0.443607 0.244583
O O11 0.110521 0.445471 0.049347
O O12 0.294974 0.811556 0.673028
O O13 0.191895 0.707573 0.588797
O O14 0.112728 0.688711 0.751571
O O15 0.083178 0.500000 0.808063
O O16 0.088524 0.599736 0.793734
O O17 0.948860 0.332101 0.692791
O O18 0.000000 0.636297 0.500000
#
# Coordination Sequence:
#
# PCOD9172368 Si02
#       8
#     8   8   8   8   8   8   8   8
#     4  10  18  33  48  67  99 132 161 198 242 283
#     4  10  20  33  49  67  96 133 169 193 240 295
#     4   9  18  32  48  71  99 125 156 206 259 286
#     4  11  20  30  55  73  89 130 168 203 231 295
#     4  10  19  32  48  66  99 139 158 193 244 288
#     4   9  17  31  48  68 101 130 157 200 245 293
#     4  11  18  32  48  71 100 126 165 198 237 282
#     4  10  18  29  49  69  99 135 159 191 239 296
#
# _framework density 17.166073000000001
#
# number of rings (size 3 to 8) (size 9 to 14) (size 15 to 20)
#    0.000    2.000    5.000    2.250    0.000    0.250 
#    0.000    0.625    0.000    3.375    0.000    0.000 
#    0.000    1.000    0.000    0.000    0.000    1.000 
#
# Total GULP energy -178222.032127 kJ/mol
# GULP energy per Si atom -5569.438504 kJ/mol
# Density = 1.712700 g / cm^3
# Si number density = 17.166073 Si / 1000 Ang^3
#
#
#
# Elastic Constant Matrix: (Units=GPa)
#
#
# Indices 1 2 3 4 5 6 
#
# 1 50.8140 -7.0926 3.4162 0.0000 -16.9074 0.0000
# 2 -7.0926 0.8912 -21.4049 0.0000 -87.2981 0.0000
# 3 3.4162 -21.4049 35.5298 0.0000 -12.4419 0.0000
# 4 0.0000 0.0000 0.0000 19.1276 0.0000 -0.1462
# 5 -16.9074 -87.2981 -12.4419 0.0000 -98.2037 0.0000
# 6 0.0000 0.0000 0.0000 -0.1462 0.0000 -28.1462
#
#
#
# Elastic Compliance Matrix: (Units=1/GPa)
#
#
# Indices 1 2 3 4 5 6 
#
# 1 0.019342 -0.002427 -0.003574 0.000000 -0.000720 0.000000
# 2 -0.002427 0.013530 0.004136 0.000000 -0.012134 0.000000
# 3 -0.003574 0.004136 0.028638 0.000000 -0.006689 0.000000
# 4 0.000000 0.000000 0.000000 0.052278 0.000000 -0.000272
# 5 -0.000720 -0.012134 -0.006689 0.000000 0.001575 0.000000
# 6 0.000000 0.000000 0.000000 -0.000272 0.000000 -0.035527
#
#
# Mechanical properties :
#
#
# Convention : Reuss Voigt Hill
#
# Bulk Modulus (GPa) = 17.30716 4.11915 10.71316
# Shear Modulus (GPa) = 48.62604 -13.95670 17.33467
#
# Velocity S-wave (km/s) = 5.32807 -2.85448 3.18122
# Velocity P-wave (km/s) = 6.92497 2.90848 4.44387
#
# Compressibility (1/GPa) = 0.05777955
#
# Stress axis : x y z
#
# Youngs Moduli (GPa) = 51.70197 73.90923 34.91868
#
# Poissons Ratio (x) = 0.17936 0.12479
# Poissons Ratio (y) = 0.12547 -0.14441
# Poissons Ratio (z) = 0.18477 -0.30565
#
# Static dielectric constant tensor:
#      x y z
#    x 1.599720 0.000000 0.001630 
#    y 0.000000 1.603940 0.000000 
#    z 0.001630 0.000000 1.618620 
# 
# From -- ./inp_files/160641.got.cif
#   From: 2010.05.17/outbox.cif.g08.bks.cpg/sg12_81_cif.got.tgz:160641.got - 2010.06.03 13:09:07.
