data_PCOD9172852
_publ_section_title
;
Structure prediction by ZEFSAII (Michael W. Deem and Ramdas Pophale) SiO2 
 PCOD9172852
Probable space group: C 2/M
;
_chemical_formula_sum "Si O2"
_cell_formula_units_Z 64
_cell_length_a 27.238794
_cell_length_b 14.638282
_cell_length_c 10.254309
_cell_angle_alpha 90.000000
_cell_angle_beta 99.653415
_cell_angle_gamma 90.000000
_cell_volume 4030.796567
_symmetry_space_group_name_H-M "C 2/M"
_symmetry_group_IT_number 12
_symmetry_cell_setting 'monoclinic'
loop_
_space_group_symop_operation_xyz
x,y,z
-x,y,-z
-x,-y,-z
x,-y,z
1/2+x,1/2+y,z
1/2-x,1/2+y,-z
1/2-x,1/2-y,-z
1/2+x,1/2-y,z
loop_
_atom_site_type_symbol
_atom_site_label
_atom_site_fract_x
_atom_site_fract_y
_atom_site_fract_z
Si Si1 0.266075 0.894771 0.898156
Si Si2 0.186154 0.105394 0.096025
Si Si3 0.200440 0.892560 0.612651
Si Si4 0.243485 0.608627 0.632428
Si Si5 0.141545 0.725588 0.974052
Si Si6 0.953590 0.391952 0.384424
Si Si7 0.544973 0.893101 0.920965
Si Si8 0.645901 0.777445 0.662788
O O1 0.236457 0.875673 0.752275
O O2 0.283780 0.000000 0.902344
O O3 0.226795 0.887288 0.998420
O O4 0.311526 0.828259 0.945672
O O5 0.215406 0.131466 0.240044
O O6 0.170285 0.000000 0.098382
O O7 0.142934 0.174790 0.038647
O O8 0.232157 0.874242 0.496962
O O9 0.154674 0.822861 0.606482
O O10 0.186343 0.000000 0.607633
O O11 0.233179 0.500000 0.640024
O O12 0.193034 0.663223 0.635903
O O13 0.091537 0.669864 0.976071
O O14 0.148257 0.730440 0.820893
O O15 0.940609 0.500000 0.393627
O O16 0.967565 0.378349 0.237838
O O17 0.905544 0.329244 0.391992
O O18 0.000000 0.372745 0.500000
O O19 0.559099 0.000000 0.939368
O O20 0.500000 0.876029 0.000000
#
# Coordination Sequence:
#
# PCOD9172852 Si02
#       8
#     8   8   8   8   8   8   8   8
#     4  10  18  30  48  72 101 130 162 198 235 283
#     4  10  19  31  49  71 100 133 163 197 235 283
#     4  10  21  34  46  69 106 136 161 199 240 279
#     4  10  20  33  47  70 104 135 163 198 240 284
#     4  11  19  30  52  76  97 127 168 202 235 288
#     4   9  19  36  55  74  96 123 160 204 244 288
#     4   9  19  36  54  73  99 126 154 198 253 294
#     4  11  19  31  53  74  95 131 169 198 239 291
#
# _framework density 15.877755000000001
#
# number of rings (size 3 to 8) (size 9 to 14) (size 15 to 20)
#    0.000    2.000    2.500    2.250    0.000    1.000 
#    4.500    0.000    0.000    0.750    0.000    0.000 
#    0.000    0.000    0.000    0.000    0.000    0.000 
#
# Total GULP energy -178526.829255 kJ/mol
# GULP energy per Si atom -5578.963414 kJ/mol
# Density = 1.584162 g / cm^3
# Si number density = 15.877755 Si / 1000 Ang^3
#
#
#
# Elastic Constant Matrix: (Units=GPa)
#
#
# Indices 1 2 3 4 5 6 
#
# 1 86.8406 69.0291 40.2177 0.0000 0.2687 0.0000
# 2 69.0291 89.8524 35.2987 0.0000 5.6162 0.0000
# 3 40.2177 35.2987 82.4139 0.0000 0.8527 0.0000
# 4 0.0000 0.0000 0.0000 14.8175 0.0000 6.7949
# 5 0.2687 5.6162 0.8527 0.0000 20.9666 0.0000
# 6 0.0000 0.0000 0.0000 6.7949 0.0000 25.8246
#
#
#
# Elastic Compliance Matrix: (Units=1/GPa)
#
#
# Indices 1 2 3 4 5 6 
#
# 1 0.032670 -0.023068 -0.006125 0.000000 0.006010 0.000000
# 2 -0.023068 0.029909 -0.001474 0.000000 -0.007656 0.000000
# 3 -0.006125 -0.001474 0.015756 0.000000 -0.000167 0.000000
# 4 0.000000 0.000000 0.000000 0.076748 0.000000 -0.020194
# 5 0.006010 -0.007656 -0.000167 0.000000 0.049675 0.000000
# 6 0.000000 0.000000 0.000000 -0.020194 0.000000 0.044036
#
#
# Mechanical properties :
#
#
# Convention : Reuss Voigt Hill
#
# Bulk Modulus (GPa) = 58.81957 60.91087 59.86522
# Shear Modulus (GPa) = 15.83299 19.95916 17.89607
#
# Velocity S-wave (km/s) = 3.16124 3.54934 3.36090
# Velocity P-wave (km/s) = 7.10284 7.43255 7.26956
#
# Compressibility (1/GPa) = 0.01700114
#
# Stress axis : x y z
#
# Youngs Moduli (GPa) = 30.60892 33.43445 63.46903
#
# Poissons Ratio (x) = 0.77128 0.38873
# Poissons Ratio (y) = 0.70610 0.09355
# Poissons Ratio (z) = 0.18747 0.04928
#
# Static dielectric constant tensor:
#      x y z
#    x 1.484660 0.000000 -0.003290 
#    y 0.000000 1.567460 0.000000 
#    z -0.003290 0.000000 1.532480 
# 
# From -- ./inp_files/96894.got.cif
#   From: 2010.05.17/outbox.cif.g08.bks.cpg/sg12_49_cif.got.tgz:96894.got - 2010.06.03 13:09:07.
