data_PCOD9172933
_publ_section_title
;
Structure prediction by ZEFSAII (Michael W. Deem and Ramdas Pophale) SiO2 
 PCOD9172933
Probable space group: C 2/M
;
_chemical_formula_sum "Si O2"
_cell_formula_units_Z 48
_cell_length_a 23.924791
_cell_length_b 13.026795
_cell_length_c 22.556947
_cell_angle_alpha 90.000000
_cell_angle_beta 162.773847
_cell_angle_gamma 90.000000
_cell_volume 2081.944170
_symmetry_space_group_name_H-M "C 2/M"
_symmetry_group_IT_number 12
_symmetry_cell_setting 'monoclinic'
loop_
_space_group_symop_operation_xyz
x,y,z
-x,y,-z
-x,-y,-z
x,-y,z
1/2+x,1/2+y,z
1/2-x,1/2+y,-z
1/2-x,1/2-y,-z
1/2+x,1/2-y,z
loop_
_atom_site_type_symbol
_atom_site_label
_atom_site_fract_x
_atom_site_fract_y
_atom_site_fract_z
Si Si1 0.027949 0.119089 0.287712
Si Si2 0.870614 0.726213 0.698603
Si Si3 0.815586 0.118422 0.737071
Si Si4 0.390953 0.616369 0.277345
Si Si5 0.175173 0.386852 0.239605
Si Si6 0.784898 0.216914 0.820077
O O1 0.990472 0.203487 0.199165
O O2 0.235306 0.156044 0.521233
O O3 0.893335 0.124498 0.208461
O O4 0.032683 0.000000 0.272688
O O5 0.947237 0.653778 0.828707
O O6 0.754068 0.810435 0.619866
O O7 0.709543 0.141063 0.691762
O O8 0.808281 0.000000 0.715106
O O9 0.033103 0.155534 0.970169
O O10 0.316725 0.500000 0.218295
O O11 0.610696 0.610695 0.519677
O O12 0.324743 0.723141 0.239985
O O13 0.120633 0.500000 0.169792
O O14 0.178500 0.313933 0.186758
#
# Coordination Sequence:
#
# PCOD9172933 Si02
#       6
#     8   8   8   8   8   8
#     4   9  17  31  53  77 100 125 155 197 243 285
#     4   9  17  31  53  75  94 127 166 196 232 286
#     4  10  21  36  51  66  92 132 168 199 238 285
#     4   9  17  30  49  74 102 127 153 192 244 293
#     4   9  17  30  50  75 102 129 156 194 242 286
#     4  10  18  30  49  71  94 128 165 197 233 285
#
# _framework density 23.055374
#
# number of rings (size 3 to 8) (size 9 to 14) (size 15 to 20)
#    0.000    2.667    0.000    4.000    0.000    1.333 
#    0.000   18.333    0.000   56.000    0.000    0.000 
#    0.000    0.000    0.000    0.000    0.000    0.000 
#
# Total GULP energy -133611.380793 kJ/mol
# GULP energy per Si atom -5567.140866 kJ/mol
# Density = 2.300290 g / cm^3
# Si number density = 23.055374 Si / 1000 Ang^3
#
#
#
# Elastic Constant Matrix: (Units=GPa)
#
#
# Indices 1 2 3 4 5 6 
#
# 1 83.6852 20.0643 11.2701 0.0238 5.6032 -0.0122
# 2 20.0643 142.1885 6.0658 0.0713 1.7045 -0.0373
# 3 11.2701 6.0658 36.0196 0.0164 -0.4704 -0.0280
# 4 0.0238 0.0713 0.0164 29.4225 0.0090 9.7481
# 5 5.6032 1.7045 -0.4704 0.0090 19.0381 -0.0067
# 6 -0.0122 -0.0373 -0.0280 9.7481 -0.0067 -4.1947
#
#
#
# Elastic Compliance Matrix: (Units=1/GPa)
#
#
# Indices 1 2 3 4 5 6 
#
# 1 0.013120 -0.001640 -0.003879 -0.000003 -0.003810 0.000000
# 2 -0.001640 0.007297 -0.000718 0.000001 -0.000188 -0.000052
# 3 -0.003879 -0.000718 0.029122 0.000027 0.001925 -0.000117
# 4 -0.000003 0.000001 0.000027 0.019203 0.000008 0.044625
# 5 -0.003810 -0.000188 0.001925 0.000008 0.053712 -0.000067
# 6 0.000000 -0.000052 -0.000117 0.044625 -0.000067 -0.134691
#
#
# Mechanical properties :
#
#
# Convention : Reuss Voigt Hill
#
# Bulk Modulus (GPa) = 26.97927 37.41041 32.19484
# Shear Modulus (GPa) = 397.04984 23.81939 210.43461
#
# Velocity S-wave (km/s) = 13.13734 3.21773 9.56408
# Velocity P-wave (km/s) = 15.55143 5.48331 11.66005
#
# Compressibility (1/GPa) = 0.03706549
#
# Stress axis : x y z
#
# Youngs Moduli (GPa) = 76.21768 137.03778 34.33802
#
# Poissons Ratio (x) = 0.22478 0.13319
# Poissons Ratio (y) = 0.12502 0.02466
# Poissons Ratio (z) = 0.29563 0.09841
#
# Static dielectric constant tensor:
#      x y z
#    x 1.973480 -0.000010 0.019280 
#    y -0.000010 1.905410 0.000000 
#    z 0.019280 0.000000 1.958510 
# 
# From -- ./inp_files/369299.got.cif
#   From: 2010.05.17/outbox.cif.g08.bks.cpg/sg12_185_cif.got.tgz:369299.got - 2010.06.03 13:09:07.
