data_PCOD9172919
_publ_section_title
;
Structure prediction by ZEFSAII (Michael W. Deem and Ramdas Pophale) SiO2 
 PCOD9172919
Probable space group: C 2/M
;
_chemical_formula_sum "Si O2"
_cell_formula_units_Z 64
_cell_length_a 14.018586
_cell_length_b 8.619194
_cell_length_c 23.556802
_cell_angle_alpha 90.000000
_cell_angle_beta 110.603321
_cell_angle_gamma 90.000000
_cell_volume 2664.288234
_symmetry_space_group_name_H-M "C 2/M"
_symmetry_group_IT_number 12
_symmetry_cell_setting 'monoclinic'
loop_
_space_group_symop_operation_xyz
x,y,z
-x,y,-z
-x,-y,-z
x,-y,z
1/2+x,1/2+y,z
1/2-x,1/2+y,-z
1/2-x,1/2-y,-z
1/2+x,1/2-y,z
loop_
_atom_site_type_symbol
_atom_site_label
_atom_site_fract_x
_atom_site_fract_y
_atom_site_fract_z
Si Si1 0.345114 0.185277 0.981780
Si Si2 0.282083 0.811757 0.134931
Si Si3 0.967180 0.817388 0.103823
Si Si4 0.904299 0.318383 0.642879
Si Si5 0.842672 0.179438 0.392701
Si Si6 0.571803 0.325242 0.235762
Si Si7 0.635650 0.185932 0.485421
Si Si8 0.687248 0.175175 0.729511
O O1 0.325751 0.266891 0.916711
O O2 0.339492 0.000000 0.975513
O O3 0.250000 0.250000 0.000000
O O4 0.443206 0.230629 0.040108
O O5 0.362869 0.711744 0.116898
O O6 0.306005 0.767721 0.204625
O O7 0.294412 0.000000 0.131902
O O8 0.043538 0.754529 0.168538
O O9 0.985572 0.000000 0.096650
O O10 0.925768 0.500000 0.646489
O O11 0.781022 0.303537 0.625488
O O12 0.956612 0.251907 0.710496
O O13 0.923057 0.253985 0.583216
O O14 0.891743 0.268370 0.456153
O O15 0.863296 0.235579 0.333127
O O16 0.867449 0.000000 0.403919
O O17 0.529890 0.500000 0.226602
O O18 0.693283 0.333667 0.261252
O O19 0.750000 0.250000 0.500000
O O20 0.636775 0.000000 0.482737
O O21 0.647458 0.000000 0.722297
#
# Coordination Sequence:
#
# PCOD9172919 Si02
#       8
#     8   8   8   8   8   8   8   8
#     4  10  18  30  49  70  92 118 150 189 229 267
#     4  10  19  32  51  72  93 119 152 189 228 270
#     4  10  19  32  50  71  94 119 151 189 227 270
#     4   8  15  25  38  59  87 118 150 186 226 266
#     4   9  16  25  39  61  88 119 152 187 229 271
#     4   9  18  31  47  67  92 123 154 186 226 270
#     4   9  15  23  36  57  85 117 153 190 228 269
#     4   9  18  32  48  67  93 124 155 187 226 272
#
# _framework density 24.021425000000001
#
# number of rings (size 3 to 8) (size 9 to 14) (size 15 to 20)
#    0.000    2.750    0.000    4.875    0.000    5.500 
#    0.000    0.625    0.000    3.750    0.000    0.875 
#    0.000    7.000    0.000    0.000    0.000    0.000 
#
# Total GULP energy -178546.712033 kJ/mol
# GULP energy per Si atom -5579.584751 kJ/mol
# Density = 2.396675 g / cm^3
# Si number density = 24.021425 Si / 1000 Ang^3
#
#
#
# Elastic Constant Matrix: (Units=GPa)
#
#
# Indices 1 2 3 4 5 6 
#
# 1 48.2263 -4.0996 39.8174 0.0000 1.3321 0.0000
# 2 -4.0996 73.6803 69.0373 0.0000 -3.9436 0.0000
# 3 39.8174 69.0373 259.2038 0.0000 -9.5038 0.0000
# 4 0.0000 0.0000 0.0000 43.5770 0.0000 -2.8735
# 5 1.3321 -3.9436 -9.5038 0.0000 56.2346 0.0000
# 6 0.0000 0.0000 0.0000 -2.8735 0.0000 6.2100
#
#
#
# Elastic Compliance Matrix: (Units=1/GPa)
#
#
# Indices 1 2 3 4 5 6 
#
# 1 0.026250 0.006952 -0.005926 0.000000 -0.001136 0.000000
# 2 0.006952 0.019938 -0.006373 0.000000 0.000157 0.000000
# 3 -0.005926 -0.006373 0.006495 0.000000 0.000791 0.000000
# 4 0.000000 0.000000 0.000000 0.023670 0.000000 0.010953
# 5 -0.001136 0.000157 0.000791 0.000000 0.017954 0.000000
# 6 0.000000 0.000000 0.000000 0.010953 0.000000 0.166099
#
#
# Mechanical properties :
#
#
# Convention : Reuss Voigt Hill
#
# Bulk Modulus (GPa) = 23.81475 65.62450 44.71963
# Shear Modulus (GPa) = 17.53795 39.62801 28.58298
#
# Velocity S-wave (km/s) = 2.70496 4.06605 3.45323
# Velocity P-wave (km/s) = 4.43748 7.03009 5.87849
#
# Compressibility (1/GPa) = 0.04199079
#
# Stress axis : x y z
#
# Youngs Moduli (GPa) = 38.09466 50.15437 153.97480
#
# Poissons Ratio (x) = -0.34868 0.91241
# Poissons Ratio (y) = -0.26484 0.98123
# Poissons Ratio (z) = 0.22574 0.31962
#
# Static dielectric constant tensor:
#      x y z
#    x 2.085700 0.000000 0.018310 
#    y 0.000000 1.858310 0.000000 
#    z 0.018310 0.000000 2.018980 
# 
# From -- ./inp_files/345590.got.cif
#   From: 2010.05.17/outbox.cif.g08.bks.cpg/sg12_173_cif.got.tgz:345590.got - 2010.06.03 13:09:07.
