data_PCOD9172417
_publ_section_title
;
Structure prediction by ZEFSAII (Michael W. Deem and Ramdas Pophale) SiO2 
 PCOD9172417
Probable space group: C 2/M
;
_chemical_formula_sum "Si O2"
_cell_formula_units_Z 64
_cell_length_a 11.935045
_cell_length_b 23.692980
_cell_length_c 21.787004
_cell_angle_alpha 90.000000
_cell_angle_beta 146.943466
_cell_angle_gamma 90.000000
_cell_volume 3360.540841
_symmetry_space_group_name_H-M "C 2/M"
_symmetry_group_IT_number 12
_symmetry_cell_setting 'monoclinic'
loop_
_space_group_symop_operation_xyz
x,y,z
-x,y,-z
-x,-y,-z
x,-y,z
1/2+x,1/2+y,z
1/2-x,1/2+y,-z
1/2-x,1/2-y,-z
1/2+x,1/2-y,z
loop_
_atom_site_type_symbol
_atom_site_label
_atom_site_fract_x
_atom_site_fract_y
_atom_site_fract_z
Si Si1 0.772606 0.065457 0.734155
Si Si2 0.562321 0.657690 0.098476
Si Si3 0.174276 0.433096 0.460831
Si Si4 0.685632 0.565122 0.851294
Si Si5 0.255163 0.776402 0.823166
Si Si6 0.764925 0.936459 0.367454
Si Si7 0.603653 0.376538 0.687986
Si Si8 0.708529 0.172867 0.031330
O O1 0.845463 0.105073 0.822747
O O2 0.542435 0.080161 0.607315
O O3 0.946050 0.069841 0.761704
O O4 0.764967 0.000000 0.750265
O O5 0.720590 0.709956 0.172496
O O6 0.358675 0.676016 0.042751
O O7 0.500000 0.645918 0.000000
O O8 0.222680 0.500000 0.491184
O O9 0.139701 0.424085 0.371655
O O10 0.371272 0.397817 0.571328
O O11 0.746736 0.500000 0.884746
O O12 0.696119 0.588347 0.787399
O O13 0.801088 0.607978 0.949879
O O14 0.200612 0.793441 0.868091
O O15 0.114379 0.811274 0.712084
O O16 0.483972 0.802175 0.917892
O O17 0.000000 0.938069 0.500000
O O18 0.767053 0.892428 0.313241
O O19 0.715466 0.000000 0.322661
#
# Coordination Sequence:
#
# PCOD9172417 Si02
#       8
#     8   8   8   8   8   8   8   8
#     4   9  20  36  53  78 105 130 168 217 261 303
#     4  11  21  35  59  77  98 137 172 209 263 312
#     4   9  17  32  51  74 108 139 170 211 254 302
#     4   9  17  31  51  75 105 136 167 212 261 297
#     4  10  20  34  52  76 102 134 173 213 249 300
#     4   8  14  26  44  67  98 132 166 205 245 286
#     4  10  18  29  49  76 104 135 175 207 241 304
#     4   9  19  36  51  74 105 130 171 217 253 303
#
# _framework density 19.044554000000002
#
# number of rings (size 3 to 8) (size 9 to 14) (size 15 to 20)
#    0.000    2.625    1.250    2.250    0.000    1.750 
#    0.000    8.750    0.000    0.000    3.250    0.000 
#    0.000    0.000    0.000    0.000    0.000    0.000 
#
# Total GULP energy -178472.754401 kJ/mol
# GULP energy per Si atom -5577.273575 kJ/mol
# Density = 1.900121 g / cm^3
# Si number density = 19.044554 Si / 1000 Ang^3
#
#
#
# Elastic Constant Matrix: (Units=GPa)
#
#
# Indices 1 2 3 4 5 6 
#
# 1 52.8490 -9.0133 10.1840 -0.0016 -5.4196 0.0006
# 2 -9.0133 59.0629 10.3482 -0.0006 -12.2609 0.0003
# 3 10.1840 10.3482 45.7521 0.0014 -2.2105 0.0025
# 4 -0.0016 -0.0006 0.0014 18.9614 0.0010 2.7189
# 5 -5.4196 -12.2609 -2.2105 0.0010 28.4507 0.0009
# 6 0.0006 0.0003 0.0025 2.7189 0.0009 17.5011
#
#
#
# Elastic Compliance Matrix: (Units=1/GPa)
#
#
# Indices 1 2 3 4 5 6 
#
# 1 0.021607 0.005569 -0.005776 0.000002 0.006067 -0.000001
# 2 0.005569 0.020725 -0.005465 0.000001 0.009568 0.000000
# 3 -0.005776 -0.005465 0.024303 -0.000002 -0.001567 -0.000003
# 4 0.000002 0.000001 -0.000002 0.053940 -0.000001 -0.008380
# 5 0.006067 0.009568 -0.001567 -0.000001 0.040306 -0.000002
# 6 -0.000001 0.000000 -0.000003 -0.008380 -0.000002 0.058441
#
#
# Mechanical properties :
#
#
# Convention : Reuss Voigt Hill
#
# Bulk Modulus (GPa) = 18.08636 20.07799 19.08218
# Shear Modulus (GPa) = 20.07265 22.72565 21.39915
#
# Velocity S-wave (km/s) = 3.25003 3.45815 3.35570
# Velocity P-wave (km/s) = 4.85810 5.14884 5.00558
#
# Compressibility (1/GPa) = 0.05529028
#
# Stress axis : x y z
#
# Youngs Moduli (GPa) = 46.28187 48.25205 41.14741
#
# Poissons Ratio (x) = -0.26870 0.23766
# Poissons Ratio (y) = -0.25773 0.22486
# Poissons Ratio (z) = 0.26732 0.26369
#
# Static dielectric constant tensor:
#      x y z
#    x 1.707630 0.000000 0.016420 
#    y 0.000000 1.672250 0.000000 
#    z 0.016420 0.000000 1.655290 
# 
# From -- ./inp_files/307144.got.cif
#   From: 2010.05.17/outbox.cif.g08.bks.cpg/sg12_154_cif.got.tgz:307144.got - 2010.06.03 13:09:07.
