data_PCOD9172820
_publ_section_title
;
Structure prediction by ZEFSAII (Michael W. Deem and Ramdas Pophale) SiO2 
 PCOD9172820
Probable space group: C 2/M
;
_chemical_formula_sum "Si O2"
_cell_formula_units_Z 64
_cell_length_a 13.324538
_cell_length_b 23.747499
_cell_length_c 10.066291
_cell_angle_alpha 90.000000
_cell_angle_beta 79.087840
_cell_angle_gamma 90.000000
_cell_volume 3127.627241
_symmetry_space_group_name_H-M "C 2/M"
_symmetry_group_IT_number 12
_symmetry_cell_setting 'monoclinic'
loop_
_space_group_symop_operation_xyz
x,y,z
-x,y,-z
-x,-y,-z
x,-y,z
1/2+x,1/2+y,z
1/2-x,1/2+y,-z
1/2-x,1/2-y,-z
1/2+x,1/2-y,z
loop_
_atom_site_type_symbol
_atom_site_label
_atom_site_fract_x
_atom_site_fract_y
_atom_site_fract_z
Si Si1 0.559535 0.934197 0.843486
Si Si2 0.990517 0.269250 0.844655
Si Si3 0.042407 0.137904 0.210654
Si Si4 0.609307 0.694354 0.450171
Si Si5 0.179133 0.855694 0.712220
Si Si6 0.258005 0.873550 0.078526
Si Si7 0.626109 0.124854 0.219651
Si Si8 0.286027 0.763436 0.223292
O O1 0.667104 0.901989 0.831328
O O2 0.478609 0.910187 0.757620
O O3 0.577155 0.000000 0.820219
O O4 0.500000 0.926166 0.000000
O O5 0.965482 0.203590 0.833665
O O6 0.911534 0.311080 0.796326
O O7 0.101490 0.280816 0.754776
O O8 0.000000 0.281951 0.000000
O O9 0.076373 0.144666 0.356181
O O10 0.139214 0.110223 0.116253
O O11 0.927745 0.114435 0.222953
O O12 0.500000 0.725113 0.500000
O O13 0.652948 0.671013 0.576159
O O14 0.698104 0.728040 0.353634
O O15 0.290464 0.883638 0.686109
O O16 0.195671 0.802426 0.808045
O O17 0.263040 0.806449 0.109585
O O18 0.307356 0.890015 0.927460
#
# Coordination Sequence:
#
# PCOD9172820 Si02
#       8
#     8   8   8   8   8   8   8   8
#     4   9  18  34  54  74  98 134 170 207 257 309
#     4  11  19  30  45  74 111 139 168 203 253 309
#     4   9  21  31  49  70 100 140 170 206 249 298
#     4   9  18  36  46  62  97 141 188 217 235 284
#     4  10  21  31  47  72 101 139 173 207 251 298
#     4  10  18  31  49  71 101 130 167 209 245 305
#     4  11  19  30  48  74 106 132 167 208 252 308
#     4  10  18  30  48  69  99 138 177 201 246 293
#
# _framework density 20.462796000000001
#
# number of rings (size 3 to 8) (size 9 to 14) (size 15 to 20)
#    0.000    2.125    2.500    2.250    3.500    1.000 
#    0.000    0.625    0.000    0.750    0.000   10.500 
#    0.000   13.500    0.000    0.000    0.000    0.000 
#
# Total GULP energy -178310.043092 kJ/mol
# GULP energy per Si atom -5572.188847 kJ/mol
# Density = 2.041622 g / cm^3
# Si number density = 20.462796 Si / 1000 Ang^3
#
#
#
# Elastic Constant Matrix: (Units=GPa)
#
#
# Indices 1 2 3 4 5 6 
#
# 1 200.7641 13.0052 35.9218 0.0000 -6.4436 0.0000
# 2 13.0052 29.1596 3.5786 0.0000 6.3431 0.0000
# 3 35.9218 3.5786 43.8716 0.0000 -0.7617 0.0000
# 4 0.0000 0.0000 0.0000 3.9516 0.0000 0.8796
# 5 -6.4436 6.3431 -0.7617 0.0000 41.3881 0.0000
# 6 0.0000 0.0000 0.0000 0.8796 0.0000 13.0332
#
#
#
# Elastic Compliance Matrix: (Units=1/GPa)
#
#
# Indices 1 2 3 4 5 6 
#
# 1 0.006016 -0.002369 -0.004712 0.000000 0.001213 0.000000
# 2 -0.002369 0.036806 -0.001167 0.000000 -0.006031 0.000000
# 3 -0.004712 -0.001167 0.026746 0.000000 -0.000062 0.000000
# 4 0.000000 0.000000 0.000000 0.256923 0.000000 -0.017339
# 5 0.001213 -0.006031 -0.000062 0.000000 0.025274 0.000000
# 6 0.000000 0.000000 0.000000 -0.017339 0.000000 0.077897
#
#
# Mechanical properties :
#
#
# Convention : Reuss Voigt Hill
#
# Bulk Modulus (GPa) = 18.84235 42.08961 30.46598
# Shear Modulus (GPa) = 10.77937 26.42723 18.60330
#
# Velocity S-wave (km/s) = 2.29766 3.59761 3.01845
# Velocity P-wave (km/s) = 4.03324 6.15391 5.20277
#
# Compressibility (1/GPa) = 0.05307193
#
# Stress axis : x y z
#
# Youngs Moduli (GPa) = 166.21111 27.16966 37.38876
#
# Poissons Ratio (x) = 0.06436 0.17617
# Poissons Ratio (y) = 0.39374 0.04364
# Poissons Ratio (z) = 0.78318 0.03171
#
# Static dielectric constant tensor:
#      x y z
#    x 1.848930 0.000000 -0.002710 
#    y 0.000000 1.726880 0.000000 
#    z -0.002710 0.000000 1.804640 
# 
# From -- ./inp_files/136621.got.cif
#   From: 2010.05.17/outbox.cif.g08.bks.cpg/sg12_69_cif.got.tgz:136621.got - 2010.06.03 13:09:07.
