data_PCOD9172799
_publ_section_title
;
Structure prediction by ZEFSAII (Michael W. Deem and Ramdas Pophale) SiO2 
 PCOD9172799
Probable space group: C 2/M
;
_chemical_formula_sum "Si O2"
_cell_formula_units_Z 56
_cell_length_a 28.360187
_cell_length_b 8.929752
_cell_length_c 18.565038
_cell_angle_alpha 90.000000
_cell_angle_beta 130.949843
_cell_angle_gamma 90.000000
_cell_volume 3551.030395
_symmetry_space_group_name_H-M "C 2/M"
_symmetry_group_IT_number 12
_symmetry_cell_setting 'monoclinic'
loop_
_space_group_symop_operation_xyz
x,y,z
-x,y,-z
-x,-y,-z
x,-y,z
1/2+x,1/2+y,z
1/2-x,1/2+y,-z
1/2-x,1/2-y,-z
1/2+x,1/2-y,z
loop_
_atom_site_type_symbol
_atom_site_label
_atom_site_fract_x
_atom_site_fract_y
_atom_site_fract_z
Si Si1 0.124104 0.178742 0.713778
Si Si2 0.934117 0.672033 0.477271
Si Si3 0.064505 0.171652 0.110483
Si Si4 0.374375 0.319287 0.972607
Si Si5 0.747112 0.180047 0.076445
Si Si6 0.002716 0.322162 0.831791
Si Si7 0.003276 0.178651 0.329195
O O1 0.114567 0.259736 0.628029
O O2 0.188675 0.215320 0.817481
O O3 0.065233 0.216542 0.706362
O O4 0.121244 0.000000 0.699071
O O5 0.919864 0.500000 0.480336
O O6 0.000000 0.675645 0.500000
O O7 0.946767 0.766498 0.561707
O O8 0.115029 0.218026 0.101316
O O9 0.050925 0.273772 0.165346
O O10 0.075988 0.000000 0.144818
O O11 0.000000 0.171116 0.000000
O O12 0.374893 0.500000 0.979536
O O13 0.311600 0.249879 0.940939
O O14 0.433312 0.254214 0.075687
O O15 0.741259 0.000000 0.066036
O O16 0.750000 0.250000 0.000000
O O17 0.010207 0.500000 0.838851
O O18 0.989024 0.260132 0.738904
O O19 0.006255 0.000000 0.323043
#
# Coordination Sequence:
#
# PCOD9172799 Si02
#       7
#     8   8   8   8   8   8   8
#     4   9  19  33  47  65  91 126 161 191 228 276
#     4   9  17  29  46  68  92 118 152 194 235 275
#     4   8  16  31  48  65  89 122 156 191 234 284
#     4  10  20  34  49  66  93 128 163 195 233 281
#     4  11  22  34  49  70  97 128 164 200 232 271
#     4  11  20  29  46  72  98 122 154 196 239 281
#     4  10  18  30  48  68  95 127 156 189 233 282
#
# _framework density 15.770071
#
# number of rings (size 3 to 8) (size 9 to 14) (size 15 to 20)
#    0.000    2.286    0.000    4.714    0.000    7.714 
#    0.000    0.000    0.000    0.000    0.000    1.000 
#    0.000    0.000    0.000    0.000    0.000    0.000 
#
# Total GULP energy -156156.588917 kJ/mol
# GULP energy per Si atom -5577.021033 kJ/mol
# Density = 1.573418 g / cm^3
# Si number density = 15.770071 Si / 1000 Ang^3
#
#
#
# Elastic Constant Matrix: (Units=GPa)
#
#
# Indices 1 2 3 4 5 6 
#
# 1 108.8087 55.6832 59.4967 0.0000 -13.9697 0.0000
# 2 55.6832 86.3099 62.3238 0.0000 -15.0055 0.0000
# 3 59.4967 62.3238 109.0036 0.0000 -15.7152 0.0000
# 4 0.0000 0.0000 0.0000 25.7362 0.0000 -2.7419
# 5 -13.9697 -15.0055 -15.7152 0.0000 20.8417 0.0000
# 6 0.0000 0.0000 0.0000 -2.7419 0.0000 23.0249
#
#
#
# Elastic Compliance Matrix: (Units=1/GPa)
#
#
# Indices 1 2 3 4 5 6 
#
# 1 0.015009 -0.006135 -0.004343 0.000000 0.002368 0.000000
# 2 -0.006135 0.023032 -0.009000 0.000000 0.005683 0.000000
# 3 -0.004343 -0.009000 0.017207 0.000000 0.003584 0.000000
# 4 0.000000 0.000000 0.000000 0.039355 0.000000 0.004687
# 5 0.002368 0.005683 0.003584 0.000000 0.056362 0.000000
# 6 0.000000 0.000000 0.000000 0.004687 0.000000 0.043989
#
#
# Mechanical properties :
#
#
# Convention : Reuss Voigt Hill
#
# Bulk Modulus (GPa) = 61.38536 73.23663 67.31100
# Shear Modulus (GPa) = 20.89067 22.36181 21.62624
#
# Velocity S-wave (km/s) = 3.64360 3.76971 3.70719
# Velocity P-wave (km/s) = 7.53066 8.09251 7.81663
#
# Compressibility (1/GPa) = 0.01629053
#
# Stress axis : x y z
#
# Youngs Moduli (GPa) = 66.62677 43.41868 58.11557
#
# Poissons Ratio (x) = 0.26639 0.25239
# Poissons Ratio (y) = 0.40879 0.52306
# Poissons Ratio (z) = 0.28935 0.39078
#
# Static dielectric constant tensor:
#      x y z
#    x 1.527000 0.000000 -0.006420 
#    y 0.000000 1.526320 0.000000 
#    z -0.006420 0.000000 1.506770 
# 
# From -- ./inp_files/291943.got.cif
#   From: 2010.05.17/outbox.cif.g08.bks.cpg/sg12_146_cif.got.tgz:291943.got - 2010.06.03 13:09:07.
