data_PCOD9172054
_publ_section_title
;
Structure prediction by ZEFSAII (Michael W. Deem and Ramdas Pophale) SiO2 
 PCOD9172054
Probable space group: C 2/M
;
_chemical_formula_sum "Si O2"
_cell_formula_units_Z 64
_cell_length_a 23.208211
_cell_length_b 8.957805
_cell_length_c 21.546958
_cell_angle_alpha 90.000000
_cell_angle_beta 115.443476
_cell_angle_gamma 90.000000
_cell_volume 4045.028448
_symmetry_space_group_name_H-M "C 2/M"
_symmetry_group_IT_number 12
_symmetry_cell_setting 'monoclinic'
loop_
_space_group_symop_operation_xyz
x,y,z
-x,y,-z
-x,-y,-z
x,-y,z
1/2+x,1/2+y,z
1/2-x,1/2+y,-z
1/2-x,1/2-y,-z
1/2+x,1/2-y,z
loop_
_atom_site_type_symbol
_atom_site_label
_atom_site_fract_x
_atom_site_fract_y
_atom_site_fract_z
Si Si1 0.601834 0.178883 0.704309
Si Si2 0.733255 0.821808 0.393882
Si Si3 0.149643 0.821932 0.460607
Si Si4 0.316757 0.319875 0.007634
Si Si5 0.255723 0.179462 0.271854
Si Si6 0.785072 0.325747 0.870401
Si Si7 0.015816 0.680212 0.435943
Si Si8 0.135741 0.172909 0.842860
O O1 0.670247 0.224663 0.706994
O O2 0.542902 0.228710 0.634899
O O3 0.599035 0.235912 0.773586
O O4 0.601758 0.000000 0.704974
O O5 0.799936 0.790420 0.460604
O O6 0.678816 0.754217 0.412876
O O7 0.734640 0.746823 0.327395
O O8 0.726134 0.000000 0.385493
O O9 0.081251 0.755984 0.445783
O O10 0.146871 0.000000 0.451069
O O11 0.311557 0.500000 0.003247
O O12 0.325761 0.253790 0.943264
O O13 0.250000 0.250000 0.000000
O O14 0.366086 0.280353 0.085727
O O15 0.214944 0.243685 0.195586
O O16 0.252583 0.000000 0.271115
O O17 0.801445 0.500000 0.872673
O O18 0.710737 0.317635 0.858239
O O19 0.022270 0.500000 0.434343
O O20 0.000000 0.715861 0.500000
O O21 0.117031 0.000000 0.830174
#
# Coordination Sequence:
#
# PCOD9172054 Si02
#       8
#     8   8   8   8   8   8   8   8
#     4   9  18  29  43  64  89 120 155 188 225 271
#     4  10  20  34  51  69  91 118 149 188 231 274
#     4  10  21  35  51  71  91 116 152 190 229 272
#     4   9  15  23  35  53  78 112 151 186 224 268
#     4  10  18  29  46  67  92 122 155 189 225 269
#     4   9  16  25  37  57  85 116 149 185 225 268
#     4  10  20  34  50  68  93 123 153 187 228 272
#     4   8  15  25  37  54  80 114 149 186 224 263
#
# _framework density 15.821892
#
# number of rings (size 3 to 8) (size 9 to 14) (size 15 to 20)
#    0.000    2.625    0.000    3.375    0.000    7.250 
#    0.000    0.000    0.000    0.000    0.000    0.000 
#    0.000    1.000    0.000   10.500    0.000    8.250 
#
# Total GULP energy -178289.452676 kJ/mol
# GULP energy per Si atom -5571.545396 kJ/mol
# Density = 1.578588 g / cm^3
# Si number density = 15.821892 Si / 1000 Ang^3
#
#
#
# Elastic Constant Matrix: (Units=GPa)
#
#
# Indices 1 2 3 4 5 6 
#
# 1 60.7082 30.7269 58.2386 0.0000 -12.5708 0.0000
# 2 30.7269 55.0258 60.5548 0.0000 -13.5446 0.0000
# 3 58.2386 60.5548 160.3366 0.0000 -26.4442 0.0000
# 4 0.0000 0.0000 0.0000 30.3083 0.0000 -4.2936
# 5 -12.5708 -13.5446 -26.4442 0.0000 21.5549 0.0000
# 6 0.0000 0.0000 0.0000 -4.2936 0.0000 20.9893
#
#
#
# Elastic Compliance Matrix: (Units=1/GPa)
#
#
# Indices 1 2 3 4 5 6 
#
# 1 0.027067 -0.006994 -0.006659 0.000000 0.003222 0.000000
# 2 -0.006994 0.033634 -0.009214 0.000000 0.005753 0.000000
# 3 -0.006659 -0.009214 0.013214 0.000000 0.006538 0.000000
# 4 0.000000 0.000000 0.000000 0.033979 0.000000 0.006951
# 5 0.003222 0.005753 0.006538 0.000000 0.059908 0.000000
# 6 0.000000 0.000000 0.000000 0.006951 0.000000 0.049065
#
#
# Mechanical properties :
#
#
# Convention : Reuss Voigt Hill
#
# Bulk Modulus (GPa) = 35.48300 63.90125 49.69213
# Shear Modulus (GPa) = 18.38284 23.00717 20.69500
#
# Velocity S-wave (km/s) = 3.41231 3.81745 3.62055
# Velocity P-wave (km/s) = 6.16444 7.73990 6.99666
#
# Compressibility (1/GPa) = 0.02818251
#
# Stress axis : x y z
#
# Youngs Moduli (GPa) = 36.94536 29.73179 75.67988
#
# Poissons Ratio (x) = 0.20793 0.50394
# Poissons Ratio (y) = 0.25838 0.69729
# Poissons Ratio (z) = 0.24601 0.27394
#
# Static dielectric constant tensor:
#      x y z
#    x 1.500490 0.000000 -0.006370 
#    y 0.000000 1.528830 0.000000 
#    z -0.006370 0.000000 1.551300 
# 
# From -- ./inp_files/323794.got.cif
#   From: 2010.05.17/outbox.cif.g08.bks.cpg/sg12_162_cif.got.tgz:323794.got - 2010.06.03 13:09:07.
