data_PCOD9172960
_publ_section_title
;
Structure prediction by ZEFSAII (Michael W. Deem and Ramdas Pophale) SiO2 
 PCOD9172960
Probable space group: C 2/M
;
_chemical_formula_sum "Si O2"
_cell_formula_units_Z 64
_cell_length_a 24.370844
_cell_length_b 8.589710
_cell_length_c 20.111668
_cell_angle_alpha 90.000000
_cell_angle_beta 59.616536
_cell_angle_gamma 90.000000
_cell_volume 3631.923245
_symmetry_space_group_name_H-M "C 2/M"
_symmetry_group_IT_number 12
_symmetry_cell_setting 'monoclinic'
loop_
_space_group_symop_operation_xyz
x,y,z
-x,y,-z
-x,-y,-z
x,-y,z
1/2+x,1/2+y,z
1/2-x,1/2+y,-z
1/2-x,1/2-y,-z
1/2+x,1/2-y,z
loop_
_atom_site_type_symbol
_atom_site_label
_atom_site_fract_x
_atom_site_fract_y
_atom_site_fract_z
Si Si1 0.580814 0.813997 0.590666
Si Si2 0.558754 0.187136 0.312779
Si Si3 0.199038 0.313791 0.227598
Si Si4 0.417263 0.312564 0.259347
Si Si5 0.805920 0.187845 0.919631
Si Si6 0.444593 0.685224 0.833961
Si Si7 0.788115 0.686247 0.284579
Si Si8 0.209831 0.813911 0.462452
O O1 0.508655 0.774798 0.611914
O O2 0.588176 0.754993 0.662366
O O3 0.637585 0.742810 0.513368
O O4 0.587577 0.000000 0.586678
O O5 0.628038 0.223990 0.299817
O O6 0.557017 0.274372 0.243327
O O7 0.557953 0.000000 0.301210
O O8 0.205429 0.500000 0.222461
O O9 0.201634 0.250422 0.150830
O O10 0.253257 0.241031 0.239640
O O11 0.417220 0.500000 0.264298
O O12 0.485472 0.258583 0.187572
O O13 0.357549 0.256942 0.253650
O O14 0.876224 0.241900 0.901835
O O15 0.804977 0.000000 0.918956
O O16 0.750000 0.250000 0.000000
O O17 0.444693 0.500000 0.843151
O O18 0.792792 0.500000 0.283009
O O19 0.744332 0.737309 0.373786
O O20 0.250000 0.750000 0.500000
O O21 0.211120 0.000000 0.464458
#
# Coordination Sequence:
#
# PCOD9172960 Si02
#       8
#     8   8   8   8   8   8   8   8
#     4  10  18  30  49  73 100 129 168 220 268 307
#     4   8  16  30  49  72  98 129 167 212 258 305
#     4  10  20  36  56  78 104 137 175 211 255 312
#     4  10  18  30  50  74 100 134 175 214 257 304
#     4  10  19  34  57  85 114 139 167 205 250 300
#     4   8  16  29  48  76 105 132 166 209 250 295
#     4  11  23  36  50  72 103 139 175 217 266 311
#     4  11  22  34  49  70 100 135 177 222 268 312
#
# _framework density 17.621517999999998
#
# number of rings (size 3 to 8) (size 9 to 14) (size 15 to 20)
#    0.000    2.250    1.250    2.250    0.000    3.500 
#    0.000    0.625    0.000    4.500    0.000    5.250 
#    0.000    0.000    0.000    0.000    0.000    0.000 
#
# Total GULP energy -178328.783454 kJ/mol
# GULP energy per Si atom -5572.774483 kJ/mol
# Density = 1.758141 g / cm^3
# Si number density = 17.621518 Si / 1000 Ang^3
#
#
#
# Elastic Constant Matrix: (Units=GPa)
#
#
# Indices 1 2 3 4 5 6 
#
# 1 138.5681 23.6786 62.7159 0.0001 -31.7347 0.0000
# 2 23.6786 32.1354 20.4359 0.0004 -7.8071 -0.0004
# 3 62.7159 20.4359 81.1537 0.0000 -32.8789 0.0000
# 4 0.0001 0.0004 0.0000 24.2054 0.0000 -3.2195
# 5 -31.7347 -7.8071 -32.8789 0.0000 33.1000 0.0000
# 6 0.0000 -0.0004 0.0000 -3.2195 0.0000 21.6577
#
#
#
# Elastic Compliance Matrix: (Units=1/GPa)
#
#
# Indices 1 2 3 4 5 6 
#
# 1 0.011671 -0.003477 -0.006598 0.000000 0.003816 0.000000
# 2 -0.003477 0.038103 -0.007727 -0.000001 -0.002022 0.000001
# 3 -0.006598 -0.007727 0.026886 0.000000 0.018558 0.000000
# 4 0.000000 -0.000001 0.000000 0.042146 0.000000 0.006265
# 5 0.003816 -0.002022 0.018558 0.000000 0.051827 0.000000
# 6 0.000000 0.000001 0.000000 0.006265 0.000000 0.047104
#
#
# Mechanical properties :
#
#
# Convention : Reuss Voigt Hill
#
# Bulk Modulus (GPa) = 24.35725 51.72422 38.04073
# Shear Modulus (GPa) = 18.72479 25.46107 22.09293
#
# Velocity S-wave (km/s) = 3.26331 3.80529 3.54467
# Velocity P-wave (km/s) = 5.29635 6.98023 6.19576
#
# Compressibility (1/GPa) = 0.04105554
#
# Stress axis : x y z
#
# Youngs Moduli (GPa) = 85.68374 26.24463 37.19465
#
# Poissons Ratio (x) = 0.09125 0.24541
# Poissons Ratio (y) = 0.29790 0.28741
# Poissons Ratio (z) = 0.56533 0.20280
#
# Static dielectric constant tensor:
#      x y z
#    x 1.628700 0.000000 -0.046730 
#    y 0.000000 1.597220 0.000000 
#    z -0.046730 0.000000 1.595660 
# 
# From -- ./inp_files/323605.got.cif
#   From: 2010.05.17/outbox.cif.g08.bks.cpg/sg12_162_cif.got.tgz:323605.got - 2010.06.03 13:09:07.
