data_PCOD9172950
_publ_section_title
;
Structure prediction by ZEFSAII (Michael W. Deem and Ramdas Pophale) SiO2 
 PCOD9172950
Probable space group: C 2/M
;
_chemical_formula_sum "Si O2"
_cell_formula_units_Z 56
_cell_length_a 19.893141
_cell_length_b 7.696660
_cell_length_c 25.298559
_cell_angle_alpha 90.000000
_cell_angle_beta 47.770246
_cell_angle_gamma 90.000000
_cell_volume 2868.141078
_symmetry_space_group_name_H-M "C 2/M"
_symmetry_group_IT_number 12
_symmetry_cell_setting 'monoclinic'
loop_
_space_group_symop_operation_xyz
x,y,z
-x,y,-z
-x,-y,-z
x,-y,z
1/2+x,1/2+y,z
1/2-x,1/2+y,-z
1/2-x,1/2-y,-z
1/2+x,1/2-y,z
loop_
_atom_site_type_symbol
_atom_site_label
_atom_site_fract_x
_atom_site_fract_y
_atom_site_fract_z
Si Si1 0.050047 0.710876 0.307468
Si Si2 0.437468 0.212863 0.581287
Si Si3 0.738925 0.204135 0.810358
Si Si4 0.793390 0.288764 0.057626
Si Si5 0.045046 0.295574 0.746267
Si Si6 0.893202 0.293209 0.903449
Si Si7 0.768417 0.799360 0.304529
O O1 0.051340 0.500000 0.307570
O O2 0.027655 0.766420 0.379088
O O3 0.152636 0.770142 0.241302
O O4 0.984525 0.773531 0.295428
O O5 0.500000 0.270472 0.500000
O O6 0.332779 0.273124 0.632611
O O7 0.436089 0.000000 0.581410
O O8 0.695963 0.271267 0.887677
O O9 0.712701 0.285683 0.768254
O O10 0.718862 0.000000 0.816384
O O11 0.794368 0.500000 0.057961
O O12 0.695048 0.235252 0.086780
O O13 0.866115 0.225604 0.975834
O O14 0.023456 0.500000 0.755526
O O15 0.149319 0.279390 0.706439
O O16 0.980291 0.220943 0.826679
O O17 0.905912 0.500000 0.903477
O O18 0.765094 0.000000 0.321094
#
# Coordination Sequence:
#
# PCOD9172950 Si02
#       7
#     8   8   8   8   8   8   8
#     4   9  17  30  51  76  98 128 166 197 234 287
#     4   8  15  31  54  76  96 122 159 199 238 286
#     4  10  18  30  49  72  98 127 164 207 246 286
#     4   9  17  28  45  71  96 124 164 206 245 283
#     4  10  19  32  49  71 101 133 163 199 242 288
#     4   9  17  29  46  68  97 130 162 200 244 286
#     4  10  21  34  51  72  97 129 164 200 243 294
#
# _framework density 19.524842
#
# number of rings (size 3 to 8) (size 9 to 14) (size 15 to 20)
#    0.000    2.714    1.429    1.714    0.000    1.714 
#    0.000    1.429    0.000   15.000    0.000    0.000 
#    0.000    0.000    0.000    0.000    0.000    0.000 
#
# Total GULP energy -156073.996153 kJ/mol
# GULP energy per Si atom -5574.071291 kJ/mol
# Density = 1.948040 g / cm^3
# Si number density = 19.524842 Si / 1000 Ang^3
#
#
#
# Elastic Constant Matrix: (Units=GPa)
#
#
# Indices 1 2 3 4 5 6 
#
# 1 101.5569 -9.1519 55.0582 0.0007 6.6634 0.0009
# 2 -9.1519 22.8180 6.4037 0.0001 0.0822 0.0005
# 3 55.0582 6.4037 145.1126 0.0011 12.2126 0.0004
# 4 0.0007 0.0001 0.0011 9.7431 0.0005 -2.0702
# 5 6.6634 0.0822 12.2126 0.0005 15.5263 0.0002
# 6 0.0009 0.0005 0.0004 -2.0702 0.0002 22.4310
#
#
#
# Elastic Compliance Matrix: (Units=1/GPa)
#
#
# Indices 1 2 3 4 5 6 
#
# 1 0.013424 0.006865 -0.005256 0.000000 -0.001663 -0.000001
# 2 0.006865 0.047914 -0.004765 -0.000001 0.000548 -0.000001
# 3 -0.005256 -0.004765 0.009535 0.000000 -0.005219 0.000000
# 4 0.000000 -0.000001 0.000000 0.104690 -0.000003 0.009662
# 5 -0.001663 0.000548 -0.005219 -0.000003 0.069223 -0.000001
# 6 -0.000001 -0.000001 0.000000 0.009662 -0.000001 0.045473
#
#
# Mechanical properties :
#
#
# Convention : Reuss Voigt Hill
#
# Bulk Modulus (GPa) = 15.48934 41.56751 28.52843
# Shear Modulus (GPa) = 15.71875 24.01859 19.86867
#
# Velocity S-wave (km/s) = 2.84044 3.51116 3.19346
# Velocity P-wave (km/s) = 4.32526 6.14601 5.31419
#
# Compressibility (1/GPa) = 0.06456054
#
# Stress axis : x y z
#
# Youngs Moduli (GPa) = 74.49230 20.87072 104.87594
#
# Poissons Ratio (x) = -0.14329 0.55127
# Poissons Ratio (y) = -0.51142 0.49978
# Poissons Ratio (z) = 0.39156 0.09946
#
# Static dielectric constant tensor:
#      x y z
#    x 1.655270 0.000000 0.021330 
#    y 0.000000 1.775050 0.000000 
#    z 0.021330 0.000000 1.709900 
# 
# From -- ./inp_files/345457.got.cif
#   From: 2010.05.17/outbox.cif.g08.bks.cpg/sg12_173_cif.got.tgz:345457.got - 2010.06.03 13:09:07.
