data_PCOD9172444
_publ_section_title
;
Structure prediction by ZEFSAII (Michael W. Deem and Ramdas Pophale) SiO2 
 PCOD9172444
Probable space group: C 2/M
;
_chemical_formula_sum "Si O2"
_cell_formula_units_Z 64
_cell_length_a 28.747646
_cell_length_b 7.343132
_cell_length_c 23.613969
_cell_angle_alpha 90.000000
_cell_angle_beta 151.471374
_cell_angle_gamma 90.000000
_cell_volume 2380.756100
_symmetry_space_group_name_H-M "C 2/M"
_symmetry_group_IT_number 12
_symmetry_cell_setting 'monoclinic'
loop_
_space_group_symop_operation_xyz
x,y,z
-x,y,-z
-x,-y,-z
x,-y,z
1/2+x,1/2+y,z
1/2-x,1/2+y,-z
1/2-x,1/2-y,-z
1/2+x,1/2-y,z
loop_
_atom_site_type_symbol
_atom_site_label
_atom_site_fract_x
_atom_site_fract_y
_atom_site_fract_z
Si Si1 0.031159 0.277189 0.254627
Si Si2 0.865640 0.296552 0.163719
Si Si3 0.331817 0.723683 0.751218
Si Si4 0.533207 0.294894 0.939007
Si Si5 0.743377 0.723902 0.128331
Si Si6 0.665164 0.218676 0.661040
Si Si7 0.301228 0.793354 0.486491
Si Si8 0.530204 0.711935 0.419826
O O1 0.031000 0.500000 0.254451
O O2 0.134494 0.218333 0.392902
O O3 0.938979 0.217795 0.195325
O O4 0.012506 0.201854 0.172951
O O5 0.840679 0.500000 0.118826
O O6 0.771199 0.214998 0.094289
O O7 0.935777 0.306444 0.294123
O O8 0.331782 0.500000 0.749168
O O9 0.443019 0.783689 0.877905
O O10 0.257462 0.777300 0.721087
O O11 0.287722 0.790877 0.643754
O O12 0.550887 0.500000 0.979821
O O13 0.638672 0.213352 0.039769
O O14 0.739823 0.500000 0.121987
O O15 0.817532 0.784094 0.257004
O O16 0.567784 0.270356 0.523597
O O17 0.666697 0.000000 0.664558
O O18 0.382574 0.795092 0.523985
O O19 0.277066 0.000000 0.475502
O O20 0.521039 0.500000 0.396335
#
# Coordination Sequence:
#
# PCOD9172444 Si02
#       8
#     8   8   8   8   8   8   8   8
#     4   9  18  32  50  70  96 132 168 201 244 297
#     4   9  18  35  54  71  97 132 167 201 242 294
#     4   8  15  29  51  76 101 128 157 200 250 289
#     4  10  20  33  49  74 103 127 165 214 247 278
#     4   9  19  34  53  74  94 127 175 213 237 281
#     4   9  17  33  54  73  98 133 166 194 240 301
#     4   8  15  31  52  73 100 133 165 195 238 300
#     4  10  18  29  49  79 106 125 155 201 251 295
#
# _framework density 26.882217000000001
#
# number of rings (size 3 to 8) (size 9 to 14) (size 15 to 20)
#    0.000    3.000    0.000    2.625    0.000    4.000 
#    0.000    9.375    0.000    0.000    0.000    4.375 
#    0.000    0.000    0.000    0.000    0.000    0.000 
#
# Total GULP energy -178749.777045 kJ/mol
# GULP energy per Si atom -5585.930533 kJ/mol
# Density = 2.682103 g / cm^3
# Si number density = 26.882217 Si / 1000 Ang^3
#
#
#
# Elastic Constant Matrix: (Units=GPa)
#
#
# Indices 1 2 3 4 5 6 
#
# 1 92.8256 7.6838 -2.1015 0.0000 -0.3501 0.0000
# 2 7.6838 127.5872 9.0680 0.0000 -1.2369 0.0000
# 3 -2.1015 9.0680 88.8170 0.0000 -3.3441 0.0000
# 4 0.0000 0.0000 0.0000 21.3010 0.0000 -31.2838
# 5 -0.3501 -1.2369 -3.3441 0.0000 35.8234 0.0000
# 6 0.0000 0.0000 0.0000 -31.2838 0.0000 7.1731
#
#
#
# Elastic Compliance Matrix: (Units=1/GPa)
#
#
# Indices 1 2 3 4 5 6 
#
# 1 0.010837 -0.000675 0.000330 0.000000 0.000113 0.000000
# 2 -0.000675 0.007939 -0.000819 0.000000 0.000191 0.000000
# 3 0.000330 -0.000819 0.011390 0.000000 0.001038 0.000000
# 4 0.000000 0.000000 0.000000 -0.008685 0.000000 -0.037879
# 5 0.000113 0.000191 0.001038 0.000000 0.028019 0.000000
# 6 0.000000 0.000000 0.000000 -0.037879 0.000000 -0.025792
#
#
# Mechanical properties :
#
#
# Convention : Reuss Voigt Hill
#
# Bulk Modulus (GPa) = 35.92533 37.61448 36.76990
# Shear Modulus (GPa) = 141.58340 32.49813 87.04077
#
# Velocity S-wave (km/s) = 7.26515 3.48071 5.69639
# Velocity P-wave (km/s) = 9.15257 5.49331 7.54805
#
# Compressibility (1/GPa) = 0.02783552
#
# Stress axis : x y z
#
# Youngs Moduli (GPa) = 92.27948 125.96831 87.79905
#
# Poissons Ratio (x) = 0.08502 -0.02894
# Poissons Ratio (y) = 0.06228 0.07193
# Poissons Ratio (z) = -0.03041 0.10320
#
# Static dielectric constant tensor:
#      x y z
#    x 2.107250 0.000000 0.049240 
#    y 0.000000 2.055400 0.000000 
#    z 0.049240 0.000000 2.155980 
# 
# From -- ./inp_files/244067.got.cif
#   From: 2010.05.17/outbox.cif.g08.bks.cpg/sg12_123_cif.got.tgz:244067.got - 2010.06.03 13:09:07.
