data_PCOD9172001
_publ_section_title
;
Structure prediction by ZEFSAII (Michael W. Deem and Ramdas Pophale) SiO2 
 PCOD9172001
Probable space group: C 2/M
;
_chemical_formula_sum "Si O2"
_cell_formula_units_Z 48
_cell_length_a 24.999853
_cell_length_b 7.662077
_cell_length_c 15.717339
_cell_angle_alpha 90.000000
_cell_angle_beta 120.984178
_cell_angle_gamma 90.000000
_cell_volume 2581.074978
_symmetry_space_group_name_H-M "C 2/M"
_symmetry_group_IT_number 12
_symmetry_cell_setting 'monoclinic'
loop_
_space_group_symop_operation_xyz
x,y,z
-x,y,-z
-x,-y,-z
x,-y,z
1/2+x,1/2+y,z
1/2-x,1/2+y,-z
1/2-x,1/2-y,-z
1/2+x,1/2-y,z
loop_
_atom_site_type_symbol
_atom_site_label
_atom_site_fract_x
_atom_site_fract_y
_atom_site_fract_z
Si Si1 0.435612 0.287202 0.639613
Si Si2 0.430540 0.708648 0.262876
Si Si3 0.694314 0.289033 0.387775
Si Si4 0.895249 0.211845 0.420565
Si Si5 0.755409 0.703797 0.269656
Si Si6 0.291002 0.206593 0.115125
O O1 0.433640 0.500000 0.643099
O O2 0.504575 0.227986 0.724626
O O3 0.373102 0.225101 0.635285
O O4 0.429278 0.239829 0.534950
O O5 0.436122 0.500000 0.272194
O O6 0.424465 0.772432 0.355561
O O7 0.363674 0.743236 0.165839
O O8 0.691639 0.500000 0.381281
O O9 0.750000 0.250000 0.500000
O O10 0.711550 0.221331 0.307623
O O11 0.824992 0.281310 0.364476
O O12 0.892731 0.000000 0.416370
O O13 0.738423 0.500000 0.246364
O O14 0.762422 0.781268 0.180290
O O15 0.291127 0.000000 0.125878
O O16 0.250000 0.250000 0.000000
#
# Coordination Sequence:
#
# PCOD9172001 Si02
#       6
#     8   8   8   8   8   8
#     4   9  16  26  43  67  96 129 160 187 218 266
#     4   9  17  29  46  69  95 122 154 192 233 274
#     4  10  18  29  45  67  97 132 163 189 218 263
#     4   9  15  25  43  66  93 126 160 189 219 264
#     4   9  18  30  45  68  97 123 153 194 234 270
#     4  10  20  35  53  72  91 115 151 198 247 287
#
# _framework density 18.596903000000001
#
# number of rings (size 3 to 8) (size 9 to 14) (size 15 to 20)
#    0.000    2.667    1.667    1.000    0.000    2.667 
#    0.000    1.667    0.000    5.000    0.000    7.000 
#    0.000    0.000    0.000    0.000    0.000    0.000 
#
# Total GULP energy -133704.472881 kJ/mol
# GULP energy per Si atom -5571.019703 kJ/mol
# Density = 1.855458 g / cm^3
# Si number density = 18.596903 Si / 1000 Ang^3
#
#
#
# Elastic Constant Matrix: (Units=GPa)
#
#
# Indices 1 2 3 4 5 6 
#
# 1 161.3275 7.5580 84.3862 0.0000 31.4186 0.0000
# 2 7.5580 31.6730 -4.2014 0.0000 0.1778 0.0000
# 3 84.3862 -4.2014 108.5425 0.0000 9.6273 0.0000
# 4 0.0000 0.0000 0.0000 14.0983 0.0000 4.4869
# 5 31.4186 0.1778 9.6273 0.0000 17.2129 0.0000
# 6 0.0000 0.0000 0.0000 4.4869 0.0000 11.0793
#
#
#
# Elastic Compliance Matrix: (Units=1/GPa)
#
#
# Indices 1 2 3 4 5 6 
#
# 1 0.017386 -0.005531 -0.011491 0.000000 -0.025250 0.000000
# 2 -0.005531 0.033514 0.004980 0.000000 0.006965 0.000000
# 3 -0.011491 0.004980 0.017344 0.000000 0.011223 0.000000
# 4 0.000000 0.000000 0.000000 0.081425 0.000000 -0.032976
# 5 -0.025250 0.006965 0.011223 0.000000 0.097836 0.000000
# 6 0.000000 0.000000 0.000000 -0.032976 0.000000 0.103613
#
#
# Mechanical properties :
#
#
# Convention : Reuss Voigt Hill
#
# Bulk Modulus (GPa) = 22.64560 53.00319 37.82440
# Shear Modulus (GPa) = 12.82306 22.73146 17.77726
#
# Velocity S-wave (km/s) = 2.62873 3.49997 3.09516
# Velocity P-wave (km/s) = 4.62787 6.70045 5.75818
#
# Compressibility (1/GPa) = 0.04415868
#
# Stress axis : x y z
#
# Youngs Moduli (GPa) = 57.51794 29.83825 57.65647
#
# Poissons Ratio (x) = 0.16504 0.66254
# Poissons Ratio (y) = 0.31815 -0.28712
# Poissons Ratio (z) = 0.66095 -0.14859
#
# Static dielectric constant tensor:
#      x y z
#    x 1.699540 0.000000 -0.001520 
#    y 0.000000 1.717610 0.000000 
#    z -0.001520 0.000000 1.564230 
# 
# From -- ./inp_files/287261.got.cif
#   From: 2010.05.17/outbox.cif.g08.bks.cpg/sg12_144_cif.got.tgz:287261.got - 2010.06.03 13:09:07.
