data_PCOD9172938
_publ_section_title
;
Structure prediction by ZEFSAII (Michael W. Deem and Ramdas Pophale) SiO2 
 PCOD9172938
Probable space group: C 2/M
;
_chemical_formula_sum "Si O2"
_cell_formula_units_Z 56
_cell_length_a 30.536391
_cell_length_b 8.443829
_cell_length_c 19.105478
_cell_angle_alpha 90.000000
_cell_angle_beta 141.314699
_cell_angle_gamma 90.000000
_cell_volume 3079.105275
_symmetry_space_group_name_H-M "C 2/M"
_symmetry_group_IT_number 12
_symmetry_cell_setting 'monoclinic'
loop_
_space_group_symop_operation_xyz
x,y,z
-x,y,-z
-x,-y,-z
x,-y,z
1/2+x,1/2+y,z
1/2-x,1/2+y,-z
1/2-x,1/2-y,-z
1/2+x,1/2-y,z
loop_
_atom_site_type_symbol
_atom_site_label
_atom_site_fract_x
_atom_site_fract_y
_atom_site_fract_z
Si Si1 0.363787 0.187906 0.248545
Si Si2 0.565083 0.306872 0.034932
Si Si3 0.217650 0.313364 0.072921
Si Si4 0.218786 0.186597 0.231092
Si Si5 0.634556 0.685989 0.591888
Si Si6 0.004134 0.309940 0.342506
Si Si7 0.070897 0.189762 0.879723
O O1 0.292237 0.269408 0.132827
O O2 0.371290 0.226212 0.340541
O O3 0.434995 0.240368 0.299939
O O4 0.355989 0.000000 0.229298
O O5 0.565355 0.500000 0.036229
O O6 0.641803 0.257662 0.158822
O O7 0.500000 0.251760 0.000000
O O8 0.559120 0.260972 0.945856
O O9 0.216951 0.500000 0.086710
O O10 0.216824 0.216116 0.144831
O O11 0.144659 0.265459 0.946640
O O12 0.288592 0.273924 0.342803
O O13 0.226052 0.000000 0.253635
O O14 0.629965 0.500000 0.599897
O O15 0.572861 0.740896 0.464367
O O16 0.007776 0.500000 0.348257
O O17 0.990027 0.248665 0.246935
O O18 0.076699 0.000000 0.884455
#
# Coordination Sequence:
#
# PCOD9172938 Si02
#       7
#     8   8   8   8   8   8   8
#     4  10  20  34  51  71  96 130 173 216 253 288
#     4   8  15  30  55  84 106 125 154 195 245 299
#     4  10  18  30  49  71  99 132 166 207 249 293
#     4   9  16  29  51  76 102 131 163 201 244 291
#     4  11  21  33  51  73 100 133 171 212 247 288
#     4  11  23  36  50  69  98 135 172 211 251 293
#     4  10  20  34  52  74 102 133 164 201 249 303
#
# _framework density 18.187101999999999
#
# number of rings (size 3 to 8) (size 9 to 14) (size 15 to 20)
#    0.000    2.143    0.000    7.286    0.000    4.571 
#    0.000    0.000    0.000   16.286    0.000    0.000 
#    0.000    0.000    0.000    0.000    0.000    0.000 
#
# Total GULP energy -156234.436069 kJ/mol
# GULP energy per Si atom -5579.801288 kJ/mol
# Density = 1.814571 g / cm^3
# Si number density = 18.187102 Si / 1000 Ang^3
#
#
#
# Elastic Constant Matrix: (Units=GPa)
#
#
# Indices 1 2 3 4 5 6 
#
# 1 93.3971 0.7703 41.7982 0.0000 22.8374 0.0000
# 2 0.7703 18.7621 -7.7963 0.0000 2.0068 0.0000
# 3 41.7982 -7.7963 103.0676 0.0000 14.1972 0.0000
# 4 0.0000 0.0000 0.0000 28.7074 0.0000 3.8283
# 5 22.8374 2.0068 14.1972 0.0000 21.2708 0.0000
# 6 0.0000 0.0000 0.0000 3.8283 0.0000 6.5248
#
#
#
# Elastic Compliance Matrix: (Units=1/GPa)
#
#
# Indices 1 2 3 4 5 6 
#
# 1 0.016324 -0.001115 -0.004740 0.000000 -0.014257 0.000000
# 2 -0.001115 0.056634 0.005845 0.000000 -0.008047 0.000000
# 3 -0.004740 0.005845 0.012600 0.000000 -0.003872 0.000000
# 4 0.000000 0.000000 0.000000 0.037791 0.000000 -0.022173
# 5 -0.014257 -0.008047 -0.003872 0.000000 0.065663 0.000000
# 6 0.000000 0.000000 0.000000 -0.022173 0.000000 0.166271
#
#
# Mechanical properties :
#
#
# Convention : Reuss Voigt Hill
#
# Bulk Modulus (GPa) = 11.69098 31.64125 21.66612
# Shear Modulus (GPa) = 13.02704 23.33091 18.17898
#
# Velocity S-wave (km/s) = 2.67924 3.58554 3.16500
# Velocity P-wave (km/s) = 4.00166 5.88021 5.02942
#
# Compressibility (1/GPa) = 0.08553599
#
# Stress axis : x y z
#
# Youngs Moduli (GPa) = 61.26051 17.65725 79.36333
#
# Poissons Ratio (x) = 0.01969 0.37622
# Poissons Ratio (y) = 0.06831 -0.46385
# Poissons Ratio (z) = 0.29041 -0.10320
#
# Static dielectric constant tensor:
#      x y z
#    x 1.640890 0.000000 0.020540 
#    y 0.000000 1.604980 0.000000 
#    z 0.020540 0.000000 1.637090 
# 
# From -- ./inp_files/295157.got.cif
#   From: 2010.05.17/outbox.cif.g08.bks.cpg/sg12_148_cif.got.tgz:295157.got - 2010.06.03 13:09:07.
