data_PCOD9172747
_publ_section_title
;
Structure prediction by ZEFSAII (Michael W. Deem and Ramdas Pophale) SiO2 
 PCOD9172747
Probable space group: C 2/M
;
_chemical_formula_sum "Si O2"
_cell_formula_units_Z 48
_cell_length_a 28.561803
_cell_length_b 8.774487
_cell_length_c 21.502440
_cell_angle_alpha 90.000000
_cell_angle_beta 31.746362
_cell_angle_gamma 90.000000
_cell_volume 2835.390431
_symmetry_space_group_name_H-M "C 2/M"
_symmetry_group_IT_number 12
_symmetry_cell_setting 'monoclinic'
loop_
_space_group_symop_operation_xyz
x,y,z
-x,y,-z
-x,-y,-z
x,-y,z
1/2+x,1/2+y,z
1/2-x,1/2+y,-z
1/2-x,1/2-y,-z
1/2+x,1/2-y,z
loop_
_atom_site_type_symbol
_atom_site_label
_atom_site_fract_x
_atom_site_fract_y
_atom_site_fract_z
Si Si1 0.950618 0.182324 0.490810
Si Si2 0.067628 0.677695 0.108033
Si Si3 0.220485 0.177955 0.136169
Si Si4 0.774287 0.318103 0.735866
Si Si5 0.440668 0.816555 0.747102
Si Si6 0.929817 0.816562 0.027982
O O1 0.848813 0.236831 0.610713
O O2 0.000000 0.225944 0.500000
O O3 0.998163 0.257784 0.378025
O O4 0.955810 0.000000 0.479796
O O5 0.045404 0.500000 0.124347
O O6 0.028715 0.730604 0.218111
O O7 0.046058 0.763967 0.068858
O O8 0.174770 0.687982 0.995114
O O9 0.204183 0.271665 0.217566
O O10 0.156337 0.246607 0.157029
O O11 0.198158 0.000000 0.171674
O O12 0.779940 0.500000 0.721928
O O13 0.671735 0.267849 0.842109
O O14 0.435387 0.000000 0.752258
O O15 0.929457 0.000000 0.028958
O O16 0.000000 0.761891 0.000000
#
# Coordination Sequence:
#
# PCOD9172747 Si02
#       6
#     8   8   8   8   8   8
#     4  11  22  34  49  71 103 141 177 213 248 292
#     4   9  20  34  49  74 104 133 168 209 254 303
#     4  10  18  30  47  70 103 137 169 206 247 296
#     4  10  19  32  52  76 102 134 171 210 250 297
#     4  11  21  32  48  71 102 139 175 208 246 298
#     4   9  19  36  58  82 104 128 163 210 262 309
#
# _framework density 16.928885999999999
#
# number of rings (size 3 to 8) (size 9 to 14) (size 15 to 20)
#    0.000    2.000    1.667    2.500    0.000    3.667 
#    0.000    0.000    0.000    1.000    0.000    0.000 
#    0.000    0.000    0.000    0.000    0.000    0.000 
#
# Total GULP energy -133870.940752 kJ/mol
# GULP energy per Si atom -5577.955865 kJ/mol
# Density = 1.689036 g / cm^3
# Si number density = 16.928886 Si / 1000 Ang^3
#
#
#
# Elastic Constant Matrix: (Units=GPa)
#
#
# Indices 1 2 3 4 5 6 
#
# 1 119.2293 22.6497 45.8462 0.0002 1.2477 -0.0006
# 2 22.6497 28.0944 16.0617 -0.0013 -1.3518 0.0007
# 3 45.8462 16.0617 61.9784 -0.0008 8.8675 0.0030
# 4 0.0002 -0.0013 -0.0008 21.8523 0.0041 2.0708
# 5 1.2477 -1.3518 8.8675 0.0041 18.4161 -0.0035
# 6 -0.0006 0.0007 0.0030 2.0708 -0.0035 20.2138
#
#
#
# Elastic Compliance Matrix: (Units=1/GPa)
#
#
# Indices 1 2 3 4 5 6 
#
# 1 0.012553 -0.005225 -0.008329 -0.000001 0.002776 0.000002
# 2 -0.005225 0.045362 -0.009040 0.000001 0.008037 0.000001
# 3 -0.008329 -0.009040 0.026477 0.000003 -0.012848 -0.000006
# 4 -0.000001 0.000001 0.000003 0.046210 -0.000013 -0.004734
# 5 0.002776 0.008037 -0.012848 -0.000013 0.060888 0.000013
# 6 0.000002 0.000001 -0.000006 -0.004734 0.000013 0.049956
#
#
# Mechanical properties :
#
#
# Convention : Reuss Voigt Hill
#
# Bulk Modulus (GPa) = 25.50817 42.04636 33.77727
# Shear Modulus (GPa) = 16.68314 20.41274 18.54794
#
# Velocity S-wave (km/s) = 3.14265 3.47622 3.31363
# Velocity P-wave (km/s) = 5.31685 6.40337 5.88523
#
# Compressibility (1/GPa) = 0.03920313
#
# Stress axis : x y z
#
# Youngs Moduli (GPa) = 79.65908 22.04496 37.76898
#
# Poissons Ratio (x) = 0.11519 0.31458
# Poissons Ratio (y) = 0.41624 0.34144
# Poissons Ratio (z) = 0.66349 0.19929
#
# Static dielectric constant tensor:
#      x y z
#    x 1.564480 0.000000 0.002280 
#    y 0.000000 1.567710 0.000000 
#    z 0.002280 0.000000 1.596110 
# 
# From -- ./inp_files/287957.got.cif
#   From: 2010.05.17/outbox.cif.g08.bks.cpg/sg12_144_cif.got.tgz:287957.got - 2010.06.03 13:09:07.
