data_PCOD9172237
_publ_section_title
;
Structure prediction by ZEFSAII (Michael W. Deem and Ramdas Pophale) SiO2 
 PCOD9172237
Probable space group: C 2/M
;
_chemical_formula_sum "Si O2"
_cell_formula_units_Z 64
_cell_length_a 21.181405
_cell_length_b 7.753979
_cell_length_c 24.665206
_cell_angle_alpha 90.000000
_cell_angle_beta 54.170662
_cell_angle_gamma 90.000000
_cell_volume 3284.420009
_symmetry_space_group_name_H-M "C 2/M"
_symmetry_group_IT_number 12
_symmetry_cell_setting 'monoclinic'
loop_
_space_group_symop_operation_xyz
x,y,z
-x,y,-z
-x,-y,-z
x,-y,z
1/2+x,1/2+y,z
1/2-x,1/2+y,-z
1/2-x,1/2-y,-z
1/2+x,1/2-y,z
loop_
_atom_site_type_symbol
_atom_site_label
_atom_site_fract_x
_atom_site_fract_y
_atom_site_fract_z
Si Si1 0.139714 0.700276 0.302296
Si Si2 0.677176 0.293765 0.498088
Si Si3 0.199213 0.206010 0.156186
Si Si4 0.184114 0.292827 0.988602
Si Si5 0.568000 0.208584 0.132611
Si Si6 0.916246 0.711831 0.267719
Si Si7 0.529044 0.203232 0.641315
Si Si8 0.240799 0.202474 0.352750
O O1 0.132142 0.500000 0.320961
O O2 0.181661 0.715479 0.223198
O O3 0.189853 0.781619 0.324768
O O4 0.053070 0.776697 0.337741
O O5 0.668269 0.500000 0.501116
O O6 0.750000 0.250000 0.500000
O O7 0.598418 0.222925 0.563850
O O8 0.697631 0.226433 0.427763
O O9 0.278027 0.269959 0.086548
O O10 0.127544 0.243564 0.151215
O O11 0.204352 0.000000 0.160122
O O12 0.178313 0.500000 0.986768
O O13 0.250000 0.250000 0.000000
O O14 0.105213 0.229092 0.057040
O O15 0.482056 0.268197 0.192057
O O16 0.567001 0.000000 0.131127
O O17 0.916485 0.500000 0.266825
O O18 0.943100 0.769928 0.314177
O O19 0.828339 0.772312 0.301691
O O20 0.514802 0.000000 0.657399
O O21 0.251393 0.000000 0.359367
#
# Coordination Sequence:
#
# PCOD9172237 Si02
#       8
#     8   8   8   8   8   8   8   8
#     4  11  23  38  56  78 106 142 181 221 264 317
#     4  11  22  37  59  84 111 142 175 217 266 316
#     4  10  18  29  47  75 110 142 173 216 268 315
#     4   8  15  25  42  72 106 137 172 215 260 310
#     4   9  15  28  51  77 105 139 179 218 261 312
#     4   9  16  32  56  78 104 138 175 218 263 308
#     4  10  20  37  58  80 106 138 180 222 263 311
#     4  10  22  39  56  77 107 139 172 216 268 317
#
# _framework density 19.485938000000001
#
# number of rings (size 3 to 8) (size 9 to 14) (size 15 to 20)
#    0.000    2.250    2.500    1.125    0.000    3.000 
#    0.000    3.125    0.000    0.750    0.000    5.250 
#    0.000    0.000    0.000    0.000    0.000    0.000 
#
# Total GULP energy -178438.975945 kJ/mol
# GULP energy per Si atom -5576.217998 kJ/mol
# Density = 1.944159 g / cm^3
# Si number density = 19.485938 Si / 1000 Ang^3
#
#
#
# Elastic Constant Matrix: (Units=GPa)
#
#
# Indices 1 2 3 4 5 6 
#
# 1 111.7954 -7.9477 72.6159 0.0000 -16.3946 -0.0017
# 2 -7.9477 23.6700 -17.7662 -0.0028 -3.7098 -0.0031
# 3 72.6159 -17.7662 154.0840 0.0006 -29.4368 -0.0002
# 4 0.0000 -0.0028 0.0006 17.9758 -0.0003 1.8228
# 5 -16.3946 -3.7098 -29.4368 -0.0003 27.6279 0.0001
# 6 -0.0017 -0.0031 -0.0002 1.8228 0.0001 18.7707
#
#
#
# Elastic Compliance Matrix: (Units=1/GPa)
#
#
# Indices 1 2 3 4 5 6 
#
# 1 0.012941 0.000260 -0.005769 0.000000 0.001567 0.000001
# 2 0.000260 0.051743 0.009040 0.000007 0.016735 0.000008
# 3 -0.005769 0.009040 0.012341 0.000001 0.010940 0.000001
# 4 0.000000 0.000007 0.000001 0.056184 0.000003 -0.005456
# 5 0.001567 0.016735 0.010940 0.000003 0.051028 0.000003
# 6 0.000001 0.000008 0.000001 -0.005456 0.000003 0.053804
#
#
# Mechanical properties :
#
#
# Convention : Reuss Voigt Hill
#
# Bulk Modulus (GPa) = 11.89219 42.59484 27.24351
# Shear Modulus (GPa) = 19.30448 29.05138 24.17793
#
# Velocity S-wave (km/s) = 3.15093 3.86539 3.52630
# Velocity P-wave (km/s) = 4.39932 6.46749 5.53093
#
# Compressibility (1/GPa) = 0.08408880
#
# Stress axis : x y z
#
# Youngs Moduli (GPa) = 77.27655 19.32612 81.02969
#
# Poissons Ratio (x) = -0.00503 0.46747
# Poissons Ratio (y) = -0.02013 -0.73255
# Poissons Ratio (z) = 0.44582 -0.17472
#
# Static dielectric constant tensor:
#      x y z
#    x 1.646780 0.000000 -0.033590 
#    y 0.000000 1.713570 0.000000 
#    z -0.033590 0.000000 1.709150 
# 
# From -- ./inp_files/319951.got.cif
#   From: 2010.05.17/outbox.cif.g08.bks.cpg/sg12_160_cif.got.tgz:319951.got - 2010.06.03 13:09:07.
