data_PCOD9172905
_publ_section_title
;
Structure prediction by ZEFSAII (Michael W. Deem and Ramdas Pophale) SiO2 
 PCOD9172905
Probable space group: C 2/M
;
_chemical_formula_sum "Si O2"
_cell_formula_units_Z 56
_cell_length_a 21.999241
_cell_length_b 20.887949
_cell_length_c 9.919991
_cell_angle_alpha 90.000000
_cell_angle_beta 127.203948
_cell_angle_gamma 90.000000
_cell_volume 3630.731646
_symmetry_space_group_name_H-M "C 2/M"
_symmetry_group_IT_number 12
_symmetry_cell_setting 'monoclinic'
loop_
_space_group_symop_operation_xyz
x,y,z
-x,y,-z
-x,-y,-z
x,-y,z
1/2+x,1/2+y,z
1/2-x,1/2+y,-z
1/2-x,1/2-y,-z
1/2+x,1/2-y,z
loop_
_atom_site_type_symbol
_atom_site_label
_atom_site_fract_x
_atom_site_fract_y
_atom_site_fract_z
Si Si1 0.336595 0.206295 0.974925
Si Si2 0.576077 0.429336 0.011530
Si Si3 0.523561 0.702882 0.874071
Si Si4 0.287309 0.842221 0.638500
Si Si5 0.296434 0.812630 0.222367
Si Si6 0.756246 0.073596 0.659145
Si Si7 0.864879 0.240171 0.546487
O O1 0.418753 0.239426 0.077115
O O2 0.320437 0.178742 0.100784
O O3 0.321556 0.156285 0.834182
O O4 0.276642 0.264958 0.871866
O O5 0.583814 0.500000 0.955842
O O6 0.564715 0.365837 0.907002
O O7 0.500000 0.431875 0.000000
O O8 0.651623 0.420302 0.204099
O O9 0.446276 0.710537 0.687055
O O10 0.500000 0.705332 0.000000
O O11 0.275626 0.903434 0.527975
O O12 0.202940 0.811493 0.537100
O O13 0.340343 0.792309 0.626594
O O14 0.276082 0.877510 0.272899
O O15 0.359399 0.775536 0.395713
O O16 0.736742 0.000000 0.658802
#
# Coordination Sequence:
#
# PCOD9172905 Si02
#       7
#     8   8   8   8   8   8   8
#     4  10  18  30  49  68 102 124 157 203 257 278
#     4   9  17  26  41  70 104 132 161 195 228 276
#     4  11  17  26  46  76  97 127 160 202 238 291
#     4   9  16  30  45  70  94 126 154 207 239 280
#     4   9  19  33  45  70  98 133 158 201 244 294
#     4  10  18  31  50  70  95 131 169 198 235 289
#     4   9  17  27  47  68 101 124 158 194 249 277
#
# _framework density 15.423888
#
# number of rings (size 3 to 8) (size 9 to 14) (size 15 to 20)
#    0.000    2.429    2.857    2.571    0.000    0.571 
#    0.000    0.714    0.000    0.000    0.000   19.000 
#    0.000    0.429    0.000    0.000    0.000    0.000 
#
# Total GULP energy -155874.277364 kJ/mol
# GULP energy per Si atom -5566.938477 kJ/mol
# Density = 1.538878 g / cm^3
# Si number density = 15.423888 Si / 1000 Ang^3
#
#
#
# Elastic Constant Matrix: (Units=GPa)
#
#
# Indices 1 2 3 4 5 6 
#
# 1 38.2127 22.6384 30.2542 0.0000 -5.1403 0.0000
# 2 22.6384 80.8916 39.1416 0.0000 -6.1848 0.0000
# 3 30.2542 39.1416 90.8744 0.0000 -11.9332 0.0000
# 4 0.0000 0.0000 0.0000 15.6761 0.0000 5.1738
# 5 -5.1403 -6.1848 -11.9332 0.0000 27.1486 0.0000
# 6 0.0000 0.0000 0.0000 5.1738 0.0000 14.1389
#
#
#
# Elastic Compliance Matrix: (Units=1/GPa)
#
#
# Indices 1 2 3 4 5 6 
#
# 1 0.037511 -0.005604 -0.009880 0.000000 0.001483 0.000000
# 2 -0.005604 0.016465 -0.005171 0.000000 0.000417 0.000000
# 3 -0.009880 -0.005171 0.017108 0.000000 0.004471 0.000000
# 4 0.000000 0.000000 0.000000 0.072554 0.000000 -0.026549
# 5 0.001483 0.000417 0.004471 0.000000 0.039175 0.000000
# 6 0.000000 0.000000 0.000000 -0.026549 0.000000 0.080442
#
#
# Mechanical properties :
#
#
# Convention : Reuss Voigt Hill
#
# Bulk Modulus (GPa) = 33.58688 43.78302 38.68495
# Shear Modulus (GPa) = 15.89882 19.25570 17.57726
#
# Velocity S-wave (km/s) = 3.21408 3.53715 3.37948
# Velocity P-wave (km/s) = 5.96631 6.71789 6.35322
#
# Compressibility (1/GPa) = 0.02977353
#
# Stress axis : x y z
#
# Youngs Moduli (GPa) = 26.65899 60.73618 58.45245
#
# Poissons Ratio (x) = 0.34035 0.57750
# Poissons Ratio (y) = 0.14939 0.30228
# Poissons Ratio (z) = 0.26339 0.31409
#
# Static dielectric constant tensor:
#      x y z
#    x 1.503220 0.000000 -0.002010 
#    y 0.000000 1.520990 0.000000 
#    z -0.002010 0.000000 1.523240 
# 
# From -- ./inp_files/98907.got.cif
#   From: 2010.05.17/outbox.cif.g08.bks.cpg/sg12_50_cif.got.tgz:98907.got - 2010.06.03 13:09:07.
