data_PCOD9172420
_publ_section_title
;
Structure prediction by ZEFSAII (Michael W. Deem and Ramdas Pophale) SiO2 
 PCOD9172420
Probable space group: C 2/M
;
_chemical_formula_sum "Si O2"
_cell_formula_units_Z 56
_cell_length_a 17.791718
_cell_length_b 13.139419
_cell_length_c 20.727567
_cell_angle_alpha 90.000000
_cell_angle_beta 36.909769
_cell_angle_gamma 90.000000
_cell_volume 2910.022145
_symmetry_space_group_name_H-M "C 2/M"
_symmetry_group_IT_number 12
_symmetry_cell_setting 'monoclinic'
loop_
_space_group_symop_operation_xyz
x,y,z
-x,y,-z
-x,-y,-z
x,-y,z
1/2+x,1/2+y,z
1/2-x,1/2+y,-z
1/2-x,1/2-y,-z
1/2+x,1/2-y,z
loop_
_atom_site_type_symbol
_atom_site_label
_atom_site_fract_x
_atom_site_fract_y
_atom_site_fract_z
Si Si1 0.912045 0.226193 0.810794
Si Si2 0.363218 0.194211 0.504409
Si Si3 0.042794 0.877376 0.041047
Si Si4 0.369091 0.380685 0.412851
Si Si5 0.797433 0.117311 0.273563
Si Si6 0.275213 0.881951 0.973352
Si Si7 0.388134 0.113610 0.713194
O O1 0.802917 0.149826 0.909423
O O2 0.890591 0.294819 0.761844
O O3 0.036389 0.163676 0.706746
O O4 0.896482 0.313096 0.876723
O O5 0.385200 0.308852 0.464346
O O6 0.271476 0.140359 0.515407
O O7 0.288026 0.184979 0.622064
O O8 0.492678 0.133348 0.414704
O O9 0.938103 0.847046 0.165146
O O10 0.178085 0.860078 0.980220
O O11 0.033616 0.000000 0.043164
O O12 0.000000 0.837341 0.000000
O O13 0.390574 0.500000 0.408183
O O14 0.734578 0.114798 0.246243
O O15 0.796818 0.000000 0.299001
O O16 0.303590 0.000000 0.955144
O O17 0.398192 0.000000 0.735689
#
# Coordination Sequence:
#
# PCOD9172420 Si02
#       7
#     8   8   8   8   8   8   8
#     4  10  20  31  48  71  97 132 170 203 248 297
#     4  10  20  32  51  76 100 132 169 200 246 305
#     4   9  17  29  47  72 101 131 158 192 246 302
#     4  10  20  35  52  72 102 134 166 206 248 295
#     4  10  18  29  49  76 105 134 164 204 254 303
#     4  10  19  32  49  71 101 131 166 209 249 298
#     4  10  19  31  48  73 106 134 162 208 257 301
#
# _framework density 19.243839000000001
#
# number of rings (size 3 to 8) (size 9 to 14) (size 15 to 20)
#    0.000    2.143    0.000    4.286    0.000    4.571 
#    0.000    0.714    0.000    7.714    0.000    0.000 
#    0.000   40.571    0.000    0.000    0.000    0.000 
#
# Total GULP energy -156050.372002 kJ/mol
# GULP energy per Si atom -5573.227571 kJ/mol
# Density = 1.920004 g / cm^3
# Si number density = 19.243839 Si / 1000 Ang^3
#
#
#
# Elastic Constant Matrix: (Units=GPa)
#
#
# Indices 1 2 3 4 5 6 
#
# 1 34.7425 19.5023 3.0791 0.0000 2.4616 0.0000
# 2 19.5023 130.0556 39.5119 0.0000 -0.8364 0.0000
# 3 3.0791 39.5119 103.5719 -0.0001 -0.1862 0.0000
# 4 0.0000 0.0000 -0.0001 27.2035 0.0000 1.5551
# 5 2.4616 -0.8364 -0.1862 0.0000 32.0532 0.0000
# 6 0.0000 0.0000 0.0000 1.5551 0.0000 17.2865
#
#
#
# Elastic Compliance Matrix: (Units=1/GPa)
#
#
# Indices 1 2 3 4 5 6 
#
# 1 0.031725 -0.005074 0.000988 0.000000 -0.002563 0.000000
# 2 -0.005074 0.009510 -0.003476 0.000000 0.000618 0.000000
# 3 0.000988 -0.003476 0.010952 0.000000 -0.000103 0.000000
# 4 0.000000 0.000000 0.000000 0.036950 0.000000 -0.003324
# 5 -0.002563 0.000618 -0.000103 0.000000 0.031411 0.000000
# 6 0.000000 0.000000 0.000000 -0.003324 0.000000 0.058148
#
#
# Mechanical properties :
#
#
# Convention : Reuss Voigt Hill
#
# Bulk Modulus (GPa) = 26.98120 43.61741 35.29931
# Shear Modulus (GPa) = 24.25144 29.06042 26.65593
#
# Velocity S-wave (km/s) = 3.55381 3.89024 3.72582
# Velocity P-wave (km/s) = 5.55792 6.54931 6.07388
#
# Compressibility (1/GPa) = 0.03706284
#
# Stress axis : x y z
#
# Youngs Moduli (GPa) = 31.52047 105.15369 91.31052
#
# Poissons Ratio (x) = 0.53355 -0.09021
# Poissons Ratio (y) = 0.15993 0.31740
# Poissons Ratio (z) = -0.03114 0.36551
#
# Static dielectric constant tensor:
#      x y z
#    x 1.712490 0.000000 0.016150 
#    y 0.000000 1.665370 0.000000 
#    z 0.016150 0.000000 1.729320 
# 
# From -- ./inp_files/346994.got.cif
#   From: 2010.05.17/outbox.cif.g08.bks.cpg/sg12_174_cif.got.tgz:346994.got - 2010.06.03 13:09:07.
