data_PCOD9172466
_publ_section_title
;
Structure prediction by ZEFSAII (Michael W. Deem and Ramdas Pophale) SiO2 
 PCOD9172466
Probable space group: C 2/M
;
_chemical_formula_sum "Si O2"
_cell_formula_units_Z 36
_cell_length_a 7.255326
_cell_length_b 27.067005
_cell_length_c 9.140635
_cell_angle_alpha 90.000000
_cell_angle_beta 129.617449
_cell_angle_gamma 90.000000
_cell_volume 1382.751566
_symmetry_space_group_name_H-M "C 2/M"
_symmetry_group_IT_number 12
_symmetry_cell_setting 'monoclinic'
loop_
_space_group_symop_operation_xyz
x,y,z
-x,y,-z
-x,-y,-z
x,-y,z
1/2+x,1/2+y,z
1/2-x,1/2+y,-z
1/2-x,1/2-y,-z
1/2+x,1/2-y,z
loop_
_atom_site_type_symbol
_atom_site_label
_atom_site_fract_x
_atom_site_fract_y
_atom_site_fract_z
Si Si1 0.398803 0.687565 0.190748
Si Si2 0.867216 0.297122 0.229893
Si Si3 0.538479 0.417078 0.321928
Si Si4 0.000000 0.371137 0.500000
Si Si5 0.703022 0.500000 0.978649
Si Si6 0.138539 0.500000 0.411296
O O1 0.628198 0.690545 0.199406
O O2 0.409057 0.739422 0.279374
O O3 0.415006 0.635920 0.284267
O O4 0.179067 0.692283 0.963918
O O5 0.058648 0.334496 0.395300
O O6 0.770760 0.402845 0.338294
O O7 0.352699 0.452221 0.147070
O O8 0.693285 0.451390 0.510346
O O9 0.500000 0.500000 0.000000
O O10 0.953188 0.500000 0.186427
O O11 0.000000 0.500000 0.500000
#
# Coordination Sequence:
#
# PCOD9172466 Si02
#       6
#     8   8   8   4   4   4
#     4   9  19  34  50  72 108 141 168 209 253 303
#     4   9  19  31  50  73 102 144 173 205 250 303
#     4  10  20  29  45  70  98 138 163 206 261 304
#     4  10  18  29  50  72 106 135 170 206 252 306
#     4  11  19  28  45  65 102 127 167 210 258 310
#     4  11  19  28  43  69  96 127 173 205 255 318
#
# _framework density 26.035046000000001
#
# number of rings (size 3 to 8) (size 9 to 14) (size 15 to 20)
#    0.000    2.222    3.333    0.000    9.333    3.556 
#    0.000    0.000    0.000    0.000    0.000    0.000 
#    0.000  117.333    0.000    1.556    0.000    0.000 
#
# Total GULP energy -100536.732293 kJ/mol
# GULP energy per Si atom -5585.374016 kJ/mol
# Density = 2.597579 g / cm^3
# Si number density = 26.035046 Si / 1000 Ang^3
#
#
#
# Elastic Constant Matrix: (Units=GPa)
#
#
# Indices 1 2 3 4 5 6 
#
# 1 72.7140 24.3873 23.4885 0.0000 -4.7991 0.0000
# 2 24.3873 239.3208 91.3544 0.0000 20.4323 0.0000
# 3 23.4885 91.3544 192.3679 0.0000 23.0986 0.0000
# 4 0.0000 0.0000 0.0000 9.7025 0.0000 13.2328
# 5 -4.7991 20.4323 23.0986 0.0000 17.4707 0.0000
# 6 0.0000 0.0000 0.0000 13.2328 0.0000 25.9379
#
#
#
# Elastic Compliance Matrix: (Units=1/GPa)
#
#
# Indices 1 2 3 4 5 6 
#
# 1 0.015585 -0.001489 -0.002281 0.000000 0.009039 0.000000
# 2 -0.001489 0.005410 -0.001876 0.000000 -0.004255 0.000000
# 3 -0.002281 -0.001876 0.007346 0.000000 -0.008145 0.000000
# 4 0.000000 0.000000 0.000000 0.338802 0.000000 -0.172846
# 5 0.009039 -0.004255 -0.008145 0.000000 0.075466 0.000000
# 6 0.000000 0.000000 0.000000 -0.172846 0.000000 0.126735
#
#
# Mechanical properties :
#
#
# Convention : Reuss Voigt Hill
#
# Bulk Modulus (GPa) = 58.65833 86.98481 72.82157
# Shear Modulus (GPa) = 8.52777 34.96706 21.74742
#
# Velocity S-wave (km/s) = 1.81180 3.66878 2.89331
# Velocity P-wave (km/s) = 5.19194 7.17145 6.26043
#
# Compressibility (1/GPa) = 0.01704788
#
# Stress axis : x y z
#
# Youngs Moduli (GPa) = 64.16271 184.85144 136.13017
#
# Poissons Ratio (x) = 0.27526 0.31054
# Poissons Ratio (y) = 0.09554 0.25542
# Poissons Ratio (z) = 0.14637 0.34684
#
# Static dielectric constant tensor:
#      x y z
#    x 2.157020 0.000000 -0.002990 
#    y 0.000000 2.070290 0.000000 
#    z -0.002990 0.000000 2.124650 
# 
# From -- ./inp_files/135049.got.cif
#   From: 2010.05.17/outbox.cif.g08.bks.cpg/sg12_68_cif.got.tgz:135049.got - 2010.06.03 13:09:07.
