data_PCOD9172539
_publ_section_title
;
Structure prediction by ZEFSAII (Michael W. Deem and Ramdas Pophale) SiO2 
 PCOD9172539
Probable space group: C 2/M
;
_chemical_formula_sum "Si O2"
_cell_formula_units_Z 36
_cell_length_a 13.050428
_cell_length_b 19.648747
_cell_length_c 20.414277
_cell_angle_alpha 90.000000
_cell_angle_beta 155.153382
_cell_angle_gamma 90.000000
_cell_volume 2199.580674
_symmetry_space_group_name_H-M "C 2/M"
_symmetry_group_IT_number 12
_symmetry_cell_setting 'monoclinic'
loop_
_space_group_symop_operation_xyz
x,y,z
-x,y,-z
-x,-y,-z
x,-y,z
1/2+x,1/2+y,z
1/2-x,1/2+y,-z
1/2-x,1/2-y,-z
1/2+x,1/2-y,z
loop_
_atom_site_type_symbol
_atom_site_label
_atom_site_fract_x
_atom_site_fract_y
_atom_site_fract_z
Si Si1 0.939436 0.920828 0.887331
Si Si2 0.354910 0.682836 0.095459
Si Si3 0.500000 0.785652 0.000000
Si Si4 0.722249 0.260482 0.589020
Si Si5 0.421535 0.812359 0.300923
O O1 0.678094 0.884077 0.732929
O O2 0.108199 0.876863 0.935941
O O3 0.941713 0.000000 0.871495
O O4 0.000000 0.914326 0.000000
O O5 0.615763 0.706831 0.275968
O O6 0.165672 0.671523 0.045532
O O7 0.250000 0.750000 0.000000
O O8 0.309508 0.736544 0.850637
O O9 0.500000 0.292566 0.500000
O O10 0.586042 0.220751 0.452102
O O11 0.913205 0.312822 0.668259
#
# Coordination Sequence:
#
# PCOD9172539 Si02
#       5
#     8   8   4   8   8
#     4  11  21  34  52  77 107 142 178 213 267 321
#     4  11  19  33  54  76 108 137 177 220 263 306
#     4  10  18  32  56  78 102 136 176 222 266 298
#     4  10  18  29  51  77 103 128 171 221 261 304
#     4  10  18  31  49  79 104 129 171 219 260 306
#
# _framework density 16.366755999999999
#
# number of rings (size 3 to 8) (size 9 to 14) (size 15 to 20)
#    0.000    1.556    5.556    1.333    0.000    0.000 
#    0.000    2.778    0.000    0.667    0.000   10.889 
#    0.000    0.000    0.000    0.000    0.000    0.000 
#
# Total GULP energy -100241.945484 kJ/mol
# GULP energy per Si atom -5568.996971 kJ/mol
# Density = 1.632950 g / cm^3
# Si number density = 16.366756 Si / 1000 Ang^3
#
#
#
# Elastic Constant Matrix: (Units=GPa)
#
#
# Indices 1 2 3 4 5 6 
#
# 1 127.8202 59.9050 32.8120 0.0019 31.1697 -0.0011
# 2 59.9050 109.2393 27.4499 0.0026 9.0173 0.0018
# 3 32.8120 27.4499 98.3643 -0.0080 -1.2433 0.0018
# 4 0.0019 0.0026 -0.0080 12.7399 -0.0009 2.3008
# 5 31.1697 9.0173 -1.2433 -0.0009 42.8153 0.0003
# 6 -0.0011 0.0018 0.0018 2.3008 0.0003 28.0541
#
#
#
# Elastic Compliance Matrix: (Units=1/GPa)
#
#
# Indices 1 2 3 4 5 6 
#
# 1 0.013466 -0.005931 -0.002946 -0.000004 -0.008640 0.000001
# 2 -0.005931 0.012660 -0.001534 -0.000002 0.001607 -0.000001
# 3 -0.002946 -0.001534 0.011613 0.000009 0.002805 -0.000002
# 4 -0.000004 -0.000002 0.000009 0.079674 0.000005 -0.006534
# 5 -0.008640 0.001607 0.002805 0.000005 0.029389 -0.000001
# 6 0.000001 -0.000001 -0.000002 -0.006534 -0.000001 0.036181
#
#
# Mechanical properties :
#
#
# Convention : Reuss Voigt Hill
#
# Bulk Modulus (GPa) = 59.11585 63.97305 61.54445
# Shear Modulus (GPa) = 23.87273 31.07232 27.47252
#
# Velocity S-wave (km/s) = 3.82332 4.36191 4.10146
# Velocity P-wave (km/s) = 7.46246 8.03370 7.75334
#
# Compressibility (1/GPa) = 0.01691594
#
# Stress axis : x y z
#
# Youngs Moduli (GPa) = 74.25848 78.99126 86.11356
#
# Poissons Ratio (x) = 0.46852 0.25370
# Poissons Ratio (y) = 0.44045 0.13210
# Poissons Ratio (z) = 0.21877 0.12117
#
# Static dielectric constant tensor:
#      x y z
#    x 1.653890 0.000000 0.001880 
#    y 0.000000 1.509430 0.000000 
#    z 0.001880 0.000000 1.571490 
# 
# From -- ./inp_files/157060.got.cif
#   From: 2010.05.17/outbox.cif.g08.bks.cpg/sg12_79_cif.got.tgz:157060.got - 2010.06.03 13:09:07.
