data_PCOD9172897
_publ_section_title
;
Structure prediction by ZEFSAII (Michael W. Deem and Ramdas Pophale) SiO2 
 PCOD9172897
Probable space group: C 2/M
;
_chemical_formula_sum "Si O2"
_cell_formula_units_Z 58
_cell_length_a 16.467021
_cell_length_b 12.769587
_cell_length_c 13.288891
_cell_angle_alpha 90.000000
_cell_angle_beta 72.797367
_cell_angle_gamma 90.000000
_cell_volume 2669.343059
_symmetry_space_group_name_H-M "C 2/M"
_symmetry_group_IT_number 12
_symmetry_cell_setting 'monoclinic'
loop_
_space_group_symop_operation_xyz
x,y,z
-x,y,-z
-x,-y,-z
x,-y,z
1/2+x,1/2+y,z
1/2-x,1/2+y,-z
1/2-x,1/2-y,-z
1/2+x,1/2-y,z
loop_
_atom_site_type_symbol
_atom_site_label
_atom_site_fract_x
_atom_site_fract_y
_atom_site_fract_z
Si Si1 0.000000 0.000000 0.000000
Si Si2 0.099504 0.614939 0.943762
Si Si3 0.734046 0.119356 0.183443
Si Si4 0.631814 0.246601 0.741235
Si Si5 0.639776 0.664025 0.021308
Si Si6 0.922140 0.314200 0.647789
Si Si7 0.885070 0.620258 0.442125
Si Si8 0.962756 0.876303 0.747236
O O1 0.073109 0.091502 0.985023
O O2 0.138332 0.500000 0.948430
O O3 0.112070 0.650890 0.823725
O O4 0.126547 0.715308 0.998606
O O5 0.000000 0.606404 0.000000
O O6 0.792906 0.190170 0.233504
O O7 0.769516 0.134350 0.058140
O O8 0.637007 0.148720 0.239601
O O9 0.745888 0.000000 0.208866
O O10 0.654716 0.198100 0.624843
O O11 0.547892 0.320353 0.760196
O O12 0.614199 0.638557 0.144797
O O13 0.877014 0.341593 0.559771
O O14 0.940035 0.191007 0.657292
O O15 0.013073 0.371124 0.615911
O O16 0.857619 0.500000 0.442503
O O17 0.977197 0.000000 0.729617
#
# Coordination Sequence:
#
# PCOD9172897 Si02
#       8
#     2   8   8   8   8   8   8   8
#     4  12  16  32  54  92 116 156 192 232 288 352
#     4  10  18  30  48  83 124 149 183 236 282 335
#     4  11  21  36  58  91 122 151 189 250 295 346
#     4  10  21  34  60  91 114 148 196 241 300 348
#     4  11  20  32  57  85 122 159 193 228 291 354
#     4  10  23  39  58  83 112 151 203 240 294 348
#     4  10  20  42  65  81 109 155 199 246 290 357
#     4  11  21  38  58  84 116 159 197 239 285 357
#
# _framework density 21.728193999999998
#
# number of rings (size 3 to 8) (size 9 to 14) (size 15 to 20)
#    0.000    1.517    3.448    3.310    0.000    1.103 
#    0.000   11.034    0.000    0.000    0.000    0.000 
#    0.000    0.000    0.000    0.000    0.000    0.000 
#
# Total GULP energy -161773.575543 kJ/mol
# GULP energy per Si atom -5578.399157 kJ/mol
# Density = 2.167874 g / cm^3
# Si number density = 21.728194 Si / 1000 Ang^3
#
#
#
# Elastic Constant Matrix: (Units=GPa)
#
#
# Indices 1 2 3 4 5 6 
#
# 1 41.3590 16.2492 14.5912 0.0000 -8.9439 0.0000
# 2 16.2492 185.3651 32.1298 0.0000 11.1779 0.0000
# 3 14.5912 32.1298 34.3073 0.0000 -7.6753 0.0000
# 4 0.0000 0.0000 0.0000 18.7594 0.0000 20.6611
# 5 -8.9439 11.1779 -7.6753 0.0000 32.0126 0.0000
# 6 0.0000 0.0000 0.0000 20.6611 0.0000 53.4525
#
#
#
# Elastic Compliance Matrix: (Units=1/GPa)
#
#
# Indices 1 2 3 4 5 6 
#
# 1 0.029554 -0.001236 -0.010005 0.000000 0.006290 0.000000
# 2 -0.001236 0.006989 -0.007020 0.000000 -0.004469 0.000000
# 3 -0.010005 -0.007020 0.042163 0.000000 0.009765 0.000000
# 4 0.000000 0.000000 0.000000 0.092823 0.000000 -0.035879
# 5 0.006290 -0.004469 0.009765 0.000000 0.036897 0.000000
# 6 0.000000 0.000000 0.000000 -0.035879 0.000000 0.032577
#
#
# Mechanical properties :
#
#
# Convention : Reuss Voigt Hill
#
# Bulk Modulus (GPa) = 23.70554 42.99688 33.35121
# Shear Modulus (GPa) = 17.14767 34.04898 25.59833
#
# Velocity S-wave (km/s) = 2.81230 3.96288 3.43609
# Velocity P-wave (km/s) = 4.63455 6.38520 5.57897
#
# Compressibility (1/GPa) = 0.04218423
#
# Stress axis : x y z
#
# Youngs Moduli (GPa) = 33.83647 143.07479 23.71774
#
# Poissons Ratio (x) = 0.17681 0.23730
# Poissons Ratio (y) = 0.04181 0.16650
# Poissons Ratio (z) = 0.33854 1.00438
#
# Static dielectric constant tensor:
#      x y z
#    x 1.807220 0.000000 0.015930 
#    y 0.000000 1.784170 0.000000 
#    z 0.015930 0.000000 1.840910 
# 
# From -- ./inp_files/223226.got.cif
#   From: 2010.05.17/outbox.cif.g08.bks.cpg/sg12_112_cif.got.tgz:223226.got - 2010.06.03 13:09:07.
