data_PCOD9172100
_publ_section_title
;
Structure prediction by ZEFSAII (Michael W. Deem and Ramdas Pophale) SiO2 
 PCOD9172100
Probable space group: C 2/M
;
_chemical_formula_sum "Si O2"
_cell_formula_units_Z 64
_cell_length_a 23.761661
_cell_length_b 14.123880
_cell_length_c 25.143049
_cell_angle_alpha 90.000000
_cell_angle_beta 28.749678
_cell_angle_gamma 90.000000
_cell_volume 4058.627963
_symmetry_space_group_name_H-M "C 2/M"
_symmetry_group_IT_number 12
_symmetry_cell_setting 'monoclinic'
loop_
_space_group_symop_operation_xyz
x,y,z
-x,y,-z
-x,-y,-z
x,-y,z
1/2+x,1/2+y,z
1/2-x,1/2+y,-z
1/2-x,1/2-y,-z
1/2+x,1/2-y,z
loop_
_atom_site_type_symbol
_atom_site_label
_atom_site_fract_x
_atom_site_fract_y
_atom_site_fract_z
Si Si1 0.312006 0.885231 0.272728
Si Si2 0.805653 0.608390 0.923759
Si Si3 0.547544 0.113290 0.020068
Si Si4 0.957940 0.608513 0.335123
Si Si5 0.769009 0.113958 0.543483
Si Si6 0.481175 0.704487 0.666234
Si Si7 0.753114 0.300410 0.079790
Si Si8 0.102914 0.889998 0.371018
O O1 0.443028 0.860886 0.147278
O O2 0.270728 0.852218 0.364828
O O3 0.220226 0.856509 0.303245
O O4 0.306839 0.000000 0.278039
O O5 0.766625 0.500000 0.947310
O O6 0.742556 0.689939 0.941223
O O7 0.942170 0.612242 0.793429
O O8 0.788634 0.638337 0.998921
O O9 0.570918 0.000000 0.004601
O O10 0.500000 0.130715 0.000000
O O11 0.661414 0.170777 0.943164
O O12 0.952157 0.500000 0.358430
O O13 0.833815 0.636465 0.412649
O O14 0.996368 0.683532 0.347253
O O15 0.895403 0.154518 0.425126
O O16 0.777492 0.000000 0.538820
O O17 0.379920 0.679844 0.792317
O O18 0.435346 0.671153 0.647217
O O19 0.000000 0.889197 0.500000
O O20 0.118687 0.000000 0.340904
#
# Coordination Sequence:
#
# PCOD9172100 Si02
#       8
#     8   8   8   8   8   8   8   8
#     4   9  17  29  46  67  93 127 157 181 225 283
#     4   9  18  34  52  69  93 125 159 197 236 276
#     4  10  19  30  45  68  99 128 155 193 236 277
#     4   9  19  34  50  67  91 124 164 198 227 271
#     4  10  18  29  46  70  96 122 152 188 232 284
#     4  11  20  30  47  71  99 124 155 192 236 277
#     4  10  20  31  48  74  97 122 159 195 234 283
#     4  10  18  30  46  70 100 123 148 185 231 286
#
# _framework density 15.768876000000001
#
# number of rings (size 3 to 8) (size 9 to 14) (size 15 to 20)
#    0.000    2.250    1.250    2.625    0.000    5.000 
#    0.000    0.000    0.000    0.750    0.000    0.875 
#    0.000    0.000    0.000    0.000    0.000    0.000 
#
# Total GULP energy -178386.114465 kJ/mol
# GULP energy per Si atom -5574.566077 kJ/mol
# Density = 1.573299 g / cm^3
# Si number density = 15.768876 Si / 1000 Ang^3
#
#
#
# Elastic Constant Matrix: (Units=GPa)
#
#
# Indices 1 2 3 4 5 6 
#
# 1 70.4285 44.5413 24.0819 0.0000 -5.2431 0.0000
# 2 44.5413 59.5847 29.5184 0.0001 -1.9413 0.0000
# 3 24.0819 29.5184 65.8135 0.0002 -9.0127 -0.0001
# 4 0.0000 0.0001 0.0002 18.9189 -0.0001 -1.1614
# 5 -5.2431 -1.9413 -9.0127 -0.0001 24.6958 0.0000
# 6 0.0000 0.0000 -0.0001 -1.1614 0.0000 21.4151
#
#
#
# Elastic Compliance Matrix: (Units=1/GPa)
#
#
# Indices 1 2 3 4 5 6 
#
# 1 0.027370 -0.020110 -0.000438 0.000000 0.004070 0.000000
# 2 -0.020110 0.036441 -0.009661 0.000000 -0.004931 0.000000
# 3 -0.000438 -0.009661 0.020601 0.000000 0.006666 0.000000
# 4 0.000000 0.000000 0.000000 0.053034 0.000000 0.002876
# 5 0.004070 -0.004931 0.006666 0.000000 0.043402 0.000000
# 6 0.000000 0.000000 0.000000 0.002876 0.000000 0.046852
#
#
# Mechanical properties :
#
#
# Convention : Reuss Voigt Hill
#
# Bulk Modulus (GPa) = 41.67811 43.56777 42.62294
# Shear Modulus (GPa) = 16.88527 19.51830 18.20178
#
# Velocity S-wave (km/s) = 3.27585 3.52202 3.40116
# Velocity P-wave (km/s) = 6.38720 6.65045 6.52015
#
# Compressibility (1/GPa) = 0.02399341
#
# Stress axis : x y z
#
# Youngs Moduli (GPa) = 36.53645 27.44131 48.54206
#
# Poissons Ratio (x) = 0.55185 0.02125
# Poissons Ratio (y) = 0.73476 0.46897
# Poissons Ratio (z) = 0.01600 0.26512
#
# Static dielectric constant tensor:
#      x y z
#    x 1.518630 0.000000 0.000270 
#    y 0.000000 1.514690 0.000000 
#    z 0.000270 0.000000 1.547740 
# 
# From -- ./inp_files/367794.got.cif
#   From: 2010.05.17/outbox.cif.g08.bks.cpg/sg12_184_cif.got.tgz:367794.got - 2010.06.03 13:09:07.
