data_PCOD9172946
_publ_section_title
;
Structure prediction by ZEFSAII (Michael W. Deem and Ramdas Pophale) SiO2 
 PCOD9172946
Probable space group: C 2/M
;
_chemical_formula_sum "Si O2"
_cell_formula_units_Z 48
_cell_length_a 27.498804
_cell_length_b 8.721200
_cell_length_c 12.225283
_cell_angle_alpha 90.000000
_cell_angle_beta 106.852383
_cell_angle_gamma 90.000000
_cell_volume 2805.987944
_symmetry_space_group_name_H-M "C 2/M"
_symmetry_group_IT_number 12
_symmetry_cell_setting 'monoclinic'
loop_
_space_group_symop_operation_xyz
x,y,z
-x,y,-z
-x,-y,-z
x,-y,z
1/2+x,1/2+y,z
1/2-x,1/2+y,-z
1/2-x,1/2-y,-z
1/2+x,1/2-y,z
loop_
_atom_site_type_symbol
_atom_site_label
_atom_site_fract_x
_atom_site_fract_y
_atom_site_fract_z
Si Si1 0.824021 0.820829 0.782333
Si Si2 0.059202 0.316076 0.540226
Si Si3 0.194568 0.318413 0.995594
Si Si4 0.363584 0.684588 0.584394
Si Si5 0.790960 0.321097 0.366444
Si Si6 0.364693 0.681461 0.239736
O O1 0.820279 0.725673 0.890612
O O2 0.863144 0.774117 0.712383
O O3 0.768855 0.811309 0.688832
O O4 0.832533 0.000000 0.816258
O O5 0.063770 0.500000 0.538233
O O6 0.089431 0.243969 0.457218
O O7 0.087170 0.255902 0.667753
O O8 0.000000 0.274618 0.500000
O O9 0.197826 0.500000 0.983905
O O10 0.250000 0.250000 0.000000
O O11 0.152183 0.251227 0.886372
O O12 0.360265 0.500000 0.574517
O O13 0.314488 0.758508 0.493542
O O14 0.805541 0.500000 0.362962
O O15 0.818036 0.222675 0.290067
O O16 0.371174 0.500000 0.236352
#
# Coordination Sequence:
#
# PCOD9172946 Si02
#       6
#     8   8   8   8   8   8
#     4  10  21  34  49  73 108 148 182 217 260 314
#     4  10  21  38  60  83 107 137 176 224 275 324
#     4  12  23  35  53  76 108 149 188 222 259 310
#     4  10  20  33  51  77 108 139 177 221 269 321
#     4  10  18  30  49  72 106 145 180 217 257 311
#     4  11  21  34  54  80 109 141 181 224 268 316
#
# _framework density 17.106275
#
# number of rings (size 3 to 8) (size 9 to 14) (size 15 to 20)
#    0.000    1.500    1.667    7.000    0.000    3.333 
#    0.000    0.000    0.000    1.000    0.000    7.000 
#    0.000    0.000    0.000    0.000    0.000    0.000 
#
# Total GULP energy -133976.156958 kJ/mol
# GULP energy per Si atom -5582.339873 kJ/mol
# Density = 1.706734 g / cm^3
# Si number density = 17.106275 Si / 1000 Ang^3
#
#
#
# Elastic Constant Matrix: (Units=GPa)
#
#
# Indices 1 2 3 4 5 6 
#
# 1 72.0691 30.1767 53.7799 0.0000 9.0304 0.0000
# 2 30.1767 93.5579 44.1144 0.0000 -1.3224 0.0000
# 3 53.7799 44.1144 111.2637 0.0000 -11.4777 0.0000
# 4 0.0000 0.0000 0.0000 28.8275 0.0000 -0.0628
# 5 9.0304 -1.3224 -11.4777 0.0000 19.3934 0.0000
# 6 0.0000 0.0000 0.0000 -0.0628 0.0000 19.7610
#
#
#
# Elastic Compliance Matrix: (Units=1/GPa)
#
#
# Indices 1 2 3 4 5 6 
#
# 1 0.029514 -0.002451 -0.015686 0.000000 -0.023194 0.000000
# 2 -0.002451 0.013449 -0.004191 0.000000 -0.000422 0.000000
# 3 -0.015686 -0.004191 0.020188 0.000000 0.018967 0.000000
# 4 0.000000 0.000000 0.000000 0.034689 0.000000 0.000110
# 5 -0.023194 -0.000422 0.018967 0.000000 0.073560 0.000000
# 6 0.000000 0.000000 0.000000 0.000110 0.000000 0.050605
#
#
# Mechanical properties :
#
#
# Convention : Reuss Voigt Hill
#
# Bulk Modulus (GPa) = 54.07226 59.22584 56.64905
# Shear Modulus (GPa) = 18.32656 23.51770 20.92213
#
# Velocity S-wave (km/s) = 3.27668 3.71185 3.50103
# Velocity P-wave (km/s) = 6.78187 7.28477 7.03781
#
# Compressibility (1/GPa) = 0.01849377
#
# Stress axis : x y z
#
# Youngs Moduli (GPa) = 33.88261 74.35245 49.53390
#
# Poissons Ratio (x) = 0.18223 0.77701
# Poissons Ratio (y) = 0.08304 0.20762
# Poissons Ratio (z) = 0.53150 0.31164
#
# Static dielectric constant tensor:
#      x y z
#    x 1.574650 0.000000 -0.014290 
#    y 0.000000 1.591110 0.000000 
#    z -0.014290 0.000000 1.595420 
# 
# From -- ./inp_files/185966.got.cif
#   From: 2010.05.17/outbox.cif.g08.bks.cpg/sg12_93_cif.got.tgz:185966.got - 2010.06.03 13:09:07.
