data_PCOD9172991
_publ_section_title
;
Structure prediction by ZEFSAII (Michael W. Deem and Ramdas Pophale) SiO2 
 PCOD9172991
Probable space group: C 2/M
;
_chemical_formula_sum "Si O2"
_cell_formula_units_Z 52
_cell_length_a 23.194384
_cell_length_b 13.477247
_cell_length_c 18.630611
_cell_angle_alpha 90.000000
_cell_angle_beta 146.998871
_cell_angle_gamma 90.000000
_cell_volume 3171.999212
_symmetry_space_group_name_H-M "C 2/M"
_symmetry_group_IT_number 12
_symmetry_cell_setting 'monoclinic'
loop_
_space_group_symop_operation_xyz
x,y,z
-x,y,-z
-x,-y,-z
x,-y,z
1/2+x,1/2+y,z
1/2-x,1/2+y,-z
1/2-x,1/2-y,-z
1/2+x,1/2-y,z
loop_
_atom_site_type_symbol
_atom_site_label
_atom_site_fract_x
_atom_site_fract_y
_atom_site_fract_z
Si Si1 0.733920 0.612813 0.249360
Si Si2 0.023002 0.236757 0.864137
Si Si3 0.339282 0.790907 0.490596
Si Si4 0.000000 0.192209 0.000000
Si Si5 0.238043 0.116165 0.087930
Si Si6 0.164763 0.117255 0.408862
Si Si7 0.043826 0.382075 0.760424
O O1 0.758181 0.500000 0.297806
O O2 0.787343 0.688873 0.359743
O O3 0.607076 0.627914 0.116554
O O4 0.769837 0.626518 0.204863
O O5 0.022600 0.335507 0.816306
O O6 0.930486 0.165309 0.737234
O O7 0.007546 0.251170 0.933023
O O8 0.134795 0.182194 0.968487
O O9 0.271090 0.856026 0.476251
O O10 0.333132 0.679340 0.514842
O O11 0.458675 0.829972 0.619714
O O12 0.337494 0.140756 0.142034
O O13 0.210487 0.000000 0.048568
O O14 0.152634 0.000000 0.404522
O O15 0.029920 0.500000 0.744536
#
# Coordination Sequence:
#
# PCOD9172991 Si02
#       7
#     8   8   8   4   8   8   8
#     4  10  18  30  49  74 102 127 155 200 250 293
#     4  10  19  32  52  73  98 127 165 205 246 283
#     4  10  20  31  48  74 100 130 160 194 245 291
#     4  10  19  30  47  74 100 124 159 204 247 294
#     4   9  19  32  50  75  99 128 164 202 248 289
#     4  10  19  32  50  73 100 128 162 200 242 289
#     4  10  20  34  49  70 101 134 166 199 238 293
#
# _framework density 16.393447999999999
#
# number of rings (size 3 to 8) (size 9 to 14) (size 15 to 20)
#    0.000    2.154    1.538    2.538    0.000    1.846 
#    0.000    2.692    0.000    3.692    0.000    4.308 
#    0.000    0.000    0.000    0.000    0.000    0.000 
#
# Total GULP energy -144981.964453 kJ/mol
# GULP energy per Si atom -5576.229402 kJ/mol
# Density = 1.635614 g / cm^3
# Si number density = 16.393448 Si / 1000 Ang^3
#
#
#
# Elastic Constant Matrix: (Units=GPa)
#
#
# Indices 1 2 3 4 5 6 
#
# 1 56.7377 21.7577 7.6999 0.0000 -0.2337 0.0000
# 2 21.7577 47.1987 9.3401 0.0000 -4.8570 0.0000
# 3 7.6999 9.3401 56.1038 0.0000 -4.7415 0.0000
# 4 0.0000 0.0000 0.0000 14.4627 0.0000 2.0307
# 5 -0.2337 -4.8570 -4.7415 0.0000 25.1950 0.0000
# 6 0.0000 0.0000 0.0000 2.0307 0.0000 14.7210
#
#
#
# Elastic Compliance Matrix: (Units=1/GPa)
#
#
# Indices 1 2 3 4 5 6 
#
# 1 0.021603 -0.009868 -0.001490 0.000000 -0.001982 0.000000
# 2 -0.009868 0.026741 -0.002713 0.000000 0.004553 0.000000
# 3 -0.001490 -0.002713 0.018733 0.000000 0.002989 0.000000
# 4 0.000000 0.000000 0.000000 0.070509 0.000000 -0.009726
# 5 -0.001982 0.004553 0.002989 0.000000 0.041112 0.000000
# 6 0.000000 0.000000 0.000000 -0.009726 0.000000 0.069272
#
#
# Mechanical properties :
#
#
# Convention : Reuss Voigt Hill
#
# Bulk Modulus (GPa) = 25.68274 26.40396 26.04335
# Shear Modulus (GPa) = 17.29570 18.95859 18.12715
#
# Velocity S-wave (km/s) = 3.25166 3.40439 3.32890
# Velocity P-wave (km/s) = 5.45877 5.62090 5.54043
#
# Compressibility (1/GPa) = 0.03893665
#
# Stress axis : x y z
#
# Youngs Moduli (GPa) = 46.28974 37.39537 53.38248
#
# Poissons Ratio (x) = 0.36901 0.07952
# Poissons Ratio (y) = 0.45678 0.14481
# Poissons Ratio (z) = 0.06895 0.10145
#
# Static dielectric constant tensor:
#      x y z
#    x 1.553000 0.000000 0.000060 
#    y 0.000000 1.521850 0.000000 
#    z 0.000060 0.000000 1.558260 
# 
# From -- ./inp_files/233741.got.cif
#   From: 2010.05.17/outbox.cif.g08.bks.cpg/sg12_117_cif.got.tgz:233741.got - 2010.06.03 13:09:07.
