data_PCOD9172867
_publ_section_title
;
Structure prediction by ZEFSAII (Michael W. Deem and Ramdas Pophale) SiO2 
 PCOD9172867
Probable space group: C 2/M
;
_chemical_formula_sum "Si O2"
_cell_formula_units_Z 56
_cell_length_a 28.155505
_cell_length_b 7.592940
_cell_length_c 19.237760
_cell_angle_alpha 90.000000
_cell_angle_beta 148.640481
_cell_angle_gamma 90.000000
_cell_volume 2140.279336
_symmetry_space_group_name_H-M "C 2/M"
_symmetry_group_IT_number 12
_symmetry_cell_setting 'monoclinic'
loop_
_space_group_symop_operation_xyz
x,y,z
-x,y,-z
-x,-y,-z
x,-y,z
1/2+x,1/2+y,z
1/2-x,1/2+y,-z
1/2-x,1/2-y,-z
1/2+x,1/2-y,z
loop_
_atom_site_type_symbol
_atom_site_label
_atom_site_fract_x
_atom_site_fract_y
_atom_site_fract_z
Si Si1 0.365696 0.797841 0.408959
Si Si2 0.209308 0.287901 0.832472
Si Si3 0.538274 0.294111 0.695768
Si Si4 0.559277 0.285467 0.284144
Si Si5 0.610372 0.712882 0.005117
Si Si6 0.766451 0.795267 0.426668
Si Si7 0.598290 0.207711 0.140855
O O1 0.337723 0.727058 0.298822
O O2 0.474295 0.793068 0.557611
O O3 0.321612 0.710417 0.422187
O O4 0.333990 0.000000 0.371714
O O5 0.208354 0.500000 0.832517
O O6 0.144585 0.229679 0.813748
O O7 0.314471 0.231728 0.957502
O O8 0.518438 0.500000 0.667295
O O9 0.500512 0.234156 0.722865
O O10 0.563953 0.500000 0.287632
O O11 0.661709 0.219600 0.427650
O O12 0.492800 0.224757 0.139365
O O13 0.608371 0.500000 0.002714
O O14 0.643990 0.775616 0.121920
O O15 0.667856 0.714294 0.284481
O O16 0.752864 0.000000 0.425829
O O17 0.587358 0.000000 0.141446
O O18 0.500000 0.290024 0.000000
#
# Coordination Sequence:
#
# PCOD9172867 Si02
#       7
#     8   8   8   8   8   8   8
#     4  10  18  30  48  73 105 137 175 221 268 306
#     4  10  20  31  46  72 105 138 174 222 270 304
#     4  10  20  32  48  73 103 143 186 218 254 305
#     4   8  17  34  54  75 103 141 181 217 255 304
#     4  10  20  37  57  77 105 140 177 217 264 316
#     4   9  17  33  56  78 103 139 177 211 258 316
#     4  10  21  37  58  84 111 135 166 214 267 318
#
# _framework density 26.164809999999999
#
# number of rings (size 3 to 8) (size 9 to 14) (size 15 to 20)
#    0.000    2.429    1.429    2.143    0.000    4.286 
#    0.000    4.286    0.000    0.000    0.000    0.000 
#    0.000    0.000    0.000    0.000    0.000    0.000 
#
# Total GULP energy -156543.305983 kJ/mol
# GULP energy per Si atom -5590.832357 kJ/mol
# Density = 2.610526 g / cm^3
# Si number density = 26.164810 Si / 1000 Ang^3
#
#
#
# Elastic Constant Matrix: (Units=GPa)
#
#
# Indices 1 2 3 4 5 6 
#
# 1 89.4166 11.4676 42.4343 0.0000 10.5502 0.0000
# 2 11.4676 78.6180 6.7067 0.0000 1.4331 0.0000
# 3 42.4343 6.7067 213.0386 0.0000 2.2676 0.0000
# 4 0.0000 0.0000 0.0000 9.3196 0.0000 6.6303
# 5 10.5502 1.4331 2.2676 0.0000 50.1995 0.0000
# 6 0.0000 0.0000 0.0000 6.6303 0.0000 27.6383
#
#
#
# Elastic Compliance Matrix: (Units=1/GPa)
#
#
# Indices 1 2 3 4 5 6 
#
# 1 0.012871 -0.001619 -0.002486 0.000000 -0.002547 0.000000
# 2 -0.001619 0.012964 -0.000085 0.000000 -0.000026 0.000000
# 3 -0.002486 -0.000085 0.005189 0.000000 0.000290 0.000000
# 4 0.000000 0.000000 0.000000 0.129382 0.000000 -0.031038
# 5 -0.002547 -0.000026 0.000290 0.000000 0.020443 0.000000
# 6 0.000000 0.000000 0.000000 -0.031038 0.000000 0.043627
#
#
# Mechanical properties :
#
#
# Convention : Reuss Voigt Hill
#
# Bulk Modulus (GPa) = 44.16270 55.81005 49.98637
# Shear Modulus (GPa) = 20.79830 38.79580 29.79705
#
# Velocity S-wave (km/s) = 2.82245 3.85482 3.37830
# Velocity P-wave (km/s) = 5.24756 6.41790 5.86201
#
# Compressibility (1/GPa) = 0.02264354
#
# Stress axis : x y z
#
# Youngs Moduli (GPa) = 77.69185 77.13885 192.72644
#
# Poissons Ratio (x) = 0.12489 0.47906
# Poissons Ratio (y) = 0.12578 0.01645
# Poissons Ratio (z) = 0.19312 0.00658
#
# Static dielectric constant tensor:
#      x y z
#    x 2.102520 0.000000 0.029490 
#    y 0.000000 1.954670 0.000000 
#    z 0.029490 0.000000 2.087570 
# 
# From -- ./inp_files/329495.got.cif
#   From: 2010.05.17/outbox.cif.g08.bks.cpg/sg12_165_cif.got.tgz:329495.got - 2010.06.03 13:09:07.
