data_PCOD9172987
_publ_section_title
;
Structure prediction by ZEFSAII (Michael W. Deem and Ramdas Pophale) SiO2 
 PCOD9172987
Probable space group: C 2/M
;
_chemical_formula_sum "Si O2"
_cell_formula_units_Z 64
_cell_length_a 24.329361
_cell_length_b 8.847371
_cell_length_c 31.405564
_cell_angle_alpha 90.000000
_cell_angle_beta 146.851827
_cell_angle_gamma 90.000000
_cell_volume 3696.450474
_symmetry_space_group_name_H-M "C 2/M"
_symmetry_group_IT_number 12
_symmetry_cell_setting 'monoclinic'
loop_
_space_group_symop_operation_xyz
x,y,z
-x,y,-z
-x,-y,-z
x,-y,z
1/2+x,1/2+y,z
1/2-x,1/2+y,-z
1/2-x,1/2-y,-z
1/2+x,1/2-y,z
loop_
_atom_site_type_symbol
_atom_site_label
_atom_site_fract_x
_atom_site_fract_y
_atom_site_fract_z
Si Si1 0.688977 0.179611 0.736125
Si Si2 0.035791 0.817852 0.411805
Si Si3 0.327002 0.819945 0.180374
Si Si4 0.952509 0.820894 0.674880
Si Si5 0.105691 0.678532 0.543711
Si Si6 0.452536 0.181668 0.762640
Si Si7 0.314415 0.819379 0.079370
Si Si8 0.780118 0.319181 0.713896
O O1 0.578747 0.255457 0.660226
O O2 0.725153 0.205892 0.808161
O O3 0.761628 0.246142 0.747738
O O4 0.676660 0.000000 0.721641
O O5 0.080800 0.775651 0.394476
O O6 0.094072 0.747131 0.489209
O O7 0.033348 0.000000 0.413140
O O8 0.430052 0.726409 0.248635
O O9 0.275371 0.783775 0.101957
O O10 0.353005 0.000000 0.195709
O O11 0.911340 0.744079 0.690898
O O12 0.941381 0.000000 0.671490
O O13 0.127659 0.500000 0.555881
O O14 0.189846 0.763485 0.625260
O O15 0.000000 0.697042 0.500000
O O16 0.568275 0.229665 0.844815
O O17 0.382201 0.226551 0.756154
O O18 0.452336 0.000000 0.759394
O O19 0.313009 0.000000 0.073563
O O20 0.250000 0.750000 0.000000
O O21 0.777520 0.500000 0.715957
#
# Coordination Sequence:
#
# PCOD9172987 Si02
#       8
#     8   8   8   8   8   8   8   8
#     4  10  18  30  49  73  99 131 169 208 251 294
#     4  10  19  31  49  73  99 128 166 213 258 297
#     4   8  16  30  48  71 103 135 162 198 245 295
#     4   9  17  29  49  75  98 124 165 212 250 290
#     4  11  22  34  49  72 100 131 171 214 255 297
#     4   9  20  37  53  72 102 137 167 198 247 305
#     4   9  17  32  54  80 105 129 160 199 243 292
#     4  11  22  35  52  72  98 134 171 209 253 299
#
# _framework density 17.313907
#
# number of rings (size 3 to 8) (size 9 to 14) (size 15 to 20)
#    0.000    2.375    1.250    2.625    0.000    5.500 
#    0.000    0.625    0.000    0.750    0.000    5.250 
#    0.000    0.000    0.000    0.000    0.000    0.000 
#
# Total GULP energy -178342.836582 kJ/mol
# GULP energy per Si atom -5573.213643 kJ/mol
# Density = 1.727450 g / cm^3
# Si number density = 17.313907 Si / 1000 Ang^3
#
#
#
# Elastic Constant Matrix: (Units=GPa)
#
#
# Indices 1 2 3 4 5 6 
#
# 1 120.1891 30.0689 44.6722 0.0000 -31.2883 0.0000
# 2 30.0689 31.0335 19.7524 0.0001 -11.5843 -0.0002
# 3 44.6722 19.7524 75.5367 0.0000 -33.1928 0.0000
# 4 0.0000 0.0001 0.0000 23.5926 0.0000 -8.7905
# 5 -31.2883 -11.5843 -33.1928 0.0000 27.6690 -0.0001
# 6 0.0000 -0.0002 0.0000 -8.7905 -0.0001 24.6766
#
#
#
# Elastic Compliance Matrix: (Units=1/GPa)
#
#
# Indices 1 2 3 4 5 6 
#
# 1 0.013608 -0.008524 -0.001322 0.000000 0.010233 0.000000
# 2 -0.008524 0.044984 -0.005671 0.000000 0.002392 0.000000
# 3 -0.001322 -0.005671 0.029192 0.000000 0.031150 0.000000
# 4 0.000000 0.000000 0.000000 0.048873 0.000000 0.017410
# 5 0.010233 0.002392 0.031150 0.000000 0.086084 0.000000
# 6 0.000000 0.000000 0.000000 0.017410 0.000000 0.046726
#
#
# Mechanical properties :
#
#
# Convention : Reuss Voigt Hill
#
# Bulk Modulus (GPa) = 17.62106 46.19403 31.90754
# Shear Modulus (GPa) = 15.65348 24.00536 19.82942
#
# Velocity S-wave (km/s) = 3.01009 3.72758 3.38788
# Velocity P-wave (km/s) = 4.72020 6.72791 5.81141
#
# Compressibility (1/GPa) = 0.05675027
#
# Stress axis : x y z
#
# Youngs Moduli (GPa) = 73.48578 22.22990 34.25642
#
# Poissons Ratio (x) = 0.18948 0.04529
# Poissons Ratio (y) = 0.62637 0.19428
# Poissons Ratio (z) = 0.09715 0.12607
#
# Static dielectric constant tensor:
#      x y z
#    x 1.622450 0.000000 -0.028870 
#    y 0.000000 1.582000 0.000000 
#    z -0.028870 0.000000 1.574390 
# 
# From -- ./inp_files/365212.got.cif
#   From: 2010.05.17/outbox.cif.g08.bks.cpg/sg12_183_cif.got.tgz:365212.got - 2010.06.03 13:09:07.
