data_PCOD9172976
_publ_section_title
;
Structure prediction by ZEFSAII (Michael W. Deem and Ramdas Pophale) SiO2 
 PCOD9172976
Probable space group: C 2/M
;
_chemical_formula_sum "Si O2"
_cell_formula_units_Z 64
_cell_length_a 27.168159
_cell_length_b 14.050661
_cell_length_c 15.674628
_cell_angle_alpha 90.000000
_cell_angle_beta 140.689016
_cell_angle_gamma 90.000000
_cell_volume 3790.712552
_symmetry_space_group_name_H-M "C 2/M"
_symmetry_group_IT_number 12
_symmetry_cell_setting 'monoclinic'
loop_
_space_group_symop_operation_xyz
x,y,z
-x,y,-z
-x,-y,-z
x,-y,z
1/2+x,1/2+y,z
1/2-x,1/2+y,-z
1/2-x,1/2-y,-z
1/2+x,1/2-y,z
loop_
_atom_site_type_symbol
_atom_site_label
_atom_site_fract_x
_atom_site_fract_y
_atom_site_fract_z
Si Si1 0.483877 0.163956 0.615768
Si Si2 0.208124 0.114045 0.107008
Si Si3 0.614127 0.108811 0.666182
Si Si4 0.212453 0.115780 0.313305
Si Si5 0.455531 0.386002 0.853191
Si Si6 0.559277 0.727060 0.863156
Si Si7 0.367524 0.108277 0.604507
Si Si8 0.499653 0.885860 0.898737
O O1 0.557046 0.112232 0.670291
O O2 0.424105 0.176716 0.456756
O O3 0.522320 0.248549 0.721944
O O4 0.431801 0.110043 0.615713
O O5 0.296481 0.130681 0.194993
O O6 0.207055 0.140748 0.206245
O O7 0.191860 0.000000 0.078367
O O8 0.142458 0.176032 0.973095
O O9 0.612613 0.000000 0.629137
O O10 0.133922 0.142115 0.256205
O O11 0.289588 0.154158 0.462965
O O12 0.217158 0.000000 0.318628
O O13 0.458941 0.500000 0.851428
O O14 0.500691 0.341293 0.835421
O O15 0.500000 0.359310 0.000000
O O16 0.558809 0.823171 0.921311
O O17 0.415090 0.145161 0.749067
O O18 0.347115 0.000000 0.598666
O O19 0.509594 0.000000 0.897975
O O20 0.500000 0.868829 0.000000
#
# Coordination Sequence:
#
# PCOD9172976 Si02
#       8
#     8   8   8   8   8   8   8   8
#     4  10  19  30  48  75 102 131 165 207 260 320
#     4  10  19  32  53  80 107 133 165 216 272 313
#     4  10  19  34  57  79 101 130 172 225 279 313
#     4   9  16  27  47  75 101 126 162 213 262 299
#     4  10  18  30  49  73 104 141 176 209 252 305
#     4  11  21  32  49  75 108 139 170 211 261 315
#     4   9  15  28  48  69  95 123 163 212 254 294
#     4   9  19  33  47  65  95 139 179 208 244 302
#
# _framework density 16.883368999999998
#
# number of rings (size 3 to 8) (size 9 to 14) (size 15 to 20)
#    0.000    2.250    2.500    2.250    0.000    1.500 
#    0.000    3.750    0.000    0.000    0.000    7.875 
#    0.000    0.000    0.000    0.000    0.000    0.000 
#
# Total GULP energy -178144.126061 kJ/mol
# GULP energy per Si atom -5567.003939 kJ/mol
# Density = 1.684494 g / cm^3
# Si number density = 16.883369 Si / 1000 Ang^3
#
#
#
# Elastic Constant Matrix: (Units=GPa)
#
#
# Indices 1 2 3 4 5 6 
#
# 1 66.4631 16.5949 44.6279 0.0000 15.8635 0.0000
# 2 16.5949 54.4979 34.7443 0.0000 8.9507 0.0000
# 3 44.6279 34.7443 125.7577 0.0000 15.4566 0.0000
# 4 0.0000 0.0000 0.0000 20.5933 0.0000 5.1518
# 5 15.8635 8.9507 15.4566 0.0000 31.3864 0.0000
# 6 0.0000 0.0000 0.0000 5.1518 0.0000 16.7876
#
#
#
# Elastic Compliance Matrix: (Units=1/GPa)
#
#
# Indices 1 2 3 4 5 6 
#
# 1 0.021359 -0.001266 -0.006331 0.000000 -0.007317 0.000000
# 2 -0.001266 0.022722 -0.005440 0.000000 -0.003161 0.000000
# 3 -0.006331 -0.005440 0.011834 0.000000 -0.001077 0.000000
# 4 0.000000 0.000000 0.000000 0.052598 0.000000 -0.016141
# 5 -0.007317 -0.003161 -0.001077 0.000000 0.036991 0.000000
# 6 0.000000 0.000000 0.000000 -0.016141 0.000000 0.064521
#
#
# Mechanical properties :
#
#
# Convention : Reuss Voigt Hill
#
# Bulk Modulus (GPa) = 33.51029 48.73924 41.12476
# Shear Modulus (GPa) = 20.32145 23.80357 22.06251
#
# Velocity S-wave (km/s) = 3.47311 3.75891 3.61884
# Velocity P-wave (km/s) = 5.99788 6.91159 6.47088
#
# Compressibility (1/GPa) = 0.02984158
#
# Stress axis : x y z
#
# Youngs Moduli (GPa) = 46.81779 44.00999 84.50506
#
# Poissons Ratio (x) = 0.05573 0.53498
# Poissons Ratio (y) = 0.05928 0.45969
# Poissons Ratio (z) = 0.29639 0.23940
#
# Static dielectric constant tensor:
#      x y z
#    x 1.571240 0.000000 0.007090 
#    y 0.000000 1.591100 0.000000 
#    z 0.007090 0.000000 1.606120 
# 
# From -- ./inp_files/246393.got.cif
#   From: 2010.05.17/outbox.cif.g08.bks.cpg/sg12_124_cif.got.tgz:246393.got - 2010.06.03 13:09:07.
