data_PCOD9172349
_publ_section_title
;
Structure prediction by ZEFSAII (Michael W. Deem and Ramdas Pophale) SiO2 
 PCOD9172349
Probable space group: C 2/M
;
_chemical_formula_sum "Si O2"
_cell_formula_units_Z 48
_cell_length_a 12.146839
_cell_length_b 22.557720
_cell_length_c 20.995034
_cell_angle_alpha 90.000000
_cell_angle_beta 148.884812
_cell_angle_gamma 90.000000
_cell_volume 2972.789736
_symmetry_space_group_name_H-M "C 2/M"
_symmetry_group_IT_number 12
_symmetry_cell_setting 'monoclinic'
loop_
_space_group_symop_operation_xyz
x,y,z
-x,y,-z
-x,-y,-z
x,-y,z
1/2+x,1/2+y,z
1/2-x,1/2+y,-z
1/2-x,1/2-y,-z
1/2+x,1/2-y,z
loop_
_atom_site_type_symbol
_atom_site_label
_atom_site_fract_x
_atom_site_fract_y
_atom_site_fract_z
Si Si1 0.233078 0.070783 0.137225
Si Si2 0.872073 0.430789 0.349485
Si Si3 0.331928 0.876828 0.666373
Si Si4 0.001773 0.931063 0.409159
Si Si5 0.809057 0.883076 0.618614
Si Si6 0.722240 0.751856 0.565491
O O1 0.276065 0.081975 0.233240
O O2 0.431751 0.101839 0.201989
O O3 0.246584 0.000000 0.133556
O O4 0.000000 0.090594 0.000000
O O5 0.936899 0.500000 0.384286
O O6 0.703763 0.416713 0.321219
O O7 0.076465 0.391843 0.469906
O O8 0.173878 0.888977 0.646418
O O9 0.323880 0.809609 0.638887
O O10 0.221095 0.917016 0.556051
O O11 0.032173 0.913637 0.351536
O O12 0.949646 0.000000 0.391947
O O13 0.838201 0.813123 0.640638
O O14 0.500000 0.754069 0.500000
O O15 0.750000 0.750000 0.500000
#
# Coordination Sequence:
#
# PCOD9172349 Si02
#       6
#     8   8   8   8   8   8
#     4  10  20  35  54  75 102 137 178 219 258 309
#     4  10  18  29  48  77 106 131 169 215 263 315
#     4  11  20  32  48  76 105 138 173 214 261 323
#     4  11  19  30  49  77 112 136 162 214 279 328
#     4  11  19  30  50  78 107 142 164 211 274 324
#     4  12  20  33  48  76 112 145 178 209 270 329
#
# _framework density 16.146449
#
# number of rings (size 3 to 8) (size 9 to 14) (size 15 to 20)
#    0.000    1.167    6.667    4.000    0.000    0.000 
#    0.000    0.000    0.000    2.000    0.000    4.667 
#    0.000    0.000    0.000    0.000    0.000    0.000 
#
# Total GULP energy -133634.446112 kJ/mol
# GULP energy per Si atom -5568.101921 kJ/mol
# Density = 1.610970 g / cm^3
# Si number density = 16.146449 Si / 1000 Ang^3
#
#
#
# Elastic Constant Matrix: (Units=GPa)
#
#
# Indices 1 2 3 4 5 6 
#
# 1 90.0174 5.5441 13.3273 0.0025 4.6003 0.0010
# 2 5.5441 82.9608 19.8282 0.0024 0.2734 0.0023
# 3 13.3273 19.8282 63.6318 0.0101 13.9927 0.0104
# 4 0.0025 0.0024 0.0101 11.6713 0.0004 1.4812
# 5 4.6003 0.2734 13.9927 0.0004 15.5474 0.0012
# 6 0.0010 0.0023 0.0104 1.4812 0.0012 23.4204
#
#
#
# Elastic Compliance Matrix: (Units=1/GPa)
#
#
# Indices 1 2 3 4 5 6 
#
# 1 0.011500 -0.000295 -0.001957 -0.000001 -0.001637 0.000001
# 2 -0.000295 0.013263 -0.005035 0.000002 0.004386 0.000001
# 3 -0.001957 -0.005035 0.021877 -0.000016 -0.019022 -0.000007
# 4 -0.000001 0.000002 -0.000016 0.086374 0.000013 -0.005463
# 5 -0.001637 0.004386 -0.019022 0.000013 0.081846 0.000003
# 6 0.000001 0.000001 -0.000007 -0.005463 0.000003 0.043043
#
#
# Mechanical properties :
#
#
# Convention : Reuss Voigt Hill
#
# Bulk Modulus (GPa) = 31.18643 34.88992 33.03818
# Shear Modulus (GPa) = 17.65740 23.32183 20.48962
#
# Velocity S-wave (km/s) = 3.31052 3.80464 3.56615
# Velocity P-wave (km/s) = 5.82832 6.39967 6.12066
#
# Compressibility (1/GPa) = 0.03206523
#
# Stress axis : x y z
#
# Youngs Moduli (GPa) = 86.95275 75.39960 45.70959
#
# Poissons Ratio (x) = 0.02228 0.08944
# Poissons Ratio (y) = 0.02569 0.23016
# Poissons Ratio (z) = 0.17014 0.37966
#
# Static dielectric constant tensor:
#      x y z
#    x 1.625500 0.000000 0.013960 
#    y 0.000000 1.538660 0.000000 
#    z 0.013960 0.000000 1.514870 
# 
# From -- ./inp_files/132456.got.cif
#   From: 2010.05.17/outbox.cif.g08.bks.cpg/sg12_67_cif.got.tgz:132456.got - 2010.06.03 13:09:07.
