data_PCOD9172731
_publ_section_title
;
Structure prediction by ZEFSAII (Michael W. Deem and Ramdas Pophale) SiO2 
 PCOD9172731
Probable space group: C 2/M
;
_chemical_formula_sum "Si O2"
_cell_formula_units_Z 64
_cell_length_a 28.114957
_cell_length_b 8.358456
_cell_length_c 11.639737
_cell_angle_alpha 90.000000
_cell_angle_beta 66.834933
_cell_angle_gamma 90.000000
_cell_volume 2514.777168
_symmetry_space_group_name_H-M "C 2/M"
_symmetry_group_IT_number 12
_symmetry_cell_setting 'monoclinic'
loop_
_space_group_symop_operation_xyz
x,y,z
-x,y,-z
-x,-y,-z
x,-y,z
1/2+x,1/2+y,z
1/2-x,1/2+y,-z
1/2-x,1/2-y,-z
1/2+x,1/2-y,z
loop_
_atom_site_type_symbol
_atom_site_label
_atom_site_fract_x
_atom_site_fract_y
_atom_site_fract_z
Si Si1 0.356183 0.189400 0.259784
Si Si2 0.185626 0.317154 0.024168
Si Si3 0.453216 0.690441 0.455855
Si Si4 0.301523 0.686846 0.515457
Si Si5 0.578601 0.316010 0.087002
Si Si6 0.888990 0.308728 0.713014
Si Si7 0.244474 0.818197 0.771301
Si Si8 0.468433 0.189110 0.185196
O O1 0.345568 0.217168 0.406021
O O2 0.310451 0.283441 0.240510
O O3 0.414548 0.246920 0.180582
O O4 0.351251 0.000000 0.241057
O O5 0.200779 0.500000 0.994405
O O6 0.226960 0.210437 0.919145
O O7 0.129264 0.291071 0.014909
O O8 0.167030 0.286792 0.172581
O O9 0.500000 0.726818 0.500000
O O10 0.451445 0.500000 0.436472
O O11 0.402523 0.744013 0.575614
O O12 0.461422 0.778189 0.327899
O O13 0.310031 0.500000 0.487127
O O14 0.250000 0.750000 0.500000
O O15 0.285871 0.713479 0.662366
O O16 0.590343 0.500000 0.051709
O O17 0.576037 0.288693 0.228616
O O18 0.522526 0.266059 0.097082
O O19 0.899189 0.500000 0.708544
O O20 0.260485 0.000000 0.738602
O O21 0.472014 0.000000 0.162052
#
# Coordination Sequence:
#
# PCOD9172731 Si02
#       8
#     8   8   8   8   8   8   8   8
#     4  10  21  36  51  72 102 132 167 205 246 296
#     4   9  18  32  50  72  99 129 164 206 245 289
#     4  11  20  29  47  72  96 127 166 209 249 291
#     4  10  18  31  52  75 100 127 159 201 248 295
#     4  10  18  30  47  68  97 127 161 204 245 285
#     4   9  18  30  47  67  95 127 160 203 244 285
#     4  11  20  32  54  78 101 130 163 202 248 295
#     4  11  22  34  50  70  98 137 170 204 249 297
#
# _framework density 25.449570000000001
#
# number of rings (size 3 to 8) (size 9 to 14) (size 15 to 20)
#    0.750    1.125    1.250    6.375    0.000    2.500 
#    0.000    0.625    0.000    3.750    0.000    0.875 
#    0.000    0.000    0.000    0.000    0.000    0.000 
#
# Total GULP energy -178971.628450 kJ/mol
# GULP energy per Si atom -5592.863389 kJ/mol
# Density = 2.539165 g / cm^3
# Si number density = 25.449570 Si / 1000 Ang^3
#
#
#
# Elastic Constant Matrix: (Units=GPa)
#
#
# Indices 1 2 3 4 5 6 
#
# 1 85.6676 12.2165 14.9675 0.0000 -10.3620 0.0000
# 2 12.2165 81.9516 8.3074 0.0000 -2.4323 0.0000
# 3 14.9675 8.3074 122.8416 0.0000 -14.4399 0.0000
# 4 0.0000 0.0000 0.0000 36.4811 0.0000 -5.7541
# 5 -10.3620 -2.4323 -14.4399 0.0000 55.4063 0.0000
# 6 0.0000 0.0000 0.0000 -5.7541 0.0000 16.7865
#
#
#
# Elastic Compliance Matrix: (Units=1/GPa)
#
#
# Indices 1 2 3 4 5 6 
#
# 1 0.012348 -0.001665 -0.001165 0.000000 0.001933 0.000000
# 2 -0.001665 0.012517 -0.000635 0.000000 0.000073 0.000000
# 3 -0.001165 -0.000635 0.008559 0.000000 0.001985 0.000000
# 4 0.000000 0.000000 0.000000 0.028978 0.000000 0.009933
# 5 0.001933 0.000073 0.001985 0.000000 0.018930 0.000000
# 6 0.000000 0.000000 0.000000 0.009933 0.000000 0.062977
#
#
# Mechanical properties :
#
#
# Convention : Reuss Voigt Hill
#
# Bulk Modulus (GPa) = 37.74507 40.16042 38.95274
# Shear Modulus (GPa) = 31.23630 38.73273 34.98452
#
# Velocity S-wave (km/s) = 3.50720 3.90544 3.71166
# Velocity P-wave (km/s) = 5.59143 6.01259 5.80583
#
# Compressibility (1/GPa) = 0.02649353
#
# Stress axis : x y z
#
# Youngs Moduli (GPa) = 80.98645 79.89076 116.83956
#
# Poissons Ratio (x) = 0.13304 0.13608
# Poissons Ratio (y) = 0.13486 0.07420
# Poissons Ratio (z) = 0.09433 0.05074
#
# Static dielectric constant tensor:
#      x y z
#    x 2.140710 0.000000 0.078310 
#    y 0.000000 1.839320 0.000000 
#    z 0.078310 0.000000 2.092860 
# 
# From -- ./inp_files/249125.got.cif
#   From: 2010.05.17/outbox.cif.g08.bks.cpg/sg12_125_cif.got.tgz:249125.got - 2010.06.03 13:09:07.
