data_PCOD9172486
_publ_section_title
;
Structure prediction by ZEFSAII (Michael W. Deem and Ramdas Pophale) SiO2 
 PCOD9172486
Probable space group: C 2/M
;
_chemical_formula_sum "Si O2"
_cell_formula_units_Z 56
_cell_length_a 18.821023
_cell_length_b 9.109567
_cell_length_c 23.599040
_cell_angle_alpha 90.000000
_cell_angle_beta 127.236215
_cell_angle_gamma 90.000000
_cell_volume 3221.283081
_symmetry_space_group_name_H-M "C 2/M"
_symmetry_group_IT_number 12
_symmetry_cell_setting 'monoclinic'
loop_
_space_group_symop_operation_xyz
x,y,z
-x,y,-z
-x,-y,-z
x,-y,z
1/2+x,1/2+y,z
1/2-x,1/2+y,-z
1/2-x,1/2-y,-z
1/2+x,1/2-y,z
loop_
_atom_site_type_symbol
_atom_site_label
_atom_site_fract_x
_atom_site_fract_y
_atom_site_fract_z
Si Si1 0.427357 0.321933 0.634255
Si Si2 0.556054 0.668540 0.791353
Si Si3 0.377993 0.330732 0.784519
Si Si4 0.723089 0.176614 0.360546
Si Si5 0.161302 0.673529 0.934845
Si Si6 0.081833 0.821623 0.501267
Si Si7 0.011768 0.324816 0.070801
O O1 0.417016 0.500000 0.633793
O O2 0.518506 0.284963 0.712030
O O3 0.346144 0.244572 0.627659
O O4 0.427667 0.278586 0.568895
O O5 0.587028 0.500000 0.803670
O O6 0.466793 0.672044 0.787471
O O7 0.628519 0.765377 0.858408
O O8 0.351905 0.500000 0.778935
O O9 0.305185 0.240213 0.714127
O O10 0.409554 0.257892 0.858137
O O11 0.822646 0.220112 0.426905
O O12 0.715709 0.000000 0.356806
O O13 0.174472 0.500000 0.938195
O O14 0.079983 0.703003 0.939323
O O15 0.250000 0.750000 0.000000
O O16 0.000000 0.768493 0.500000
O O17 0.079537 0.000000 0.500583
O O18 0.028473 0.500000 0.080929
O O19 0.000000 0.280445 0.000000
#
# Coordination Sequence:
#
# PCOD9172486 Si02
#       7
#     8   8   8   8   8   8   8
#     4   9  17  31  52  74  95 122 160 204 243 285
#     4   8  15  28  46  68  93 122 157 196 237 279
#     4   9  17  30  49  72  99 128 159 199 243 287
#     4  10  18  29  50  75  97 124 161 204 242 282
#     4  10  19  31  49  71  97 127 158 196 238 283
#     4   9  18  32  49  71  99 130 162 196 239 290
#     4   9  18  33  52  74  99 127 162 202 241 283
#
# _framework density 17.384377000000001
#
# number of rings (size 3 to 8) (size 9 to 14) (size 15 to 20)
#    0.000    2.857    0.000    2.571    0.000    4.286 
#    0.000    2.143    0.000    9.000    0.000    0.000 
#    0.000    0.000    0.000    0.000    0.000    0.000 
#
# Total GULP energy -156048.598478 kJ/mol
# GULP energy per Si atom -5573.164231 kJ/mol
# Density = 1.734481 g / cm^3
# Si number density = 17.384377 Si / 1000 Ang^3
#
#
#
# Elastic Constant Matrix: (Units=GPa)
#
#
# Indices 1 2 3 4 5 6 
#
# 1 52.9590 38.0216 73.8166 0.0000 -3.2183 0.0000
# 2 38.0216 57.3934 76.7598 0.0000 3.7912 0.0000
# 3 73.8166 76.7598 215.1345 0.0000 -6.4142 0.0000
# 4 0.0000 0.0000 0.0000 29.4195 0.0000 0.8497
# 5 -3.2183 3.7912 -6.4142 0.0000 26.0407 0.0000
# 6 0.0000 0.0000 0.0000 0.8497 0.0000 15.9633
#
#
#
# Elastic Compliance Matrix: (Units=1/GPa)
#
#
# Indices 1 2 3 4 5 6 
#
# 1 0.044216 -0.018449 -0.008407 0.000000 0.006080 0.000000
# 2 -0.018449 0.042693 -0.009224 0.000000 -0.010768 0.000000
# 3 -0.008407 -0.009224 0.010913 0.000000 0.002992 0.000000
# 4 0.000000 0.000000 0.000000 0.034043 0.000000 -0.001812
# 5 0.006080 -0.010768 0.002992 0.000000 0.041457 0.000000
# 6 0.000000 0.000000 0.000000 -0.001812 0.000000 0.062740
#
#
# Mechanical properties :
#
#
# Convention : Reuss Voigt Hill
#
# Bulk Modulus (GPa) = 38.96853 78.07588 58.52221
# Shear Modulus (GPa) = 15.78398 23.41064 19.59731
#
# Velocity S-wave (km/s) = 3.01647 3.67365 3.36116
# Velocity P-wave (km/s) = 5.88189 7.93746 6.98570
#
# Compressibility (1/GPa) = 0.02566173
#
# Stress axis : x y z
#
# Youngs Moduli (GPa) = 22.61621 23.42319 91.63263
#
# Poissons Ratio (x) = 0.43214 0.77040
# Poissons Ratio (y) = 0.41725 0.84518
# Poissons Ratio (z) = 0.19014 0.21604
#
# Static dielectric constant tensor:
#      x y z
#    x 1.577410 0.000000 -0.012240 
#    y 0.000000 1.583440 0.000000 
#    z -0.012240 0.000000 1.596710 
# 
# From -- ./inp_files/342607.got.cif
#   From: 2010.05.17/outbox.cif.g08.bks.cpg/sg12_172_cif.got.tgz:342607.got - 2010.06.03 13:09:07.
