data_PCOD9172260
_publ_section_title
;
Structure prediction by ZEFSAII (Michael W. Deem and Ramdas Pophale) SiO2 
 PCOD9172260
Probable space group: C 2/M
;
_chemical_formula_sum "Si O2"
_cell_formula_units_Z 48
_cell_length_a 24.843006
_cell_length_b 8.880560
_cell_length_c 14.641023
_cell_angle_alpha 90.000000
_cell_angle_beta 109.661596
_cell_angle_gamma 90.000000
_cell_volume 3041.772820
_symmetry_space_group_name_H-M "C 2/M"
_symmetry_group_IT_number 12
_symmetry_cell_setting 'monoclinic'
loop_
_space_group_symop_operation_xyz
x,y,z
-x,y,-z
-x,-y,-z
x,-y,z
1/2+x,1/2+y,z
1/2-x,1/2+y,-z
1/2-x,1/2-y,-z
1/2+x,1/2-y,z
loop_
_atom_site_type_symbol
_atom_site_label
_atom_site_fract_x
_atom_site_fract_y
_atom_site_fract_z
Si Si1 0.028724 0.318936 0.647744
Si Si2 0.212118 0.179646 0.557912
Si Si3 0.697255 0.679894 0.026304
Si Si4 0.920452 0.180770 0.508637
Si Si5 0.626650 0.180275 0.838510
Si Si6 0.732766 0.180621 0.765470
O O1 0.025528 0.500000 0.637899
O O2 0.061930 0.253886 0.578273
O O3 0.066378 0.281181 0.757923
O O4 0.966036 0.247040 0.606233
O O5 0.250000 0.250000 0.500000
O O6 0.145035 0.218331 0.507634
O O7 0.231025 0.239532 0.667726
O O8 0.217025 0.000000 0.558549
O O9 0.698986 0.500000 0.019163
O O10 0.641964 0.742943 0.943140
O O11 0.750000 0.750000 0.000000
O O12 0.712438 0.717768 0.139752
O O13 0.926531 0.000000 0.506121
O O14 0.676340 0.221021 0.793133
O O15 0.629964 0.000000 0.851808
O O16 0.731218 0.000000 0.751446
#
# Coordination Sequence:
#
# PCOD9172260 Si02
#       6
#     8   8   8   8   8   8
#     4  10  18  29  48  70  95 129 158 188 235 284
#     4  11  23  35  50  69  92 126 164 201 239 279
#     4   9  17  27  42  65  93 125 156 189 232 280
#     4  10  20  32  45  68  95 122 159 198 237 281
#     4   9  17  28  44  69  97 126 157 188 229 282
#     4   9  17  31  46  64  94 125 157 196 232 277
#
# _framework density 15.780271000000001
#
# number of rings (size 3 to 8) (size 9 to 14) (size 15 to 20)
#    0.000    2.333    1.667    4.000    0.000    6.667 
#    0.000    0.000    0.000    0.000    0.000    1.167 
#    0.000    9.333    0.000    0.000    0.000    0.000 
#
# Total GULP energy -133747.728160 kJ/mol
# GULP energy per Si atom -5572.822007 kJ/mol
# Density = 1.574435 g / cm^3
# Si number density = 15.780271 Si / 1000 Ang^3
#
#
#
# Elastic Constant Matrix: (Units=GPa)
#
#
# Indices 1 2 3 4 5 6 
#
# 1 77.4272 40.4084 69.8398 0.0000 12.6693 0.0000
# 2 40.4084 50.5159 56.7307 0.0000 12.1714 0.0000
# 3 69.8398 56.7307 150.2098 0.0000 33.6357 0.0000
# 4 0.0000 0.0000 0.0000 31.3935 0.0000 3.9306
# 5 12.6693 12.1714 33.6357 0.0000 26.1929 0.0000
# 6 0.0000 0.0000 0.0000 3.9306 0.0000 20.6675
#
#
#
# Elastic Compliance Matrix: (Units=1/GPa)
#
#
# Indices 1 2 3 4 5 6 
#
# 1 0.026460 -0.012693 -0.008371 0.000000 0.003849 0.000000
# 2 -0.012693 0.040482 -0.009194 0.000000 -0.000866 0.000000
# 3 -0.008371 -0.009194 0.017066 0.000000 -0.013594 0.000000
# 4 0.000000 0.000000 0.000000 0.032631 0.000000 -0.006206
# 5 0.003849 -0.000866 -0.013594 0.000000 0.054175 0.000000
# 6 0.000000 0.000000 0.000000 -0.006206 0.000000 0.049565
#
#
# Mechanical properties :
#
#
# Convention : Reuss Voigt Hill
#
# Bulk Modulus (GPa) = 42.56495 68.01229 55.28862
# Shear Modulus (GPa) = 17.31747 23.06239 20.18993
#
# Velocity S-wave (km/s) = 3.31632 3.82706 3.58081
# Velocity P-wave (km/s) = 6.45724 7.91970 7.22557
#
# Compressibility (1/GPa) = 0.02349351
#
# Stress axis : x y z
#
# Youngs Moduli (GPa) = 37.79260 24.70203 58.59716
#
# Poissons Ratio (x) = 0.31353 0.49050
# Poissons Ratio (y) = 0.47969 0.53875
# Poissons Ratio (z) = 0.31635 0.22711
#
# Static dielectric constant tensor:
#      x y z
#    x 1.509430 0.000000 0.042750 
#    y 0.000000 1.525090 0.000000 
#    z 0.042750 0.000000 1.550330 
# 
# From -- ./inp_files/236865.got.cif
#   From: 2010.05.17/outbox.cif.g08.bks.cpg/sg12_119_cif.got.tgz:236865.got - 2010.06.03 13:09:07.
