data_PCOD9172208
_publ_section_title
;
Structure prediction by ZEFSAII (Michael W. Deem and Ramdas Pophale) SiO2 
 PCOD9172208
Probable space group: C 2/M
;
_chemical_formula_sum "Si O2"
_cell_formula_units_Z 64
_cell_length_a 18.725648
_cell_length_b 18.488618
_cell_length_c 21.260120
_cell_angle_alpha 90.000000
_cell_angle_beta 158.024673
_cell_angle_gamma 90.000000
_cell_volume 2754.350851
_symmetry_space_group_name_H-M "C 2/M"
_symmetry_group_IT_number 12
_symmetry_cell_setting 'monoclinic'
loop_
_space_group_symop_operation_xyz
x,y,z
-x,y,-z
-x,-y,-z
x,-y,z
1/2+x,1/2+y,z
1/2-x,1/2+y,-z
1/2-x,1/2-y,-z
1/2+x,1/2-y,z
loop_
_atom_site_type_symbol
_atom_site_label
_atom_site_fract_x
_atom_site_fract_y
_atom_site_fract_z
Si Si1 0.285194 0.827608 0.561409
Si Si2 0.754244 0.334531 0.061483
Si Si3 0.215781 0.657738 0.297287
Si Si4 0.233253 0.416996 0.187511
Si Si5 0.269428 0.081774 0.195327
Si Si6 0.735691 0.082268 0.573498
Si Si7 0.230092 0.677956 0.687518
Si Si8 0.783285 0.334158 0.947922
O O1 0.250000 0.750000 0.500000
O O2 0.514849 0.833402 0.753369
O O3 0.207125 0.836375 0.568521
O O4 0.214549 0.887352 0.454488
O O5 0.701918 0.390593 0.072563
O O6 0.702252 0.253034 0.039615
O O7 0.684762 0.351144 0.934177
O O8 0.301461 0.609478 0.311693
O O9 0.212867 0.738984 0.267987
O O10 0.996192 0.633608 0.125483
O O11 0.286400 0.500000 0.219028
O O12 0.297390 0.365550 0.182558
O O13 0.000000 0.412788 0.000000
O O14 0.502197 0.082469 0.384654
O O15 0.207352 0.135776 0.199399
O O16 0.212723 0.000000 0.162391
O O17 0.794366 0.136132 0.677320
O O18 0.799338 0.000000 0.635732
O O19 0.000000 0.677041 0.500000
#
# Coordination Sequence:
#
# PCOD9172208 Si02
#       8
#     8   8   8   8   8   8   8   8
#     4  10  18  31  49  75  99 124 160 201 243 289
#     4   9  18  31  51  74  96 125 160 199 245 287
#     4  10  19  31  51  74  97 126 163 203 240 286
#     4   9  18  32  50  73  99 126 163 208 248 285
#     4   9  17  28  45  71  98 122 157 198 236 282
#     4   9  17  29  46  69  98 127 157 197 240 282
#     4  10  18  29  47  72  96 129 161 193 237 285
#     4   9  18  33  51  74  95 124 164 202 243 287
#
# _framework density 23.235966000000001
#
# number of rings (size 3 to 8) (size 9 to 14) (size 15 to 20)
#    0.000    2.625    1.250    1.125    0.000    2.500 
#    0.000    5.000    0.000    3.375    0.000    0.000 
#    0.000    0.000    0.000    0.000    0.000    0.000 
#
# Total GULP energy -178860.750270 kJ/mol
# GULP energy per Si atom -5589.398446 kJ/mol
# Density = 2.318308 g / cm^3
# Si number density = 23.235966 Si / 1000 Ang^3
#
#
#
# Elastic Constant Matrix: (Units=GPa)
#
#
# Indices 1 2 3 4 5 6 
#
# 1 128.8338 37.9149 39.4665 0.0365 -32.5134 -0.0097
# 2 37.9149 59.5844 -2.7316 0.0631 -22.4468 -0.0190
# 3 39.4665 -2.7316 80.1348 0.1440 -6.1733 0.0429
# 4 0.0365 0.0631 0.1440 14.0107 0.0656 3.1456
# 5 -32.5134 -22.4468 -6.1733 0.0656 39.7006 0.0612
# 6 -0.0097 -0.0190 0.0429 3.1456 0.0612 9.6637
#
#
#
# Elastic Compliance Matrix: (Units=1/GPa)
#
#
# Indices 1 2 3 4 5 6 
#
# 1 0.013056 -0.006256 -0.006166 0.000033 0.006196 -0.000022
# 2 -0.006256 0.024548 0.004648 -0.000192 0.009479 0.000024
# 3 -0.006166 0.004648 0.015676 -0.000163 0.000016 -0.000014
# 4 0.000033 -0.000192 -0.000163 0.077004 -0.000195 -0.025063
# 5 0.006196 0.009479 0.000016 -0.000195 0.035625 -0.000137
# 6 -0.000022 0.000024 -0.000014 -0.025063 -0.000137 0.111639
#
#
# Mechanical properties :
#
#
# Convention : Reuss Voigt Hill
#
# Bulk Modulus (GPa) = 26.50239 46.42809 36.46524
# Shear Modulus (GPa) = 16.35738 25.60189 20.97963
#
# Velocity S-wave (km/s) = 2.65612 3.32297 3.00808
# Velocity P-wave (km/s) = 4.56477 5.89469 5.27184
#
# Compressibility (1/GPa) = 0.03773245
#
# Stress axis : x y z
#
# Youngs Moduli (GPa) = 76.59580 40.73632 63.79305
#
# Poissons Ratio (x) = 0.25485 0.39334
# Poissons Ratio (y) = 0.47919 -0.29654
# Poissons Ratio (z) = 0.47228 -0.18936
#
# Static dielectric constant tensor:
#      x y z
#    x 1.903340 -0.000030 0.061830 
#    y -0.000030 1.790680 -0.000030 
#    z 0.061830 -0.000030 1.965680 
# 
# From -- ./inp_files/322468.got.cif
#   From: 2010.05.17/outbox.cif.g08.bks.cpg/sg12_162_cif.got.tgz:322468.got - 2010.06.03 13:09:07.
