data_PCOD9172307
_publ_section_title
;
Structure prediction by ZEFSAII (Michael W. Deem and Ramdas Pophale) SiO2 
 PCOD9172307
Probable space group: C 2/M
;
_chemical_formula_sum "Si O2"
_cell_formula_units_Z 48
_cell_length_a 29.164453
_cell_length_b 8.552920
_cell_length_c 11.644530
_cell_angle_alpha 90.000000
_cell_angle_beta 102.503071
_cell_angle_gamma 90.000000
_cell_volume 2835.740992
_symmetry_space_group_name_H-M "C 2/M"
_symmetry_group_IT_number 12
_symmetry_cell_setting 'monoclinic'
loop_
_space_group_symop_operation_xyz
x,y,z
-x,y,-z
-x,-y,-z
x,-y,z
1/2+x,1/2+y,z
1/2-x,1/2+y,-z
1/2-x,1/2-y,-z
1/2+x,1/2-y,z
loop_
_atom_site_type_symbol
_atom_site_label
_atom_site_fract_x
_atom_site_fract_y
_atom_site_fract_z
Si Si1 0.975859 0.688676 0.163265
Si Si2 0.427648 0.811429 0.901245
Si Si3 0.045268 0.188976 0.597301
Si Si4 0.242726 0.187228 0.625296
Si Si5 0.160389 0.186694 0.278454
Si Si6 0.641003 0.690274 0.530553
O O1 0.975446 0.500000 0.168593
O O2 0.959993 0.756658 0.275166
O O3 0.028993 0.736701 0.157878
O O4 0.942871 0.735111 0.038174
O O5 0.379051 0.743668 0.830312
O O6 0.425383 0.000000 0.897411
O O7 0.093433 0.245330 0.564384
O O8 0.000000 0.241780 0.500000
O O9 0.045773 0.000000 0.595564
O O10 0.250000 0.250000 0.500000
O O11 0.287153 0.252076 0.718226
O O12 0.189031 0.234497 0.623085
O O13 0.245023 0.000000 0.626261
O O14 0.145808 0.240888 0.399941
O O15 0.161828 0.000000 0.281358
O O16 0.639708 0.500000 0.527797
#
# Coordination Sequence:
#
# PCOD9172307 Si02
#       6
#     8   8   8   8   8   8
#     4   9  19  34  49  68  94 124 157 191 230 277
#     4   9  18  33  50  67  93 125 154 190 236 280
#     4  10  19  31  48  70  97 127 155 185 226 275
#     4   9  16  28  45  66  95 127 158 193 233 275
#     4  10  18  29  48  73  96 119 156 198 235 279
#     4   8  16  29  44  66  97 128 153 183 228 278
#
# _framework density 16.926793
#
# number of rings (size 3 to 8) (size 9 to 14) (size 15 to 20)
#    0.000    2.833    0.000    4.000    0.000    3.000 
#    0.000    6.667    0.000    1.000    0.000    0.000 
#    0.000    0.000    0.000    0.000    0.000    0.000 
#
# Total GULP energy -133716.340451 kJ/mol
# GULP energy per Si atom -5571.514185 kJ/mol
# Density = 1.688827 g / cm^3
# Si number density = 16.926793 Si / 1000 Ang^3
#
#
#
# Elastic Constant Matrix: (Units=GPa)
#
#
# Indices 1 2 3 4 5 6 
#
# 1 167.6462 28.5364 72.8748 0.0000 26.2985 0.0000
# 2 28.5364 20.2487 16.5543 0.0000 8.0102 0.0000
# 3 72.8748 16.5543 75.8218 0.0000 13.2295 0.0000
# 4 0.0000 0.0000 0.0000 25.2893 0.0000 -0.2743
# 5 26.2985 8.0102 13.2295 0.0000 33.4549 0.0000
# 6 0.0000 0.0000 0.0000 -0.2743 0.0000 17.2599
#
#
#
# Elastic Compliance Matrix: (Units=1/GPa)
#
#
# Indices 1 2 3 4 5 6 
#
# 1 0.011787 -0.007756 -0.008961 0.000000 -0.003865 0.000000
# 2 -0.007756 0.068426 -0.006112 0.000000 -0.007870 0.000000
# 3 -0.008961 -0.006112 0.023256 0.000000 -0.000689 0.000000
# 4 0.000000 0.000000 0.000000 0.039549 0.000000 0.000628
# 5 -0.003865 -0.007870 -0.000689 0.000000 0.035086 0.000000
# 6 0.000000 0.000000 0.000000 0.000628 0.000000 0.057948
#
#
# Mechanical properties :
#
#
# Convention : Reuss Voigt Hill
#
# Bulk Modulus (GPa) = 17.29761 55.51641 36.40701
# Shear Modulus (GPa) = 16.61242 24.91757 20.76499
#
# Velocity S-wave (km/s) = 3.13617 3.84093 3.50630
# Velocity P-wave (km/s) = 4.83274 7.24841 6.16015
#
# Compressibility (1/GPa) = 0.05781147
#
# Stress axis : x y z
#
# Youngs Moduli (GPa) = 84.84178 14.61424 42.99979
#
# Poissons Ratio (x) = 0.11335 0.38531
# Poissons Ratio (y) = 0.65804 0.26281
# Poissons Ratio (z) = 0.76025 0.08932
#
# Static dielectric constant tensor:
#      x y z
#    x 1.595190 0.000000 0.017230 
#    y 0.000000 1.575740 0.000000 
#    z 0.017230 0.000000 1.545910 
# 
# From -- ./inp_files/179313.got.cif
#   From: 2010.05.17/outbox.cif.g08.bks.cpg/sg12_90_cif.got.tgz:179313.got - 2010.06.03 13:09:07.
