data_PCOD9172772
_publ_section_title
;
Structure prediction by ZEFSAII (Michael W. Deem and Ramdas Pophale) SiO2 
 PCOD9172772
Probable space group: C 2/M
;
_chemical_formula_sum "Si O2"
_cell_formula_units_Z 44
_cell_length_a 14.395315
_cell_length_b 35.557720
_cell_length_c 13.095331
_cell_angle_alpha 90.000000
_cell_angle_beta 20.443797
_cell_angle_gamma 90.000000
_cell_volume 2341.292793
_symmetry_space_group_name_H-M "C 2/M"
_symmetry_group_IT_number 12
_symmetry_cell_setting 'monoclinic'
loop_
_space_group_symop_operation_xyz
x,y,z
-x,y,-z
-x,-y,-z
x,-y,z
1/2+x,1/2+y,z
1/2-x,1/2+y,-z
1/2-x,1/2-y,-z
1/2+x,1/2-y,z
loop_
_atom_site_type_symbol
_atom_site_label
_atom_site_fract_x
_atom_site_fract_y
_atom_site_fract_z
Si Si1 0.500000 0.331886 0.000000
Si Si2 0.083888 0.882445 0.088903
Si Si3 0.761322 0.199697 0.669009
Si Si4 0.239227 0.957770 0.833715
Si Si5 0.043417 0.345603 0.713285
Si Si6 0.884546 0.279770 0.503209
O O1 0.670509 0.360396 0.894730
O O2 0.384700 0.303088 0.201888
O O3 0.774825 0.871104 0.422270
O O4 0.152081 0.925800 0.002111
O O5 0.266325 0.867169 0.992170
O O6 0.661683 0.166616 0.699473
O O7 0.856653 0.236159 0.506527
O O8 0.000000 0.189866 0.500000
O O9 0.500000 0.212830 0.000000
O O10 0.500000 0.947146 0.500000
O O11 0.282404 0.000000 0.831536
O O12 0.000000 0.959533 0.000000
O O13 0.980851 0.306201 0.718729
O O14 0.000000 0.280965 0.500000
#
# Coordination Sequence:
#
# PCOD9172772 Si02
#       6
#     4   8   8   8   8   8
#     4  10  18  30  47  76 102 142 176 208 249 302
#     4  11  21  33  54  76 111 136 182 210 253 306
#     4  11  23  39  54  70 102 138 183 233 281 313
#     4  10  20  33  51  79 114 150 175 197 244 313
#     4  11  23  35  54  78 102 138 184 226 266 311
#     4  10  19  33  49  75 102 138 176 219 268 315
#
# _framework density 18.793037000000002
#
# number of rings (size 3 to 8) (size 9 to 14) (size 15 to 20)
#    0.000    1.455    3.636    2.727    2.545    0.000 
#    0.000    5.455    0.000    0.000    0.000    0.000 
#    0.000   14.545    0.000    0.000    0.000    0.000 
#
# Total GULP energy -122597.542220 kJ/mol
# GULP energy per Si atom -5572.615555 kJ/mol
# Density = 1.875026 g / cm^3
# Si number density = 18.793037 Si / 1000 Ang^3
#
#
#
# Elastic Constant Matrix: (Units=GPa)
#
#
# Indices 1 2 3 4 5 6 
#
# 1 55.4358 19.0899 2.1774 0.0001 -24.5446 0.0001
# 2 19.0899 80.3398 -1.0283 0.0001 -4.0926 0.0005
# 3 2.1774 -1.0283 57.1121 0.0006 -19.5579 0.0017
# 4 0.0001 0.0001 0.0006 21.2927 0.0000 -4.2319
# 5 -24.5446 -4.0926 -19.5579 0.0000 26.1082 0.0001
# 6 0.0001 0.0005 0.0017 -4.2319 0.0001 18.0759
#
#
#
# Elastic Compliance Matrix: (Units=1/GPa)
#
#
# Indices 1 2 3 4 5 6 
#
# 1 0.041993 -0.007244 0.015332 -0.000001 0.049828 -0.000002
# 2 -0.007244 0.013859 -0.001429 0.000000 -0.005708 0.000000
# 3 0.015332 -0.001429 0.029266 -0.000002 0.036113 -0.000003
# 4 -0.000001 0.000000 -0.000002 0.049256 -0.000002 0.011532
# 5 0.049828 -0.005708 0.036113 -0.000002 0.111304 -0.000005
# 6 -0.000002 0.000000 -0.000003 0.011532 -0.000005 0.058022
#
#
# Mechanical properties :
#
#
# Convention : Reuss Voigt Hill
#
# Bulk Modulus (GPa) = 10.15878 25.92954 18.04416
# Shear Modulus (GPa) = 15.47058 24.60525 20.03792
#
# Velocity S-wave (km/s) = 2.87227 3.62232 3.26888
# Velocity P-wave (km/s) = 4.05182 5.59663 4.88567
#
# Compressibility (1/GPa) = 0.09843705
#
# Stress axis : x y z
#
# Youngs Moduli (GPa) = 23.81366 72.15381 34.16923
#
# Poissons Ratio (x) = 0.52265 -0.52388
# Poissons Ratio (y) = 0.17250 0.04882
# Poissons Ratio (z) = -0.36511 0.10310
#
# Static dielectric constant tensor:
#      x y z
#    x 1.687550 0.000000 0.013400 
#    y 0.000000 1.674130 0.000000 
#    z 0.013400 0.000000 1.730670 
# 
# From -- ./inp_files/219548.got.cif
#   From: 2010.05.17/outbox.cif.g08.bks.cpg/sg12_110_cif.got.tgz:219548.got - 2010.06.03 13:09:07.
