data_PCOD9172065
_publ_section_title
;
Structure prediction by ZEFSAII (Michael W. Deem and Ramdas Pophale) SiO2 
 PCOD9172065
Probable space group: C 2/M
;
_chemical_formula_sum "Si O2"
_cell_formula_units_Z 64
_cell_length_a 20.729464
_cell_length_b 7.480974
_cell_length_c 24.559869
_cell_angle_alpha 90.000000
_cell_angle_beta 120.629446
_cell_angle_gamma 90.000000
_cell_volume 3277.277354
_symmetry_space_group_name_H-M "C 2/M"
_symmetry_group_IT_number 12
_symmetry_cell_setting 'monoclinic'
loop_
_space_group_symop_operation_xyz
x,y,z
-x,y,-z
-x,-y,-z
x,-y,z
1/2+x,1/2+y,z
1/2-x,1/2+y,-z
1/2-x,1/2-y,-z
1/2+x,1/2-y,z
loop_
_atom_site_type_symbol
_atom_site_label
_atom_site_fract_x
_atom_site_fract_y
_atom_site_fract_z
Si Si1 0.994167 0.716580 0.670578
Si Si2 0.333455 0.785196 0.056313
Si Si3 0.544670 0.218749 0.466002
Si Si4 0.093163 0.296863 0.807100
Si Si5 0.445795 0.285431 0.810927
Si Si6 0.784890 0.714399 0.456079
Si Si7 0.523732 0.787468 0.951351
Si Si8 0.655671 0.288824 0.324602
O O1 0.997806 0.500000 0.673158
O O2 0.990628 0.775965 0.606705
O O3 0.915747 0.765754 0.666009
O O4 0.063287 0.783538 0.737567
O O5 0.348910 0.715608 0.124518
O O6 0.399194 0.718410 0.043706
O O7 0.342876 0.000000 0.063625
O O8 0.250000 0.750000 0.000000
O O9 0.500000 0.274913 0.500000
O O10 0.630321 0.280466 0.507599
O O11 0.544855 0.000000 0.464915
O O12 0.117635 0.500000 0.805846
O O13 0.016790 0.298225 0.810175
O O14 0.451529 0.500000 0.807157
O O15 0.457822 0.241839 0.878965
O O16 0.372660 0.222755 0.746437
O O17 0.788488 0.500000 0.451072
O O18 0.750000 0.750000 0.500000
O O19 0.728784 0.786567 0.385706
O O20 0.534677 0.000000 0.962360
O O21 0.500000 0.714892 0.000000
O O22 0.668610 0.500000 0.323873
#
# Coordination Sequence:
#
# PCOD9172065 Si02
#       8
#     8   8   8   8   8   8   8   8
#     4   9  15  26  46  67  86 113 153 191 220 261
#     4   9  17  29  46  68  92 116 145 184 226 264
#     4   9  17  28  44  67  91 117 152 188 222 264
#     4   8  15  27  43  64  90 116 151 190 221 261
#     4   9  16  26  42  67  95 119 147 182 227 274
#     4  10  18  29  46  68  92 117 150 190 229 267
#     4   9  18  33  51  69  91 122 157 188 220 262
#     4   9  17  27  42  66  96 118 140 185 236 273
#
# _framework density 19.528406
#
# number of rings (size 3 to 8) (size 9 to 14) (size 15 to 20)
#    0.000    3.000    1.250    1.125    0.000    2.750 
#    0.000    0.000    2.750    1.500    0.000    0.000 
#    0.000    0.000    0.000    0.000    0.000    0.000 
#
# Total GULP energy -178218.143205 kJ/mol
# GULP energy per Si atom -5569.316975 kJ/mol
# Density = 1.948396 g / cm^3
# Si number density = 19.528406 Si / 1000 Ang^3
#
#
#
# Elastic Constant Matrix: (Units=GPa)
#
#
# Indices 1 2 3 4 5 6 
#
# 1 84.9667 -0.4839 86.0514 0.0000 0.6516 0.0000
# 2 -0.4839 55.7483 -4.5018 0.0000 2.5993 0.0000
# 3 86.0514 -4.5018 242.0534 0.0000 7.5775 0.0000
# 4 0.0000 0.0000 0.0000 3.0315 0.0000 5.3109
# 5 0.6516 2.5993 7.5775 0.0000 30.5753 0.0000
# 6 0.0000 0.0000 0.0000 5.3109 0.0000 6.3886
#
#
#
# Elastic Compliance Matrix: (Units=1/GPa)
#
#
# Indices 1 2 3 4 5 6 
#
# 1 0.018448 -0.000433 -0.006606 0.000000 0.001281 0.000000
# 2 -0.000433 0.018055 0.000542 0.000000 -0.001660 0.000000
# 3 -0.006606 0.000542 0.006538 0.000000 -0.001526 0.000000
# 4 0.000000 0.000000 0.000000 -0.722847 0.000000 0.600901
# 5 0.001281 -0.001660 -0.001526 0.000000 0.033198 0.000000
# 6 0.000000 0.000000 0.000000 0.600901 0.000000 -0.343000
#
#
# Mechanical properties :
#
#
# Convention : Reuss Voigt Hill
#
# Bulk Modulus (GPa) = 33.28328 60.54442 46.91385
# Shear Modulus (GPa) = -5.17279 28.11259 11.46990
#
# Velocity S-wave (km/s) = -1.62930 3.79829 2.42615
# Velocity P-wave (km/s) = 3.67982 7.09271 5.65012
#
# Compressibility (1/GPa) = 0.03004512
#
# Stress axis : x y z
#
# Youngs Moduli (GPa) = 54.20689 55.38583 152.95695
#
# Poissons Ratio (x) = 0.02399 1.01050
# Poissons Ratio (y) = 0.02348 -0.08286
# Poissons Ratio (z) = 0.35812 -0.03000
#
# Static dielectric constant tensor:
#      x y z
#    x 1.629650 0.000000 0.010190 
#    y 0.000000 1.733740 0.000000 
#    z 0.010190 0.000000 1.751380 
# 
# From -- ./inp_files/345598.got.cif
#   From: 2010.05.17/outbox.cif.g08.bks.cpg/sg12_173_cif.got.tgz:345598.got - 2010.06.03 13:09:07.
