data_PCOD9172572
_publ_section_title
;
Structure prediction by ZEFSAII (Michael W. Deem and Ramdas Pophale) SiO2 
 PCOD9172572
Probable space group: C 2/M
;
_chemical_formula_sum "Si O2"
_cell_formula_units_Z 56
_cell_length_a 25.076675
_cell_length_b 14.788763
_cell_length_c 16.172649
_cell_angle_alpha 90.000000
_cell_angle_beta 23.970061
_cell_angle_gamma 90.000000
_cell_volume 2436.611005
_symmetry_space_group_name_H-M "C 2/M"
_symmetry_group_IT_number 12
_symmetry_cell_setting 'monoclinic'
loop_
_space_group_symop_operation_xyz
x,y,z
-x,y,-z
-x,-y,-z
x,-y,z
1/2+x,1/2+y,z
1/2-x,1/2+y,-z
1/2-x,1/2-y,-z
1/2+x,1/2-y,z
loop_
_atom_site_type_symbol
_atom_site_label
_atom_site_fract_x
_atom_site_fract_y
_atom_site_fract_z
Si Si1 0.632657 0.894948 0.756527
Si Si2 0.946694 0.099383 0.684335
Si Si3 0.752547 0.106496 0.747891
Si Si4 0.828235 0.602284 0.718432
Si Si5 0.509349 0.796641 0.176890
Si Si6 0.972833 0.903081 0.846225
Si Si7 0.942860 0.699866 0.696269
O O1 0.744089 0.864190 0.663035
O O2 0.602906 0.852297 0.710749
O O3 0.654150 0.000000 0.712348
O O4 0.500000 0.883143 0.000000
O O5 0.962414 0.094524 0.761511
O O6 0.889937 0.199495 0.750356
O O7 0.096634 0.107245 0.438378
O O8 0.890814 0.000000 0.739547
O O9 0.709844 0.000000 0.812473
O O10 0.649058 0.168049 0.942564
O O11 0.874903 0.500000 0.636784
O O12 0.845653 0.628477 0.790528
O O13 0.918043 0.674081 0.543516
O O14 0.677081 0.603305 0.910189
O O15 0.472184 0.693490 0.207938
O O16 0.529582 0.807242 0.245946
O O17 0.030607 0.000000 0.790998
#
# Coordination Sequence:
#
# PCOD9172572 Si02
#       7
#     8   8   8   8   8   8   8
#     4   8  15  28  47  74 105 131 154 190 246 298
#     4   9  18  33  52  74 100 131 164 197 240 295
#     4   9  17  31  52  77 105 131 154 192 249 301
#     4  10  21  37  53  68  96 134 166 203 247 288
#     4  10  18  29  52  80 101 124 160 208 244 284
#     4   9  19  35  52  69  94 134 173 200 238 290
#     4  10  20  33  52  76  97 125 166 207 245 288
#
# _framework density 22.982741000000001
#
# number of rings (size 3 to 8) (size 9 to 14) (size 15 to 20)
#    0.000    2.714    0.000    3.000    0.000    4.571 
#    0.000    4.286    0.000   15.857    0.000   12.000 
#    0.000    0.000    0.000    0.000    0.000    0.000 
#
# Total GULP energy -156204.277964 kJ/mol
# GULP energy per Si atom -5578.724213 kJ/mol
# Density = 2.293043 g / cm^3
# Si number density = 22.982741 Si / 1000 Ang^3
#
#
#
# Elastic Constant Matrix: (Units=GPa)
#
#
# Indices 1 2 3 4 5 6 
#
# 1 93.6376 25.3030 4.3911 0.0000 11.9382 0.0000
# 2 25.3030 127.6721 12.5596 0.0000 21.8347 0.0000
# 3 4.3911 12.5596 53.8951 0.0000 5.2829 0.0000
# 4 0.0000 0.0000 0.0000 2.9279 0.0000 27.8936
# 5 11.9382 21.8347 5.2829 0.0000 21.1518 0.0000
# 6 0.0000 0.0000 0.0000 27.8936 0.0000 6.6279
#
#
#
# Elastic Compliance Matrix: (Units=1/GPa)
#
#
# Indices 1 2 3 4 5 6 
#
# 1 0.011724 -0.001439 -0.000120 0.000000 -0.005102 0.000000
# 2 -0.001439 0.009776 -0.001283 0.000000 -0.008959 0.000000
# 3 -0.000120 -0.001283 0.019197 0.000000 -0.003403 0.000000
# 4 0.000000 0.000000 0.000000 -0.008736 0.000000 0.036768
# 5 -0.005102 -0.008959 -0.003403 0.000000 0.060255 0.000000
# 6 0.000000 0.000000 0.000000 0.036768 0.000000 -0.003859
#
#
# Mechanical properties :
#
#
# Convention : Reuss Voigt Hill
#
# Bulk Modulus (GPa) = 28.56026 39.96801 34.26413
# Shear Modulus (GPa) = 47.29858 21.67160 34.48509
#
# Velocity S-wave (km/s) = 4.54144 3.07408 3.87780
# Velocity P-wave (km/s) = 6.32087 5.47980 5.91530
#
# Compressibility (1/GPa) = 0.03501369
#
# Stress axis : x y z
#
# Youngs Moduli (GPa) = 85.29180 102.28902 52.09200
#
# Poissons Ratio (x) = 0.14723 0.00624
# Poissons Ratio (y) = 0.12277 0.06682
# Poissons Ratio (z) = 0.01021 0.13121
#
# Static dielectric constant tensor:
#      x y z
#    x 1.874900 0.000000 -0.004310 
#    y 0.000000 1.883510 0.000000 
#    z -0.004310 0.000000 1.926020 
# 
# From -- ./inp_files/240892.got.cif
#   From: 2010.05.17/outbox.cif.g08.bks.cpg/sg12_121_cif.got.tgz:240892.got - 2010.06.03 13:09:07.
