data_PCOD9172593
_publ_section_title
;
Structure prediction by ZEFSAII (Michael W. Deem and Ramdas Pophale) SiO2 
 PCOD9172593
Probable space group: C 2/M
;
_chemical_formula_sum "Si O2"
_cell_formula_units_Z 36
_cell_length_a 18.369071
_cell_length_b 15.280085
_cell_length_c 7.695384
_cell_angle_alpha 90.000000
_cell_angle_beta 46.273738
_cell_angle_gamma 90.000000
_cell_volume 1560.887150
_symmetry_space_group_name_H-M "C 2/M"
_symmetry_group_IT_number 12
_symmetry_cell_setting 'monoclinic'
loop_
_space_group_symop_operation_xyz
x,y,z
-x,y,-z
-x,-y,-z
x,-y,z
1/2+x,1/2+y,z
1/2-x,1/2+y,-z
1/2-x,1/2-y,-z
1/2+x,1/2-y,z
loop_
_atom_site_type_symbol
_atom_site_label
_atom_site_fract_x
_atom_site_fract_y
_atom_site_fract_z
Si Si1 0.448690 0.188691 0.902211
Si Si2 0.228641 0.170089 0.410231
Si Si3 0.568826 0.000000 0.092942
Si Si4 0.713195 0.000000 0.524048
Si Si5 0.652958 0.686599 0.181782
Si Si6 0.747428 0.500000 0.935622
O O1 0.334326 0.162605 0.136472
O O2 0.489464 0.092627 0.778775
O O3 0.500000 0.215937 0.000000
O O4 0.433180 0.264139 0.785594
O O5 0.250000 0.250000 0.500000
O O6 0.220389 0.083815 0.535863
O O7 0.143818 0.181787 0.405744
O O8 0.616101 0.000000 0.816230
O O9 0.664239 0.000000 0.066605
O O10 0.701238 0.000000 0.337994
O O11 0.750000 0.750000 0.000000
O O12 0.681893 0.589014 0.068955
#
# Coordination Sequence:
#
# PCOD9172593 Si02
#       6
#     8   8   4   4   8   4
#     4  10  20  35  54  79 113 148 177 220 284 328
#     4  10  19  33  54  80 107 138 190 226 261 321
#     4  10  19  34  54  81 112 143 183 222 273 327
#     4  10  18  29  53  81 107 133 177 233 270 303
#     4  10  18  33  53  79 105 143 185 222 266 320
#     4  12  18  33  58  84 107 141 189 232 261 322
#
# _framework density 23.063807000000001
#
# number of rings (size 3 to 8) (size 9 to 14) (size 15 to 20)
#    0.000    1.778    6.667    3.000    0.000    0.000 
#    0.000    1.667    0.000    2.667    0.000    4.667 
#    0.000    0.000    0.000    0.000    0.000    0.000 
#
# Total GULP energy -100375.623446 kJ/mol
# GULP energy per Si atom -5576.423525 kJ/mol
# Density = 2.301131 g / cm^3
# Si number density = 23.063807 Si / 1000 Ang^3
#
#
#
# Elastic Constant Matrix: (Units=GPa)
#
#
# Indices 1 2 3 4 5 6 
#
# 1 167.4259 78.8071 49.8660 0.0000 43.9720 0.0000
# 2 78.8071 227.1023 44.9793 0.0000 36.9330 0.0000
# 3 49.8660 44.9793 70.7627 0.0000 30.2648 0.0000
# 4 0.0000 0.0000 0.0000 19.5485 0.0000 14.4548
# 5 43.9720 36.9330 30.2648 0.0000 48.8795 0.0000
# 6 0.0000 0.0000 0.0000 14.4548 0.0000 39.7393
#
#
#
# Elastic Compliance Matrix: (Units=1/GPa)
#
#
# Indices 1 2 3 4 5 6 
#
# 1 0.008993 -0.001704 -0.003189 0.000000 -0.004828 0.000000
# 2 -0.001704 0.005592 -0.001635 0.000000 -0.001680 0.000000
# 3 -0.003189 -0.001635 0.021305 0.000000 -0.009087 0.000000
# 4 0.000000 0.000000 0.000000 0.069976 0.000000 -0.025453
# 5 -0.004828 -0.001680 -0.009087 0.000000 0.031697 0.000000
# 6 0.000000 0.000000 0.000000 -0.025453 0.000000 0.034422
#
#
# Mechanical properties :
#
#
# Convention : Reuss Voigt Hill
#
# Bulk Modulus (GPa) = 43.79668 90.28840 67.04254
# Shear Modulus (GPa) = 25.95365 41.07601 33.51483
#
# Velocity S-wave (km/s) = 3.35818 4.22474 3.81614
# Velocity P-wave (km/s) = 5.83670 7.93915 6.96768
#
# Compressibility (1/GPa) = 0.02283278
#
# Stress axis : x y z
#
# Youngs Moduli (GPa) = 111.20324 178.84101 46.93744
#
# Poissons Ratio (x) = 0.30470 0.14970
# Poissons Ratio (y) = 0.18946 0.07675
# Poissons Ratio (z) = 0.35466 0.29243
#
# Static dielectric constant tensor:
#      x y z
#    x 2.860660 0.000000 0.037830 
#    y 0.000000 -0.954450 0.000000 
#    z 0.037830 0.000000 1.932060 
# 
# From -- ./inp_files/72295.got.cif
#   From: 2010.05.17/outbox.cif.g08.bks.cpg/sg12_37_cif.got.tgz:72295.got - 2010.06.03 13:09:07.
