data_PCOD9172132
_publ_section_title
;
Structure prediction by ZEFSAII (Michael W. Deem and Ramdas Pophale) SiO2 
 PCOD9172132
Probable space group: C 2/M
;
_chemical_formula_sum "Si O2"
_cell_formula_units_Z 40
_cell_length_a 15.258329
_cell_length_b 14.874660
_cell_length_c 8.958420
_cell_angle_alpha 90.000000
_cell_angle_beta 66.174410
_cell_angle_gamma 90.000000
_cell_volume 1859.952231
_symmetry_space_group_name_H-M "C 2/M"
_symmetry_group_IT_number 12
_symmetry_cell_setting 'monoclinic'
loop_
_space_group_symop_operation_xyz
x,y,z
-x,y,-z
-x,-y,-z
x,-y,z
1/2+x,1/2+y,z
1/2-x,1/2+y,-z
1/2-x,1/2-y,-z
1/2+x,1/2-y,z
loop_
_atom_site_type_symbol
_atom_site_label
_atom_site_fract_x
_atom_site_fract_y
_atom_site_fract_z
Si Si1 0.611104 0.634192 0.300165
Si Si2 0.212055 0.350218 0.990039
Si Si3 0.392930 0.402995 0.362632
Si Si4 0.054590 0.342258 0.318655
Si Si5 0.416772 0.767529 0.167322
O O1 0.690478 0.604295 0.127589
O O2 0.642926 0.603669 0.442458
O O3 0.507746 0.602033 0.314193
O O4 0.595174 0.742152 0.329036
O O5 0.147846 0.332091 0.887812
O O6 0.250000 0.250000 0.000000
O O7 0.144043 0.386019 0.168766
O O8 0.367355 0.500000 0.315341
O O9 0.366167 0.317511 0.280179
O O10 0.000000 0.381047 0.500000
O O11 0.971837 0.323489 0.254900
O O12 0.500000 0.730392 0.000000
#
# Coordination Sequence:
#
# PCOD9172132 Si02
#       5
#     8   8   8   8   8
#     4   9  15  28  43  64  93 125 158 188 231 274
#     4   9  18  27  43  65  93 126 154 193 238 281
#     4  10  18  29  47  66  94 133 164 185 219 275
#     4   9  14  28  44  63  90 121 149 183 234 290
#     4   9  17  29  44  64  94 125 153 192 235 278
#
# _framework density 21.505928999999998
#
# number of rings (size 3 to 8) (size 9 to 14) (size 15 to 20)
#    0.000    2.800    4.000    2.400    0.000    1.200 
#    0.000    0.000    0.000    0.000    0.000    0.000 
#    0.000   32.000    0.000   63.600    0.000    2.200 
#
# Total GULP energy -111393.874512 kJ/mol
# GULP energy per Si atom -5569.693726 kJ/mol
# Density = 2.145698 g / cm^3
# Si number density = 21.505929 Si / 1000 Ang^3
#
#
#
# Elastic Constant Matrix: (Units=GPa)
#
#
# Indices 1 2 3 4 5 6 
#
# 1 27.6727 -7.2140 31.4044 0.0000 -4.2247 0.0000
# 2 -7.2140 28.2091 -1.0340 0.0000 -4.3042 0.0000
# 3 31.4044 -1.0340 157.0152 0.0000 -25.3285 0.0000
# 4 0.0000 0.0000 0.0000 -17.6620 0.0000 1.2638
# 5 -4.2247 -4.3042 -25.3285 0.0000 38.4984 0.0000
# 6 0.0000 0.0000 0.0000 1.2638 0.0000 -0.9772
#
#
#
# Elastic Compliance Matrix: (Units=1/GPa)
#
#
# Indices 1 2 3 4 5 6 
#
# 1 0.050895 0.012710 -0.010030 0.000000 0.000407 0.000000
# 2 0.012710 0.039378 -0.001508 0.000000 0.004805 0.000000
# 3 -0.010030 -0.001508 0.009129 0.000000 0.004737 0.000000
# 4 0.000000 0.000000 0.000000 -0.062393 0.000000 -0.080692
# 5 0.000407 0.004805 0.004737 0.000000 0.029674 0.000000
# 6 0.000000 0.000000 0.000000 -0.080692 0.000000 -1.127711
#
#
# Mechanical properties :
#
#
# Convention : Reuss Voigt Hill
#
# Bulk Modulus (GPa) = 9.82831 28.80107 19.31469
# Shear Modulus (GPa) = -4.85693 16.62123 5.88215
#
# Velocity S-wave (km/s) = -1.50443 2.78306 1.65562
# Velocity P-wave (km/s) = 1.24988 4.87324 3.55744
#
# Compressibility (1/GPa) = 0.10174692
#
# Stress axis : x y z
#
# Youngs Moduli (GPa) = 19.64830 25.39489 109.53982
#
# Poissons Ratio (x) = -0.32277 1.09869
# Poissons Ratio (y) = -0.24973 0.16515
# Poissons Ratio (z) = 0.19707 0.03829
#
# Static dielectric constant tensor:
#      x y z
#    x 1.823820 0.000000 -0.030020 
#    y 0.000000 1.655920 0.000000 
#    z -0.030020 0.000000 1.859270 
# 
# From -- ./inp_files/74350.got.cif
#   From: 2010.05.17/outbox.cif.g08.bks.cpg/sg12_38_cif.got.tgz:74350.got - 2010.06.03 13:09:07.
