data_PCOD9172741
_publ_section_title
;
Structure prediction by ZEFSAII (Michael W. Deem and Ramdas Pophale) SiO2 
 PCOD9172741
Probable space group: C 2/M
;
_chemical_formula_sum "Si O2"
_cell_formula_units_Z 48
_cell_length_a 23.330569
_cell_length_b 8.601341
_cell_length_c 20.476200
_cell_angle_alpha 90.000000
_cell_angle_beta 136.601192
_cell_angle_gamma 90.000000
_cell_volume 2823.211140
_symmetry_space_group_name_H-M "C 2/M"
_symmetry_group_IT_number 12
_symmetry_cell_setting 'monoclinic'
loop_
_space_group_symop_operation_xyz
x,y,z
-x,y,-z
-x,-y,-z
x,-y,z
1/2+x,1/2+y,z
1/2-x,1/2+y,-z
1/2-x,1/2-y,-z
1/2+x,1/2-y,z
loop_
_atom_site_type_symbol
_atom_site_label
_atom_site_fract_x
_atom_site_fract_y
_atom_site_fract_z
Si Si1 0.803986 0.685403 0.983717
Si Si2 0.445842 0.315516 0.179476
Si Si3 0.094690 0.310410 0.590788
Si Si4 0.873709 0.314725 0.647261
Si Si5 0.797346 0.687619 0.444066
Si Si6 0.339196 0.186955 0.212728
O O1 0.802521 0.500000 0.982815
O O2 0.753151 0.749809 0.879951
O O3 0.750000 0.750000 0.000000
O O4 0.896110 0.746193 0.076215
O O5 0.435687 0.500000 0.171261
O O6 0.542004 0.267711 0.260812
O O7 0.401418 0.247739 0.207851
O O8 0.093533 0.500000 0.589436
O O9 0.154465 0.262236 0.581012
O O10 0.128366 0.263330 0.689490
O O11 0.000000 0.258109 0.500000
O O12 0.884980 0.500000 0.660157
O O13 0.851334 0.273990 0.553421
O O14 0.793009 0.263179 0.621477
O O15 0.787932 0.500000 0.435295
O O16 0.338171 0.000000 0.208449
#
# Coordination Sequence:
#
# PCOD9172741 Si02
#       6
#     8   8   8   8   8   8
#     4  10  18  30  47  69  98 128 160 199 245 290
#     4  11  20  31  49  73  99 127 163 203 245 290
#     4   9  17  30  50  74 100 132 165 195 231 283
#     4  10  19  32  51  73  98 128 163 204 246 285
#     4   9  18  33  51  72  99 131 166 199 236 285
#     4  10  18  30  49  73 101 131 163 199 241 286
#
# _framework density 17.001916999999999
#
# number of rings (size 3 to 8) (size 9 to 14) (size 15 to 20)
#    0.000    2.167    0.000    7.000    0.000    3.333 
#    0.000    1.667    0.000    4.500    0.000    7.000 
#    0.000    0.000    0.000    0.000    0.000    0.000 
#
# Total GULP energy -133894.239310 kJ/mol
# GULP energy per Si atom -5578.926638 kJ/mol
# Density = 1.696322 g / cm^3
# Si number density = 17.001917 Si / 1000 Ang^3
#
#
#
# Elastic Constant Matrix: (Units=GPa)
#
#
# Indices 1 2 3 4 5 6 
#
# 1 81.4095 25.6446 68.8488 0.0000 -1.9483 0.0000
# 2 25.6446 83.7098 53.1446 0.0000 5.6382 0.0000
# 3 68.8488 53.1446 172.7367 0.0000 8.8509 0.0000
# 4 0.0000 0.0000 0.0000 23.3737 0.0000 4.8762
# 5 -1.9483 5.6382 8.8509 0.0000 23.7188 0.0000
# 6 0.0000 0.0000 0.0000 4.8762 0.0000 21.0903
#
#
#
# Elastic Compliance Matrix: (Units=1/GPa)
#
#
# Indices 1 2 3 4 5 6 
#
# 1 0.019127 -0.001470 -0.007411 0.000000 0.004686 0.000000
# 2 -0.001470 0.015040 -0.003927 0.000000 -0.002230 0.000000
# 3 -0.007411 -0.003927 0.010128 0.000000 -0.003455 0.000000
# 4 0.000000 0.000000 0.000000 0.044951 0.000000 -0.010393
# 5 0.004686 -0.002230 -0.003455 0.000000 0.044365 0.000000
# 6 0.000000 0.000000 0.000000 -0.010393 0.000000 0.049818
#
#
# Mechanical properties :
#
#
# Convention : Reuss Voigt Hill
#
# Bulk Modulus (GPa) = 53.53826 70.34801 61.94313
# Shear Modulus (GPa) = 23.22650 26.31776 24.77213
#
# Velocity S-wave (km/s) = 3.70010 3.93864 3.82123
# Velocity P-wave (km/s) = 7.05778 7.88354 7.48206
#
# Compressibility (1/GPa) = 0.01867823
#
# Stress axis : x y z
#
# Youngs Moduli (GPa) = 52.28338 66.49076 98.73295
#
# Poissons Ratio (x) = 0.09773 0.73174
# Poissons Ratio (y) = 0.07685 0.38772
# Poissons Ratio (z) = 0.38749 0.26111
#
# Static dielectric constant tensor:
#      x y z
#    x 1.633770 0.000000 -0.008340 
#    y 0.000000 1.582570 0.000000 
#    z -0.008340 0.000000 1.599430 
# 
# From -- ./inp_files/323872.got.cif
#   From: 2010.05.17/outbox.cif.g08.bks.cpg/sg12_162_cif.got.tgz:323872.got - 2010.06.03 13:09:07.
