data_PCOD9172055
_publ_section_title
;
Structure prediction by ZEFSAII (Michael W. Deem and Ramdas Pophale) SiO2 
 PCOD9172055
Probable space group: C 2/M
;
_chemical_formula_sum "Si O2"
_cell_formula_units_Z 56
_cell_length_a 32.920375
_cell_length_b 9.049253
_cell_length_c 13.875541
_cell_angle_alpha 90.000000
_cell_angle_beta 64.450089
_cell_angle_gamma 90.000000
_cell_volume 3729.366167
_symmetry_space_group_name_H-M "C 2/M"
_symmetry_group_IT_number 12
_symmetry_cell_setting 'monoclinic'
loop_
_space_group_symop_operation_xyz
x,y,z
-x,y,-z
-x,-y,-z
x,-y,z
1/2+x,1/2+y,z
1/2-x,1/2+y,-z
1/2-x,1/2-y,-z
1/2+x,1/2-y,z
loop_
_atom_site_type_symbol
_atom_site_label
_atom_site_fract_x
_atom_site_fract_y
_atom_site_fract_z
Si Si1 0.726973 0.675986 0.878729
Si Si2 0.090285 0.823093 0.525580
Si Si3 0.819947 0.676041 0.894806
Si Si4 0.905007 0.823537 0.706943
Si Si5 0.318359 0.323082 0.459810
Si Si6 0.502165 0.170016 0.380833
Si Si7 0.271894 0.823893 0.329494
O O1 0.719976 0.500000 0.883715
O O2 0.777528 0.703893 0.867076
O O3 0.722088 0.745443 0.778632
O O4 0.693773 0.750897 0.989840
O O5 0.099047 0.789815 0.403527
O O6 0.133869 0.781747 0.543107
O O7 0.044587 0.742716 0.603881
O O8 0.083865 0.000000 0.538737
O O9 0.824940 0.500000 0.900129
O O10 0.864438 0.747352 0.804812
O O11 0.953302 0.761140 0.690959
O O12 0.903292 0.000000 0.719825
O O13 0.318095 0.500000 0.442618
O O14 0.305927 0.238538 0.374987
O O15 0.278081 0.292557 0.576797
O O16 0.500000 0.172555 0.500000
O O17 0.505889 0.000000 0.346354
O O18 0.276480 0.000000 0.314953
#
# Coordination Sequence:
#
# PCOD9172055 Si02
#       7
#     8   8   8   8   8   8   8
#     4  10  20  33  48  66  91 122 153 187 227 269
#     4   9  17  29  45  65  91 123 155 187 225 270
#     4  10  20  32  47  68  92 119 153 189 225 267
#     4  10  18  29  46  67  93 123 153 185 225 272
#     4   9  18  31  46  66  92 122 155 188 226 271
#     4   9  17  28  42  63  91 120 151 187 226 268
#     4  10  19  31  47  67  92 121 154 191 227 265
#
# _framework density 15.015955999999999
#
# number of rings (size 3 to 8) (size 9 to 14) (size 15 to 20)
#    0.000    2.429    0.000    3.000    0.000    6.286 
#    0.000    0.000    0.000    0.000    0.000    1.000 
#    0.000    8.000    0.000    0.000    0.000    0.000 
#
# Total GULP energy -156171.106478 kJ/mol
# GULP energy per Si atom -5577.539517 kJ/mol
# Density = 1.498178 g / cm^3
# Si number density = 15.015956 Si / 1000 Ang^3
#
#
#
# Elastic Constant Matrix: (Units=GPa)
#
#
# Indices 1 2 3 4 5 6 
#
# 1 129.6636 66.7148 67.8869 0.0000 -9.6297 0.0000
# 2 66.7148 76.1776 66.9978 0.0000 -6.5431 0.0000
# 3 67.8869 66.9978 108.0820 0.0000 -5.8583 0.0000
# 4 0.0000 0.0000 0.0000 27.3848 0.0000 -3.2790
# 5 -9.6297 -6.5431 -5.8583 0.0000 25.9274 0.0000
# 6 0.0000 0.0000 0.0000 -3.2790 0.0000 26.5296
#
#
#
# Elastic Compliance Matrix: (Units=1/GPa)
#
#
# Indices 1 2 3 4 5 6 
#
# 1 0.014510 -0.010130 -0.002714 0.000000 0.002220 0.000000
# 2 -0.010130 0.036213 -0.015989 0.000000 0.001764 0.000000
# 3 -0.002714 -0.015989 0.020851 0.000000 -0.000332 0.000000
# 4 0.000000 0.000000 0.000000 0.037065 0.000000 0.004581
# 5 0.002220 0.001764 -0.000332 0.000000 0.039764 0.000000
# 6 0.000000 0.000000 0.000000 0.004581 0.000000 0.038260
#
#
# Mechanical properties :
#
#
# Convention : Reuss Voigt Hill
#
# Bulk Modulus (GPa) = 71.90886 79.68024 75.79455
# Shear Modulus (GPa) = 20.08313 23.45660 21.76987
#
# Velocity S-wave (km/s) = 3.66109 3.95664 3.81173
# Velocity P-wave (km/s) = 8.11564 8.60536 8.36409
#
# Compressibility (1/GPa) = 0.01390649
#
# Stress axis : x y z
#
# Youngs Moduli (GPa) = 68.91648 27.61456 47.96031
#
# Poissons Ratio (x) = 0.27973 0.13018
# Poissons Ratio (y) = 0.69812 0.76685
# Poissons Ratio (z) = 0.18707 0.44154
#
# Static dielectric constant tensor:
#      x y z
#    x 1.484150 0.000000 -0.003840 
#    y 0.000000 1.498540 0.000000 
#    z -0.003840 0.000000 1.466440 
# 
# From -- ./inp_files/186792.got.cif
#   From: 2010.05.17/outbox.cif.g08.bks.cpg/sg12_94_cif.got.tgz:186792.got - 2010.06.03 13:09:07.
