data_PCOD9172524
_publ_section_title
;
Structure prediction by ZEFSAII (Michael W. Deem and Ramdas Pophale) SiO2 
 PCOD9172524
Probable space group: C 2/M
;
_chemical_formula_sum "Si O2"
_cell_formula_units_Z 64
_cell_length_a 13.516267
_cell_length_b 14.016460
_cell_length_c 18.510857
_cell_angle_alpha 90.000000
_cell_angle_beta 46.293834
_cell_angle_gamma 90.000000
_cell_volume 2535.102502
_symmetry_space_group_name_H-M "C 2/M"
_symmetry_group_IT_number 12
_symmetry_cell_setting 'monoclinic'
loop_
_space_group_symop_operation_xyz
x,y,z
-x,y,-z
-x,-y,-z
x,-y,z
1/2+x,1/2+y,z
1/2-x,1/2+y,-z
1/2-x,1/2-y,-z
1/2+x,1/2-y,z
loop_
_atom_site_type_symbol
_atom_site_label
_atom_site_fract_x
_atom_site_fract_y
_atom_site_fract_z
Si Si1 0.270249 0.205234 0.172114
Si Si2 0.923725 0.819705 0.606015
Si Si3 0.302898 0.390550 0.925227
Si Si4 0.597451 0.611310 0.761641
Si Si5 0.983108 0.383220 0.863941
Si Si6 0.316267 0.386848 0.435823
Si Si7 0.164769 0.611969 0.645455
Si Si8 0.841818 0.898301 0.104875
O O1 0.158998 0.230813 0.288830
O O2 0.224538 0.117687 0.146016
O O3 0.410223 0.171157 0.138078
O O4 0.288500 0.295309 0.110542
O O5 0.800472 0.876675 0.627735
O O6 0.000000 0.769150 0.500000
O O7 0.042087 0.875443 0.590524
O O8 0.320919 0.500000 0.938825
O O9 0.451351 0.343704 0.856061
O O10 0.169122 0.358579 0.034857
O O11 0.573043 0.500000 0.754169
O O12 0.667560 0.653188 0.654142
O O13 0.670168 0.607418 0.801981
O O14 0.999024 0.500000 0.864108
O O15 0.034287 0.356654 0.757661
O O16 0.287957 0.500000 0.443018
O O17 0.199449 0.346240 0.548896
O O18 0.144641 0.500000 0.644698
O O19 0.777505 0.000000 0.115608
O O20 0.000000 0.902233 0.000000
#
# Coordination Sequence:
#
# PCOD9172524 Si02
#       8
#     8   8   8   8   8   8   8   8
#     4  11  19  31  51  76 103 137 174 208 254 306
#     4   9  16  25  43  71 105 135 161 203 249 304
#     4  10  18  29  50  82 115 137 158 199 258 318
#     4   9  18  32  52  77 102 131 168 217 263 295
#     4   9  17  27  42  72 115 149 166 187 241 321
#     4   9  14  24  44  72 104 134 169 206 248 296
#     4   8  14  22  37  66 106 148 172 189 231 302
#     4  10  22  40  57  73  95 130 180 225 257 292
#
# _framework density 25.245526999999999
#
# number of rings (size 3 to 8) (size 9 to 14) (size 15 to 20)
#    0.000    2.625    1.250    1.875    0.000    3.500 
#    0.000    2.500    0.000    7.125    0.000    0.875 
#    0.000    0.000    0.000    0.000    0.000    0.000 
#
# Total GULP energy -178591.661931 kJ/mol
# GULP energy per Si atom -5580.989435 kJ/mol
# Density = 2.518807 g / cm^3
# Si number density = 25.245527 Si / 1000 Ang^3
#
#
#
# Elastic Constant Matrix: (Units=GPa)
#
#
# Indices 1 2 3 4 5 6 
#
# 1 50.5072 8.9783 44.2826 0.0000 21.2648 0.0000
# 2 8.9783 84.5767 43.0502 0.0000 -5.1521 0.0000
# 3 44.2826 43.0502 202.8186 0.0000 14.3736 0.0000
# 4 0.0000 0.0000 0.0000 30.5966 0.0000 3.3961
# 5 21.2648 -5.1521 14.3736 0.0000 40.5147 0.0000
# 6 0.0000 0.0000 0.0000 3.3961 0.0000 10.2095
#
#
#
# Elastic Compliance Matrix: (Units=1/GPa)
#
#
# Indices 1 2 3 4 5 6 
#
# 1 0.030895 -0.001401 -0.005423 0.000000 -0.014470 0.000000
# 2 -0.001401 0.013626 -0.002832 0.000000 0.003473 0.000000
# 3 -0.005423 -0.002832 0.006708 0.000000 0.000106 0.000000
# 4 0.000000 0.000000 0.000000 0.033936 0.000000 -0.011289
# 5 -0.014470 0.003473 0.000106 0.000000 0.032681 0.000000
# 6 0.000000 0.000000 0.000000 -0.011289 0.000000 0.101703
#
#
# Mechanical properties :
#
#
# Convention : Reuss Voigt Hill
#
# Bulk Modulus (GPa) = 31.33170 58.94718 45.13944
# Shear Modulus (GPa) = 20.04008 32.37025 26.20517
#
# Velocity S-wave (km/s) = 2.82051 3.58469 3.22531
# Velocity P-wave (km/s) = 4.80050 6.36660 5.63819
#
# Compressibility (1/GPa) = 0.03191656
#
# Stress axis : x y z
#
# Youngs Moduli (GPa) = 32.36794 73.39143 149.07250
#
# Poissons Ratio (x) = 0.10282 0.80836
# Poissons Ratio (y) = 0.04535 0.42223
# Poissons Ratio (z) = 0.17552 0.20787
#
# Static dielectric constant tensor:
#      x y z
#    x 1.988790 0.000000 0.010460 
#    y 0.000000 2.015790 0.000000 
#    z 0.010460 0.000000 2.014710 
# 
# From -- ./inp_files/270661.got.cif
#   From: 2010.05.17/outbox.cif.g08.bks.cpg/sg12_136_cif.got.tgz:270661.got - 2010.06.03 13:09:07.
