data_PCOD9172320
_publ_section_title
;
Structure prediction by ZEFSAII (Michael W. Deem and Ramdas Pophale) SiO2 
 PCOD9172320
Probable space group: C 2/M
;
_chemical_formula_sum "Si O2"
_cell_formula_units_Z 56
_cell_length_a 11.357814
_cell_length_b 25.427715
_cell_length_c 13.193607
_cell_angle_alpha 90.000000
_cell_angle_beta 58.217078
_cell_angle_gamma 90.000000
_cell_volume 3238.992641
_symmetry_space_group_name_H-M "C 2/M"
_symmetry_group_IT_number 12
_symmetry_cell_setting 'monoclinic'
loop_
_space_group_symop_operation_xyz
x,y,z
-x,y,-z
-x,-y,-z
x,-y,z
1/2+x,1/2+y,z
1/2-x,1/2+y,-z
1/2-x,1/2-y,-z
1/2+x,1/2-y,z
loop_
_atom_site_type_symbol
_atom_site_label
_atom_site_fract_x
_atom_site_fract_y
_atom_site_fract_z
Si Si1 0.624599 0.177051 0.874547
Si Si2 0.344474 0.695208 0.388543
Si Si3 0.318288 0.851102 0.726034
Si Si4 0.918069 0.061136 0.144348
Si Si5 0.586974 0.643508 0.167209
Si Si6 0.670569 0.715210 0.954289
Si Si7 0.117562 0.320101 0.638198
O O1 0.760644 0.151170 0.860077
O O2 0.623926 0.240378 0.895017
O O3 0.614224 0.169259 0.759536
O O4 0.500000 0.156470 0.000000
O O5 0.241075 0.682948 0.341079
O O6 0.486256 0.668000 0.295247
O O7 0.265642 0.669021 0.519015
O O8 0.384230 0.756709 0.380226
O O9 0.222278 0.903716 0.778028
O O10 0.278125 0.820960 0.847034
O O11 0.485506 0.849753 0.648442
O O12 0.030031 0.085983 0.170178
O O13 0.887736 0.000000 0.174139
O O14 0.000000 0.066218 0.000000
O O15 0.574375 0.677299 0.067130
O O16 0.750000 0.750000 0.000000
#
# Coordination Sequence:
#
# PCOD9172320 Si02
#       7
#     8   8   8   8   8   8   8
#     4  11  21  31  52  80 113 147 181 213 271 334
#     4  10  22  33  50  75 113 158 186 215 263 325
#     4  11  20  36  53  77 112 146 186 231 275 322
#     4  10  21  36  59  83 105 141 188 242 294 326
#     4  10  20  36  52  77 108 141 184 229 273 328
#     4  10  18  29  48  74 108 144 176 212 258 324
#     4  11  21  34  50  79 115 151 186 219 263 335
#
# _framework density 17.289327
#
# number of rings (size 3 to 8) (size 9 to 14) (size 15 to 20)
#    0.000    1.571    2.857    4.714    2.000    0.571 
#    0.000    0.000    0.000    8.143    0.000    4.000 
#    0.000    0.000    0.000    0.000    0.000    0.000 
#
# Total GULP energy -155935.920961 kJ/mol
# GULP energy per Si atom -5569.140034 kJ/mol
# Density = 1.724998 g / cm^3
# Si number density = 17.289327 Si / 1000 Ang^3
#
#
#
# Elastic Constant Matrix: (Units=GPa)
#
#
# Indices 1 2 3 4 5 6 
#
# 1 100.2916 21.1847 32.7301 0.0000 -16.3892 0.0000
# 2 21.1847 70.1662 5.0416 0.0000 -4.9126 0.0000
# 3 32.7301 5.0416 105.2136 0.0000 -19.6624 0.0000
# 4 0.0000 0.0000 0.0000 10.1369 0.0000 -1.7966
# 5 -16.3892 -4.9126 -19.6624 0.0000 30.4738 0.0000
# 6 0.0000 0.0000 0.0000 -1.7966 0.0000 14.7788
#
#
#
# Elastic Compliance Matrix: (Units=1/GPa)
#
#
# Indices 1 2 3 4 5 6 
#
# 1 0.012277 -0.003204 -0.002875 0.000000 0.004231 0.000000
# 2 -0.003204 0.015259 0.000458 0.000000 0.001032 0.000000
# 3 -0.002875 0.000458 0.011487 0.000000 0.005939 0.000000
# 4 0.000000 0.000000 0.000000 0.100822 0.000000 0.012257
# 5 0.004231 0.001032 0.005939 0.000000 0.039089 0.000000
# 6 0.000000 0.000000 0.000000 0.012257 0.000000 0.069154
#
#
# Mechanical properties :
#
#
# Convention : Reuss Voigt Hill
#
# Bulk Modulus (GPa) = 35.99474 43.73158 39.86316
# Shear Modulus (GPa) = 18.61571 25.52557 22.07064
#
# Velocity S-wave (km/s) = 3.28490 3.84653 3.57676
# Velocity P-wave (km/s) = 5.93731 6.71391 6.33752
#
# Compressibility (1/GPa) = 0.02778184
#
# Stress axis : x y z
#
# Youngs Moduli (GPa) = 81.45022 65.53694 87.05653
#
# Poissons Ratio (x) = 0.20998 0.25029
# Poissons Ratio (y) = 0.26097 -0.03992
# Poissons Ratio (z) = 0.23417 -0.03005
#
# Static dielectric constant tensor:
#      x y z
#    x 1.636740 0.000000 -0.005330 
#    y 0.000000 1.574310 0.000000 
#    z -0.005330 0.000000 1.663640 
# 
# From -- ./inp_files/136571.got.cif
#   From: 2010.05.17/outbox.cif.g08.bks.cpg/sg12_69_cif.got.tgz:136571.got - 2010.06.03 13:09:07.
