data_PCOD9172144
_publ_section_title
;
Structure prediction by ZEFSAII (Michael W. Deem and Ramdas Pophale) SiO2 
 PCOD9172144
Probable space group: C 2/M
;
_chemical_formula_sum "Si O2"
_cell_formula_units_Z 64
_cell_length_a 24.319086
_cell_length_b 9.032106
_cell_length_c 20.275703
_cell_angle_alpha 90.000000
_cell_angle_beta 121.208750
_cell_angle_gamma 90.000000
_cell_volume 3809.106552
_symmetry_space_group_name_H-M "C 2/M"
_symmetry_group_IT_number 12
_symmetry_cell_setting 'monoclinic'
loop_
_space_group_symop_operation_xyz
x,y,z
-x,y,-z
-x,-y,-z
x,-y,z
1/2+x,1/2+y,z
1/2-x,1/2+y,-z
1/2-x,1/2-y,-z
1/2+x,1/2-y,z
loop_
_atom_site_type_symbol
_atom_site_label
_atom_site_fract_x
_atom_site_fract_y
_atom_site_fract_z
Si Si1 0.676936 0.822498 0.598504
Si Si2 0.689618 0.829503 0.162987
Si Si3 0.966118 0.178007 0.291553
Si Si4 0.691291 0.828885 0.324608
Si Si5 0.558583 0.678033 0.081879
Si Si6 0.558924 0.321580 0.234975
Si Si7 0.169941 0.179606 0.738639
Si Si8 0.039484 0.677374 0.458411
O O1 0.743632 0.753958 0.614184
O O2 0.664587 0.755131 0.663673
O O3 0.614346 0.786507 0.516221
O O4 0.682523 0.000000 0.607087
O O5 0.691667 0.824610 0.244490
O O6 0.628133 0.736968 0.103122
O O7 0.761035 0.778156 0.187689
O O8 0.680959 0.000000 0.137963
O O9 0.891996 0.220625 0.256944
O O10 0.999360 0.222292 0.243803
O O11 0.007871 0.243776 0.376856
O O12 0.968542 0.000000 0.296767
O O13 0.624955 0.749924 0.302417
O O14 0.692113 0.000000 0.345673
O O15 0.559644 0.500000 0.080502
O O16 0.549453 0.722620 0.152775
O O17 0.500000 0.730493 0.000000
O O18 0.565740 0.500000 0.240696
O O19 0.171339 0.000000 0.730445
O O20 0.033912 0.500000 0.447128
O O21 0.000000 0.717922 0.500000
#
# Coordination Sequence:
#
# PCOD9172144 Si02
#       8
#     8   8   8   8   8   8   8   8
#     4  10  18  29  47  68  92 122 158 201 243 280
#     4   8  15  27  44  68  95 119 149 189 228 274
#     4  10  20  32  49  70  94 127 162 199 239 282
#     4   9  17  30  48  69  93 122 158 199 241 282
#     4   9  17  30  50  74  97 121 151 190 234 279
#     4   9  18  33  50  71  97 124 159 195 234 286
#     4   9  17  29  45  68  95 123 158 196 236 277
#     4  10  20  33  46  67  97 126 160 201 243 284
#
# _framework density 16.801841
#
# number of rings (size 3 to 8) (size 9 to 14) (size 15 to 20)
#    0.000    2.750    1.250    1.500    0.000    5.000 
#    0.000    0.625    0.000    0.750    0.000    0.000 
#    0.000    0.000    0.000    0.000    0.000    1.625 
#
# Total GULP energy -178293.511782 kJ/mol
# GULP energy per Si atom -5571.672243 kJ/mol
# Density = 1.676360 g / cm^3
# Si number density = 16.801841 Si / 1000 Ang^3
#
#
#
# Elastic Constant Matrix: (Units=GPa)
#
#
# Indices 1 2 3 4 5 6 
#
# 1 136.5331 32.4107 61.9145 0.0000 28.2770 0.0000
# 2 32.4107 21.1831 25.0814 0.0000 10.4965 0.0000
# 3 61.9145 25.0814 79.3495 0.0000 29.4020 0.0000
# 4 0.0000 0.0000 0.0000 5.1797 0.0000 5.6657
# 5 28.2770 10.4965 29.4020 0.0000 27.3120 0.0000
# 6 0.0000 0.0000 0.0000 5.6657 0.0000 22.0019
#
#
#
# Elastic Compliance Matrix: (Units=1/GPa)
#
#
# Indices 1 2 3 4 5 6 
#
# 1 0.013384 -0.012654 -0.005175 0.000000 -0.003422 0.000000
# 2 -0.012654 0.087911 -0.017051 0.000000 -0.002329 0.000000
# 3 -0.005175 -0.017051 0.029307 0.000000 -0.019639 0.000000
# 4 0.000000 0.000000 0.000000 0.268762 0.000000 -0.069209
# 5 -0.003422 -0.002329 -0.019639 0.000000 0.062193 0.000000
# 6 0.000000 0.000000 0.000000 -0.069209 0.000000 0.063273
#
#
# Mechanical properties :
#
#
# Convention : Reuss Voigt Hill
#
# Bulk Modulus (GPa) = 16.43613 52.87543 34.65578
# Shear Modulus (GPa) = 8.13178 18.74268 13.43723
#
# Velocity S-wave (km/s) = 2.20235 3.34355 2.83105
# Velocity P-wave (km/s) = 4.03369 6.81499 5.59977
#
# Compressibility (1/GPa) = 0.06084158
#
# Stress axis : x y z
#
# Youngs Moduli (GPa) = 74.71801 11.37509 34.12162
#
# Poissons Ratio (x) = 0.14394 0.17658
# Poissons Ratio (y) = 0.94549 0.58181
# Poissons Ratio (z) = 0.38667 0.19396
#
# Static dielectric constant tensor:
#      x y z
#    x 1.593700 0.000000 0.011970 
#    y 0.000000 1.564540 0.000000 
#    z 0.011970 0.000000 1.543820 
# 
# From -- ./inp_files/319987.got.cif
#   From: 2010.05.17/outbox.cif.g08.bks.cpg/sg12_160_cif.got.tgz:319987.got - 2010.06.03 13:09:07.
