data_PCOD9172562
_publ_section_title
;
Structure prediction by ZEFSAII (Michael W. Deem and Ramdas Pophale) SiO2 
 PCOD9172562
Probable space group: C 2/M
;
_chemical_formula_sum "Si O2"
_cell_formula_units_Z 64
_cell_length_a 21.749095
_cell_length_b 8.014748
_cell_length_c 21.688086
_cell_angle_alpha 90.000000
_cell_angle_beta 60.859921
_cell_angle_gamma 90.000000
_cell_volume 3302.032130
_symmetry_space_group_name_H-M "C 2/M"
_symmetry_group_IT_number 12
_symmetry_cell_setting 'monoclinic'
loop_
_space_group_symop_operation_xyz
x,y,z
-x,y,-z
-x,-y,-z
x,-y,z
1/2+x,1/2+y,z
1/2-x,1/2+y,-z
1/2-x,1/2-y,-z
1/2+x,1/2-y,z
loop_
_atom_site_type_symbol
_atom_site_label
_atom_site_fract_x
_atom_site_fract_y
_atom_site_fract_z
Si Si1 0.470818 0.797936 0.829507
Si Si2 0.796139 0.204842 0.168189
Si Si3 0.786348 0.698446 0.668669
Si Si4 0.790530 0.300786 0.418720
Si Si5 0.548982 0.201713 0.665790
Si Si6 0.910706 0.807044 0.681148
Si Si7 0.544043 0.299298 0.920270
Si Si8 0.166386 0.692249 0.160973
O O1 0.517627 0.745073 0.747684
O O2 0.505166 0.742274 0.875873
O O3 0.390833 0.734147 0.857951
O O4 0.468504 0.000000 0.829232
O O5 0.763887 0.255852 0.250128
O O6 0.875630 0.262511 0.120835
O O7 0.742298 0.264761 0.141288
O O8 0.795225 0.000000 0.167814
O O9 0.792778 0.500000 0.669911
O O10 0.751077 0.741969 0.621380
O O11 0.863689 0.772802 0.644094
O O12 0.794014 0.500000 0.414245
O O13 0.750000 0.250000 0.500000
O O14 0.871252 0.237896 0.380167
O O15 0.492958 0.263285 0.642341
O O16 0.548735 0.000000 0.664340
O O17 0.875076 0.698824 0.753191
O O18 0.902553 0.000000 0.702259
O O19 0.547835 0.500000 0.923593
O O20 0.500000 0.234987 0.000000
O O21 0.177759 0.500000 0.137549
#
# Coordination Sequence:
#
# PCOD9172562 Si02
#       8
#     8   8   8   8   8   8   8   8
#     4   9  17  31  52  74  95 124 164 207 249 295
#     4   8  15  30  52  73  94 128 169 204 243 297
#     4  10  19  34  56  78 103 136 174 214 258 307
#     4  11  23  38  55  77 107 139 173 212 254 303
#     4   9  19  36  56  78 105 137 170 208 256 306
#     4  10  18  29  51  82 109 131 164 212 259 305
#     4  10  20  32  46  68 100 134 167 206 251 298
#     4   8  15  30  50  71  96 127 165 207 253 303
#
# _framework density 19.382004999999999
#
# number of rings (size 3 to 8) (size 9 to 14) (size 15 to 20)
#    0.000    2.625    0.000    4.125    0.000    3.250 
#    0.000    3.750    0.000    3.750    0.000    0.000 
#    0.000    0.000    0.000    0.000    0.000    0.000 
#
# Total GULP energy -178404.098015 kJ/mol
# GULP energy per Si atom -5575.128063 kJ/mol
# Density = 1.933789 g / cm^3
# Si number density = 19.382005 Si / 1000 Ang^3
#
#
#
# Elastic Constant Matrix: (Units=GPa)
#
#
# Indices 1 2 3 4 5 6 
#
# 1 237.0980 11.3609 91.1295 0.0003 -9.9649 0.0007
# 2 11.3609 30.3002 9.9648 0.0006 -0.1275 0.0022
# 3 91.1295 9.9648 85.1137 0.0000 -7.3796 -0.0001
# 4 0.0003 0.0006 0.0000 11.8363 -0.0003 7.9927
# 5 -9.9649 -0.1275 -7.3796 -0.0003 -5.9855 0.0002
# 6 0.0007 0.0022 -0.0001 7.9927 0.0002 26.4730
#
#
#
# Elastic Compliance Matrix: (Units=1/GPa)
#
#
# Indices 1 2 3 4 5 6 
#
# 1 0.007135 -0.000113 -0.007819 0.000000 -0.002235 0.000000
# 2 -0.000113 0.034230 -0.003554 0.000000 0.003840 -0.000003
# 3 -0.007819 -0.003554 0.019579 0.000000 -0.011046 0.000001
# 4 0.000000 0.000000 0.000000 0.106122 -0.000005 -0.032040
# 5 -0.002235 0.003840 -0.011046 -0.000005 -0.149812 0.000002
# 6 0.000000 -0.000003 0.000001 -0.032040 0.000002 0.047448
#
#
# Mechanical properties :
#
#
# Convention : Reuss Voigt Hill
#
# Bulk Modulus (GPa) = 26.33503 64.15804 45.24654
# Shear Modulus (GPa) = 49.83476 22.46852 36.15164
#
# Velocity S-wave (km/s) = 5.07619 3.40846 4.32350
# Velocity P-wave (km/s) = 6.92631 6.97595 6.95118
#
# Compressibility (1/GPa) = 0.03797224
#
# Stress axis : x y z
#
# Youngs Moduli (GPa) = 140.16294 29.21387 51.07414
#
# Poissons Ratio (x) = 0.00330 0.39937
# Poissons Ratio (y) = 0.01582 0.18150
# Poissons Ratio (z) = 1.09599 0.10382
#
# Static dielectric constant tensor:
#      x y z
#    x 1.718490 0.000000 -0.018680 
#    y 0.000000 1.708340 0.000000 
#    z -0.018680 0.000000 1.632150 
# 
# From -- ./inp_files/319792.got.cif
#   From: 2010.05.17/outbox.cif.g08.bks.cpg/sg12_160_cif.got.tgz:319792.got - 2010.06.03 13:09:07.
