data_PCOD9172429
_publ_section_title
;
Structure prediction by ZEFSAII (Michael W. Deem and Ramdas Pophale) SiO2 
 PCOD9172429
Probable space group: C 2/M
;
_chemical_formula_sum "Si O2"
_cell_formula_units_Z 64
_cell_length_a 25.486994
_cell_length_b 7.726933
_cell_length_c 32.438423
_cell_angle_alpha 90.000000
_cell_angle_beta 151.460511
_cell_angle_gamma 90.000000
_cell_volume 3052.103285
_symmetry_space_group_name_H-M "C 2/M"
_symmetry_group_IT_number 12
_symmetry_cell_setting 'monoclinic'
loop_
_space_group_symop_operation_xyz
x,y,z
-x,y,-z
-x,-y,-z
x,-y,z
1/2+x,1/2+y,z
1/2-x,1/2+y,-z
1/2-x,1/2-y,-z
1/2+x,1/2-y,z
loop_
_atom_site_type_symbol
_atom_site_label
_atom_site_fract_x
_atom_site_fract_y
_atom_site_fract_z
Si Si1 0.332106 0.303475 0.988062
Si Si2 0.237129 0.709121 0.231774
Si Si3 0.106295 0.709104 0.800508
Si Si4 0.439418 0.705137 0.820082
Si Si5 0.115549 0.294194 0.310623
Si Si6 0.440033 0.708580 0.325581
Si Si7 0.624307 0.801684 0.071494
Si Si8 0.688643 0.708330 0.500163
O O1 0.319284 0.500000 0.994980
O O2 0.209421 0.225179 0.899203
O O3 0.365256 0.304297 0.962788
O O4 0.439178 0.221858 0.083963
O O5 0.234412 0.500000 0.229827
O O6 0.157359 0.759836 0.213816
O O7 0.363319 0.763851 0.311199
O O8 0.184504 0.771396 0.152690
O O9 0.109572 0.500000 0.806162
O O10 0.109400 0.748811 0.753845
O O11 0.990596 0.775459 0.738233
O O12 0.453495 0.500000 0.828892
O O13 0.401873 0.766157 0.749519
O O14 0.116171 0.500000 0.318756
O O15 0.230250 0.226624 0.407919
O O16 0.443514 0.500000 0.329390
O O17 0.564359 0.776715 0.414047
O O18 0.662425 0.000000 0.089368
O O19 0.500000 0.812338 0.000000
O O20 0.680063 0.500000 0.497614
O O21 0.750000 0.750000 0.500000
#
# Coordination Sequence:
#
# PCOD9172429 Si02
#       8
#     8   8   8   8   8   8   8   8
#     4  10  21  34  51  79 114 146 184 232 280 325
#     4  10  20  35  55  81 114 150 186 228 277 330
#     4  10  20  35  56  83 114 147 182 226 282 336
#     4  11  24  39  55  78 110 153 197 234 274 325
#     4  10  22  40  59  80 110 149 188 225 276 341
#     4  10  20  34  57  90 119 141 177 230 281 329
#     4  10  18  29  49  77 106 140 186 228 266 320
#     4  10  20  36  61  91 116 141 178 226 282 336
#
# _framework density 20.969147
#
# number of rings (size 3 to 8) (size 9 to 14) (size 15 to 20)
#    0.000    1.875    3.750    0.375    0.000    3.250 
#    0.000    0.625    0.000    3.750    0.000    0.000 
#    0.000    0.000    0.000    0.000    0.000    0.000 
#
# Total GULP energy -178434.993354 kJ/mol
# GULP energy per Si atom -5576.093542 kJ/mol
# Density = 2.092142 g / cm^3
# Si number density = 20.969147 Si / 1000 Ang^3
#
#
#
# Elastic Constant Matrix: (Units=GPa)
#
#
# Indices 1 2 3 4 5 6 
#
# 1 46.5734 -16.4196 53.4012 -0.0013 3.2905 -0.0008
# 2 -16.4196 30.4024 0.7198 0.0031 4.3347 -0.0146
# 3 53.4012 0.7198 167.3120 -0.0011 15.7354 0.0002
# 4 -0.0013 0.0031 -0.0011 12.9948 0.0000 -0.7458
# 5 3.2905 4.3347 15.7354 0.0000 36.4135 0.0003
# 6 -0.0008 -0.0146 0.0002 -0.7458 0.0003 25.5362
#
#
#
# Elastic Compliance Matrix: (Units=1/GPa)
#
#
# Indices 1 2 3 4 5 6 
#
# 1 0.049020 0.026969 -0.015680 -0.000002 -0.000864 0.000017
# 2 0.026969 0.048306 -0.008386 -0.000008 -0.004563 0.000028
# 3 -0.015680 -0.008386 0.011248 0.000001 -0.002445 -0.000005
# 4 -0.000002 -0.000008 0.000001 0.077083 0.000001 0.002251
# 5 -0.000864 -0.004563 -0.002445 0.000001 0.029140 -0.000003
# 6 0.000017 0.000028 -0.000005 0.002251 -0.000003 0.039226
#
#
# Mechanical properties :
#
#
# Convention : Reuss Voigt Hill
#
# Bulk Modulus (GPa) = 8.74295 35.52118 22.13207
# Shear Modulus (GPa) = 17.46145 28.76132 23.11139
#
# Velocity S-wave (km/s) = 2.88882 3.70753 3.32348
# Velocity P-wave (km/s) = 3.91223 5.94174 5.03040
#
# Compressibility (1/GPa) = 0.11437791
#
# Stress axis : x y z
#
# Youngs Moduli (GPa) = 20.39994 20.70115 88.90734
#
# Poissons Ratio (x) = -0.55828 1.39411
# Poissons Ratio (y) = -0.55016 0.74560
# Poissons Ratio (z) = 0.31988 0.17361
#
# Static dielectric constant tensor:
#      x y z
#    x 1.729660 0.000000 0.056460 
#    y 0.000000 1.819020 0.000000 
#    z 0.056460 0.000000 1.834530 
# 
# From -- ./inp_files/366042.got.cif
#   From: 2010.05.17/outbox.cif.g08.bks.cpg/sg12_184_cif.got.tgz:366042.got - 2010.06.03 13:09:07.
