data_PCOD9172457
_publ_section_title
;
Structure prediction by ZEFSAII (Michael W. Deem and Ramdas Pophale) SiO2 
 PCOD9172457
Probable space group: C 2/M
;
_chemical_formula_sum "Si O2"
_cell_formula_units_Z 64
_cell_length_a 25.736925
_cell_length_b 22.123348
_cell_length_c 16.991892
_cell_angle_alpha 90.000000
_cell_angle_beta 21.227934
_cell_angle_gamma 90.000000
_cell_volume 3503.101097
_symmetry_space_group_name_H-M "C 2/M"
_symmetry_group_IT_number 12
_symmetry_cell_setting 'monoclinic'
loop_
_space_group_symop_operation_xyz
x,y,z
-x,y,-z
-x,-y,-z
x,-y,z
1/2+x,1/2+y,z
1/2-x,1/2+y,-z
1/2-x,1/2-y,-z
1/2+x,1/2-y,z
loop_
_atom_site_type_symbol
_atom_site_label
_atom_site_fract_x
_atom_site_fract_y
_atom_site_fract_z
Si Si1 0.336158 0.570626 0.699047
Si Si2 0.384854 0.735638 0.731931
Si Si3 0.451270 0.639924 0.398867
Si Si4 0.062152 0.321584 0.583451
Si Si5 0.891834 0.766285 0.346951
Si Si6 0.821453 0.931951 0.005864
Si Si7 0.886254 0.431412 0.850141
Si Si8 0.191420 0.195274 0.888201
O O1 0.500000 0.572858 0.500000
O O2 0.309743 0.500000 0.715811
O O3 0.339670 0.616093 0.620845
O O4 0.222641 0.588975 0.926552
O O5 0.500000 0.727885 0.500000
O O6 0.422203 0.679282 0.736384
O O7 0.429833 0.792411 0.722099
O O8 0.246307 0.758022 0.878994
O O9 0.383207 0.682055 0.427508
O O10 0.529332 0.582785 0.249324
O O11 0.069189 0.292910 0.658692
O O12 0.201435 0.303072 0.336585
O O13 0.025848 0.391160 0.642810
O O14 0.750000 0.750000 0.500000
O O15 0.027337 0.787417 0.103685
O O16 0.822146 0.000000 0.039236
O O17 0.701109 0.930739 0.108095
O O18 0.799808 0.873637 0.091796
O O19 0.924408 0.500000 0.814491
#
# Coordination Sequence:
#
# PCOD9172457 Si02
#       8
#     8   8   8   8   8   8   8   8
#     4  10  18  29  49  83 123 154 181 221 279 347
#     4   9  18  29  48  80 107 139 175 212 275 347
#     4  10  19  31  54  79 116 147 185 228 288 339
#     4  10  21  36  56  79 111 149 180 230 284 342
#     4  10  24  40  57  81 104 142 197 245 282 331
#     4  10  19  30  50  81 115 152 186 219 270 337
#     4  10  20  31  50  82 120 155 185 221 268 341
#     4  10  21  37  56  80 116 145 181 233 289 336
#
# _framework density 18.269527
#
# number of rings (size 3 to 8) (size 9 to 14) (size 15 to 20)
#    0.000    2.125    2.500    0.750    1.750    4.500 
#    0.000    1.250    0.000    3.750    0.000    6.125 
#    0.000    0.000    0.000    0.000    0.000    0.000 
#
# Total GULP energy -178358.343194 kJ/mol
# GULP energy per Si atom -5573.698225 kJ/mol
# Density = 1.822794 g / cm^3
# Si number density = 18.269527 Si / 1000 Ang^3
#
#
#
# Elastic Constant Matrix: (Units=GPa)
#
#
# Indices 1 2 3 4 5 6 
#
# 1 38.9689 29.3411 23.7511 0.0012 -14.7596 -0.0011
# 2 29.3411 80.4542 31.3648 0.0000 -6.3548 -0.0002
# 3 23.7511 31.3648 75.4393 -0.0003 -5.2254 -0.0003
# 4 0.0012 0.0000 -0.0003 27.5052 0.0004 5.2523
# 5 -14.7596 -6.3548 -5.2254 0.0004 23.3195 0.0000
# 6 -0.0011 -0.0002 -0.0003 5.2523 0.0000 14.8180
#
#
#
# Elastic Compliance Matrix: (Units=1/GPa)
#
#
# Indices 1 2 3 4 5 6 
#
# 1 0.050957 -0.013056 -0.008764 -0.000004 0.026731 0.000004
# 2 -0.013056 0.018348 -0.003803 0.000001 -0.004116 -0.000001
# 3 -0.008764 -0.003803 0.017410 0.000001 -0.002682 -0.000001
# 4 -0.000004 0.000001 0.000001 0.038996 -0.000002 -0.013822
# 5 0.026731 -0.004116 -0.002682 -0.000002 0.058079 0.000003
# 6 0.000004 -0.000001 -0.000001 -0.013822 0.000003 0.072385
#
#
# Mechanical properties :
#
#
# Convention : Reuss Voigt Hill
#
# Bulk Modulus (GPa) = 28.19232 40.41961 34.30596
# Shear Modulus (GPa) = 15.66196 20.48890 18.07543
#
# Velocity S-wave (km/s) = 2.93110 3.35248 3.14885
# Velocity P-wave (km/s) = 5.18844 6.09570 5.66028
#
# Compressibility (1/GPa) = 0.03547065
#
# Stress axis : x y z
#
# Youngs Moduli (GPa) = 19.62425 54.50055 57.43747
#
# Poissons Ratio (x) = 0.71156 0.50336
# Poissons Ratio (y) = 0.25621 0.21844
# Poissons Ratio (z) = 0.17198 0.20727
#
# Static dielectric constant tensor:
#      x y z
#    x 1.617390 0.000000 0.023410 
#    y 0.000000 1.671200 0.000000 
#    z 0.023410 0.000000 1.655430 
# 
# From -- ./inp_files/294149.got.cif
#   From: 2010.05.17/outbox.cif.g08.bks.cpg/sg12_148_cif.got.tgz:294149.got - 2010.06.03 13:09:07.
