data_PCOD9172652
_publ_section_title
;
Structure prediction by ZEFSAII (Michael W. Deem and Ramdas Pophale) SiO2 
 PCOD9172652
Probable space group: C 2/M
;
_chemical_formula_sum "Si O2"
_cell_formula_units_Z 56
_cell_length_a 29.996433
_cell_length_b 8.610144
_cell_length_c 30.193951
_cell_angle_alpha 90.000000
_cell_angle_beta 152.941332
_cell_angle_gamma 90.000000
_cell_volume 3547.467301
_symmetry_space_group_name_H-M "C 2/M"
_symmetry_group_IT_number 12
_symmetry_cell_setting 'monoclinic'
loop_
_space_group_symop_operation_xyz
x,y,z
-x,y,-z
-x,-y,-z
x,-y,z
1/2+x,1/2+y,z
1/2-x,1/2+y,-z
1/2-x,1/2-y,-z
1/2+x,1/2-y,z
loop_
_atom_site_type_symbol
_atom_site_label
_atom_site_fract_x
_atom_site_fract_y
_atom_site_fract_z
Si Si1 0.976791 0.812465 0.371155
Si Si2 0.386236 0.687380 0.586866
Si Si3 0.144772 0.316454 0.251344
Si Si4 0.803505 0.317156 0.268559
Si Si5 0.132516 0.817347 0.583433
Si Si6 0.904828 0.688273 0.888569
Si Si7 0.835610 0.312038 0.634664
O O1 0.870430 0.747109 0.288233
O O2 0.028848 0.762078 0.371705
O O3 0.049993 0.767107 0.476005
O O4 0.972837 0.000000 0.367641
O O5 0.387030 0.500000 0.589006
O O6 0.278843 0.733940 0.473051
O O7 0.392112 0.751911 0.641637
O O8 0.120817 0.500000 0.231634
O O9 0.261561 0.305070 0.346233
O O10 0.095947 0.253553 0.163222
O O11 0.125786 0.253376 0.283674
O O12 0.792802 0.500000 0.255534
O O13 0.859523 0.273812 0.363828
O O14 0.696514 0.241099 0.178725
O O15 0.117326 0.000000 0.580655
O O16 0.903414 0.500000 0.885975
O O17 0.000000 0.738298 0.000000
O O18 0.837621 0.500000 0.636819
#
# Coordination Sequence:
#
# PCOD9172652 Si02
#       7
#     8   8   8   8   8   8   8
#     4  10  18  30  46  62  86 125 164 191 218 256
#     4   9  17  27  41  62  88 121 158 190 217 251
#     4   8  13  25  46  68  89 114 148 185 221 264
#     4  11  22  31  42  65  95 121 146 183 232 277
#     4   9  16  29  46  62  85 122 162 190 214 256
#     4   9  18  34  55  73  87 111 151 191 224 269
#     4   9  15  26  42  62  89 121 151 182 222 263
#
# _framework density 15.785909999999999
#
# number of rings (size 3 to 8) (size 9 to 14) (size 15 to 20)
#    0.000    2.714    1.429    2.571    0.000    3.143 
#    0.000    2.857    0.000    0.000    0.000    1.000 
#    0.000    0.000    0.000    0.000    0.000    0.000 
#
# Total GULP energy -155989.482067 kJ/mol
# GULP energy per Si atom -5571.052931 kJ/mol
# Density = 1.574998 g / cm^3
# Si number density = 15.785910 Si / 1000 Ang^3
#
#
#
# Elastic Constant Matrix: (Units=GPa)
#
#
# Indices 1 2 3 4 5 6 
#
# 1 142.8086 22.3736 64.9537 0.0000 -4.9816 0.0000
# 2 22.3736 9.5750 14.0469 0.0000 -1.4567 0.0000
# 3 64.9537 14.0469 88.2487 0.0000 -11.7676 0.0000
# 4 0.0000 0.0000 0.0000 6.8110 0.0000 -3.8950
# 5 -4.9816 -1.4567 -11.7676 0.0000 12.0487 0.0000
# 6 0.0000 0.0000 0.0000 -3.8950 0.0000 20.0023
#
#
#
# Elastic Compliance Matrix: (Units=1/GPa)
#
#
# Indices 1 2 3 4 5 6 
#
# 1 0.013439 -0.021819 -0.006932 0.000000 -0.003852 0.000000
# 2 -0.021819 0.171988 -0.011206 0.000001 0.000828 0.000001
# 3 -0.006932 -0.011206 0.020298 0.000000 0.015604 0.000000
# 4 0.000000 0.000001 0.000000 0.165218 0.000000 0.032172
# 5 -0.003852 0.000828 0.015604 0.000000 0.096743 0.000000
# 6 0.000000 0.000001 0.000000 0.032172 0.000000 0.056259
#
#
# Mechanical properties :
#
#
# Convention : Reuss Voigt Hill
#
# Bulk Modulus (GPa) = 7.94847 49.26451 28.60649
# Shear Modulus (GPa) = 7.74236 17.05630 12.39933
#
# Velocity S-wave (km/s) = 2.21704 3.29063 2.80566
# Velocity P-wave (km/s) = 3.40584 6.76116 5.35318
#
# Compressibility (1/GPa) = 0.12581038
#
# Stress axis : x y z
#
# Youngs Moduli (GPa) = 74.40755 5.81437 49.26482
#
# Poissons Ratio (x) = 0.12687 0.34153
# Poissons Ratio (y) = 1.62352 0.55205
# Poissons Ratio (z) = 0.51583 0.06515
#
# Static dielectric constant tensor:
#      x y z
#    x 1.550090 0.000000 -0.014730 
#    y 0.000000 1.536340 0.000000 
#    z -0.014730 0.000000 1.514180 
# 
# From -- ./inp_files/247890.got.cif
#   From: 2010.05.17/outbox.cif.g08.bks.cpg/sg12_124_cif.got.tgz:247890.got - 2010.06.03 13:09:07.
