data_PCOD9172156
_publ_section_title
;
Structure prediction by ZEFSAII (Michael W. Deem and Ramdas Pophale) SiO2 
 PCOD9172156
Probable space group: C 2/M
;
_chemical_formula_sum "Si O2"
_cell_formula_units_Z 64
_cell_length_a 19.431088
_cell_length_b 7.345586
_cell_length_c 22.164514
_cell_angle_alpha 90.000000
_cell_angle_beta 70.424816
_cell_angle_gamma 90.000000
_cell_volume 2980.753779
_symmetry_space_group_name_H-M "C 2/M"
_symmetry_group_IT_number 12
_symmetry_cell_setting 'monoclinic'
loop_
_space_group_symop_operation_xyz
x,y,z
-x,y,-z
-x,-y,-z
x,-y,z
1/2+x,1/2+y,z
1/2-x,1/2+y,-z
1/2-x,1/2-y,-z
1/2+x,1/2-y,z
loop_
_atom_site_type_symbol
_atom_site_label
_atom_site_fract_x
_atom_site_fract_y
_atom_site_fract_z
Si Si1 0.416364 0.220045 0.845244
Si Si2 0.962599 0.722348 0.407500
Si Si3 0.356406 0.780626 0.190397
Si Si4 0.442266 0.220012 0.276826
Si Si5 0.820447 0.717252 0.521169
Si Si6 0.810364 0.712289 0.778774
Si Si7 0.630036 0.222400 0.366961
Si Si8 0.494701 0.777589 0.070269
O O1 0.483680 0.263381 0.780799
O O2 0.346048 0.286820 0.829571
O O3 0.439649 0.282961 0.904829
O O4 0.412665 0.000000 0.851718
O O5 0.962588 0.500000 0.408474
O O6 0.945880 0.783218 0.344071
O O7 0.895681 0.783588 0.468590
O O8 0.045066 0.775152 0.400638
O O9 0.377619 0.717984 0.251717
O O10 0.276182 0.724542 0.195747
O O11 0.419789 0.722307 0.125654
O O12 0.358417 0.000000 0.190629
O O13 0.438662 0.000000 0.280932
O O14 0.826552 0.500000 0.522439
O O15 0.750000 0.750000 0.500000
O O16 0.821038 0.782071 0.590422
O O17 0.831803 0.500000 0.771345
O O18 0.841509 0.787540 0.706481
O O19 0.631723 0.000000 0.365092
O O20 0.494832 0.000000 0.069422
O O21 0.500000 0.716305 0.000000
#
# Coordination Sequence:
#
# PCOD9172156 Si02
#       8
#     8   8   8   8   8   8   8   8
#     4   8  13  24  43  67  90 115 152 190 220 259
#     4   9  15  27  48  68  86 112 153 196 227 260
#     4   9  18  29  45  70  98 121 148 188 230 272
#     4   8  13  24  43  67  87 110 149 191 222 254
#     4  10  21  33  47  69  94 120 151 191 237 281
#     4  10  18  29  47  69  95 123 150 188 233 274
#     4   9  17  30  47  68  91 118 156 196 229 266
#     4   8  14  27  48  71  93 120 156 194 226 259
#
# _framework density 21.471079
#
# number of rings (size 3 to 8) (size 9 to 14) (size 15 to 20)
#    0.000    3.125    1.250    1.875    1.750    1.500 
#    0.000    0.625    0.000    5.625    0.000    0.000 
#    0.000    0.000    0.000    0.000    0.000    0.000 
#
# Total GULP energy -178513.669079 kJ/mol
# GULP energy per Si atom -5578.552159 kJ/mol
# Density = 2.142221 g / cm^3
# Si number density = 21.471079 Si / 1000 Ang^3
#
#
#
# Elastic Constant Matrix: (Units=GPa)
#
#
# Indices 1 2 3 4 5 6 
#
# 1 186.6603 -2.9540 74.4274 0.0001 37.1854 0.0003
# 2 -2.9540 77.7003 5.0638 0.0004 4.8599 0.0008
# 3 74.4274 5.0638 113.6478 0.0000 39.8308 0.0001
# 4 0.0001 0.0004 0.0000 -10.5492 0.0000 -1.5498
# 5 37.1854 4.8599 39.8308 0.0000 35.3550 0.0001
# 6 0.0003 0.0008 0.0001 -1.5498 0.0001 14.5854
#
#
#
# Elastic Compliance Matrix: (Units=1/GPa)
#
#
# Indices 1 2 3 4 5 6 
#
# 1 0.007613 0.000778 -0.003597 0.000000 -0.004062 0.000000
# 2 0.000778 0.013061 -0.000290 0.000001 -0.002287 -0.000001
# 3 -0.003597 -0.000290 0.016240 0.000000 -0.014473 0.000000
# 4 0.000000 0.000001 0.000000 -0.093337 0.000000 -0.009918
# 5 -0.004062 -0.002287 -0.014473 0.000000 0.049177 0.000000
# 6 0.000000 -0.000001 0.000000 -0.009918 0.000000 0.067508
#
#
# Mechanical properties :
#
#
# Convention : Reuss Voigt Hill
#
# Bulk Modulus (GPa) = 32.57645 59.00921 45.79283
# Shear Modulus (GPa) = 65.17924 27.97633 46.57779
#
# Velocity S-wave (km/s) = 5.51567 3.61359 4.66266
# Velocity P-wave (km/s) = 7.46785 6.70474 7.09656
#
# Compressibility (1/GPa) = 0.03069702
#
# Stress axis : x y z
#
# Youngs Moduli (GPa) = 131.35474 76.56109 61.57631
#
# Poissons Ratio (x) = -0.05956 0.22147
# Poissons Ratio (y) = -0.10218 0.01785
# Poissons Ratio (z) = 0.47245 0.02219
#
# Static dielectric constant tensor:
#      x y z
#    x 1.772740 0.000000 0.040200 
#    y 0.000000 1.857350 0.000000 
#    z 0.040200 0.000000 1.749020 
# 
# From -- ./inp_files/309899.got.cif
#   From: 2010.05.17/outbox.cif.g08.bks.cpg/sg12_155_cif.got.tgz:309899.got - 2010.06.03 13:09:07.
