data_PCOD9172510
_publ_section_title
;
Structure prediction by ZEFSAII (Michael W. Deem and Ramdas Pophale) SiO2 
 PCOD9172510
Probable space group: C 2/M
;
_chemical_formula_sum "Si O2"
_cell_formula_units_Z 64
_cell_length_a 20.401349
_cell_length_b 7.617094
_cell_length_c 16.090794
_cell_angle_alpha 90.000000
_cell_angle_beta 72.859945
_cell_angle_gamma 90.000000
_cell_volume 2389.439332
_symmetry_space_group_name_H-M "C 2/M"
_symmetry_group_IT_number 12
_symmetry_cell_setting 'monoclinic'
loop_
_space_group_symop_operation_xyz
x,y,z
-x,y,-z
-x,-y,-z
x,-y,z
1/2+x,1/2+y,z
1/2-x,1/2+y,-z
1/2-x,1/2-y,-z
1/2+x,1/2-y,z
loop_
_atom_site_type_symbol
_atom_site_label
_atom_site_fract_x
_atom_site_fract_y
_atom_site_fract_z
Si Si1 0.829777 0.293193 0.894623
Si Si2 0.457065 0.789044 0.436955
Si Si3 0.081660 0.793764 0.789770
Si Si4 0.581862 0.215402 0.294349
Si Si5 0.329083 0.709433 0.396688
Si Si6 0.799665 0.297834 0.638603
Si Si7 0.210465 0.295141 0.832128
Si Si8 0.041522 0.788277 0.064787
O O1 0.822007 0.500000 0.888915
O O2 0.878837 0.221387 0.801846
O O3 0.754280 0.222513 0.900832
O O4 0.879429 0.262251 0.953988
O O5 0.500000 0.727424 0.500000
O O6 0.504466 0.728765 0.341779
O O7 0.378083 0.738250 0.456673
O O8 0.457938 0.000000 0.438489
O O9 0.123883 0.717486 0.696656
O O10 0.134023 0.777816 0.848639
O O11 0.007753 0.719848 0.842126
O O12 0.073028 0.000000 0.776846
O O13 0.629003 0.275511 0.354481
O O14 0.583259 0.000000 0.292396
O O15 0.322109 0.500000 0.388858
O O16 0.252867 0.782954 0.409038
O O17 0.813515 0.500000 0.610020
O O18 0.754519 0.295934 0.741617
O O19 0.207320 0.500000 0.814390
O O20 0.039538 0.000000 0.065719
O O21 0.000000 0.726470 0.000000
#
# Coordination Sequence:
#
# PCOD9172510 Si02
#       8
#     8   8   8   8   8   8   8   8
#     4  10  19  33  54  76 100 132 169 207 249 298
#     4  10  20  32  46  67  97 130 162 199 242 287
#     4   9  18  34  54  76 103 133 164 200 248 300
#     4   8  15  30  51  71  92 124 163 198 235 286
#     4   9  17  30  50  72  93 122 159 199 240 286
#     4   8  15  30  50  71  95 124 160 200 246 294
#     4  10  18  29  50  79 105 127 161 208 252 294
#     4  10  21  36  53  75 104 134 165 206 251 293
#
# _framework density 26.784527000000001
#
# number of rings (size 3 to 8) (size 9 to 14) (size 15 to 20)
#    0.000    2.750    0.000    3.750    0.000    3.000 
#    0.000    3.750    0.000    0.000    0.000    0.000 
#    0.000    0.000    0.000    0.000    0.000    0.000 
#
# Total GULP energy -178839.485661 kJ/mol
# GULP energy per Si atom -5588.733927 kJ/mol
# Density = 2.672356 g / cm^3
# Si number density = 26.784527 Si / 1000 Ang^3
#
#
#
# Elastic Constant Matrix: (Units=GPa)
#
#
# Indices 1 2 3 4 5 6 
#
# 1 228.2695 -6.5089 31.9127 0.0000 15.0558 0.0000
# 2 -6.5089 82.7365 -3.5191 0.0000 -2.8136 0.0000
# 3 31.9127 -3.5191 69.6308 0.0000 17.5939 0.0000
# 4 0.0000 0.0000 0.0000 9.7567 0.0000 14.8842
# 5 15.0558 -2.8136 17.5939 0.0000 57.2221 0.0000
# 6 0.0000 0.0000 0.0000 14.8842 0.0000 24.6630
#
#
#
# Elastic Compliance Matrix: (Units=1/GPa)
#
#
# Indices 1 2 3 4 5 6 
#
# 1 0.004707 0.000265 -0.001989 0.000000 -0.000614 0.000000
# 2 0.000265 0.012138 0.000389 0.000000 0.000407 0.000000
# 3 -0.001989 0.000389 0.016432 0.000000 -0.004510 0.000000
# 4 0.000000 0.000000 0.000000 1.291949 0.000000 -0.779695
# 5 -0.000614 0.000407 -0.004510 0.000000 0.019044 0.000000
# 6 0.000000 0.000000 0.000000 -0.779695 0.000000 0.511095
#
#
# Mechanical properties :
#
#
# Convention : Reuss Voigt Hill
#
# Bulk Modulus (GPa) = 32.67201 47.15624 39.91412
# Shear Modulus (GPa) = 2.67632 42.24518 22.46075
#
# Velocity S-wave (km/s) = 1.00069 3.97574 2.89895
# Velocity P-wave (km/s) = 3.68235 6.22248 5.11268
#
# Compressibility (1/GPa) = 0.03060724
#
# Stress axis : x y z
#
# Youngs Moduli (GPa) = 212.45600 82.38724 60.85644
#
# Poissons Ratio (x) = -0.02182 0.12103
# Poissons Ratio (y) = -0.05626 -0.02368
# Poissons Ratio (z) = 0.42251 -0.03206
#
# Static dielectric constant tensor:
#      x y z
#    x 2.090950 0.000000 0.045260 
#    y 0.000000 1.970080 0.000000 
#    z 0.045260 0.000000 2.254980 
# 
# From -- ./inp_files/319160.got.cif
#   From: 2010.05.17/outbox.cif.g08.bks.cpg/sg12_160_cif.got.tgz:319160.got - 2010.06.03 13:09:07.
