data_PCOD9172722
_publ_section_title
;
Structure prediction by ZEFSAII (Michael W. Deem and Ramdas Pophale) SiO2 
 PCOD9172722
Probable space group: C 2/M
;
_chemical_formula_sum "Si O2"
_cell_formula_units_Z 64
_cell_length_a 25.975301
_cell_length_b 15.213037
_cell_length_c 11.982624
_cell_angle_alpha 90.000000
_cell_angle_beta 138.001416
_cell_angle_gamma 90.000000
_cell_volume 3168.308167
_symmetry_space_group_name_H-M "C 2/M"
_symmetry_group_IT_number 12
_symmetry_cell_setting 'monoclinic'
loop_
_space_group_symop_operation_xyz
x,y,z
-x,y,-z
-x,-y,-z
x,-y,z
1/2+x,1/2+y,z
1/2-x,1/2+y,-z
1/2-x,1/2-y,-z
1/2+x,1/2-y,z
loop_
_atom_site_type_symbol
_atom_site_label
_atom_site_fract_x
_atom_site_fract_y
_atom_site_fract_z
Si Si1 0.236940 0.404304 0.394024
Si Si2 0.128619 0.225032 0.386802
Si Si3 0.451112 0.604007 0.586570
Si Si4 0.880582 0.895614 0.250230
Si Si5 0.933361 0.594863 0.986775
Si Si6 0.813181 0.104803 0.921662
Si Si7 0.326608 0.901612 0.461518
Si Si8 0.923432 0.786429 0.941316
O O1 0.273444 0.500000 0.425675
O O2 0.291721 0.323618 0.452171
O O3 0.153039 0.406046 0.202709
O O4 0.223882 0.402415 0.506174
O O5 0.064179 0.159170 0.328345
O O6 0.118725 0.319467 0.428273
O O7 0.127380 0.234941 0.251495
O O8 0.441527 0.500000 0.589135
O O9 0.536510 0.615029 0.675607
O O10 0.392270 0.637231 0.394874
O O11 0.866989 0.000000 0.242434
O O12 0.820849 0.862314 0.061627
O O13 0.941415 0.500000 0.061737
O O14 0.940304 0.696002 0.036861
O O15 0.000000 0.591923 0.000000
O O16 0.730038 0.116616 0.732289
O O17 0.876692 0.149000 0.944763
O O18 0.828100 0.000000 0.946441
O O19 0.360494 0.000000 0.506289
O O20 0.000000 0.817995 0.000000
#
# Coordination Sequence:
#
# PCOD9172722 Si02
#       8
#     8   8   8   8   8   8   8   8
#     4  10  18  30  47  67  97 131 159 194 238 288
#     4  12  20  30  48  74 103 128 158 204 247 281
#     4   9  18  32  52  76  97 124 160 197 241 290
#     4   8  16  34  54  70  95 128 162 196 234 291
#     4   9  18  32  47  63  90 129 168 201 232 277
#     4  10  19  32  48  67  95 130 159 190 234 289
#     4  10  20  32  46  66  95 134 168 191 232 292
#     4  11  21  29  43  71 101 127 158 195 240 290
#
# _framework density 20.200054999999999
#
# number of rings (size 3 to 8) (size 9 to 14) (size 15 to 20)
#    0.000    2.125    2.500    3.000    0.000    0.750 
#    0.000    0.625    0.000    0.000    0.000    2.625 
#    0.000    0.000    0.000    0.000    0.000    0.375 
#
# Total GULP energy -178201.318167 kJ/mol
# GULP energy per Si atom -5568.791193 kJ/mol
# Density = 2.015408 g / cm^3
# Si number density = 20.200055 Si / 1000 Ang^3
#
#
#
# Elastic Constant Matrix: (Units=GPa)
#
#
# Indices 1 2 3 4 5 6 
#
# 1 22.8469 11.4691 1.7670 0.0000 -0.6900 0.0000
# 2 11.4691 83.8461 11.9596 0.0000 -3.6640 0.0000
# 3 1.7670 11.9596 74.5665 0.0000 -11.2152 0.0000
# 4 0.0000 0.0000 0.0000 17.6315 0.0000 2.8910
# 5 -0.6900 -3.6640 -11.2152 0.0000 28.5080 0.0000
# 6 0.0000 0.0000 0.0000 2.8910 0.0000 13.1452
#
#
#
# Elastic Compliance Matrix: (Units=1/GPa)
#
#
# Indices 1 2 3 4 5 6 
#
# 1 0.047000 -0.006410 -0.000041 0.000000 0.000298 0.000000
# 2 -0.006410 0.013099 -0.001827 0.000000 0.000810 0.000000
# 3 -0.000041 -0.001827 0.014529 0.000000 0.005480 0.000000
# 4 0.000000 0.000000 0.000000 0.058838 0.000000 -0.012940
# 5 0.000298 0.000810 0.005480 0.000000 0.037345 0.000000
# 6 0.000000 0.000000 0.000000 -0.012940 0.000000 0.078919
#
#
# Mechanical properties :
#
#
# Convention : Reuss Voigt Hill
#
# Bulk Modulus (GPa) = 17.22014 25.73900 21.47957
# Shear Modulus (GPa) = 17.50425 22.26119 19.88272
#
# Velocity S-wave (km/s) = 2.94691 3.32329 3.14074
# Velocity P-wave (km/s) = 4.48579 5.24361 4.87943
#
# Compressibility (1/GPa) = 0.05807155
#
# Stress axis : x y z
#
# Youngs Moduli (GPa) = 21.27673 76.33905 68.82735
#
# Poissons Ratio (x) = 0.48934 0.00281
# Poissons Ratio (y) = 0.13639 0.12577
# Poissons Ratio (z) = 0.00087 0.13950
#
# Static dielectric constant tensor:
#      x y z
#    x 1.668740 0.000000 0.032230 
#    y 0.000000 1.768260 0.000000 
#    z 0.032230 0.000000 1.825510 
# 
# From -- ./inp_files/189488.got.cif
#   From: 2010.05.17/outbox.cif.g08.bks.cpg/sg12_95_cif.got.tgz:189488.got - 2010.06.03 13:09:07.
