data_PCOD9172475
_publ_section_title
;
Structure prediction by ZEFSAII (Michael W. Deem and Ramdas Pophale) SiO2 
 PCOD9172475
Probable space group: C 2/M
;
_chemical_formula_sum "Si O2"
_cell_formula_units_Z 56
_cell_length_a 27.723442
_cell_length_b 7.315995
_cell_length_c 13.248205
_cell_angle_alpha 90.000000
_cell_angle_beta 112.254350
_cell_angle_gamma 90.000000
_cell_volume 2486.906900
_symmetry_space_group_name_H-M "C 2/M"
_symmetry_group_IT_number 12
_symmetry_cell_setting 'monoclinic'
loop_
_space_group_symop_operation_xyz
x,y,z
-x,y,-z
-x,-y,-z
x,-y,z
1/2+x,1/2+y,z
1/2-x,1/2+y,-z
1/2-x,1/2-y,-z
1/2+x,1/2-y,z
loop_
_atom_site_type_symbol
_atom_site_label
_atom_site_fract_x
_atom_site_fract_y
_atom_site_fract_z
Si Si1 0.833804 0.291038 0.374953
Si Si2 0.550570 0.721925 0.813911
Si Si3 0.163136 0.220405 0.394333
Si Si4 0.945983 0.709143 0.417665
Si Si5 0.938152 0.221878 0.801921
Si Si6 0.876685 0.222448 0.952902
Si Si7 0.723743 0.276797 0.240854
O O1 0.838572 0.500000 0.342209
O O2 0.821860 0.291855 0.484702
O O3 0.890855 0.206230 0.406745
O O4 0.783018 0.211840 0.280068
O O5 0.550394 0.500000 0.810275
O O6 0.553135 0.789168 0.702248
O O7 0.496165 0.780704 0.821781
O O8 0.598607 0.780314 0.922171
O O9 0.104432 0.274984 0.315911
O O10 0.199818 0.277078 0.330612
O O11 0.164681 0.000000 0.400379
O O12 0.945686 0.500000 0.457027
O O13 0.000000 0.792679 0.500000
O O14 0.915076 0.278544 0.891729
O O15 0.938789 0.000000 0.804308
O O16 0.818502 0.280091 0.876070
O O17 0.876506 0.000000 0.952280
O O18 0.724786 0.500000 0.241726
#
# Coordination Sequence:
#
# PCOD9172475 Si02
#       7
#     8   8   8   8   8   8   8
#     4  10  19  31  47  64  86 122 160 186 216 264
#     4  10  18  29  50  74  91 114 150 188 221 257
#     4   9  16  27  46  71  96 117 140 181 230 267
#     4  10  22  37  48  61  88 125 157 185 221 264
#     4   8  14  25  44  72  99 118 139 174 225 277
#     4   8  14  26  46  72  97 116 140 179 225 272
#     4   8  15  28  46  69  94 118 145 179 223 273
#
# _framework density 22.517932999999999
#
# number of rings (size 3 to 8) (size 9 to 14) (size 15 to 20)
#    0.000    3.000    0.000    3.429    0.000    2.571 
#    0.000    0.714    0.000    6.000    0.000    0.000 
#    0.000    0.000    0.000    0.000    0.000    0.000 
#
# Total GULP energy -156344.537731 kJ/mol
# GULP energy per Si atom -5583.733490 kJ/mol
# Density = 2.246668 g / cm^3
# Si number density = 22.517933 Si / 1000 Ang^3
#
#
#
# Elastic Constant Matrix: (Units=GPa)
#
#
# Indices 1 2 3 4 5 6 
#
# 1 161.1764 8.8539 56.8726 0.0000 51.4412 0.0000
# 2 8.8539 92.0300 -7.8461 0.0000 2.7781 0.0000
# 3 56.8726 -7.8461 117.6222 0.0000 33.1630 0.0000
# 4 0.0000 0.0000 0.0000 12.5364 0.0000 -10.8898
# 5 51.4412 2.7781 33.1630 0.0000 28.6714 0.0000
# 6 0.0000 0.0000 0.0000 -10.8898 0.0000 -10.5963
#
#
#
# Elastic Compliance Matrix: (Units=1/GPa)
#
#
# Indices 1 2 3 4 5 6 
#
# 1 0.014565 -0.000566 0.000404 0.000000 -0.026544 0.000000
# 2 -0.000566 0.011106 0.001531 0.000000 -0.001832 0.000000
# 3 0.000404 0.001531 0.012843 0.000000 -0.015728 0.000000
# 4 0.000000 0.000000 0.000000 0.042145 0.000000 -0.043312
# 5 -0.026544 -0.001832 -0.015728 0.000000 0.100871 0.000000
# 6 0.000000 0.000000 0.000000 -0.043312 0.000000 -0.049861
#
#
# Mechanical properties :
#
#
# Convention : Reuss Voigt Hill
#
# Bulk Modulus (GPa) = 24.24101 54.06548 39.15324
# Shear Modulus (GPa) = 35.04316 26.98550 31.01433
#
# Velocity S-wave (km/s) = 3.94919 3.46555 3.71525
# Velocity P-wave (km/s) = 5.61991 6.33052 5.98577
#
# Compressibility (1/GPa) = 0.04125241
#
# Stress axis : x y z
#
# Youngs Moduli (GPa) = 68.65933 90.03934 77.86306
#
# Poissons Ratio (x) = 0.05092 -0.03145
# Poissons Ratio (y) = 0.03883 -0.11920
# Poissons Ratio (z) = -0.02773 -0.13784
#
# Static dielectric constant tensor:
#      x y z
#    x 1.838730 0.000000 0.037860 
#    y 0.000000 1.838170 0.000000 
#    z 0.037860 0.000000 1.778770 
# 
# From -- ./inp_files/173999.got.cif
#   From: 2010.05.17/outbox.cif.g08.bks.cpg/sg12_87_cif.got.tgz:173999.got - 2010.06.03 13:09:07.
