data_PCOD9172460
_publ_section_title
;
Structure prediction by ZEFSAII (Michael W. Deem and Ramdas Pophale) SiO2 
 PCOD9172460
Probable space group: C 2/M
;
_chemical_formula_sum "Si O2"
_cell_formula_units_Z 48
_cell_length_a 19.260619
_cell_length_b 20.351574
_cell_length_c 7.616112
_cell_angle_alpha 90.000000
_cell_angle_beta 140.054048
_cell_angle_gamma 90.000000
_cell_volume 1916.815713
_symmetry_space_group_name_H-M "C 2/M"
_symmetry_group_IT_number 12
_symmetry_cell_setting 'monoclinic'
loop_
_space_group_symop_operation_xyz
x,y,z
-x,y,-z
-x,-y,-z
x,-y,z
1/2+x,1/2+y,z
1/2-x,1/2+y,-z
1/2-x,1/2-y,-z
1/2+x,1/2-y,z
loop_
_atom_site_type_symbol
_atom_site_label
_atom_site_fract_x
_atom_site_fract_y
_atom_site_fract_z
Si Si1 0.205650 0.929103 0.450644
Si Si2 0.914860 0.643157 0.968043
Si Si3 0.748700 0.744527 0.711685
Si Si4 0.458966 0.337717 0.719833
Si Si5 0.176480 0.119306 0.015857
Si Si6 0.502295 0.000000 0.741399
Si Si7 0.200131 0.500000 0.855806
O O1 0.308150 0.883284 0.666981
O O2 0.107317 0.904448 0.376225
O O3 0.169593 0.923698 0.180908
O O4 0.240551 0.000000 0.575858
O O5 0.855128 0.700007 0.967991
O O6 0.973974 0.575137 0.142960
O O7 0.000000 0.674805 0.000000
O O8 0.750000 0.750000 0.500000
O O9 0.634070 0.710817 0.528511
O O10 0.753570 0.815584 0.811183
O O11 0.500000 0.320429 0.000000
O O12 0.556860 0.351054 0.779501
O O13 0.230784 0.066781 0.991297
O O14 0.595905 0.000000 0.776592
O O15 0.371843 0.000000 0.463842
#
# Coordination Sequence:
#
# PCOD9172460 Si02
#       7
#     8   8   8   8   8   4   4
#     4  10  18  29  49  85 119 143 188 239 303 361
#     4  11  22  34  64  92 121 150 189 253 322 362
#     4  11  21  34  54  97 129 152 189 244 308 384
#     4   9  19  30  49  83 124 155 182 235 301 357
#     4  11  21  35  58  83 124 162 196 241 302 366
#     4  11  25  44  63  85 119 158 209 263 295 352
#     4  11  26  44  58  85 115 167 221 247 288 355
#
# _framework density 25.041530000000002
#
# number of rings (size 3 to 8) (size 9 to 14) (size 15 to 20)
#    0.000    1.500    6.667    1.250    3.500    1.000 
#    0.000    0.833    0.000    8.000    0.000    0.000 
#    0.000    0.000    0.000    0.000    0.000    0.000 
#
# Total GULP energy -133858.875175 kJ/mol
# GULP energy per Si atom -5577.453132 kJ/mol
# Density = 2.498453 g / cm^3
# Si number density = 25.041530 Si / 1000 Ang^3
#
#
#
# Elastic Constant Matrix: (Units=GPa)
#
#
# Indices 1 2 3 4 5 6 
#
# 1 66.9392 39.1644 35.4324 0.0000 36.2057 0.0000
# 2 39.1644 190.4350 42.6805 0.0000 21.2113 0.0000
# 3 35.4324 42.6805 95.8163 0.0000 38.7484 0.0000
# 4 0.0000 0.0000 0.0000 -1.6772 0.0000 4.2574
# 5 36.2057 21.2113 38.7484 0.0000 43.6947 0.0000
# 6 0.0000 0.0000 0.0000 4.2574 0.0000 -1.9005
#
#
#
# Elastic Compliance Matrix: (Units=1/GPa)
#
#
# Indices 1 2 3 4 5 6 
#
# 1 0.029114 -0.003458 -0.000232 0.000000 -0.022239 0.000000
# 2 -0.003458 0.006263 -0.002246 0.000000 0.001817 0.000000
# 3 -0.000232 -0.002246 0.017157 0.000000 -0.013932 0.000000
# 4 0.000000 0.000000 0.000000 0.127227 0.000000 0.285009
# 5 -0.022239 0.001817 -0.013932 0.000000 0.052787 0.000000
# 6 0.000000 0.000000 0.000000 0.285009 0.000000 0.112281
#
#
# Mechanical properties :
#
#
# Convention : Reuss Voigt Hill
#
# Bulk Modulus (GPa) = 24.59302 65.30502 44.94902
# Shear Modulus (GPa) = 13.50420 23.75096 18.62758
#
# Velocity S-wave (km/s) = 2.32474 3.08305 2.73035
# Velocity P-wave (km/s) = 4.12894 6.22968 5.28474
#
# Compressibility (1/GPa) = 0.04066195
#
# Stress axis : x y z
#
# Youngs Moduli (GPa) = 34.34802 159.65901 58.28496
#
# Poissons Ratio (x) = 0.55216 0.01352
# Poissons Ratio (y) = 0.11879 0.13089
# Poissons Ratio (z) = 0.00797 0.35855
#
# Static dielectric constant tensor:
#      x y z
#    x 2.256330 0.000000 -0.186450 
#    y 0.000000 2.043310 0.000000 
#    z -0.186450 0.000000 2.063710 
# 
# From -- ./inp_files/177807.got.cif
#   From: 2010.05.17/outbox.cif.g08.bks.cpg/sg12_89_cif.got.tgz:177807.got - 2010.06.03 13:09:07.
