data_PCOD9172838
_publ_section_title
;
Structure prediction by ZEFSAII (Michael W. Deem and Ramdas Pophale) SiO2 
 PCOD9172838
Probable space group: C 2/M
;
_chemical_formula_sum "Si O2"
_cell_formula_units_Z 48
_cell_length_a 27.152319
_cell_length_b 8.998462
_cell_length_c 12.310207
_cell_angle_alpha 90.000000
_cell_angle_beta 105.658915
_cell_angle_gamma 90.000000
_cell_volume 2896.111206
_symmetry_space_group_name_H-M "C 2/M"
_symmetry_group_IT_number 12
_symmetry_cell_setting 'monoclinic'
loop_
_space_group_symop_operation_xyz
x,y,z
-x,y,-z
-x,-y,-z
x,-y,z
1/2+x,1/2+y,z
1/2-x,1/2+y,-z
1/2-x,1/2-y,-z
1/2+x,1/2-y,z
loop_
_atom_site_type_symbol
_atom_site_label
_atom_site_fract_x
_atom_site_fract_y
_atom_site_fract_z
Si Si1 0.068706 0.676022 0.776901
Si Si2 0.878858 0.172007 0.753879
Si Si3 0.031507 0.171198 0.372045
Si Si4 0.108218 0.322119 0.576975
Si Si5 0.941993 0.179687 0.998197
Si Si6 0.805120 0.322991 0.544739
O O1 0.068911 0.500000 0.795822
O O2 0.109456 0.711186 0.705826
O O3 0.073121 0.759242 0.893452
O O4 0.015021 0.726987 0.692726
O O5 0.927005 0.173481 0.700332
O O6 0.834749 0.264614 0.669045
O O7 0.862331 0.000000 0.755220
O O8 0.901590 0.226203 0.881704
O O9 0.061442 0.234693 0.493453
O O10 0.015255 0.000000 0.377476
O O11 0.099177 0.500000 0.560012
O O12 0.158455 0.285047 0.536820
O O13 0.942556 0.000000 0.000854
O O14 0.000000 0.226617 0.000000
O O15 0.800469 0.500000 0.546310
O O16 0.750000 0.250000 0.500000
#
# Coordination Sequence:
#
# PCOD9172838 Si02
#       6
#     8   8   8   8   8   8
#     4  11  21  31  46  70 104 141 173 204 245 298
#     4   9  18  33  52  74 103 135 169 209 252 296
#     4  10  18  30  48  71 100 136 174 209 246 295
#     4   9  20  35  48  70 103 134 164 207 259 306
#     4  10  19  34  51  71 104 142 177 211 245 288
#     4  10  20  36  58  79 100 126 163 212 264 310
#
# _framework density 16.573948000000001
#
# number of rings (size 3 to 8) (size 9 to 14) (size 15 to 20)
#    0.000    2.167    1.667    2.000    0.000    5.667 
#    0.000    0.000    0.000    1.000    0.000    0.000 
#    0.000    0.000    0.000    0.000    0.000    0.000 
#
# Total GULP energy -133870.531766 kJ/mol
# GULP energy per Si atom -5577.938824 kJ/mol
# Density = 1.653623 g / cm^3
# Si number density = 16.573948 Si / 1000 Ang^3
#
#
#
# Elastic Constant Matrix: (Units=GPa)
#
#
# Indices 1 2 3 4 5 6 
#
# 1 72.8105 32.1855 61.8525 0.0000 11.2521 0.0000
# 2 32.1855 30.9434 38.3951 0.0000 2.7490 0.0000
# 3 61.8525 38.3951 150.8916 0.0000 -9.5234 0.0000
# 4 0.0000 0.0000 0.0000 30.5687 0.0000 1.3428
# 5 11.2521 2.7490 -9.5234 0.0000 20.4584 0.0000
# 6 0.0000 0.0000 0.0000 1.3428 0.0000 22.5074
#
#
#
# Elastic Compliance Matrix: (Units=1/GPa)
#
#
# Indices 1 2 3 4 5 6 
#
# 1 0.035703 -0.022508 -0.010258 0.000000 -0.021387 0.000000
# 2 -0.022508 0.064628 -0.007197 0.000000 0.000345 0.000000
# 3 -0.010258 -0.007197 0.013476 0.000000 0.012882 0.000000
# 4 0.000000 0.000000 0.000000 0.032799 0.000000 -0.001957
# 5 -0.021387 0.000345 0.012882 0.000000 0.066593 0.000000
# 6 0.000000 0.000000 0.000000 -0.001957 0.000000 0.044547
#
#
# Mechanical properties :
#
#
# Convention : Reuss Voigt Hill
#
# Bulk Modulus (GPa) = 29.51412 57.72352 43.61882
# Shear Modulus (GPa) = 14.32812 22.85438 18.59125
#
# Velocity S-wave (km/s) = 2.94342 3.71743 3.35284
# Velocity P-wave (km/s) = 5.42198 7.30268 6.43145
#
# Compressibility (1/GPa) = 0.03388209
#
# Stress axis : x y z
#
# Youngs Moduli (GPa) = 28.00897 15.47319 74.20462
#
# Poissons Ratio (x) = 0.34827 0.76116
# Poissons Ratio (y) = 0.63043 0.53403
# Poissons Ratio (z) = 0.28730 0.11136
#
# Static dielectric constant tensor:
#      x y z
#    x 1.550680 0.000000 -0.030500 
#    y 0.000000 1.555440 0.000000 
#    z -0.030500 0.000000 1.565480 
# 
# From -- ./inp_files/172077.got.cif
#   From: 2010.05.17/outbox.cif.g08.bks.cpg/sg12_87_cif.got.tgz:172077.got - 2010.06.03 13:09:07.
