data_PCOD9172611
_publ_section_title
;
Structure prediction by ZEFSAII (Michael W. Deem and Ramdas Pophale) SiO2 
 PCOD9172611
Probable space group: C 2/M
;
_chemical_formula_sum "Si O2"
_cell_formula_units_Z 64
_cell_length_a 27.605540
_cell_length_b 8.732371
_cell_length_c 17.730772
_cell_angle_alpha 90.000000
_cell_angle_beta 79.621921
_cell_angle_gamma 90.000000
_cell_volume 4204.287988
_symmetry_space_group_name_H-M "C 2/M"
_symmetry_group_IT_number 12
_symmetry_cell_setting 'monoclinic'
loop_
_space_group_symop_operation_xyz
x,y,z
-x,y,-z
-x,-y,-z
x,-y,z
1/2+x,1/2+y,z
1/2-x,1/2+y,-z
1/2-x,1/2-y,-z
1/2+x,1/2-y,z
loop_
_atom_site_type_symbol
_atom_site_label
_atom_site_fract_x
_atom_site_fract_y
_atom_site_fract_z
Si Si1 0.310853 0.817894 0.316913
Si Si2 0.119742 0.321732 0.324507
Si Si3 0.642481 0.316439 0.556466
Si Si4 0.304178 0.184090 0.002629
Si Si5 0.709932 0.683883 0.837704
Si Si6 0.288215 0.178489 0.586685
Si Si7 0.555267 0.684262 0.469562
Si Si8 0.824085 0.686047 0.833680
O O1 0.351903 0.753721 0.362458
O O2 0.312299 0.748878 0.232821
O O3 0.259224 0.762081 0.367424
O O4 0.312541 0.000000 0.313672
O O5 0.105872 0.500000 0.320604
O O6 0.169103 0.316003 0.361878
O O7 0.077935 0.237893 0.383885
O O8 0.136639 0.258267 0.238678
O O9 0.643856 0.500000 0.559858
O O10 0.688188 0.257289 0.493019
O O11 0.593599 0.267530 0.524373
O O12 0.333869 0.225957 0.918248
O O13 0.302244 0.000000 0.008388
O O14 0.250000 0.250000 0.000000
O O15 0.317044 0.254340 0.079830
O O16 0.709146 0.500000 0.837188
O O17 0.767970 0.732372 0.827627
O O18 0.276878 0.000000 0.574731
O O19 0.500000 0.740042 0.500000
O O20 0.554722 0.500000 0.470103
O O21 0.824023 0.500000 0.828889
#
# Coordination Sequence:
#
# PCOD9172611 Si02
#       8
#     8   8   8   8   8   8   8   8
#     4  12  22  30  42  62  88 117 152 187 218 260
#     4   9  16  28  46  67  88 116 150 182 218 261
#     4  10  20  33  47  63  84 113 147 181 222 267
#     4   9  16  26  40  59  84 118 155 188 222 258
#     4  10  18  30  43  58  85 121 155 188 224 257
#     4  10  18  30  45  61  87 118 149 184 219 255
#     4   9  19  35  51  67  88 112 141 183 230 270
#     4   8  14  26  42  60  86 116 147 184 219 252
#
# _framework density 15.222553
#
# number of rings (size 3 to 8) (size 9 to 14) (size 15 to 20)
#    0.000    2.375    1.250    3.750    0.000    1.250 
#    0.000    1.250    0.000    0.000    0.000    0.000 
#    0.000    1.000    0.000   11.500    0.000    3.500 
#
# Total GULP energy -178345.327183 kJ/mol
# GULP energy per Si atom -5573.291474 kJ/mol
# Density = 1.518791 g / cm^3
# Si number density = 15.222553 Si / 1000 Ang^3
#
#
#
# Elastic Constant Matrix: (Units=GPa)
#
#
# Indices 1 2 3 4 5 6 
#
# 1 47.7444 18.6058 50.7278 0.0000 -2.7323 0.0000
# 2 18.6058 58.8579 40.9891 0.0000 7.1204 0.0000
# 3 50.7278 40.9891 157.2915 0.0000 12.6070 0.0000
# 4 0.0000 0.0000 0.0000 25.9470 0.0000 2.2205
# 5 -2.7323 7.1204 12.6070 0.0000 18.1013 0.0000
# 6 0.0000 0.0000 0.0000 2.2205 0.0000 12.9091
#
#
#
# Elastic Compliance Matrix: (Units=1/GPa)
#
#
# Indices 1 2 3 4 5 6 
#
# 1 0.036140 -0.005279 -0.011527 0.000000 0.015560 0.000000
# 2 -0.005279 0.021906 -0.003444 0.000000 -0.007015 0.000000
# 3 -0.011527 -0.003444 0.011654 0.000000 -0.008502 0.000000
# 4 0.000000 0.000000 0.000000 0.039116 0.000000 -0.006728
# 5 0.015560 -0.007015 -0.008502 0.000000 0.066274 0.000000
# 6 0.000000 0.000000 0.000000 -0.006728 0.000000 0.078622
#
#
# Mechanical properties :
#
#
# Convention : Reuss Voigt Hill
#
# Bulk Modulus (GPa) = 34.24647 53.83768 44.04207
# Shear Modulus (GPa) = 16.45040 21.62955 19.03997
#
# Velocity S-wave (km/s) = 3.29091 3.77356 3.54047
# Velocity P-wave (km/s) = 6.08162 7.37768 6.76078
#
# Compressibility (1/GPa) = 0.02920009
#
# Stress axis : x y z
#
# Youngs Moduli (GPa) = 27.67052 45.65010 85.80849
#
# Poissons Ratio (x) = 0.24100 0.98908
# Poissons Ratio (y) = 0.14608 0.29549
# Poissons Ratio (z) = 0.31895 0.15720
#
# Static dielectric constant tensor:
#      x y z
#    x 1.492260 0.000000 0.021980 
#    y 0.000000 1.512080 0.000000 
#    z 0.021980 0.000000 1.549970 
# 
# From -- ./inp_files/294537.got.cif
#   From: 2010.05.17/outbox.cif.g08.bks.cpg/sg12_148_cif.got.tgz:294537.got - 2010.06.03 13:09:07.
