data_PCOD9172621
_publ_section_title
;
Structure prediction by ZEFSAII (Michael W. Deem and Ramdas Pophale) SiO2 
 PCOD9172621
Probable space group: C 2/M
;
_chemical_formula_sum "Si O2"
_cell_formula_units_Z 56
_cell_length_a 27.681464
_cell_length_b 8.310066
_cell_length_c 14.964091
_cell_angle_alpha 90.000000
_cell_angle_beta 103.080995
_cell_angle_gamma 90.000000
_cell_volume 3352.938651
_symmetry_space_group_name_H-M "C 2/M"
_symmetry_group_IT_number 12
_symmetry_cell_setting 'monoclinic'
loop_
_space_group_symop_operation_xyz
x,y,z
-x,y,-z
-x,-y,-z
x,-y,z
1/2+x,1/2+y,z
1/2-x,1/2+y,-z
1/2-x,1/2-y,-z
1/2+x,1/2-y,z
loop_
_atom_site_type_symbol
_atom_site_label
_atom_site_fract_x
_atom_site_fract_y
_atom_site_fract_z
Si Si1 0.640225 0.196132 0.434540
Si Si2 0.282951 0.188851 0.387853
Si Si3 0.943508 0.694902 0.460758
Si Si4 0.681503 0.190369 0.891779
Si Si5 0.366686 0.687304 0.294877
Si Si6 0.294932 0.690267 0.909505
Si Si7 0.319087 0.811444 0.728553
O O1 0.689310 0.245783 0.510653
O O2 0.592628 0.245365 0.472561
O O3 0.644022 0.249252 0.333740
O O4 0.641038 0.000000 0.434717
O O5 0.325159 0.209602 0.329938
O O6 0.235271 0.286470 0.337485
O O7 0.270036 0.000000 0.389717
O O8 0.941991 0.500000 0.455486
O O9 0.918667 0.763119 0.360583
O O10 0.000000 0.744757 0.500000
O O11 0.641604 0.276213 0.812471
O O12 0.737159 0.245947 0.886046
O O13 0.678219 0.000000 0.875529
O O14 0.678476 0.227708 0.995445
O O15 0.357427 0.500000 0.308769
O O16 0.294061 0.500000 0.925501
O O17 0.318505 0.725837 0.823595
O O18 0.327736 0.000000 0.747323
#
# Coordination Sequence:
#
# PCOD9172621 Si02
#       7
#     8   8   8   8   8   8   8
#     4   8  17  30  45  67  93 122 159 197 234 281
#     4  10  18  30  44  62  92 128 166 199 227 271
#     4   9  18  35  56  74  95 124 159 200 243 285
#     4  10  19  32  48  66  93 127 164 202 235 277
#     4  11  20  30  48  72  99 127 158 197 241 287
#     4  10  20  31  45  65  94 129 165 202 233 274
#     4  11  19  28  43  65  95 129 161 194 234 278
#
# _framework density 16.701765999999999
#
# number of rings (size 3 to 8) (size 9 to 14) (size 15 to 20)
#    0.000    2.143    1.429    4.286    0.000    1.429 
#    0.000    6.429    0.000    0.000    0.000    1.000 
#    0.000    8.000    0.000    0.000    0.000    0.000 
#
# Total GULP energy -156188.076404 kJ/mol
# GULP energy per Si atom -5578.145586 kJ/mol
# Density = 1.666375 g / cm^3
# Si number density = 16.701766 Si / 1000 Ang^3
#
#
#
# Elastic Constant Matrix: (Units=GPa)
#
#
# Indices 1 2 3 4 5 6 
#
# 1 53.9992 2.9297 42.9140 0.0000 6.7927 0.0000
# 2 2.9297 28.5763 10.0479 0.0000 2.8986 0.0000
# 3 42.9140 10.0479 120.9476 0.0000 -4.8193 0.0000
# 4 0.0000 0.0000 0.0000 24.6382 0.0000 1.3164
# 5 6.7927 2.8986 -4.8193 0.0000 20.6494 0.0000
# 6 0.0000 0.0000 0.0000 1.3164 0.0000 10.7831
#
#
#
# Elastic Compliance Matrix: (Units=1/GPa)
#
#
# Indices 1 2 3 4 5 6 
#
# 1 0.028498 0.002102 -0.010771 0.000000 -0.012183 0.000000
# 2 0.002102 0.036907 -0.004084 0.000000 -0.006825 0.000000
# 3 -0.010771 -0.004084 0.012711 0.000000 0.007083 0.000000
# 4 0.000000 0.000000 0.000000 0.040854 0.000000 -0.004988
# 5 -0.012183 -0.006825 0.007083 0.000000 0.055046 0.000000
# 6 0.000000 0.000000 0.000000 -0.004988 0.000000 0.093347
#
#
# Mechanical properties :
#
#
# Convention : Reuss Voigt Hill
#
# Bulk Modulus (GPa) = 19.00831 35.03406 27.02118
# Shear Modulus (GPa) = 16.10793 21.05624 18.58208
#
# Velocity S-wave (km/s) = 3.10892 3.55451 3.33916
# Velocity P-wave (km/s) = 4.92878 6.15369 5.57498
#
# Compressibility (1/GPa) = 0.05260858
#
# Stress axis : x y z
#
# Youngs Moduli (GPa) = 35.09078 27.09531 78.66957
#
# Poissons Ratio (x) = -0.05694 0.84738
# Poissons Ratio (y) = -0.07375 0.32126
# Poissons Ratio (z) = 0.37798 0.11065
#
# Static dielectric constant tensor:
#      x y z
#    x 1.553940 0.000000 -0.021080 
#    y 0.000000 1.561000 0.000000 
#    z -0.021080 0.000000 1.588150 
# 
# From -- ./inp_files/243015.got.cif
#   From: 2010.05.17/outbox.cif.g08.bks.cpg/sg12_122_cif.got.tgz:243015.got - 2010.06.03 13:09:07.
