data_PCOD9172638
_publ_section_title
;
Structure prediction by ZEFSAII (Michael W. Deem and Ramdas Pophale) SiO2 
 PCOD9172638
Probable space group: C 2/M
;
_chemical_formula_sum "Si O2"
_cell_formula_units_Z 48
_cell_length_a 17.981449
_cell_length_b 14.362147
_cell_length_c 9.217922
_cell_angle_alpha 90.000000
_cell_angle_beta 61.333831
_cell_angle_gamma 90.000000
_cell_volume 2088.763865
_symmetry_space_group_name_H-M "C 2/M"
_symmetry_group_IT_number 12
_symmetry_cell_setting 'monoclinic'
loop_
_space_group_symop_operation_xyz
x,y,z
-x,y,-z
-x,-y,-z
x,-y,z
1/2+x,1/2+y,z
1/2-x,1/2+y,-z
1/2-x,1/2-y,-z
1/2+x,1/2-y,z
loop_
_atom_site_type_symbol
_atom_site_label
_atom_site_fract_x
_atom_site_fract_y
_atom_site_fract_z
Si Si1 0.392920 0.800228 0.159200
Si Si2 0.367841 0.794503 0.837650
Si Si3 0.611490 0.600260 0.800408
Si Si4 0.195612 0.896271 0.033500
Si Si5 0.533461 0.106260 0.655794
Si Si6 0.213686 0.393331 0.535880
O O1 0.430182 0.700976 0.178893
O O2 0.449189 0.876810 0.187996
O O3 0.301350 0.821091 0.319681
O O4 0.381545 0.801415 0.999882
O O5 0.287166 0.861341 0.891074
O O6 0.455369 0.829074 0.687215
O O7 0.341278 0.687555 0.834637
O O8 0.570574 0.500000 0.801673
O O9 0.637408 0.597555 0.944738
O O10 0.698218 0.608602 0.628210
O O11 0.201290 0.000000 0.092921
O O12 0.630290 0.124268 0.513348
O O13 0.510242 0.000000 0.650150
O O14 0.203949 0.500000 0.598550
#
# Coordination Sequence:
#
# PCOD9172638 Si02
#       6
#     8   8   8   8   8   8
#     4   9  17  27  45  67  88 113 141 177 219 251
#     4  10  18  30  45  65  89 112 146 176 216 259
#     4   9  16  30  45  62  90 117 146 175 206 254
#     4   9  19  31  46  63  85 117 146 178 211 250
#     4   9  18  28  43  68  91 111 137 179 223 256
#     4   8  16  27  43  67  89 112 140 175 219 254
#
# _framework density 22.9801
#
# number of rings (size 3 to 8) (size 9 to 14) (size 15 to 20)
#    1.000    2.000    0.000    1.500    0.000    3.333 
#    0.000    1.667    0.000    8.000    0.000    0.000 
#    0.000    4.667    0.000    0.000    0.000    0.000 
#
# Total GULP energy -133632.302895 kJ/mol
# GULP energy per Si atom -5568.012621 kJ/mol
# Density = 2.292780 g / cm^3
# Si number density = 22.980100 Si / 1000 Ang^3
#
#
#
# Elastic Constant Matrix: (Units=GPa)
#
#
# Indices 1 2 3 4 5 6 
#
# 1 36.0327 24.2130 16.9429 0.0000 -4.3859 0.0000
# 2 24.2130 141.1723 23.1831 0.0000 -9.5574 0.0000
# 3 16.9429 23.1831 63.7569 0.0000 -19.5570 0.0000
# 4 0.0000 0.0000 0.0000 1.6847 0.0000 -3.1326
# 5 -4.3859 -9.5574 -19.5570 0.0000 40.5855 0.0000
# 6 0.0000 0.0000 0.0000 -3.1326 0.0000 11.9222
#
#
#
# Elastic Compliance Matrix: (Units=1/GPa)
#
#
# Indices 1 2 3 4 5 6 
#
# 1 0.034438 -0.004704 -0.007791 0.000000 -0.001140 0.000000
# 2 -0.004704 0.008186 -0.001515 0.000000 0.000689 0.000000
# 3 -0.007791 -0.001515 0.021049 0.000000 0.008944 0.000000
# 4 0.000000 0.000000 0.000000 1.160680 0.000000 0.304972
# 5 -0.001140 0.000689 0.008944 0.000000 0.028989 0.000000
# 6 0.000000 0.000000 0.000000 0.304972 0.000000 0.164009
#
#
# Mechanical properties :
#
#
# Convention : Reuss Voigt Hill
#
# Bulk Modulus (GPa) = 28.04805 41.07110 34.55957
# Shear Modulus (GPa) = 3.43110 22.61332 13.02221
#
# Velocity S-wave (km/s) = 1.22324 3.14034 2.38307
# Velocity P-wave (km/s) = 3.77186 5.57317 4.75853
#
# Compressibility (1/GPa) = 0.03565310
#
# Stress axis : x y z
#
# Youngs Moduli (GPa) = 29.03741 122.16186 47.50716
#
# Poissons Ratio (x) = 0.57470 0.37012
# Poissons Ratio (y) = 0.13660 0.07197
# Poissons Ratio (z) = 0.22623 0.18507
#
# Static dielectric constant tensor:
#      x y z
#    x 1.898670 0.000000 -0.047240 
#    y 0.000000 1.920540 0.000000 
#    z -0.047240 0.000000 1.947640 
# 
# From -- ./inp_files/166140.got.cif
#   From: 2010.05.17/outbox.cif.g08.bks.cpg/sg12_84_cif.got.tgz:166140.got - 2010.06.03 13:09:07.
