data_PCOD9172674
_publ_section_title
;
Structure prediction by ZEFSAII (Michael W. Deem and Ramdas Pophale) SiO2 
 PCOD9172674
Probable space group: C 2/M
;
_chemical_formula_sum "Si O2"
_cell_formula_units_Z 32
_cell_length_a 19.360083
_cell_length_b 14.050509
_cell_length_c 22.137505
_cell_angle_alpha 90.000000
_cell_angle_beta 17.824748
_cell_angle_gamma 90.000000
_cell_volume 1843.319188
_symmetry_space_group_name_H-M "C 2/M"
_symmetry_group_IT_number 12
_symmetry_cell_setting 'monoclinic'
loop_
_space_group_symop_operation_xyz
x,y,z
-x,y,-z
-x,-y,-z
x,-y,z
1/2+x,1/2+y,z
1/2-x,1/2+y,-z
1/2-x,1/2-y,-z
1/2+x,1/2-y,z
loop_
_atom_site_type_symbol
_atom_site_label
_atom_site_fract_x
_atom_site_fract_y
_atom_site_fract_z
Si Si1 0.354421 0.610007 0.403409
Si Si2 0.960077 0.888990 0.173894
Si Si3 0.901001 0.289680 0.760457
Si Si4 0.263459 0.107579 0.758976
O O1 0.374483 0.500000 0.403873
O O2 0.394044 0.618485 0.298331
O O3 0.530333 0.680396 0.288864
O O4 0.103096 0.650155 0.622790
O O5 0.760064 0.869648 0.292323
O O6 0.026648 0.000000 0.107020
O O7 0.167844 0.820347 0.985669
O O8 0.881016 0.321542 0.707364
O O9 0.354481 0.000000 0.691291
O O10 0.000000 0.105655 0.000000
#
# Coordination Sequence:
#
# PCOD9172674 Si02
#       4
#     8   8   8   8
#     4  10  20  30  44  68  91 117 150 178 214 263
#     4   9  17  30  48  69  91 112 142 185 224 260
#     4  10  18  30  46  65  92 120 143 178 223 261
#     4   8  14  26  46  68  87 111 142 179 223 262
#
# _framework density 17.359988000000001
#
# number of rings (size 3 to 8) (size 9 to 14) (size 15 to 20)
#    0.000    2.750    0.000    4.500    0.000    1.000 
#    0.000    3.750    0.000    6.750    0.000    7.000 
#    0.000    0.000    0.000    0.000    0.000    0.000 
#
# Total GULP energy -89259.651718 kJ/mol
# GULP energy per Si atom -5578.728232 kJ/mol
# Density = 1.732048 g / cm^3
# Si number density = 17.359988 Si / 1000 Ang^3
#
#
#
# Elastic Constant Matrix: (Units=GPa)
#
#
# Indices 1 2 3 4 5 6 
#
# 1 68.3313 43.5524 -0.7429 -0.0400 -10.3991 -0.0014
# 2 43.5524 127.5854 26.7590 0.0399 -19.6123 0.0072
# 3 -0.7429 26.7590 42.9364 0.0061 -10.7257 0.0108
# 4 -0.0400 0.0399 0.0061 15.9100 0.0003 -9.0947
# 5 -10.3991 -19.6123 -10.7257 0.0003 24.2058 -0.0131
# 6 -0.0014 0.0072 0.0108 -9.0947 -0.0131 31.7794
#
#
#
# Elastic Compliance Matrix: (Units=1/GPa)
#
#
# Indices 1 2 3 4 5 6 
#
# 1 0.020258 -0.007396 0.006339 0.000082 0.005519 0.000026
# 2 -0.007396 0.012396 -0.006902 -0.000056 0.003807 -0.000015
# 3 0.006339 -0.006902 0.030343 0.000023 0.010576 0.000002
# 4 0.000082 -0.000056 0.000023 0.075147 0.000011 0.021506
# 5 0.005519 0.003807 0.010576 0.000011 0.051455 0.000020
# 6 0.000026 -0.000015 0.000002 0.021506 0.000020 0.037621
#
#
# Mechanical properties :
#
#
# Convention : Reuss Voigt Hill
#
# Bulk Modulus (GPa) = 21.24163 41.99892 31.62027
# Shear Modulus (GPa) = 19.31759 25.66469 22.49114
#
# Velocity S-wave (km/s) = 3.33943 3.84914 3.60331
# Velocity P-wave (km/s) = 5.20880 6.63325 5.96371
#
# Compressibility (1/GPa) = 0.04707737
#
# Stress axis : x y z
#
# Youngs Moduli (GPa) = 49.36425 80.67427 32.95602
#
# Poissons Ratio (x) = 0.59668 -0.20890
# Poissons Ratio (y) = 0.36511 0.22746
# Poissons Ratio (z) = -0.31290 0.55682
#
# Static dielectric constant tensor:
#      x y z
#    x 1.610620 0.000000 0.017490 
#    y 0.000000 1.563180 0.000010 
#    z 0.017490 0.000010 1.649840 
# 
# From -- ./inp_files/57688.got.cif
#   From: 2010.05.17/outbox.cif.g08.bks.cpg/sg12_29_cif.got.tgz:57688.got - 2010.06.03 13:09:07.
