data_PCOD9172035
_publ_section_title
;
Structure prediction by ZEFSAII (Michael W. Deem and Ramdas Pophale) SiO2 
 PCOD9172035
Probable space group: C 2/M
;
_chemical_formula_sum "Si O2"
_cell_formula_units_Z 64
_cell_length_a 33.244456
_cell_length_b 9.179031
_cell_length_c 35.006203
_cell_angle_alpha 90.000000
_cell_angle_beta 23.638101
_cell_angle_gamma 90.000000
_cell_volume 4283.120545
_symmetry_space_group_name_H-M "C 2/M"
_symmetry_group_IT_number 12
_symmetry_cell_setting 'monoclinic'
loop_
_space_group_symop_operation_xyz
x,y,z
-x,y,-z
-x,-y,-z
x,-y,z
1/2+x,1/2+y,z
1/2-x,1/2+y,-z
1/2-x,1/2-y,-z
1/2+x,1/2-y,z
loop_
_atom_site_type_symbol
_atom_site_label
_atom_site_fract_x
_atom_site_fract_y
_atom_site_fract_z
Si Si1 0.882225 0.332054 0.417958
Si Si2 0.074866 0.667373 0.971468
Si Si3 0.598227 0.672698 0.521088
Si Si4 0.964557 0.325425 0.573561
Si Si5 0.639615 0.331882 0.639318
Si Si6 0.730005 0.326815 0.786662
Si Si7 0.914251 0.826022 0.159734
Si Si8 0.836629 0.673130 0.303383
O O1 0.914862 0.500000 0.388381
O O2 0.921716 0.249631 0.420964
O O3 0.760681 0.332173 0.527993
O O4 0.904883 0.248387 0.358973
O O5 0.089204 0.500000 0.970722
O O6 0.175747 0.739856 0.867706
O O7 0.000000 0.668241 0.000000
O O8 0.017338 0.760120 0.053467
O O9 0.582092 0.500000 0.538186
O O10 0.530346 0.742442 0.547437
O O11 0.715944 0.696109 0.408823
O O12 0.977978 0.500000 0.566645
O O13 0.846874 0.292225 0.680670
O O14 0.000000 0.287851 0.500000
O O15 0.607652 0.500000 0.669685
O O16 0.622037 0.245180 0.693738
O O17 0.719179 0.500000 0.803033
O O18 0.670586 0.295977 0.798863
O O19 0.882561 0.749564 0.226397
O O20 0.921122 0.000000 0.158296
O O21 0.854603 0.500000 0.287426
#
# Coordination Sequence:
#
# PCOD9172035 Si02
#       8
#     8   8   8   8   8   8   8   8
#     4   9  16  27  43  60  81 111 145 180 217 257
#     4   9  17  29  45  64  85 109 139 177 221 266
#     4  10  20  31  43  61  86 117 152 187 220 257
#     4  10  20  33  47  63  86 117 153 189 222 257
#     4   9  16  26  41  61  84 111 143 177 215 259
#     4   9  18  31  46  63  84 113 149 186 221 259
#     4  10  18  29  46  65  86 113 145 180 220 265
#     4  10  19  29  41  61  90 119 147 179 217 262
#
# _framework density 14.942377
#
# number of rings (size 3 to 8) (size 9 to 14) (size 15 to 20)
#    0.000    2.500    0.000    3.000    0.000    8.250 
#    0.000    0.000    0.000    0.000    0.000    0.000 
#    0.000    1.000    0.000    3.750    0.000    5.750 
#
# Total GULP energy -178413.772300 kJ/mol
# GULP energy per Si atom -5575.430384 kJ/mol
# Density = 1.490837 g / cm^3
# Si number density = 14.942377 Si / 1000 Ang^3
#
#
#
# Elastic Constant Matrix: (Units=GPa)
#
#
# Indices 1 2 3 4 5 6 
#
# 1 111.4014 76.1101 59.9068 -0.0020 25.1692 0.0021
# 2 76.1101 112.9951 73.2009 0.0045 23.9626 -0.0020
# 3 59.9068 73.2009 88.9136 -0.0051 20.0752 0.0037
# 4 -0.0020 0.0045 -0.0051 23.7781 0.0035 6.2513
# 5 25.1692 23.9626 20.0752 0.0035 22.3990 -0.0027
# 6 0.0021 -0.0020 0.0037 6.2513 -0.0027 27.4137
#
#
#
# Elastic Compliance Matrix: (Units=1/GPa)
#
#
# Indices 1 2 3 4 5 6 
#
# 1 0.018605 -0.008226 -0.003799 0.000004 -0.008702 -0.000003
# 2 -0.008226 0.023783 -0.013014 -0.000009 -0.004537 0.000006
# 3 -0.003799 -0.013014 0.025592 0.000010 -0.004746 -0.000007
# 4 0.000004 -0.000009 0.000010 0.044738 -0.000013 -0.010202
# 5 -0.008702 -0.004537 -0.004746 -0.000013 0.063530 0.000010
# 6 -0.000003 0.000006 -0.000007 -0.010202 0.000010 0.038805
#
#
# Mechanical properties :
#
#
# Convention : Reuss Voigt Hill
#
# Bulk Modulus (GPa) = 55.85379 81.30507 68.57943
# Shear Modulus (GPa) = 18.44359 21.65764 20.05061
#
# Velocity S-wave (km/s) = 3.51709 3.81124 3.66712
# Velocity P-wave (km/s) = 7.34533 8.59639 7.99537
#
# Compressibility (1/GPa) = 0.01790389
#
# Stress axis : x y z
#
# Youngs Moduli (GPa) = 53.74857 42.04638 39.07463
#
# Poissons Ratio (x) = 0.34585 0.14844
# Poissons Ratio (y) = 0.44211 0.50851
# Poissons Ratio (z) = 0.20418 0.54719
#
# Static dielectric constant tensor:
#      x y z
#    x 1.472260 0.000000 0.004790 
#    y 0.000000 1.500380 0.000000 
#    z 0.004790 0.000000 1.474690 
# 
# From -- ./inp_files/248373.got.cif
#   From: 2010.05.17/outbox.cif.g08.bks.cpg/sg12_125_cif.got.tgz:248373.got - 2010.06.03 13:09:07.
