data_PCOD9172813
_publ_section_title
;
Structure prediction by ZEFSAII (Michael W. Deem and Ramdas Pophale) SiO2 
 PCOD9172813
Probable space group: C 2/M
;
_chemical_formula_sum "Si O2"
_cell_formula_units_Z 64
_cell_length_a 29.423702
_cell_length_b 7.696577
_cell_length_c 17.707232
_cell_angle_alpha 90.000000
_cell_angle_beta 116.289527
_cell_angle_gamma 90.000000
_cell_volume 3595.245528
_symmetry_space_group_name_H-M "C 2/M"
_symmetry_group_IT_number 12
_symmetry_cell_setting 'monoclinic'
loop_
_space_group_symop_operation_xyz
x,y,z
-x,y,-z
-x,-y,-z
x,-y,z
1/2+x,1/2+y,z
1/2-x,1/2+y,-z
1/2-x,1/2-y,-z
1/2+x,1/2-y,z
loop_
_atom_site_type_symbol
_atom_site_label
_atom_site_fract_x
_atom_site_fract_y
_atom_site_fract_z
Si Si1 0.464046 0.699047 0.250865
Si Si2 0.078998 0.288169 0.344342
Si Si3 0.260424 0.292397 0.419434
Si Si4 0.956664 0.798399 0.411544
Si Si5 0.625948 0.796704 0.538226
Si Si6 0.074811 0.208149 0.098745
Si Si7 0.157251 0.292258 0.273843
Si Si8 0.469047 0.713246 0.091515
O O1 0.444988 0.500000 0.238105
O O2 0.524963 0.704160 0.291387
O O3 0.452843 0.780346 0.324683
O O4 0.449566 0.776049 0.158543
O O5 0.074447 0.500000 0.338348
O O6 0.099547 0.237360 0.441368
O O7 0.119329 0.230954 0.311668
O O8 0.262340 0.500000 0.415710
O O9 0.250000 0.250000 0.500000
O O10 0.314314 0.226289 0.429668
O O11 0.213306 0.226013 0.334298
O O12 0.902993 0.791742 0.414137
O O13 0.000000 0.723638 0.500000
O O14 0.971802 0.000000 0.410707
O O15 0.615375 0.000000 0.538995
O O16 0.128341 0.254260 0.174935
O O17 0.026888 0.269878 0.114408
O O18 0.071217 0.000000 0.095404
O O19 0.064151 0.266433 0.005306
O O20 0.160037 0.500000 0.282922
O O21 0.469607 0.500000 0.094811
#
# Coordination Sequence:
#
# PCOD9172813 Si02
#       8
#     8   8   8   8   8   8   8   8
#     4  10  18  30  48  69  96 131 167 197 234 282
#     4  10  19  30  44  66  98 128 160 197 235 280
#     4  11  22  36  52  71  98 129 164 203 241 287
#     4  10  20  32  48  73  98 126 167 204 238 287
#     4  11  22  36  50  68  97 132 167 203 244 282
#     4   9  16  28  47  69  94 125 162 196 232 282
#     4  10  20  33  46  68  99 128 158 195 239 285
#     4   8  15  27  44  69  97 125 158 197 235 277
#
# _framework density 17.801286999999999
#
# number of rings (size 3 to 8) (size 9 to 14) (size 15 to 20)
#    0.000    2.125    3.750    1.500    0.000    2.250 
#    0.000    1.875    0.000    0.000    0.000    0.875 
#    0.000    0.000    0.000    0.000    0.000    0.000 
#
# Total GULP energy -178414.448450 kJ/mol
# GULP energy per Si atom -5575.451514 kJ/mol
# Density = 1.776077 g / cm^3
# Si number density = 17.801287 Si / 1000 Ang^3
#
#
#
# Elastic Constant Matrix: (Units=GPa)
#
#
# Indices 1 2 3 4 5 6 
#
# 1 70.3412 -6.0247 44.0396 0.0000 -10.1493 0.0000
# 2 -6.0247 29.5206 -1.9154 0.0000 -3.2371 0.0000
# 3 44.0396 -1.9154 144.2893 0.0000 -13.8036 0.0000
# 4 0.0000 0.0000 0.0000 12.6896 0.0000 4.0072
# 5 -10.1493 -3.2371 -13.8036 0.0000 30.4781 0.0000
# 6 0.0000 0.0000 0.0000 4.0072 0.0000 15.8441
#
#
#
# Elastic Compliance Matrix: (Units=1/GPa)
#
#
# Indices 1 2 3 4 5 6 
#
# 1 0.018383 0.003877 -0.005158 0.000000 0.004198 0.000000
# 2 0.003877 0.035189 -0.000246 0.000000 0.004917 0.000000
# 3 -0.005158 -0.000246 0.008712 0.000000 0.002202 0.000000
# 4 0.000000 0.000000 0.000000 0.085645 0.000000 -0.021661
# 5 0.004198 0.004917 0.002202 0.000000 0.035728 0.000000
# 6 0.000000 0.000000 0.000000 -0.021661 0.000000 0.068593
#
#
# Mechanical properties :
#
#
# Convention : Reuss Voigt Hill
#
# Bulk Modulus (GPa) = 16.88274 35.15001 26.01638
# Shear Modulus (GPa) = 18.17865 25.67247 21.92556
#
# Velocity S-wave (km/s) = 3.19909 3.80171 3.51334
# Velocity P-wave (km/s) = 4.81146 6.24974 5.57716
#
# Compressibility (1/GPa) = 0.05923208
#
# Stress axis : x y z
#
# Youngs Moduli (GPa) = 54.39674 28.41775 114.78157
#
# Poissons Ratio (x) = -0.11019 0.59203
# Poissons Ratio (y) = -0.21092 0.02823
# Poissons Ratio (z) = 0.28057 0.00699
#
# Static dielectric constant tensor:
#      x y z
#    x 1.663510 0.000000 0.013500 
#    y 0.000000 1.671640 0.000000 
#    z 0.013500 0.000000 1.667790 
# 
# From -- ./inp_files/294587.got.cif
#   From: 2010.05.17/outbox.cif.g08.bks.cpg/sg12_148_cif.got.tgz:294587.got - 2010.06.03 13:09:07.
