data_PCOD9172855
_publ_section_title
;
Structure prediction by ZEFSAII (Michael W. Deem and Ramdas Pophale) SiO2 
 PCOD9172855
Probable space group: C 2/M
;
_chemical_formula_sum "Si O2"
_cell_formula_units_Z 56
_cell_length_a 20.919150
_cell_length_b 8.976510
_cell_length_c 32.115435
_cell_angle_alpha 90.000000
_cell_angle_beta 147.746796
_cell_angle_gamma 90.000000
_cell_volume 3218.336758
_symmetry_space_group_name_H-M "C 2/M"
_symmetry_group_IT_number 12
_symmetry_cell_setting 'monoclinic'
loop_
_space_group_symop_operation_xyz
x,y,z
-x,y,-z
-x,-y,-z
x,-y,z
1/2+x,1/2+y,z
1/2-x,1/2+y,-z
1/2-x,1/2-y,-z
1/2+x,1/2-y,z
loop_
_atom_site_type_symbol
_atom_site_label
_atom_site_fract_x
_atom_site_fract_y
_atom_site_fract_z
Si Si1 0.277925 0.178226 0.668815
Si Si2 0.458220 0.819980 0.157215
Si Si3 0.760583 0.818848 0.904484
Si Si4 0.751421 0.680033 0.197522
Si Si5 0.603509 0.322407 0.650359
Si Si6 0.986018 0.179818 0.082500
Si Si7 0.409867 0.172107 0.490118
O O1 0.415323 0.220859 0.751810
O O2 0.202967 0.214655 0.669514
O O3 0.211902 0.255909 0.593951
O O4 0.270708 0.000000 0.659336
O O5 0.346659 0.772642 0.124109
O O6 0.454422 0.749548 0.109492
O O7 0.456028 0.000000 0.152147
O O8 0.741609 0.770657 0.846600
O O9 0.760579 0.000000 0.903617
O O10 0.887660 0.773835 0.994131
O O11 0.760841 0.500000 0.204254
O O12 0.851130 0.750285 0.282107
O O13 0.620085 0.721461 0.142710
O O14 0.597785 0.500000 0.650585
O O15 0.478418 0.258845 0.564301
O O16 0.981976 0.000000 0.083491
O O17 0.500000 0.179576 0.500000
O O18 0.393521 0.000000 0.492141
#
# Coordination Sequence:
#
# PCOD9172855 Si02
#       7
#     8   8   8   8   8   8   8
#     4   9  17  29  46  70  99 130 161 198 247 297
#     4  10  19  33  52  73 101 134 169 205 248 301
#     4   9  19  34  51  72  99 135 172 208 250 296
#     4  10  19  32  51  73 100 133 171 210 248 293
#     4  10  18  30  48  72 102 131 162 201 249 299
#     4  10  19  32  52  75  99 129 170 215 254 291
#     4   9  17  28  46  73 101 127 159 201 246 292
#
# _framework density 17.400293000000001
#
# number of rings (size 3 to 8) (size 9 to 14) (size 15 to 20)
#    0.000    2.429    1.429    1.714    0.000    4.571 
#    0.000    1.429    0.000    2.571    0.000    0.000 
#    0.000    0.000    0.000    0.000    0.000    0.000 
#
# Total GULP energy -156175.798518 kJ/mol
# GULP energy per Si atom -5577.707090 kJ/mol
# Density = 1.736069 g / cm^3
# Si number density = 17.400293 Si / 1000 Ang^3
#
#
#
# Elastic Constant Matrix: (Units=GPa)
#
#
# Indices 1 2 3 4 5 6 
#
# 1 63.4388 16.4704 31.5411 0.0000 -28.8785 -0.0001
# 2 16.4704 17.5584 33.5103 0.0000 -11.1766 -0.0003
# 3 31.5411 33.5103 140.7894 0.0000 -33.5478 0.0001
# 4 0.0000 0.0000 0.0000 26.3772 0.0000 -4.2705
# 5 -28.8785 -11.1766 -33.5478 0.0000 18.6339 0.0000
# 6 -0.0001 -0.0003 0.0001 -4.2705 0.0000 15.4293
#
#
#
# Elastic Compliance Matrix: (Units=1/GPa)
#
#
# Indices 1 2 3 4 5 6 
#
# 1 0.078592 -0.023281 0.023870 0.000000 0.150812 0.000000
# 2 -0.023281 0.122838 -0.026380 0.000000 -0.009896 0.000003
# 3 0.023870 -0.026380 0.022905 0.000000 0.062408 -0.000001
# 4 0.000000 0.000000 0.000000 0.039690 0.000000 0.010985
# 5 0.150812 -0.009896 0.062408 0.000000 0.393813 0.000000
# 6 0.000000 0.000003 -0.000001 0.010985 0.000000 0.067852
#
#
# Mechanical properties :
#
#
# Convention : Reuss Voigt Hill
#
# Bulk Modulus (GPa) = 5.78860 42.75892 24.27376
# Shear Modulus (GPa) = 5.98905 21.43907 13.71406
#
# Velocity S-wave (km/s) = 1.85726 3.51395 2.81045
# Velocity P-wave (km/s) = 2.81658 6.41021 4.95096
#
# Compressibility (1/GPa) = 0.17275329
#
# Stress axis : x y z
#
# Youngs Moduli (GPa) = 12.72395 8.14078 43.65885
#
# Poissons Ratio (x) = 0.18953 -1.04215
# Poissons Ratio (y) = 0.29623 1.15172
# Poissons Ratio (z) = -0.30372 0.21475
#
# Static dielectric constant tensor:
#      x y z
#    x 1.571080 0.000000 0.006070 
#    y 0.000000 1.584560 0.000000 
#    z 0.006070 0.000000 1.583290 
# 
# From -- ./inp_files/275211.got.cif
#   From: 2010.05.17/outbox.cif.g08.bks.cpg/sg12_138_cif.got.tgz:275211.got - 2010.06.03 13:09:07.
