data_PCOD9172584
_publ_section_title
;
Structure prediction by ZEFSAII (Michael W. Deem and Ramdas Pophale) SiO2 
 PCOD9172584
Probable space group: C 2/M
;
_chemical_formula_sum "Si O2"
_cell_formula_units_Z 56
_cell_length_a 19.558184
_cell_length_b 13.624769
_cell_length_c 9.551387
_cell_angle_alpha 90.000000
_cell_angle_beta 64.148572
_cell_angle_gamma 90.000000
_cell_volume 2290.507729
_symmetry_space_group_name_H-M "C 2/M"
_symmetry_group_IT_number 12
_symmetry_cell_setting 'monoclinic'
loop_
_space_group_symop_operation_xyz
x,y,z
-x,y,-z
-x,-y,-z
x,-y,z
1/2+x,1/2+y,z
1/2-x,1/2+y,-z
1/2-x,1/2-y,-z
1/2+x,1/2-y,z
loop_
_atom_site_type_symbol
_atom_site_label
_atom_site_fract_x
_atom_site_fract_y
_atom_site_fract_z
Si Si1 0.806305 0.812654 0.633675
Si Si2 0.409523 0.304039 0.106549
Si Si3 0.273477 0.894367 0.562661
Si Si4 0.443364 0.388339 0.363986
Si Si5 0.616670 0.315161 0.180171
Si Si6 0.447850 0.111691 0.685195
Si Si7 0.088604 0.394779 0.751062
O O1 0.767725 0.879763 0.550395
O O2 0.767114 0.706148 0.654049
O O3 0.894380 0.814600 0.501581
O O4 0.816165 0.853307 0.780397
O O5 0.406409 0.376033 0.242143
O O6 0.387163 0.196164 0.178061
O O7 0.500000 0.298972 0.000000
O O8 0.370718 0.329530 0.995631
O O9 0.360562 0.896784 0.433972
O O10 0.253843 0.000000 0.642818
O O11 0.435080 0.500000 0.419555
O O12 0.532329 0.360852 0.281785
O O13 0.609281 0.200599 0.233330
O O14 0.500000 0.126437 0.500000
O O15 0.503770 0.116970 0.769899
O O16 0.417146 0.000000 0.703834
O O17 0.096974 0.500000 0.815233
#
# Coordination Sequence:
#
# PCOD9172584 Si02
#       7
#     8   8   8   8   8   8   8
#     4  11  22  38  61  87 110 146 191 237 279 331
#     4  10  20  36  53  83 118 150 185 222 277 340
#     4  10  21  38  61  84 111 147 190 235 281 330
#     4  11  22  38  59  82 115 151 188 231 283 336
#     4  11  22  35  55  86 119 146 183 234 280 333
#     4  10  18  29  52  85 117 147 180 228 287 334
#     4  10  18  33  56  80 113 152 186 224 276 335
#
# _framework density 24.448727000000002
#
# number of rings (size 3 to 8) (size 9 to 14) (size 15 to 20)
#    0.000    1.571    4.286    2.571    0.000    6.857 
#    0.000    0.714    0.000    0.000    0.000    0.000 
#    0.000    0.000    0.000    0.000    0.000    0.000 
#
# Total GULP energy -156492.811976 kJ/mol
# GULP energy per Si atom -5589.028999 kJ/mol
# Density = 2.439308 g / cm^3
# Si number density = 24.448727 Si / 1000 Ang^3
#
#
#
# Elastic Constant Matrix: (Units=GPa)
#
#
# Indices 1 2 3 4 5 6 
#
# 1 84.9683 26.5354 24.0069 0.0000 42.6062 0.0000
# 2 26.5354 119.1152 12.4685 0.0000 6.8824 0.0000
# 3 24.0069 12.4685 69.7858 0.0000 28.4474 0.0000
# 4 0.0000 0.0000 0.0000 8.4554 0.0000 -5.3834
# 5 42.6062 6.8824 28.4474 0.0000 46.1200 0.0000
# 6 0.0000 0.0000 0.0000 -5.3834 0.0000 11.6103
#
#
#
# Elastic Compliance Matrix: (Units=1/GPa)
#
#
# Indices 1 2 3 4 5 6 
#
# 1 0.023867 -0.004196 0.001699 0.000000 -0.022471 0.000000
# 2 -0.004196 0.009300 -0.001647 0.000000 0.003504 0.000000
# 3 0.001699 -0.001647 0.019476 0.000000 -0.013337 0.000000
# 4 0.000000 0.000000 0.000000 0.167806 0.000000 0.077807
# 5 -0.022471 0.003504 -0.013337 0.000000 0.050145 0.000000
# 6 0.000000 0.000000 0.000000 0.077807 0.000000 0.122207
#
#
# Mechanical properties :
#
#
# Convention : Reuss Voigt Hill
#
# Bulk Modulus (GPa) = 22.54527 44.43232 33.48879
# Shear Modulus (GPa) = 12.02290 27.29436 19.65863
#
# Velocity S-wave (km/s) = 2.21997 3.34487 2.83870
# Velocity P-wave (km/s) = 3.97649 5.75592 4.94688
#
# Compressibility (1/GPa) = 0.04435521
#
# Stress axis : x y z
#
# Youngs Moduli (GPa) = 41.89868 107.52761 51.34555
#
# Poissons Ratio (x) = 0.45123 -0.08724
# Poissons Ratio (y) = 0.17582 0.08454
# Poissons Ratio (z) = -0.07119 0.17705
#
# Static dielectric constant tensor:
#      x y z
#    x 2.044750 0.000000 -0.027600 
#    y 0.000000 1.928020 0.000000 
#    z -0.027600 0.000000 1.974760 
# 
# From -- ./inp_files/96286.got.cif
#   From: 2010.05.17/outbox.cif.g08.bks.cpg/sg12_49_cif.got.tgz:96286.got - 2010.06.03 13:09:07.
