data_PCOD9172086
_publ_section_title
;
Structure prediction by ZEFSAII (Michael W. Deem and Ramdas Pophale) SiO2 
 PCOD9172086
Probable space group: C 2/M
;
_chemical_formula_sum "Si O2"
_cell_formula_units_Z 64
_cell_length_a 24.257490
_cell_length_b 18.856689
_cell_length_c 9.171502
_cell_angle_alpha 90.000000
_cell_angle_beta 110.706586
_cell_angle_gamma 90.000000
_cell_volume 3924.196135
_symmetry_space_group_name_H-M "C 2/M"
_symmetry_group_IT_number 12
_symmetry_cell_setting 'monoclinic'
loop_
_space_group_symop_operation_xyz
x,y,z
-x,y,-z
-x,-y,-z
x,-y,z
1/2+x,1/2+y,z
1/2-x,1/2+y,-z
1/2-x,1/2-y,-z
1/2+x,1/2-y,z
loop_
_atom_site_type_symbol
_atom_site_label
_atom_site_fract_x
_atom_site_fract_y
_atom_site_fract_z
Si Si1 0.265754 0.678791 0.344846
Si Si2 0.984046 0.584268 0.316773
Si Si3 0.162068 0.216214 0.313288
Si Si4 0.190478 0.582803 0.481212
Si Si5 0.122913 0.583011 0.978077
Si Si6 0.262718 0.418029 0.091743
Si Si7 0.706974 0.581137 0.212369
Si Si8 0.084193 0.658090 0.239706
O O1 0.213618 0.736787 0.282971
O O2 0.314742 0.709607 0.498845
O O3 0.234562 0.613286 0.400248
O O4 0.287868 0.643246 0.218658
O O5 0.997728 0.500000 0.307431
O O6 0.916460 0.594962 0.203066
O O7 0.000000 0.600101 0.500000
O O8 0.022165 0.632338 0.242677
O O9 0.164794 0.139165 0.244402
O O10 0.101654 0.259404 0.248935
O O11 0.179051 0.500000 0.451972
O O12 0.226891 0.594434 0.662963
O O13 0.130834 0.624817 0.399003
O O14 0.116274 0.500000 0.009547
O O15 0.192164 0.595547 0.019348
O O16 0.098916 0.625772 0.094885
O O17 0.270672 0.500000 0.150405
O O18 0.289862 0.413291 0.957279
O O19 0.692461 0.500000 0.240587
#
# Coordination Sequence:
#
# PCOD9172086 Si02
#       8
#     8   8   8   8   8   8   8   8
#     4   9  16  28  42  63  91 119 155 197 221 273
#     4  10  22  35  48  68  96 126 161 203 238 268
#     4   9  18  31  44  65  90 122 161 190 234 278
#     4   9  15  25  43  62  83 119 158 187 223 269
#     4  10  19  32  47  68  93 124 165 198 226 266
#     4  10  18  29  46  69  95 127 161 193 227 271
#     4   9  19  30  43  64  94 123 153 194 232 275
#     4  11  19  31  48  65  89 126 161 199 232 277
#
# _framework density 16.309072
#
# number of rings (size 3 to 8) (size 9 to 14) (size 15 to 20)
#    0.000    2.375    2.500    2.625    1.750    2.000 
#    0.000    0.000    0.000    0.000    0.000    0.000 
#    0.000    2.500    0.000    0.000    0.000    1.125 
#
# Total GULP energy -178279.028258 kJ/mol
# GULP energy per Si atom -5571.219633 kJ/mol
# Density = 1.627195 g / cm^3
# Si number density = 16.309072 Si / 1000 Ang^3
#
#
#
# Elastic Constant Matrix: (Units=GPa)
#
#
# Indices 1 2 3 4 5 6 
#
# 1 23.7103 13.6371 -0.8153 0.0000 1.7733 0.0000
# 2 13.6371 73.5099 30.3449 0.0000 -1.0449 0.0000
# 3 -0.8153 30.3449 46.4284 0.0000 1.9207 0.0000
# 4 0.0000 0.0000 0.0000 21.2996 0.0000 1.6885
# 5 1.7733 -1.0449 1.9207 0.0000 12.3960 0.0000
# 6 0.0000 0.0000 0.0000 1.6885 0.0000 19.4821
#
#
#
# Elastic Compliance Matrix: (Units=1/GPa)
#
#
# Indices 1 2 3 4 5 6 
#
# 1 0.051339 -0.013988 0.010463 0.000000 -0.010145 0.000000
# 2 -0.013988 0.022591 -0.015270 0.000000 0.006271 0.000000
# 3 0.010463 -0.015270 0.032023 0.000000 -0.007746 0.000000
# 4 0.000000 0.000000 0.000000 0.047274 0.000000 -0.004097
# 5 -0.010145 0.006271 -0.007746 0.000000 0.083851 0.000000
# 6 0.000000 0.000000 0.000000 -0.004097 0.000000 0.051684
#
#
# Mechanical properties :
#
#
# Convention : Reuss Voigt Hill
#
# Bulk Modulus (GPa) = 14.62749 25.55355 20.09052
# Shear Modulus (GPa) = 14.32086 17.33434 15.82760
#
# Velocity S-wave (km/s) = 2.96648 3.26370 3.11863
# Velocity P-wave (km/s) = 4.55211 5.46851 5.03122
#
# Compressibility (1/GPa) = 0.06836444
#
# Stress axis : x y z
#
# Youngs Moduli (GPa) = 19.47826 44.26488 31.22733
#
# Poissons Ratio (x) = 0.61916 -0.32674
# Poissons Ratio (y) = 0.27245 0.47685
# Poissons Ratio (z) = -0.20381 0.67594
#
# Static dielectric constant tensor:
#      x y z
#    x 1.540540 0.000000 0.005800 
#    y 0.000000 1.564850 0.000000 
#    z 0.005800 0.000000 1.601810 
# 
# From -- ./inp_files/97764.got.cif
#   From: 2010.05.17/outbox.cif.g08.bks.cpg/sg12_49_cif.got.tgz:97764.got - 2010.06.03 13:09:07.
