data_PCOD9172727
_publ_section_title
;
Structure prediction by ZEFSAII (Michael W. Deem and Ramdas Pophale) SiO2 
 PCOD9172727
Probable space group: C 2/M
;
_chemical_formula_sum "Si O2"
_cell_formula_units_Z 64
_cell_length_a 25.684782
_cell_length_b 9.141882
_cell_length_c 19.632564
_cell_angle_alpha 90.000000
_cell_angle_beta 64.143643
_cell_angle_gamma 90.000000
_cell_volume 4148.375463
_symmetry_space_group_name_H-M "C 2/M"
_symmetry_group_IT_number 12
_symmetry_cell_setting 'monoclinic'
loop_
_space_group_symop_operation_xyz
x,y,z
-x,y,-z
-x,-y,-z
x,-y,z
1/2+x,1/2+y,z
1/2-x,1/2+y,-z
1/2-x,1/2-y,-z
1/2+x,1/2-y,z
loop_
_atom_site_type_symbol
_atom_site_label
_atom_site_fract_x
_atom_site_fract_y
_atom_site_fract_z
Si Si1 0.501659 0.824071 0.683879
Si Si2 0.386717 0.824662 0.154408
Si Si3 0.362940 0.176247 0.414713
Si Si4 0.204698 0.677742 0.683557
Si Si5 0.489434 0.825062 0.846065
Si Si6 0.667523 0.676656 0.426275
Si Si7 0.436642 0.331368 0.000157
Si Si8 0.549811 0.675877 0.417181
O O1 0.569345 0.787774 0.633555
O O2 0.484566 0.779942 0.770277
O O3 0.464593 0.749731 0.646147
O O4 0.496683 0.000000 0.682369
O O5 0.332221 0.773632 0.230136
O O6 0.444988 0.795422 0.165260
O O7 0.394671 0.749054 0.077078
O O8 0.383806 0.000000 0.146845
O O9 0.327698 0.221722 0.367559
O O10 0.339284 0.252360 0.495725
O O11 0.358219 0.000000 0.423810
O O12 0.202785 0.500000 0.685947
O O13 0.271525 0.721436 0.641651
O O14 0.481602 0.000000 0.854922
O O15 0.445997 0.747177 0.922759
O O16 0.667452 0.500000 0.433569
O O17 0.611926 0.717058 0.412756
O O18 0.420680 0.500000 0.000673
O O19 0.500000 0.325400 0.000000
O O20 0.500000 0.717409 0.500000
O O21 0.547987 0.500000 0.410830
#
# Coordination Sequence:
#
# PCOD9172727 Si02
#       8
#     8   8   8   8   8   8   8   8
#     4  10  19  30  48  70  90 117 154 194 232 267
#     4   9  15  27  46  65  88 120 151 181 220 268
#     4  10  18  30  47  68  92 117 151 194 233 270
#     4   9  17  30  48  68  91 120 156 192 226 269
#     4   9  16  28  45  66  90 117 150 184 222 270
#     4  10  20  33  47  64  89 124 160 192 227 271
#     4   9  17  27  40  64  96 124 147 175 215 268
#     4  10  20  33  46  63  90 123 158 192 229 274
#
# _framework density 15.427725000000001
#
# number of rings (size 3 to 8) (size 9 to 14) (size 15 to 20)
#    0.000    2.500    2.500    0.750    0.000    2.750 
#    0.000    1.250    0.000    0.000    0.000    0.875 
#    0.000    0.000    0.000    0.000    0.000    0.000 
#
# Total GULP energy -178369.772068 kJ/mol
# GULP energy per Si atom -5574.055377 kJ/mol
# Density = 1.539261 g / cm^3
# Si number density = 15.427725 Si / 1000 Ang^3
#
#
#
# Elastic Constant Matrix: (Units=GPa)
#
#
# Indices 1 2 3 4 5 6 
#
# 1 76.6679 24.3332 70.4069 0.0000 -12.0562 -0.0001
# 2 24.3332 19.1933 48.9973 -0.0002 -0.2466 -0.0005
# 3 70.4069 48.9973 181.2965 0.0000 0.4357 0.0000
# 4 0.0000 -0.0002 0.0000 19.9436 0.0000 4.4356
# 5 -12.0562 -0.2466 0.4357 0.0000 16.8455 0.0000
# 6 -0.0001 -0.0005 0.0000 4.4356 0.0000 11.6722
#
#
#
# Elastic Compliance Matrix: (Units=1/GPa)
#
#
# Indices 1 2 3 4 5 6 
#
# 1 0.027642 -0.023443 -0.004446 0.000000 0.019555 -0.000001
# 2 -0.023443 0.188137 -0.041711 0.000000 -0.012945 0.000008
# 3 -0.004446 -0.041711 0.018526 0.000000 -0.004272 -0.000002
# 4 0.000000 0.000000 0.000000 0.054771 0.000000 -0.020814
# 5 0.019555 -0.012945 -0.004272 0.000000 0.073279 -0.000001
# 6 -0.000001 0.000008 -0.000002 -0.020814 -0.000001 0.093583
#
#
# Mechanical properties :
#
#
# Convention : Reuss Voigt Hill
#
# Bulk Modulus (GPa) = 10.51471 62.73695 36.62583
# Shear Modulus (GPa) = 7.97653 18.58694 13.28173
#
# Velocity S-wave (km/s) = 2.27629 3.47475 2.93729
# Velocity P-wave (km/s) = 3.70660 7.54002 5.94099
#
# Compressibility (1/GPa) = 0.09510489
#
# Stress axis : x y z
#
# Youngs Moduli (GPa) = 36.17727 5.31527 53.97960
#
# Poissons Ratio (x) = 0.12461 0.23999
# Poissons Ratio (y) = 0.84810 2.25154
# Poissons Ratio (z) = 0.16084 0.22170
#
# Static dielectric constant tensor:
#      x y z
#    x 1.493990 0.000000 -0.009330 
#    y 0.000000 1.513770 0.000000 
#    z -0.009330 0.000000 1.507450 
# 
# From -- ./inp_files/323616.got.cif
#   From: 2010.05.17/outbox.cif.g08.bks.cpg/sg12_162_cif.got.tgz:323616.got - 2010.06.03 13:09:07.
