data_PCOD9172191
_publ_section_title
;
Structure prediction by ZEFSAII (Michael W. Deem and Ramdas Pophale) SiO2 
 PCOD9172191
Probable space group: C 2/M
;
_chemical_formula_sum "Si O2"
_cell_formula_units_Z 56
_cell_length_a 24.806905
_cell_length_b 7.437394
_cell_length_c 24.313877
_cell_angle_alpha 90.000000
_cell_angle_beta 144.314163
_cell_angle_gamma 90.000000
_cell_volume 2616.794890
_symmetry_space_group_name_H-M "C 2/M"
_symmetry_group_IT_number 12
_symmetry_cell_setting 'monoclinic'
loop_
_space_group_symop_operation_xyz
x,y,z
-x,y,-z
-x,-y,-z
x,-y,z
1/2+x,1/2+y,z
1/2-x,1/2+y,-z
1/2-x,1/2-y,-z
1/2+x,1/2-y,z
loop_
_atom_site_type_symbol
_atom_site_label
_atom_site_fract_x
_atom_site_fract_y
_atom_site_fract_z
Si Si1 0.857774 0.785224 0.599910
Si Si2 0.130021 0.780065 0.698257
Si Si3 0.621959 0.718610 0.931411
Si Si4 0.917975 0.215213 0.769489
Si Si5 0.180393 0.792294 0.860404
Si Si6 0.768224 0.214574 0.324696
Si Si7 0.923929 0.219368 0.538053
O O1 0.750000 0.750000 0.500000
O O2 0.888331 0.714375 0.684585
O O3 0.912218 0.719338 0.591350
O O4 0.871053 0.000000 0.612602
O O5 0.154893 0.715467 0.780075
O O6 0.198323 0.718151 0.706840
O O7 0.024025 0.730674 0.598078
O O8 0.134300 0.000000 0.702751
O O9 0.627342 0.500000 0.935974
O O10 0.521498 0.776678 0.868796
O O11 0.635660 0.781552 0.879440
O O12 0.709766 0.783749 0.038462
O O13 0.836722 0.252283 0.744940
O O14 0.923698 0.000000 0.769728
O O15 0.149692 0.000000 0.833344
O O16 0.838508 0.282257 0.430108
O O17 0.780051 0.000000 0.333583
O O18 0.920857 0.000000 0.536261
#
# Coordination Sequence:
#
# PCOD9172191 Si02
#       7
#     8   8   8   8   8   8   8
#     4  10  18  29  47  71  98 126 157 194 236 282
#     4   9  17  30  50  74  98 125 162 205 246 284
#     4   9  18  33  53  75  98 126 158 196 246 299
#     4  10  20  33  49  70 101 136 162 190 240 296
#     4   9  17  32  54  77  97 120 157 206 250 286
#     4  10  19  31  49  73  99 129 166 204 235 276
#     4   9  16  28  48  73  98 126 161 200 241 284
#
# _framework density 21.400226
#
# number of rings (size 3 to 8) (size 9 to 14) (size 15 to 20)
#    0.000    2.571    1.429    1.286    0.000    5.714 
#    0.000    1.429    0.000   10.286    0.000    0.000 
#    0.000    0.000    0.000    0.000    0.000    0.000 
#
# Total GULP energy -156340.640376 kJ/mol
# GULP energy per Si atom -5583.594299 kJ/mol
# Density = 2.135152 g / cm^3
# Si number density = 21.400226 Si / 1000 Ang^3
#
#
#
# Elastic Constant Matrix: (Units=GPa)
#
#
# Indices 1 2 3 4 5 6 
#
# 1 120.4264 -3.1167 51.1547 -0.0002 27.3462 -0.0004
# 2 -3.1167 65.5175 -9.8751 -0.0005 -5.5754 -0.0007
# 3 51.1547 -9.8751 68.8960 -0.0001 24.7102 -0.0003
# 4 -0.0002 -0.0005 -0.0001 11.4675 0.0000 4.6166
# 5 27.3462 -5.5754 24.7102 0.0000 30.6996 -0.0001
# 6 -0.0004 -0.0007 -0.0003 4.6166 -0.0001 5.9091
#
#
#
# Elastic Compliance Matrix: (Units=1/GPa)
#
#
# Indices 1 2 3 4 5 6 
#
# 1 0.012765 -0.001009 -0.007702 0.000000 -0.005355 0.000000
# 2 -0.001009 0.015726 0.002329 0.000000 0.001881 0.000002
# 3 -0.007702 0.002329 0.025242 0.000000 -0.013033 0.000001
# 4 0.000000 0.000000 0.000000 0.127215 0.000000 -0.099389
# 5 -0.005355 0.001881 -0.013033 0.000000 0.048175 0.000000
# 6 0.000000 0.000002 0.000001 -0.099389 0.000000 0.246881
#
#
# Mechanical properties :
#
#
# Convention : Reuss Voigt Hill
#
# Bulk Modulus (GPa) = 24.40924 36.79620 30.60272
# Shear Modulus (GPa) = 9.95171 24.06036 17.00603
#
# Velocity S-wave (km/s) = 2.15879 3.35670 2.82204
# Velocity P-wave (km/s) = 4.20056 5.67934 4.99498
#
# Compressibility (1/GPa) = 0.04096809
#
# Stress axis : x y z
#
# Youngs Moduli (GPa) = 78.33631 63.58829 39.61665
#
# Poissons Ratio (x) = 0.06418 0.30514
# Poissons Ratio (y) = 0.07907 -0.09227
# Poissons Ratio (z) = 0.60338 -0.14810
#
# Static dielectric constant tensor:
#      x y z
#    x 1.764750 0.000000 0.002740 
#    y 0.000000 1.853640 0.000000 
#    z 0.002740 0.000000 1.745100 
# 
# From -- ./inp_files/164868.got.cif
#   From: 2010.05.17/outbox.cif.g08.bks.cpg/sg12_83_cif.got.tgz:164868.got - 2010.06.03 13:09:07.
