data_PCOD9172309
_publ_section_title
;
Structure prediction by ZEFSAII (Michael W. Deem and Ramdas Pophale) SiO2 
 PCOD9172309
Probable space group: C 2/M
;
_chemical_formula_sum "Si O2"
_cell_formula_units_Z 64
_cell_length_a 26.064169
_cell_length_b 17.722899
_cell_length_c 22.737555
_cell_angle_alpha 90.000000
_cell_angle_beta 158.890331
_cell_angle_gamma 90.000000
_cell_volume 3782.778790
_symmetry_space_group_name_H-M "C 2/M"
_symmetry_group_IT_number 12
_symmetry_cell_setting 'monoclinic'
loop_
_space_group_symop_operation_xyz
x,y,z
-x,y,-z
-x,-y,-z
x,-y,z
1/2+x,1/2+y,z
1/2-x,1/2+y,-z
1/2-x,1/2-y,-z
1/2+x,1/2-y,z
loop_
_atom_site_type_symbol
_atom_site_label
_atom_site_fract_x
_atom_site_fract_y
_atom_site_fract_z
Si Si1 0.330475 0.584622 0.815526
Si Si2 0.286988 0.414583 0.550234
Si Si3 0.443304 0.087670 0.168947
Si Si4 0.844546 0.309787 0.171148
Si Si5 0.894739 0.586758 0.332162
Si Si6 0.047425 0.267247 0.881211
Si Si7 0.681063 0.686031 0.304790
Si Si8 0.082526 0.217062 0.377600
O O1 0.284997 0.500000 0.747219
O O2 0.260483 0.595133 0.804247
O O3 0.285135 0.647590 0.720691
O O4 0.500000 0.585967 0.000000
O O5 0.334427 0.500000 0.595634
O O6 0.334562 0.380388 0.663641
O O7 0.356971 0.364527 0.573514
O O8 0.114394 0.412966 0.363679
O O9 0.364634 0.131482 0.138491
O O10 0.419858 0.143831 0.088355
O O11 0.399623 0.000000 0.116294
O O12 0.909748 0.353495 0.296582
O O13 0.932042 0.234462 0.247280
O O14 0.685024 0.283338 0.014351
O O15 0.911953 0.500000 0.329426
O O16 0.000000 0.597429 0.500000
O O17 0.962794 0.235781 0.846616
O O18 0.938754 0.253612 0.709991
O O19 0.806269 0.737940 0.463799
#
# Coordination Sequence:
#
# PCOD9172309 Si02
#       8
#     8   8   8   8   8   8   8   8
#     4  10  21  34  47  68  98 130 165 206 240 271
#     4  10  18  29  48  73  96 122 161 200 234 283
#     4  10  18  30  48  71  97 126 161 192 235 292
#     4  11  20  32  49  69  99 137 160 190 248 288
#     4  10  21  35  49  71  99 129 172 209 230 268
#     4  10  19  32  46  71 100 128 159 198 241 288
#     4  11  17  32  51  68  94 131 168 194 238 285
#     4  10  18  32  47  70  95 123 165 198 234 287
#
# _framework density 16.918779000000001
#
# number of rings (size 3 to 8) (size 9 to 14) (size 15 to 20)
#    0.000    1.750    3.750    4.500    0.000    0.000 
#    0.000    8.750    0.000    0.000    0.000    0.000 
#    0.000   20.000    0.000    0.000    0.000    0.000 
#
# Total GULP energy -178320.460693 kJ/mol
# GULP energy per Si atom -5572.514397 kJ/mol
# Density = 1.688027 g / cm^3
# Si number density = 16.918779 Si / 1000 Ang^3
#
#
#
# Elastic Constant Matrix: (Units=GPa)
#
#
# Indices 1 2 3 4 5 6 
#
# 1 29.9870 13.0691 -6.8257 -0.0004 2.0775 -0.0004
# 2 13.0691 106.4665 5.7384 -0.0042 -4.5342 -0.0027
# 3 -6.8257 5.7384 28.4632 -0.0014 8.5251 -0.0002
# 4 -0.0004 -0.0042 -0.0014 19.7100 -0.0002 2.9685
# 5 2.0775 -4.5342 8.5251 -0.0002 22.6885 -0.0001
# 6 -0.0004 -0.0027 -0.0002 2.9685 -0.0001 29.6863
#
#
#
# Elastic Compliance Matrix: (Units=1/GPa)
#
#
# Indices 1 2 3 4 5 6 
#
# 1 0.039818 -0.006058 0.013775 0.000000 -0.010032 0.000000
# 2 -0.006058 0.010596 -0.004946 0.000002 0.004531 0.000001
# 3 0.013775 -0.004946 0.045193 0.000002 -0.019231 0.000000
# 4 0.000000 0.000002 0.000002 0.051511 0.000000 -0.005151
# 5 -0.010032 0.004531 -0.019231 0.000000 0.053125 0.000000
# 6 0.000000 0.000001 0.000000 -0.005151 0.000000 0.034201
#
#
# Mechanical properties :
#
#
# Convention : Reuss Voigt Hill
#
# Bulk Modulus (GPa) = 9.88622 20.98667 15.43645
# Shear Modulus (GPa) = 19.03902 24.61262 21.82582
#
# Velocity S-wave (km/s) = 3.35822 3.81826 3.59560
# Velocity P-wave (km/s) = 4.57087 5.64536 5.13629
#
# Compressibility (1/GPa) = 0.10115085
#
# Stress axis : x y z
#
# Youngs Moduli (GPa) = 25.11401 94.37774 22.12708
#
# Poissons Ratio (x) = 0.57170 -0.30480
# Poissons Ratio (y) = 0.15213 0.10944
# Poissons Ratio (z) = -0.34594 0.46677
#
# Static dielectric constant tensor:
#      x y z
#    x 1.581130 0.000000 0.033390 
#    y 0.000000 1.600780 0.000000 
#    z 0.033390 0.000000 1.617260 
# 
# From -- ./inp_files/352291.got.cif
#   From: 2010.05.17/outbox.cif.g08.bks.cpg/sg12_177_cif.got.tgz:352291.got - 2010.06.03 13:09:07.
