data_PCOD9172082
_publ_section_title
;
Structure prediction by ZEFSAII (Michael W. Deem and Ramdas Pophale) SiO2 
 PCOD9172082
Probable space group: C 2/M
;
_chemical_formula_sum "Si O2"
_cell_formula_units_Z 56
_cell_length_a 29.584229
_cell_length_b 24.186364
_cell_length_c 5.111554
_cell_angle_alpha 90.000000
_cell_angle_beta 118.095653
_cell_angle_gamma 90.000000
_cell_volume 3226.505683
_symmetry_space_group_name_H-M "C 2/M"
_symmetry_group_IT_number 12
_symmetry_cell_setting 'monoclinic'
loop_
_space_group_symop_operation_xyz
x,y,z
-x,y,-z
-x,-y,-z
x,-y,z
1/2+x,1/2+y,z
1/2-x,1/2+y,-z
1/2-x,1/2-y,-z
1/2+x,1/2-y,z
loop_
_atom_site_type_symbol
_atom_site_label
_atom_site_fract_x
_atom_site_fract_y
_atom_site_fract_z
Si Si1 0.947981 0.935903 0.475885
Si Si2 0.273329 0.621126 0.561836
Si Si3 0.963768 0.436414 0.651474
Si Si4 0.176935 0.561253 0.190844
Si Si5 0.380738 0.564622 0.774668
Si Si6 0.359167 0.119458 0.410070
Si Si7 0.234657 0.686345 0.956583
O O1 0.920411 0.914323 0.661266
O O2 0.000000 0.910321 0.500000
O O3 0.961111 0.000000 0.579446
O O4 0.907913 0.935325 0.129874
O O5 0.235806 0.568336 0.435448
O O6 0.330274 0.601565 0.656391
O O7 0.264379 0.651331 0.813785
O O8 0.251148 0.661605 0.279608
O O9 0.942590 0.500000 0.605728
O O10 0.918599 0.391400 0.514389
O O11 0.000000 0.433165 0.500000
O O12 0.000000 0.428649 0.000000
O O13 0.157524 0.500000 0.184252
O O14 0.148233 0.602845 0.308020
O O15 0.169006 0.577204 0.867700
O O16 0.368178 0.500000 0.676507
O O17 0.325989 0.174595 0.263427
O O18 0.250000 0.750000 0.000000
#
# Coordination Sequence:
#
# PCOD9172082 Si02
#       7
#     8   8   8   8   8   8   8
#     4   9  17  28  43  65  95 133 168 192 221 270
#     4  10  20  32  49  74  97 123 159 196 249 304
#     4  10  19  30  46  71 104 135 163 196 235 288
#     4  10  18  29  46  69 102 133 157 187 228 292
#     4  10  18  29  46  70 102 130 157 197 242 295
#     4  10  20  32  49  72  97 132 169 199 241 289
#     4  10  21  37  54  72  95 124 166 215 254 297
#
# _framework density 17.356238999999999
#
# number of rings (size 3 to 8) (size 9 to 14) (size 15 to 20)
#    0.000    2.143    0.000    4.286    0.000    2.857 
#    0.000    4.286    0.000    0.000    0.000   10.000 
#    0.000    0.000    0.000    0.000    0.000    0.000 
#
# Total GULP energy -155990.909921 kJ/mol
# GULP energy per Si atom -5571.103926 kJ/mol
# Density = 1.731674 g / cm^3
# Si number density = 17.356239 Si / 1000 Ang^3
#
#
#
# Elastic Constant Matrix: (Units=GPa)
#
#
# Indices 1 2 3 4 5 6 
#
# 1 76.6848 18.9498 12.5261 0.0000 2.9288 0.0000
# 2 18.9498 52.7861 13.7171 0.0000 11.5862 0.0000
# 3 12.5261 13.7171 49.9607 0.0000 -8.9095 0.0000
# 4 0.0000 0.0000 0.0000 11.6727 0.0000 0.9685
# 5 2.9288 11.5862 -8.9095 0.0000 36.8253 0.0000
# 6 0.0000 0.0000 0.0000 0.9685 0.0000 14.7358
#
#
#
# Elastic Compliance Matrix: (Units=1/GPa)
#
#
# Indices 1 2 3 4 5 6 
#
# 1 0.014573 -0.004515 -0.002474 0.000000 -0.000337 0.000000
# 2 -0.004515 0.024423 -0.007190 0.000000 -0.009065 0.000000
# 3 -0.002474 -0.007190 0.024088 0.000000 0.008287 0.000000
# 4 0.000000 0.000000 0.000000 0.086140 0.000000 -0.005662
# 5 -0.000337 -0.009065 0.008287 0.000000 0.032039 0.000000
# 6 0.000000 0.000000 0.000000 -0.005662 0.000000 0.068234
#
#
# Mechanical properties :
#
#
# Convention : Reuss Voigt Hill
#
# Bulk Modulus (GPa) = 28.79691 29.97974 29.38833
# Shear Modulus (GPa) = 17.27528 21.59599 19.43564
#
# Velocity S-wave (km/s) = 3.15832 3.53126 3.34998
# Velocity P-wave (km/s) = 5.47062 5.82555 5.65087
#
# Compressibility (1/GPa) = 0.03472595
#
# Stress axis : x y z
#
# Youngs Moduli (GPa) = 68.61974 40.94464 41.51442
#
# Poissons Ratio (x) = 0.18485 0.10272
# Poissons Ratio (y) = 0.30979 0.29850
# Poissons Ratio (z) = 0.16979 0.29440
#
# Static dielectric constant tensor:
#      x y z
#    x 1.630140 0.000000 0.010660 
#    y 0.000000 1.579210 0.000000 
#    z 0.010660 0.000000 1.581470 
# 
# From -- ./inp_files/29553.got.cif
#   From: 2010.05.17/outbox.cif.g08.bks.cpg/sg12_15_cif.got.tgz:29553.got - 2010.06.03 13:09:07.
