data_PCOD9172251
_publ_section_title
;
Structure prediction by ZEFSAII (Michael W. Deem and Ramdas Pophale) SiO2 
 PCOD9172251
Probable space group: C 2/M
;
_chemical_formula_sum "Si O2"
_cell_formula_units_Z 48
_cell_length_a 29.238101
_cell_length_b 8.908541
_cell_length_c 12.422100
_cell_angle_alpha 90.000000
_cell_angle_beta 110.528937
_cell_angle_gamma 90.000000
_cell_volume 3030.095535
_symmetry_space_group_name_H-M "C 2/M"
_symmetry_group_IT_number 12
_symmetry_cell_setting 'monoclinic'
loop_
_space_group_symop_operation_xyz
x,y,z
-x,y,-z
-x,-y,-z
x,-y,z
1/2+x,1/2+y,z
1/2-x,1/2+y,-z
1/2-x,1/2-y,-z
1/2+x,1/2-y,z
loop_
_atom_site_type_symbol
_atom_site_label
_atom_site_fract_x
_atom_site_fract_y
_atom_site_fract_z
Si Si1 0.512214 0.672768 0.882060
Si Si2 0.585415 0.822338 0.242407
Si Si3 0.750424 0.678617 0.662726
Si Si4 0.170359 0.822077 0.429016
Si Si5 0.780414 0.320442 0.928266
Si Si6 0.384083 0.319013 0.961595
O O1 0.507490 0.500000 0.842333
O O2 0.470820 0.772119 0.792903
O O3 0.500000 0.674930 0.000000
O O4 0.568753 0.719900 0.925968
O O5 0.620151 0.763147 0.365664
O O6 0.605507 0.746413 0.148847
O O7 0.589171 0.000000 0.234656
O O8 0.760032 0.500000 0.654847
O O9 0.791585 0.769167 0.631723
O O10 0.698599 0.711181 0.563661
O O11 0.754391 0.710504 0.791948
O O12 0.162490 0.000000 0.414241
O O13 0.784149 0.500000 0.943308
O O14 0.834111 0.248521 0.964229
O O15 0.750000 0.250000 0.000000
O O16 0.381878 0.500000 0.952503
#
# Coordination Sequence:
#
# PCOD9172251 Si02
#       6
#     8   8   8   8   8   8
#     4   8  16  29  44  64  92 124 158 193 234 287
#     4  11  19  27  43  70 100 128 158 191 236 291
#     4   9  19  33  47  68  94 124 162 201 237 282
#     4  10  18  29  48  69  95 128 159 194 240 286
#     4  11  22  35  51  71  97 128 165 202 238 282
#     4  10  19  32  48  67  93 126 162 200 241 282
#
# _framework density 15.841084
#
# number of rings (size 3 to 8) (size 9 to 14) (size 15 to 20)
#    0.000    2.167    1.667    4.000    0.000    5.000 
#    0.000    0.000    0.000    0.000    0.000    1.167 
#    0.000    9.333    0.000    0.000    0.000    0.000 
#
# Total GULP energy -133821.366563 kJ/mol
# GULP energy per Si atom -5575.890273 kJ/mol
# Density = 1.580503 g / cm^3
# Si number density = 15.841084 Si / 1000 Ang^3
#
#
#
# Elastic Constant Matrix: (Units=GPa)
#
#
# Indices 1 2 3 4 5 6 
#
# 1 105.0469 54.3003 68.6382 0.0000 24.9864 0.0000
# 2 54.3003 79.5673 55.6722 0.0000 20.0733 0.0000
# 3 68.6382 55.6722 88.4980 0.0000 24.0683 0.0000
# 4 0.0000 0.0000 0.0000 20.1279 0.0000 4.7243
# 5 24.9864 20.0733 24.0683 0.0000 30.2420 0.0000
# 6 0.0000 0.0000 0.0000 4.7243 0.0000 25.1041
#
#
#
# Elastic Compliance Matrix: (Units=1/GPa)
#
#
# Indices 1 2 3 4 5 6 
#
# 1 0.020869 -0.004703 -0.011981 0.000000 -0.004587 0.000000
# 2 -0.004703 0.024038 -0.010455 0.000000 -0.003750 0.000000
# 3 -0.011981 -0.010455 0.028829 0.000000 -0.006106 0.000000
# 4 0.000000 0.000000 0.000000 0.051978 0.000000 -0.009782
# 5 -0.004587 -0.003750 -0.006106 0.000000 0.044204 0.000000
# 6 0.000000 0.000000 0.000000 -0.009782 0.000000 0.041675
#
#
# Mechanical properties :
#
#
# Convention : Reuss Voigt Hill
#
# Bulk Modulus (GPa) = 51.38493 70.03707 60.71100
# Shear Modulus (GPa) = 18.35820 21.39490 19.87655
#
# Velocity S-wave (km/s) = 3.40795 3.67903 3.54608
# Velocity P-wave (km/s) = 6.92775 7.89654 7.42795
#
# Compressibility (1/GPa) = 0.01946096
#
# Stress axis : x y z
#
# Youngs Moduli (GPa) = 47.91692 41.60003 34.68687
#
# Poissons Ratio (x) = 0.19563 0.41557
# Poissons Ratio (y) = 0.22533 0.36265
# Poissons Ratio (z) = 0.57407 0.43493
#
# Static dielectric constant tensor:
#      x y z
#    x 1.524080 0.000000 0.042460 
#    y 0.000000 1.528660 0.000000 
#    z 0.042460 0.000000 1.532460 
# 
# From -- ./inp_files/179181.got.cif
#   From: 2010.05.17/outbox.cif.g08.bks.cpg/sg12_90_cif.got.tgz:179181.got - 2010.06.03 13:09:07.
