data_PCOD9172095
_publ_section_title
;
Structure prediction by ZEFSAII (Michael W. Deem and Ramdas Pophale) SiO2 
 PCOD9172095
Probable space group: C 2/M
;
_chemical_formula_sum "Si O2"
_cell_formula_units_Z 64
_cell_length_a 25.606021
_cell_length_b 8.660649
_cell_length_c 19.684573
_cell_angle_alpha 90.000000
_cell_angle_beta 116.404939
_cell_angle_gamma 90.000000
_cell_volume 3909.923174
_symmetry_space_group_name_H-M "C 2/M"
_symmetry_group_IT_number 12
_symmetry_cell_setting 'monoclinic'
loop_
_space_group_symop_operation_xyz
x,y,z
-x,y,-z
-x,-y,-z
x,-y,z
1/2+x,1/2+y,z
1/2-x,1/2+y,-z
1/2-x,1/2-y,-z
1/2+x,1/2-y,z
loop_
_atom_site_type_symbol
_atom_site_label
_atom_site_fract_x
_atom_site_fract_y
_atom_site_fract_z
Si Si1 0.638569 0.183848 0.840344
Si Si2 0.922243 0.686326 0.581147
Si Si3 0.887596 0.315637 0.407256
Si Si4 0.800757 0.685995 0.577505
Si Si5 0.258072 0.815045 0.845484
Si Si6 0.242185 0.185998 0.682052
Si Si7 0.953094 0.817139 0.314606
Si Si8 0.310038 0.684194 0.002547
O O1 0.694855 0.252525 0.833069
O O2 0.582021 0.234901 0.766211
O O3 0.641445 0.250041 0.918507
O O4 0.644238 0.000000 0.845339
O O5 0.927884 0.500000 0.589708
O O6 0.913098 0.722744 0.496150
O O7 0.863935 0.735764 0.587264
O O8 0.980212 0.764321 0.642545
O O9 0.891862 0.500000 0.400166
O O10 0.820253 0.265071 0.365487
O O11 0.922245 0.233461 0.367035
O O12 0.799531 0.500000 0.572167
O O13 0.750000 0.750000 0.500000
O O14 0.785131 0.729456 0.645638
O O15 0.264991 0.775760 0.770392
O O16 0.257971 0.000000 0.853440
O O17 0.306411 0.743398 0.923390
O O18 0.233547 0.000000 0.674898
O O19 0.948089 0.000000 0.303636
O O20 0.309462 0.500000 0.004413
O O21 0.250000 0.750000 0.000000
#
# Coordination Sequence:
#
# PCOD9172095 Si02
#       8
#     8   8   8   8   8   8   8   8
#     4  11  20  32  50  72 101 136 169 206 254 307
#     4  10  22  38  53  73 101 136 177 219 259 305
#     4  11  21  34  53  75 102 136 173 213 259 308
#     4  10  20  36  55  76 101 134 174 218 263 304
#     4  10  18  30  47  73 105 136 170 208 250 302
#     4  10  20  32  52  77 105 137 173 213 256 303
#     4  12  24  36  51  74 103 137 175 215 257 310
#     4  10  18  29  46  70 101 136 169 204 247 302
#
# _framework density 16.368608999999999
#
# number of rings (size 3 to 8) (size 9 to 14) (size 15 to 20)
#    0.000    1.500    2.500    6.000    0.000    3.500 
#    0.000    0.000    0.000    0.000    0.000    0.875 
#    0.000    7.000    0.000    0.000    0.000    0.000 
#
# Total GULP energy -178676.950544 kJ/mol
# GULP energy per Si atom -5583.654705 kJ/mol
# Density = 1.633135 g / cm^3
# Si number density = 16.368609 Si / 1000 Ang^3
#
#
#
# Elastic Constant Matrix: (Units=GPa)
#
#
# Indices 1 2 3 4 5 6 
#
# 1 63.9821 24.9988 51.6245 0.0000 10.8838 0.0000
# 2 24.9988 77.5044 55.0683 0.0000 -1.0892 0.0000
# 3 51.6245 55.0683 152.2088 0.0000 -5.3211 0.0000
# 4 0.0000 0.0000 0.0000 27.6873 0.0000 4.4851
# 5 10.8838 -1.0892 -5.3211 0.0000 15.9031 0.0000
# 6 0.0000 0.0000 0.0000 4.4851 0.0000 18.8127
#
#
#
# Elastic Compliance Matrix: (Units=1/GPa)
#
#
# Indices 1 2 3 4 5 6 
#
# 1 0.028031 -0.002751 -0.009298 0.000000 -0.022483 0.000000
# 2 -0.002751 0.017650 -0.005408 0.000000 0.001282 0.000000
# 3 -0.009298 -0.005408 0.012030 0.000000 0.010018 0.000000
# 4 0.000000 0.000000 0.000000 0.037569 0.000000 -0.008957
# 5 -0.022483 0.001282 0.010018 0.000000 0.081708 0.000000
# 6 0.000000 0.000000 0.000000 -0.008957 0.000000 0.055291
#
#
# Mechanical properties :
#
#
# Convention : Reuss Voigt Hill
#
# Bulk Modulus (GPa) = 43.86370 61.89763 52.88067
# Shear Modulus (GPa) = 18.19559 23.28086 20.73822
#
# Velocity S-wave (km/s) = 3.33771 3.77541 3.56329
# Velocity P-wave (km/s) = 6.45828 7.54334 7.02180
#
# Compressibility (1/GPa) = 0.02279790
#
# Stress axis : x y z
#
# Youngs Moduli (GPa) = 35.67484 56.65649 83.12347
#
# Poissons Ratio (x) = 0.15586 0.77288
# Poissons Ratio (y) = 0.09814 0.44952
# Poissons Ratio (z) = 0.33170 0.30639
#
# Static dielectric constant tensor:
#      x y z
#    x 1.526140 0.000000 -0.016430 
#    y 0.000000 1.549750 0.000000 
#    z -0.016430 0.000000 1.571550 
# 
# From -- ./inp_files/323774.got.cif
#   From: 2010.05.17/outbox.cif.g08.bks.cpg/sg12_162_cif.got.tgz:323774.got - 2010.06.03 13:09:07.
