data_PCOD9172698
_publ_section_title
;
Structure prediction by ZEFSAII (Michael W. Deem and Ramdas Pophale) SiO2 
 PCOD9172698
Probable space group: C 2/M
;
_chemical_formula_sum "Si O2"
_cell_formula_units_Z 50
_cell_length_a 14.968597
_cell_length_b 18.496640
_cell_length_c 7.042323
_cell_angle_alpha 90.000000
_cell_angle_beta 63.777921
_cell_angle_gamma 90.000000
_cell_volume 1749.141762
_symmetry_space_group_name_H-M "C 2/M"
_symmetry_group_IT_number 12
_symmetry_cell_setting 'monoclinic'
loop_
_space_group_symop_operation_xyz
x,y,z
-x,y,-z
-x,-y,-z
x,-y,z
1/2+x,1/2+y,z
1/2-x,1/2+y,-z
1/2-x,1/2-y,-z
1/2+x,1/2-y,z
loop_
_atom_site_type_symbol
_atom_site_label
_atom_site_fract_x
_atom_site_fract_y
_atom_site_fract_z
Si Si1 0.117799 0.581390 0.404194
Si Si2 0.206274 0.841309 0.667021
Si Si3 0.380773 0.870726 0.010018
Si Si4 0.512181 0.733058 0.778698
Si Si5 0.672501 0.655003 0.152893
Si Si6 0.905245 0.000000 0.809378
Si Si7 0.874997 0.000000 0.294214
Si Si8 0.500000 0.000000 0.000000
O O1 0.140016 0.500000 0.449438
O O2 0.174295 0.646152 0.454722
O O3 0.146180 0.584603 0.154956
O O4 0.000000 0.588701 0.500000
O O5 0.172804 0.921537 0.632739
O O6 0.128612 0.786781 0.639399
O O7 0.192885 0.832429 0.908327
O O8 0.464368 0.812641 0.862497
O O9 0.277662 0.830490 0.158316
O O10 0.418631 0.934206 0.110723
O O11 0.428554 0.699586 0.720512
O O12 0.500000 0.695992 0.000000
O O13 0.644559 0.572437 0.216790
O O14 0.023618 0.000000 0.682422
O O15 0.891236 0.000000 0.051108
#
# Coordination Sequence:
#
# PCOD9172698 Si02
#       8
#     8   8   8   8   8   4   4   2
#     4  10  20  35  55  75  96 127 172 216 250 283
#     4   9  16  27  47  73 100 127 158 209 253 291
#     4  11  21  34  49  71 104 137 166 200 242 299
#     4  10  18  30  46  74 106 133 160 196 253 309
#     4   9  17  26  45  70 102 133 159 196 244 300
#     4   9  13  20  37  65  94 126 155 186 236 290
#     4   9  12  20  38  64  97 122 150 190 242 291
#     4  12  22  36  50  68 108 140 168 190 238 306
#
# _framework density 28.585446000000001
#
# number of rings (size 3 to 8) (size 9 to 14) (size 15 to 20)
#    0.000    2.240    4.000    0.960    2.240    0.000 
#    0.000    0.800    0.000    0.000    0.000    0.000 
#    0.000    1.280    0.000    0.000    0.000    0.000 
#
# Total GULP energy -139363.883556 kJ/mol
# GULP energy per Si atom -5574.555342 kJ/mol
# Density = 2.852038 g / cm^3
# Si number density = 28.585446 Si / 1000 Ang^3
#
#
#
# Elastic Constant Matrix: (Units=GPa)
#
#
# Indices 1 2 3 4 5 6 
#
# 1 141.5480 78.4681 45.3516 0.0000 -38.5394 0.0000
# 2 78.4681 224.6541 31.3298 0.0000 -42.2401 0.0000
# 3 45.3516 31.3298 69.3142 0.0000 -8.9723 0.0000
# 4 0.0000 0.0000 0.0000 7.4613 0.0000 -7.1676
# 5 -38.5394 -42.2401 -8.9723 0.0000 62.0562 0.0000
# 6 0.0000 0.0000 0.0000 -7.1676 0.0000 -2.0817
#
#
#
# Elastic Compliance Matrix: (Units=1/GPa)
#
#
# Indices 1 2 3 4 5 6 
#
# 1 0.011518 -0.002314 -0.005878 0.000000 0.004728 0.000000
# 2 -0.002314 0.005826 -0.000807 0.000000 0.002411 0.000000
# 3 -0.005878 -0.000807 0.018439 0.000000 -0.001534 0.000000
# 4 0.000000 0.000000 0.000000 0.031114 0.000000 -0.107128
# 5 0.004728 0.002411 -0.001534 0.000000 0.020470 0.000000
# 6 0.000000 0.000000 0.000000 -0.107128 0.000000 -0.111516
#
#
# Mechanical properties :
#
#
# Convention : Reuss Voigt Hill
#
# Bulk Modulus (GPa) = 56.22883 82.86838 69.54861
# Shear Modulus (GPa) = -22543.23767 32.17827 -11255.52970
#
# Velocity S-wave (km/s) = -88.90098 3.35877 -62.81761
# Velocity P-wave (km/s) = 102.55795 6.64036 72.36725
#
# Compressibility (1/GPa) = 0.01778447
#
# Stress axis : x y z
#
# Youngs Moduli (GPa) = 86.81689 171.65708 54.23216
#
# Poissons Ratio (x) = 0.39729 0.31879
# Poissons Ratio (y) = 0.20093 0.04375
# Poissons Ratio (z) = 0.51033 0.13847
#
# Static dielectric constant tensor:
#      x y z
#    x 2.328930 0.000000 -0.014480 
#    y 0.000000 2.116530 0.000000 
#    z -0.014480 0.000000 2.418670 
# 
# From -- ./inp_files/145448.got.cif
#   From: 2010.05.17/outbox.cif.g08.bks.cpg/sg12_73_cif.got.tgz:145448.got - 2010.06.03 13:09:07.
