data_PCOD9172198
_publ_section_title
;
Structure prediction by ZEFSAII (Michael W. Deem and Ramdas Pophale) SiO2 
 PCOD9172198
Probable space group: C 2/M
;
_chemical_formula_sum "Si O2"
_cell_formula_units_Z 64
_cell_length_a 23.138929
_cell_length_b 9.531021
_cell_length_c 20.600727
_cell_angle_alpha 90.000000
_cell_angle_beta 139.759722
_cell_angle_gamma 90.000000
_cell_volume 2934.904832
_symmetry_space_group_name_H-M "C 2/M"
_symmetry_group_IT_number 12
_symmetry_cell_setting 'monoclinic'
loop_
_space_group_symop_operation_xyz
x,y,z
-x,y,-z
-x,-y,-z
x,-y,z
1/2+x,1/2+y,z
1/2-x,1/2+y,-z
1/2-x,1/2-y,-z
1/2+x,1/2-y,z
loop_
_atom_site_type_symbol
_atom_site_label
_atom_site_fract_x
_atom_site_fract_y
_atom_site_fract_z
Si Si1 0.661967 0.338586 0.599397
Si Si2 0.832648 0.838427 0.047361
Si Si3 0.378531 0.834226 0.309623
Si Si4 0.091063 0.155860 0.266911
Si Si5 0.789340 0.659358 0.474555
Si Si6 0.875099 0.658308 0.817939
Si Si7 0.978236 0.163053 0.286366
Si Si8 0.333161 0.664033 0.903627
O O1 0.630599 0.500000 0.567930
O O2 0.617907 0.250960 0.619897
O O3 0.651180 0.253564 0.522841
O O4 0.768678 0.346459 0.707545
O O5 0.905338 0.830263 0.165910
O O6 0.804826 0.000000 0.015835
O O7 0.750000 0.750000 0.000000
O O8 0.860833 0.792474 0.999645
O O9 0.444166 0.762800 0.313870
O O10 0.275284 0.820009 0.195911
O O11 0.396149 0.000000 0.333281
O O12 0.197365 0.138307 0.355525
O O13 0.071989 0.265780 0.194584
O O14 0.064498 0.202041 0.316964
O O15 0.050716 0.000000 0.221611
O O16 0.821786 0.500000 0.518510
O O17 0.750000 0.750000 0.500000
O O18 0.905423 0.500000 0.852659
O O19 0.878511 0.746128 0.886589
O O20 0.985508 0.000000 0.314157
O O21 0.353365 0.500000 0.910557
#
# Coordination Sequence:
#
# PCOD9172198 Si02
#       8
#     8   8   8   8   8   8   8   8
#     4   9  17  30  49  75 103 129 164 205 244 289
#     4  10  19  31  47  69  97 129 169 213 253 293
#     4  10  18  29  47  72 101 132 168 208 251 291
#     4   9  19  35  52  72 100 133 165 199 242 298
#     4  10  19  33  55  81 106 130 160 199 245 294
#     4   9  17  29  48  71  93 124 165 209 250 290
#     4  10  20  33  50  71  98 134 172 206 246 296
#     4   9  17  29  45  67  95 127 164 208 255 296
#
# _framework density 21.806498999999999
#
# number of rings (size 3 to 8) (size 9 to 14) (size 15 to 20)
#    0.000    2.500    1.250    1.500    0.000    5.000 
#    0.000    0.625    0.000    4.500    0.000    5.250 
#    0.000    0.000    0.000    0.000    0.000    0.000 
#
# Total GULP energy -178618.990531 kJ/mol
# GULP energy per Si atom -5581.843454 kJ/mol
# Density = 2.175687 g / cm^3
# Si number density = 21.806499 Si / 1000 Ang^3
#
#
#
# Elastic Constant Matrix: (Units=GPa)
#
#
# Indices 1 2 3 4 5 6 
#
# 1 143.4931 105.5031 40.4002 0.0000 -47.1686 0.0000
# 2 105.5031 168.9289 41.6012 0.0000 -48.1617 0.0000
# 3 40.4002 41.6012 48.2037 0.0000 -22.2542 0.0000
# 4 0.0000 0.0000 0.0000 14.0536 0.0000 -12.7447
# 5 -47.1686 -48.1617 -22.2542 0.0000 50.5817 0.0000
# 6 0.0000 0.0000 0.0000 -12.7447 0.0000 37.2935
#
#
#
# Elastic Compliance Matrix: (Units=1/GPa)
#
#
# Indices 1 2 3 4 5 6 
#
# 1 0.014915 -0.006665 -0.004087 0.000000 0.005764 0.000000
# 2 -0.006665 0.011889 -0.002909 0.000000 0.003825 0.000000
# 3 -0.004087 -0.002909 0.029669 0.000000 0.006473 0.000000
# 4 0.000000 0.000000 0.000000 0.103112 0.000000 0.035238
# 5 0.005764 0.003825 0.006473 0.000000 0.031635 0.000000
# 6 0.000000 0.000000 0.000000 0.035238 0.000000 0.038856
#
#
# Mechanical properties :
#
#
# Convention : Reuss Voigt Hill
#
# Bulk Modulus (GPa) = 34.30331 81.73717 58.02024
# Shear Modulus (GPa) = 18.71848 31.92718 25.32283
#
# Velocity S-wave (km/s) = 2.93301 3.83052 3.41141
# Velocity P-wave (km/s) = 5.21871 7.55832 6.49474
#
# Compressibility (1/GPa) = 0.02915170
#
# Stress axis : x y z
#
# Youngs Moduli (GPa) = 67.04647 84.10998 33.70507
#
# Poissons Ratio (x) = 0.56061 0.13776
# Poissons Ratio (y) = 0.44688 0.09803
# Poissons Ratio (z) = 0.27403 0.24464
#
# Static dielectric constant tensor:
#      x y z
#    x 1.792900 0.000000 0.048940 
#    y 0.000000 1.763110 0.000000 
#    z 0.048940 0.000000 1.869290 
# 
# From -- ./inp_files/320023.got.cif
#   From: 2010.05.17/outbox.cif.g08.bks.cpg/sg12_161_cif.got.tgz:320023.got - 2010.06.03 13:09:07.
