data_PCOD9172536
_publ_section_title
;
Structure prediction by ZEFSAII (Michael W. Deem and Ramdas Pophale) SiO2 
 PCOD9172536
Probable space group: C 2/M
;
_chemical_formula_sum "Si O2"
_cell_formula_units_Z 56
_cell_length_a 12.276633
_cell_length_b 27.270991
_cell_length_c 16.885035
_cell_angle_alpha 90.000000
_cell_angle_beta 34.444325
_cell_angle_gamma 90.000000
_cell_volume 3197.389308
_symmetry_space_group_name_H-M "C 2/M"
_symmetry_group_IT_number 12
_symmetry_cell_setting 'monoclinic'
loop_
_space_group_symop_operation_xyz
x,y,z
-x,y,-z
-x,-y,-z
x,-y,z
1/2+x,1/2+y,z
1/2-x,1/2+y,-z
1/2-x,1/2-y,-z
1/2+x,1/2-y,z
loop_
_atom_site_type_symbol
_atom_site_label
_atom_site_fract_x
_atom_site_fract_y
_atom_site_fract_z
Si Si1 0.904493 0.054848 0.820162
Si Si2 0.191871 0.307176 0.329755
Si Si3 0.078276 0.557836 0.141001
Si Si4 0.225692 0.198280 0.342083
Si Si5 0.711560 0.101484 0.408826
Si Si6 0.828136 0.612585 0.163789
Si Si7 0.968832 0.642213 0.327418
O O1 0.839868 0.090210 0.788522
O O2 0.131844 0.059701 0.694011
O O3 0.847909 0.000000 0.830658
O O4 0.780088 0.065310 0.973517
O O5 0.280190 0.253457 0.283031
O O6 0.299007 0.352226 0.307585
O O7 0.000000 0.304023 0.500000
O O8 0.122912 0.325959 0.285383
O O9 0.061126 0.500000 0.172590
O O10 0.914403 0.573634 0.175383
O O11 0.056970 0.596942 0.224715
O O12 0.261974 0.160188 0.250161
O O13 0.351774 0.178130 0.339602
O O14 0.000000 0.197375 0.500000
O O15 0.500000 0.089762 0.500000
O O16 0.671421 0.118624 0.522330
O O17 0.000000 0.624051 0.000000
#
# Coordination Sequence:
#
# PCOD9172536 Si02
#       7
#     8   8   8   8   8   8   8
#     4  10  19  32  52  74  98 132 165 196 244 297
#     4   8  18  33  49  70  97 130 163 197 241 291
#     4   9  18  33  52  73  98 130 165 200 242 291
#     4  10  18  29  51  76  96 126 165 201 240 290
#     4   9  19  35  51  70  99 130 164 204 243 285
#     4   9  18  32  49  74 105 129 157 199 244 295
#     4   9  18  33  50  72 100 127 161 204 245 283
#
# _framework density 17.514289000000002
#
# number of rings (size 3 to 8) (size 9 to 14) (size 15 to 20)
#    0.000    3.143    0.000    1.286    0.000    8.857 
#    0.000    6.429    0.000   17.143    0.000    0.000 
#    0.000    0.000    0.000    0.000    0.000    0.000 
#
# Total GULP energy -155868.035891 kJ/mol
# GULP energy per Si atom -5566.715568 kJ/mol
# Density = 1.747443 g / cm^3
# Si number density = 17.514289 Si / 1000 Ang^3
#
#
#
# Elastic Constant Matrix: (Units=GPa)
#
#
# Indices 1 2 3 4 5 6 
#
# 1 73.5328 47.7302 47.1232 -0.0109 21.4204 0.0078
# 2 47.7302 86.1609 38.1013 -0.0012 17.1893 0.0017
# 3 47.1232 38.1013 43.4994 -0.0006 9.0742 -0.0012
# 4 -0.0109 -0.0012 -0.0006 35.4321 0.0078 -14.2805
# 5 21.4204 17.1893 9.0742 0.0078 26.1936 -0.0053
# 6 0.0078 0.0017 -0.0012 -14.2805 -0.0053 23.0168
#
#
#
# Elastic Compliance Matrix: (Units=1/GPa)
#
#
# Indices 1 2 3 4 5 6 
#
# 1 0.059273 -0.002463 -0.056352 0.000015 -0.027334 -0.000020
# 2 -0.002463 0.020397 -0.013825 0.000000 -0.006582 -0.000003
# 3 -0.056352 -0.013825 0.091232 -0.000012 0.023550 0.000022
# 4 0.000015 0.000000 -0.000012 0.037634 -0.000015 0.023349
# 5 -0.027334 -0.006582 0.023550 -0.000015 0.056691 0.000015
# 6 -0.000020 -0.000003 0.000022 0.023349 0.000015 0.057933
#
#
# Mechanical properties :
#
#
# Convention : Reuss Voigt Hill
#
# Bulk Modulus (GPa) = 39.02754 52.12250 45.57502
# Shear Modulus (GPa) = 10.48260 21.61107 16.04684
#
# Velocity S-wave (km/s) = 2.44912 3.51652 3.03019
# Velocity P-wave (km/s) = 5.50719 6.80533 6.19038
#
# Compressibility (1/GPa) = 0.02562293
#
# Stress axis : x y z
#
# Youngs Moduli (GPa) = 16.87097 49.02643 10.96109
#
# Poissons Ratio (x) = 0.12074 0.61768
# Poissons Ratio (y) = 0.04155 0.15154
# Poissons Ratio (z) = 0.95071 0.67779
#
# Static dielectric constant tensor:
#      x y z
#    x 1.604160 0.000000 -0.001660 
#    y 0.000000 1.607700 0.000000 
#    z -0.001660 0.000000 1.583160 
# 
# From -- ./inp_files/209126.got.cif
#   From: 2010.05.17/outbox.cif.g08.bks.cpg/sg12_105_cif.got.tgz:209126.got - 2010.06.03 13:09:07.
