data_PCOD9172555
_publ_section_title
;
Structure prediction by ZEFSAII (Michael W. Deem and Ramdas Pophale) SiO2 
 PCOD9172555
Probable space group: C 2/M
;
_chemical_formula_sum "Si O2"
_cell_formula_units_Z 56
_cell_length_a 19.863770
_cell_length_b 9.107626
_cell_length_c 31.096369
_cell_angle_alpha 90.000000
_cell_angle_beta 149.144437
_cell_angle_gamma 90.000000
_cell_volume 2885.284156
_symmetry_space_group_name_H-M "C 2/M"
_symmetry_group_IT_number 12
_symmetry_cell_setting 'monoclinic'
loop_
_space_group_symop_operation_xyz
x,y,z
-x,y,-z
-x,-y,-z
x,-y,z
1/2+x,1/2+y,z
1/2-x,1/2+y,-z
1/2-x,1/2-y,-z
1/2+x,1/2-y,z
loop_
_atom_site_type_symbol
_atom_site_label
_atom_site_fract_x
_atom_site_fract_y
_atom_site_fract_z
Si Si1 0.650100 0.174572 0.094963
Si Si2 0.924175 0.168958 0.638396
Si Si3 0.619040 0.825942 0.250965
Si Si4 0.109384 0.325914 0.806820
Si Si5 0.489415 0.175009 0.590682
Si Si6 0.709149 0.325557 0.218209
Si Si7 0.308589 0.168972 0.419620
O O1 0.752299 0.244109 0.117261
O O2 0.681515 0.247616 0.158045
O O3 0.669956 0.000000 0.108246
O O4 0.500000 0.203601 0.000000
O O5 0.795109 0.170495 0.597338
O O6 0.030693 0.265273 0.722329
O O7 0.910922 0.236512 0.584001
O O8 0.968098 0.000000 0.659390
O O9 0.487211 0.796956 0.206165
O O10 0.619339 0.741020 0.206387
O O11 0.741021 0.767455 0.346529
O O12 0.631166 0.000000 0.251120
O O13 0.127901 0.500000 0.812813
O O14 0.641627 0.202189 0.684124
O O15 0.442610 0.214361 0.516902
O O16 0.465190 0.000000 0.581985
O O17 0.692369 0.500000 0.204722
O O18 0.319278 0.000000 0.409677
#
# Coordination Sequence:
#
# PCOD9172555 Si02
#       7
#     8   8   8   8   8   8   8
#     4  11  24  42  66  95 122 146 181 235 293 350
#     4  10  18  29  51  80 112 152 196 244 292 342
#     4  10  22  39  59  84 119 159 201 246 288 337
#     4  10  20  37  61  87 116 154 195 237 289 347
#     4  10  20  33  51  78 115 155 198 247 293 341
#     4  11  23  39  61  87 118 158 197 238 292 350
#     4   9  19  34  51  77 114 157 202 244 291 342
#
# _framework density 19.408832
#
# number of rings (size 3 to 8) (size 9 to 14) (size 15 to 20)
#    0.000    1.857    1.429    2.571    0.000    5.143 
#    0.000    3.571    0.000    0.000    0.000    0.000 
#    0.000    0.000    0.000    0.000    0.000    0.000 
#
# Total GULP energy -156457.728350 kJ/mol
# GULP energy per Si atom -5587.776013 kJ/mol
# Density = 1.936466 g / cm^3
# Si number density = 19.408832 Si / 1000 Ang^3
#
#
#
# Elastic Constant Matrix: (Units=GPa)
#
#
# Indices 1 2 3 4 5 6 
#
# 1 80.1894 53.9337 37.5692 0.0000 -1.5249 0.0000
# 2 53.9337 77.5014 54.2483 0.0000 9.6657 0.0000
# 3 37.5692 54.2483 87.7275 0.0001 17.9945 0.0000
# 4 0.0000 0.0000 0.0001 27.8259 0.0000 -3.2613
# 5 -1.5249 9.6657 17.9945 0.0000 20.5122 0.0000
# 6 0.0000 0.0000 0.0000 -3.2613 0.0000 24.1626
#
#
#
# Elastic Compliance Matrix: (Units=1/GPa)
#
#
# Indices 1 2 3 4 5 6 
#
# 1 0.025882 -0.017657 -0.002764 0.000000 0.012669 0.000000
# 2 -0.017657 0.034861 -0.012630 0.000000 -0.006660 0.000000
# 3 -0.002764 -0.012630 0.023430 0.000000 -0.014808 0.000000
# 4 0.000000 0.000000 0.000000 0.036515 0.000000 0.004929
# 5 0.012669 -0.006660 -0.014808 0.000000 0.065822 0.000000
# 6 0.000000 0.000000 0.000000 0.004929 0.000000 0.042052
#
#
# Mechanical properties :
#
#
# Convention : Reuss Voigt Hill
#
# Bulk Modulus (GPa) = 55.33350 59.65786 57.49568
# Shear Modulus (GPa) = 16.62853 21.14460 18.88656
#
# Velocity S-wave (km/s) = 2.93021 3.30423 3.12282
# Velocity P-wave (km/s) = 6.32609 6.73509 6.53380
#
# Compressibility (1/GPa) = 0.01807223
#
# Stress axis : x y z
#
# Youngs Moduli (GPa) = 38.63698 28.68499 42.68026
#
# Poissons Ratio (x) = 0.50648 0.11798
# Poissons Ratio (y) = 0.68220 0.53904
# Poissons Ratio (z) = 0.10680 0.36228
#
# Static dielectric constant tensor:
#      x y z
#    x 1.710090 0.000000 0.033060 
#    y 0.000000 1.642620 0.000000 
#    z 0.033060 0.000000 1.675860 
# 
# From -- ./inp_files/380748.got.cif
#   From: 2010.05.17/outbox.cif.g08.bks.cpg/sg12_191_cif.got.tgz:380748.got - 2010.06.03 13:09:07.
