data_PCOD9172210
_publ_section_title
;
Structure prediction by ZEFSAII (Michael W. Deem and Ramdas Pophale) SiO2 
 PCOD9172210
Probable space group: C 2/M
;
_chemical_formula_sum "Si O2"
_cell_formula_units_Z 56
_cell_length_a 9.797301
_cell_length_b 28.644960
_cell_length_c 14.525674
_cell_angle_alpha 90.000000
_cell_angle_beta 136.085736
_cell_angle_gamma 90.000000
_cell_volume 2827.406624
_symmetry_space_group_name_H-M "C 2/M"
_symmetry_group_IT_number 12
_symmetry_cell_setting 'monoclinic'
loop_
_space_group_symop_operation_xyz
x,y,z
-x,y,-z
-x,-y,-z
x,-y,z
1/2+x,1/2+y,z
1/2-x,1/2+y,-z
1/2-x,1/2-y,-z
1/2+x,1/2-y,z
loop_
_atom_site_type_symbol
_atom_site_label
_atom_site_fract_x
_atom_site_fract_y
_atom_site_fract_z
Si Si1 0.215767 0.097337 0.235331
Si Si2 0.714468 0.625842 0.950640
Si Si3 0.546273 0.055479 0.283041
Si Si4 0.774861 0.444562 0.821907
Si Si5 0.271514 0.222208 0.913128
Si Si6 0.737132 0.682259 0.137400
Si Si7 0.692182 0.444752 0.420766
O O1 0.330206 0.066671 0.216094
O O2 0.278233 0.150148 0.244235
O O3 0.255208 0.079579 0.356702
O O4 0.980820 0.099809 0.108413
O O5 0.804042 0.587885 0.925202
O O6 0.665735 0.672429 0.866131
O O7 0.814663 0.652436 0.086454
O O8 0.604031 0.071146 0.209073
O O9 0.694119 0.073163 0.434262
O O10 0.571970 0.000000 0.291413
O O11 0.807758 0.500000 0.856759
O O12 0.542867 0.440004 0.684206
O O13 0.197345 0.264755 0.814134
O O14 0.500000 0.212173 0.000000
O O15 0.250000 0.250000 0.000000
O O16 0.500000 0.685300 0.000000
O O17 0.735180 0.500000 0.431786
#
# Coordination Sequence:
#
# PCOD9172210 Si02
#       7
#     8   8   8   8   8   8   8
#     4  10  18  29  47  72  98 122 154 197 243 285
#     4   9  18  32  49  71  99 130 159 191 234 285
#     4  10  19  31  48  71  96 124 164 208 241 274
#     4   9  18  31  47  71 101 130 159 192 238 291
#     4   9  17  31  52  73  94 123 161 201 235 272
#     4   8  16  31  49  71  96 121 154 195 234 277
#     4   9  17  31  50  70  94 125 162 204 242 277
#
# _framework density 19.806135000000001
#
# number of rings (size 3 to 8) (size 9 to 14) (size 15 to 20)
#    0.000    2.857    0.000    2.143    0.000    5.714 
#    0.000    1.429    0.000   10.286    0.000   18.000 
#    0.000    0.000    0.000    0.000    0.000    0.000 
#
# Total GULP energy -155874.080047 kJ/mol
# GULP energy per Si atom -5566.931430 kJ/mol
# Density = 1.976106 g / cm^3
# Si number density = 19.806135 Si / 1000 Ang^3
#
#
#
# Elastic Constant Matrix: (Units=GPa)
#
#
# Indices 1 2 3 4 5 6 
#
# 1 142.9232 43.4721 41.0751 0.0000 -19.8767 0.0000
# 2 43.4721 85.2155 36.8129 0.0000 -19.8006 0.0000
# 3 41.0751 36.8129 71.2430 0.0000 -12.0084 0.0000
# 4 0.0000 0.0000 0.0000 7.8816 0.0000 -2.5928
# 5 -19.8767 -19.8006 -12.0084 0.0000 26.2635 0.0000
# 6 0.0000 0.0000 0.0000 -2.5928 0.0000 29.7819
#
#
#
# Elastic Compliance Matrix: (Units=1/GPa)
#
#
# Indices 1 2 3 4 5 6 
#
# 1 0.009218 -0.002358 -0.003489 0.000000 0.003603 0.000000
# 2 -0.002358 0.017677 -0.006316 0.000000 0.008655 0.000000
# 3 -0.003489 -0.006316 0.019572 0.000000 0.001547 0.000000
# 4 0.000000 0.000000 0.000000 0.130619 0.000000 0.011372
# 5 0.003603 0.008655 0.001547 0.000000 0.048035 0.000000
# 6 0.000000 0.000000 0.000000 0.011372 0.000000 0.034567
#
#
# Mechanical properties :
#
#
# Convention : Reuss Voigt Hill
#
# Bulk Modulus (GPa) = 45.16296 60.23354 52.69825
# Shear Modulus (GPa) = 17.15884 24.65350 20.90617
#
# Velocity S-wave (km/s) = 2.94656 3.53192 3.25243
# Velocity P-wave (km/s) = 5.86756 6.86368 6.38508
#
# Compressibility (1/GPa) = 0.02214204
#
# Stress axis : x y z
#
# Youngs Moduli (GPa) = 108.48663 56.56928 51.09285
#
# Poissons Ratio (x) = 0.13339 0.17825
# Poissons Ratio (y) = 0.25581 0.32270
# Poissons Ratio (z) = 0.37848 0.35729
#
# Static dielectric constant tensor:
#      x y z
#    x 1.800940 0.000000 0.002710 
#    y 0.000000 1.755070 0.000000 
#    z 0.002710 0.000000 1.727160 
# 
# From -- ./inp_files/199934.got.cif
#   From: 2010.05.17/outbox.cif.g08.bks.cpg/sg12_100_cif.got.tgz:199934.got - 2010.06.03 13:09:07.
