data_PCOD9172147
_publ_section_title
;
Structure prediction by ZEFSAII (Michael W. Deem and Ramdas Pophale) SiO2 
 PCOD9172147
Probable space group: C 2/M
;
_chemical_formula_sum "Si O2"
_cell_formula_units_Z 64
_cell_length_a 18.009475
_cell_length_b 14.764267
_cell_length_c 11.065387
_cell_angle_alpha 90.000000
_cell_angle_beta 64.944590
_cell_angle_gamma 90.000000
_cell_volume 2665.380189
_symmetry_space_group_name_H-M "C 2/M"
_symmetry_group_IT_number 12
_symmetry_cell_setting 'monoclinic'
loop_
_space_group_symop_operation_xyz
x,y,z
-x,y,-z
-x,-y,-z
x,-y,z
1/2+x,1/2+y,z
1/2-x,1/2+y,-z
1/2-x,1/2-y,-z
1/2+x,1/2-y,z
loop_
_atom_site_type_symbol
_atom_site_label
_atom_site_fract_x
_atom_site_fract_y
_atom_site_fract_z
Si Si1 0.007987 0.599427 0.234520
Si Si2 0.422459 0.755918 0.143147
Si Si3 0.099014 0.791380 0.443687
Si Si4 0.657231 0.902535 0.945183
Si Si5 0.597542 0.601953 0.679640
Si Si6 0.787307 0.103957 0.072519
Si Si7 0.599874 0.393573 0.199820
Si Si8 0.357631 0.104748 0.648137
O O1 0.966820 0.500000 0.269029
O O2 0.064495 0.608916 0.313640
O O3 0.954466 0.685898 0.236771
O O4 0.072685 0.594668 0.079311
O O5 0.352353 0.817510 0.133214
O O6 0.385947 0.662269 0.214784
O O7 0.500000 0.745127 0.000000
O O8 0.126812 0.854260 0.534672
O O9 0.126887 0.833022 0.295171
O O10 0.127271 0.688910 0.448609
O O11 0.000000 0.792880 0.500000
O O12 0.665588 0.000000 0.876513
O O13 0.727468 0.894531 0.995617
O O14 0.626489 0.500000 0.672280
O O15 0.498316 0.603948 0.739020
O O16 0.723858 0.128998 0.220278
O O17 0.810526 0.000000 0.084050
O O18 0.866579 0.145426 0.951171
O O19 0.624244 0.500000 0.199599
O O20 0.352668 0.000000 0.609738
#
# Coordination Sequence:
#
# PCOD9172147 Si02
#       8
#     8   8   8   8   8   8   8   8
#     4   8  13  23  41  66  96 126 152 185 234 291
#     4  10  18  29  47  68  94 126 166 210 254 293
#     4  10  19  31  47  68  96 131 170 205 245 295
#     4   8  14  25  44  72 102 127 154 192 240 297
#     4  10  21  35  49  69  98 131 172 218 254 287
#     4   8  15  29  50  78 107 132 160 197 245 299
#     4   9  17  31  52  75  99 130 168 208 248 291
#     4   9  17  29  45  70 105 135 160 195 242 302
#
# _framework density 24.011582000000001
#
# number of rings (size 3 to 8) (size 9 to 14) (size 15 to 20)
#    0.000    3.000    0.000    3.750    0.000    4.000 
#    0.000    1.250    0.000    0.750    0.000    0.875 
#    0.000    0.000    0.000    1.250    0.000    0.000 
#
# Total GULP energy -178754.686480 kJ/mol
# GULP energy per Si atom -5586.083952 kJ/mol
# Density = 2.395693 g / cm^3
# Si number density = 24.011582 Si / 1000 Ang^3
#
#
#
# Elastic Constant Matrix: (Units=GPa)
#
#
# Indices 1 2 3 4 5 6 
#
# 1 38.0524 20.6662 -0.9470 0.0000 1.2110 0.0000
# 2 20.6662 171.0372 39.1757 0.0000 13.6105 0.0000
# 3 -0.9470 39.1757 80.3691 0.0000 0.8008 0.0000
# 4 0.0000 0.0000 0.0000 40.3886 0.0000 7.2051
# 5 1.2110 13.6105 0.8008 0.0000 12.7988 0.0000
# 6 0.0000 0.0000 0.0000 7.2051 0.0000 18.4955
#
#
#
# Elastic Compliance Matrix: (Units=1/GPa)
#
#
# Indices 1 2 3 4 5 6 
#
# 1 0.028514 -0.004097 0.002318 0.000000 0.001513 0.000000
# 2 -0.004097 0.007820 -0.003784 0.000000 -0.007692 0.000000
# 3 0.002318 -0.003784 0.014285 0.000000 0.002910 0.000000
# 4 0.000000 0.000000 0.000000 0.026609 0.000000 -0.010366
# 5 0.001513 -0.007692 0.002910 0.000000 0.085987 0.000000
# 6 0.000000 0.000000 0.000000 -0.010366 0.000000 0.058105
#
#
# Mechanical properties :
#
#
# Convention : Reuss Voigt Hill
#
# Bulk Modulus (GPa) = 25.31994 45.24985 35.28489
# Shear Modulus (GPa) = 20.35744 29.70749 25.03246
#
# Velocity S-wave (km/s) = 2.91489 3.52122 3.23230
# Velocity P-wave (km/s) = 4.67937 5.95130 5.35325
#
# Compressibility (1/GPa) = 0.03949457
#
# Stress axis : x y z
#
# Youngs Moduli (GPa) = 35.07059 127.87054 70.00234
#
# Poissons Ratio (x) = 0.52384 -0.16225
# Poissons Ratio (y) = 0.14367 0.26487
# Poissons Ratio (z) = -0.08129 0.48382
#
# Static dielectric constant tensor:
#      x y z
#    x 1.953710 0.000000 -0.005940 
#    y 0.000000 1.953350 0.000000 
#    z -0.005940 0.000000 1.968280 
# 
# From -- ./inp_files/167247.got.cif
#   From: 2010.05.17/outbox.cif.g08.bks.cpg/sg12_84_cif.got.tgz:167247.got - 2010.06.03 13:09:07.
