data_PCOD9172188
_publ_section_title
;
Structure prediction by ZEFSAII (Michael W. Deem and Ramdas Pophale) SiO2 
 PCOD9172188
Probable space group: C 2/M
;
_chemical_formula_sum "Si O2"
_cell_formula_units_Z 64
_cell_length_a 31.032626
_cell_length_b 8.789567
_cell_length_c 15.464285
_cell_angle_alpha 90.000000
_cell_angle_beta 79.317699
_cell_angle_gamma 90.000000
_cell_volume 4144.991045
_symmetry_space_group_name_H-M "C 2/M"
_symmetry_group_IT_number 12
_symmetry_cell_setting 'monoclinic'
loop_
_space_group_symop_operation_xyz
x,y,z
-x,y,-z
-x,-y,-z
x,-y,z
1/2+x,1/2+y,z
1/2-x,1/2+y,-z
1/2-x,1/2-y,-z
1/2+x,1/2-y,z
loop_
_atom_site_type_symbol
_atom_site_label
_atom_site_fract_x
_atom_site_fract_y
_atom_site_fract_z
Si Si1 0.791267 0.316412 0.374826
Si Si2 0.532376 0.683617 0.113790
Si Si3 0.439513 0.183493 0.384230
Si Si4 0.123692 0.316941 0.752445
Si Si5 0.401465 0.317571 0.575280
Si Si6 0.805662 0.816606 0.559195
Si Si7 0.539137 0.182012 0.297119
Si Si8 0.435732 0.682921 0.083235
O O1 0.793042 0.500000 0.378743
O O2 0.827211 0.267621 0.291365
O O3 0.805079 0.252569 0.463229
O O4 0.740563 0.271727 0.379913
O O5 0.533643 0.500000 0.120002
O O6 0.546718 0.756371 0.197981
O O7 0.481903 0.727450 0.111302
O O8 0.560236 0.728635 0.018698
O O9 0.408022 0.226721 0.316030
O O10 0.423395 0.259321 0.478399
O O11 0.489530 0.225464 0.343714
O O12 0.437215 0.000000 0.394810
O O13 0.122731 0.500000 0.758558
O O14 0.103753 0.249907 0.847036
O O15 0.403960 0.500000 0.577463
O O16 0.350212 0.271534 0.590442
O O17 0.427040 0.248723 0.646609
O O18 0.805856 0.000000 0.551304
O O19 0.541437 0.000000 0.296667
O O20 0.433827 0.500000 0.086140
#
# Coordination Sequence:
#
# PCOD9172188 Si02
#       8
#     8   8   8   8   8   8   8   8
#     4   9  17  30  48  67  92 122 152 189 233 277
#     4   9  18  33  49  68  93 123 156 191 231 273
#     4  10  20  33  45  65  96 128 161 192 224 268
#     4  10  18  29  47  71  97 126 155 185 229 279
#     4  11  22  33  47  67  92 125 164 199 231 270
#     4   9  18  31  46  67  91 119 156 195 232 272
#     4  11  22  34  48  66  92 127 163 196 229 269
#     4   9  18  31  49  70  95 123 152 189 232 277
#
# _framework density 15.440322999999999
#
# number of rings (size 3 to 8) (size 9 to 14) (size 15 to 20)
#    0.000    2.250    2.500    1.875    0.000    4.500 
#    0.000    1.250    0.000    0.000    0.000    0.875 
#    0.000    0.000    0.000    0.000    0.000    0.000 
#
# Total GULP energy -178458.218246 kJ/mol
# GULP energy per Si atom -5576.819320 kJ/mol
# Density = 1.540518 g / cm^3
# Si number density = 15.440323 Si / 1000 Ang^3
#
#
#
# Elastic Constant Matrix: (Units=GPa)
#
#
# Indices 1 2 3 4 5 6 
#
# 1 112.9761 29.5564 79.7177 0.0000 -15.1875 0.0000
# 2 29.5564 13.9543 31.4008 0.0000 -2.6388 0.0000
# 3 79.7177 31.4008 129.4137 0.0000 -16.5471 0.0000
# 4 0.0000 0.0000 0.0000 27.3083 0.0000 -1.7114
# 5 -15.1875 -2.6388 -16.5471 0.0000 26.5984 0.0000
# 6 0.0000 0.0000 0.0000 -1.7114 0.0000 17.1510
#
#
#
# Elastic Compliance Matrix: (Units=1/GPa)
#
#
# Indices 1 2 3 4 5 6 
#
# 1 0.022098 -0.037059 -0.003778 0.000000 0.006591 0.000000
# 2 -0.037059 0.221946 -0.033587 0.000000 -0.020035 0.000000
# 3 -0.003778 -0.033587 0.019014 0.000000 0.006340 0.000000
# 4 0.000000 0.000000 0.000000 0.036849 0.000000 0.003677
# 5 0.006591 -0.020035 0.006340 0.000000 0.043316 0.000000
# 6 0.000000 0.000000 0.000000 0.003677 0.000000 0.058673
#
#
# Mechanical properties :
#
#
# Convention : Reuss Voigt Hill
#
# Bulk Modulus (GPa) = 8.75562 59.74375 34.24969
# Shear Modulus (GPa) = 8.49165 21.92283 15.20724
#
# Velocity S-wave (km/s) = 2.34768 3.77217 3.14172
# Velocity P-wave (km/s) = 3.60995 7.59932 5.94901
#
# Compressibility (1/GPa) = 0.11421240
#
# Stress axis : x y z
#
# Youngs Moduli (GPa) = 45.25236 4.50560 52.59241
#
# Poissons Ratio (x) = 0.16697 0.19868
# Poissons Ratio (y) = 1.67701 1.76640
# Poissons Ratio (z) = 0.17095 0.15133
#
# Static dielectric constant tensor:
#      x y z
#    x 1.523170 0.000000 -0.019280 
#    y 0.000000 1.520280 0.000000 
#    z -0.019280 0.000000 1.489610 
# 
# From -- ./inp_files/248285.got.cif
#   From: 2010.05.17/outbox.cif.g08.bks.cpg/sg12_125_cif.got.tgz:248285.got - 2010.06.03 13:09:07.
