data_PCOD9172751
_publ_section_title
;
Structure prediction by ZEFSAII (Michael W. Deem and Ramdas Pophale) SiO2 
 PCOD9172751
Probable space group: C 2/M
;
_chemical_formula_sum "Si O2"
_cell_formula_units_Z 56
_cell_length_a 20.264320
_cell_length_b 16.874015
_cell_length_c 8.201431
_cell_angle_alpha 90.000000
_cell_angle_beta 109.945166
_cell_angle_gamma 90.000000
_cell_volume 2636.191595
_symmetry_space_group_name_H-M "C 2/M"
_symmetry_group_IT_number 12
_symmetry_cell_setting 'monoclinic'
loop_
_space_group_symop_operation_xyz
x,y,z
-x,y,-z
-x,-y,-z
x,-y,z
1/2+x,1/2+y,z
1/2-x,1/2+y,-z
1/2-x,1/2-y,-z
1/2+x,1/2-y,z
loop_
_atom_site_type_symbol
_atom_site_label
_atom_site_fract_x
_atom_site_fract_y
_atom_site_fract_z
Si Si1 0.270091 0.409588 0.597685
Si Si2 0.071305 0.912380 0.404950
Si Si3 0.182664 0.797816 0.111341
Si Si4 0.359088 0.585561 0.190317
Si Si5 0.437698 0.913874 0.816133
Si Si6 0.452077 0.740912 0.798043
Si Si7 0.785569 0.368942 0.787265
O O1 0.243238 0.500000 0.582683
O O2 0.352233 0.415212 0.617946
O O3 0.266145 0.361950 0.762686
O O4 0.232886 0.362197 0.420542
O O5 0.090119 0.905200 0.611734
O O6 0.033468 0.834160 0.305134
O O7 0.039310 0.000000 0.348065
O O8 0.126144 0.773186 0.201011
O O9 0.216900 0.712677 0.113935
O O10 0.141123 0.841724 0.933544
O O11 0.372776 0.500000 0.120903
O O12 0.279927 0.583288 0.196181
O O13 0.451236 0.831342 0.730799
O O14 0.363590 0.904416 0.850027
O O15 0.436264 0.000000 0.729395
O O16 0.500000 0.916125 0.000000
O O17 0.500000 0.738605 0.000000
#
# Coordination Sequence:
#
# PCOD9172751 Si02
#       7
#     8   8   8   8   8   8   8
#     4   9  16  28  46  68  94 122 154 193 237 282
#     4   8  16  30  47  68  96 129 158 192 240 285
#     4  10  19  30  47  71  96 122 159 200 233 278
#     4  10  19  32  48  68  98 129 156 191 239 290
#     4   9  17  30  49  73  97 121 156 199 236 276
#     4   9  18  32  50  72  97 127 162 199 238 279
#     4  10  18  30  47  70  97 125 155 190 241 290
#
# _framework density 21.242766
#
# number of rings (size 3 to 8) (size 9 to 14) (size 15 to 20)
#    0.000    2.714    0.000    3.429    0.000    2.000 
#    0.000    0.714    0.000    1.714    0.000    8.000 
#    0.000   28.571    0.000    0.000    0.000    0.000 
#
# Total GULP energy -155962.759558 kJ/mol
# GULP energy per Si atom -5570.098556 kJ/mol
# Density = 2.119442 g / cm^3
# Si number density = 21.242766 Si / 1000 Ang^3
#
#
#
# Elastic Constant Matrix: (Units=GPa)
#
#
# Indices 1 2 3 4 5 6 
#
# 1 52.0106 3.3431 -1.9147 0.0000 17.8105 0.0000
# 2 3.3431 227.1949 66.6246 0.0000 0.6987 0.0000
# 3 -1.9147 66.6246 57.2476 0.0000 9.0841 0.0000
# 4 0.0000 0.0000 0.0000 34.0663 0.0000 10.6236
# 5 17.8105 0.6987 9.0841 0.0000 19.0390 0.0000
# 6 0.0000 0.0000 0.0000 10.6236 0.0000 54.7719
#
#
#
# Elastic Compliance Matrix: (Units=1/GPa)
#
#
# Indices 1 2 3 4 5 6 
#
# 1 0.031663 -0.003457 0.010562 0.000000 -0.034533 0.000000
# 2 -0.003457 0.007316 -0.009846 0.000000 0.007663 0.000000
# 3 0.010562 -0.009846 0.033313 0.000000 -0.025414 0.000000
# 4 0.000000 0.000000 0.000000 0.031244 0.000000 -0.006060
# 5 -0.034533 0.007663 -0.025414 0.000000 0.096672 0.000000
# 6 0.000000 0.000000 0.000000 -0.006060 0.000000 0.019433
#
#
# Mechanical properties :
#
#
# Convention : Reuss Voigt Hill
#
# Bulk Modulus (GPa) = 14.96788 52.50656 33.73722
# Shear Modulus (GPa) = 20.21063 39.46878 29.83971
#
# Velocity S-wave (km/s) = 3.08784 4.31511 3.75200
# Velocity P-wave (km/s) = 4.44685 7.04258 5.88950
#
# Compressibility (1/GPa) = 0.06680973
#
# Stress axis : x y z
#
# Youngs Moduli (GPa) = 31.58238 136.68303 30.01842
#
# Poissons Ratio (x) = 0.47251 -0.31705
# Poissons Ratio (y) = 0.10918 0.29557
# Poissons Ratio (z) = -0.33357 1.34581
#
# Static dielectric constant tensor:
#      x y z
#    x 1.819520 0.000000 0.010790 
#    y 0.000000 1.857740 0.000000 
#    z 0.010790 0.000000 1.745380 
# 
# From -- ./inp_files/96998.got.cif
#   From: 2010.05.17/outbox.cif.g08.bks.cpg/sg12_49_cif.got.tgz:96998.got - 2010.06.03 13:09:07.
