data_PCOD9172018
_publ_section_title
;
Structure prediction by ZEFSAII (Michael W. Deem and Ramdas Pophale) SiO2 
 PCOD9172018
Probable space group: C 2/M
;
_chemical_formula_sum "Si O2"
_cell_formula_units_Z 56
_cell_length_a 20.966066
_cell_length_b 11.591621
_cell_length_c 22.517992
_cell_angle_alpha 90.000000
_cell_angle_beta 153.682398
_cell_angle_gamma 90.000000
_cell_volume 2426.242170
_symmetry_space_group_name_H-M "C 2/M"
_symmetry_group_IT_number 12
_symmetry_cell_setting 'monoclinic'
loop_
_space_group_symop_operation_xyz
x,y,z
-x,y,-z
-x,-y,-z
x,-y,z
1/2+x,1/2+y,z
1/2-x,1/2+y,-z
1/2-x,1/2-y,-z
1/2+x,1/2-y,z
loop_
_atom_site_type_symbol
_atom_site_label
_atom_site_fract_x
_atom_site_fract_y
_atom_site_fract_z
Si Si1 0.049025 0.871076 0.416431
Si Si2 0.270530 0.624080 0.881355
Si Si3 0.379833 0.193870 0.357652
Si Si4 0.430668 0.371922 0.185000
Si Si5 0.419310 0.872875 0.996056
Si Si6 0.787617 0.628988 0.699836
Si Si7 0.892532 0.372897 0.128757
O O1 0.964671 0.784882 0.387622
O O2 0.001382 0.859927 0.308832
O O3 0.216207 0.857508 0.575174
O O4 0.007126 0.000000 0.398633
O O5 0.351096 0.500000 0.956557
O O6 0.197924 0.618441 0.756161
O O7 0.165277 0.630256 0.850533
O O8 0.343710 0.749780 0.939369
O O9 0.500000 0.137741 0.500000
O O10 0.273473 0.269326 0.309824
O O11 0.474803 0.500000 0.199102
O O12 0.467166 0.251810 0.183422
O O13 0.255467 0.373642 0.033850
O O14 0.542696 0.873722 0.148838
O O15 0.343325 0.000000 0.934749
O O16 0.500000 0.871486 0.000000
O O17 0.740069 0.500000 0.681229
O O18 0.962137 0.500000 0.182479
#
# Coordination Sequence:
#
# PCOD9172018 Si02
#       7
#     8   8   8   8   8   8   8
#     4   9  16  26  47  75  98 122 153 192 239 287
#     4  11  22  34  48  68  99 133 161 193 234 281
#     4  10  18  29  45  69  99 129 157 186 231 287
#     4   9  16  28  49  73  94 120 157 194 232 283
#     4  10  20  34  52  70  91 124 165 205 238 271
#     4   9  17  30  46  69  99 124 153 198 243 277
#     4   9  18  31  45  67  99 128 153 190 237 280
#
# _framework density 23.080960999999999
#
# number of rings (size 3 to 8) (size 9 to 14) (size 15 to 20)
#    0.000    2.429    2.857    0.429    0.000    3.429 
#    0.000    0.000    0.000    1.714    0.000    0.000 
#    0.000    0.000    0.000    0.000    0.000    0.000 
#
# Total GULP energy -156037.434586 kJ/mol
# GULP energy per Si atom -5572.765521 kJ/mol
# Density = 2.302843 g / cm^3
# Si number density = 23.080961 Si / 1000 Ang^3
#
#
#
# Elastic Constant Matrix: (Units=GPa)
#
#
# Indices 1 2 3 4 5 6 
#
# 1 50.2503 49.4045 15.5697 0.0003 -26.5875 0.0000
# 2 49.4045 238.5166 49.9867 0.0005 -7.3785 0.0003
# 3 15.5697 49.9867 143.2664 0.0009 -31.3317 0.0006
# 4 0.0003 0.0005 0.0009 26.9732 0.0006 -8.3518
# 5 -26.5875 -7.3785 -31.3317 0.0006 36.8903 0.0002
# 6 0.0000 0.0003 0.0006 -8.3518 0.0002 -18.0787
#
#
#
# Elastic Compliance Matrix: (Units=1/GPa)
#
#
# Indices 1 2 3 4 5 6 
#
# 1 0.048130 -0.010189 0.006712 -0.000001 0.038350 0.000001
# 2 -0.010189 0.006689 -0.003119 0.000000 -0.008655 0.000000
# 3 0.006712 -0.003119 0.010145 0.000000 0.012829 0.000001
# 4 -0.000001 0.000000 0.000000 0.032434 -0.000001 -0.014984
# 5 0.038350 -0.008655 0.012829 -0.000001 0.063912 0.000002
# 6 0.000001 0.000000 0.000001 -0.014984 0.000002 -0.048392
#
#
# Mechanical properties :
#
#
# Convention : Reuss Voigt Hill
#
# Bulk Modulus (GPa) = 19.31640 73.55055 46.43347
# Shear Modulus (GPa) = 34.87483 30.29512 32.58498
#
# Velocity S-wave (km/s) = 3.89135 3.62686 3.76143
# Velocity P-wave (km/s) = 5.34577 7.03380 6.24706
#
# Compressibility (1/GPa) = 0.05176949
#
# Stress axis : x y z
#
# Youngs Moduli (GPa) = 20.77704 149.49598 98.57343
#
# Poissons Ratio (x) = 1.52329 -0.66159
# Poissons Ratio (y) = 0.21171 0.30749
# Poissons Ratio (z) = -0.13945 0.46634
#
# Static dielectric constant tensor:
#      x y z
#    x 1.940500 0.000000 -0.005050 
#    y 0.000000 1.915440 0.000000 
#    z -0.005050 0.000000 1.938620 
# 
# From -- ./inp_files/188014.got.cif
#   From: 2010.05.17/outbox.cif.g08.bks.cpg/sg12_95_cif.got.tgz:188014.got - 2010.06.03 13:09:07.
