data_PCOD9172622
_publ_section_title
;
Structure prediction by ZEFSAII (Michael W. Deem and Ramdas Pophale) SiO2 
 PCOD9172622
Probable space group: C 2/M
;
_chemical_formula_sum "Si O2"
_cell_formula_units_Z 50
_cell_length_a 5.599986
_cell_length_b 31.103260
_cell_length_c 13.325589
_cell_angle_alpha 90.000000
_cell_angle_beta 78.820084
_cell_angle_gamma 90.000000
_cell_volume 2276.976433
_symmetry_space_group_name_H-M "C 2/M"
_symmetry_group_IT_number 12
_symmetry_cell_setting 'monoclinic'
loop_
_space_group_symop_operation_xyz
x,y,z
-x,y,-z
-x,-y,-z
x,-y,z
1/2+x,1/2+y,z
1/2-x,1/2+y,-z
1/2-x,1/2-y,-z
1/2+x,1/2-y,z
loop_
_atom_site_type_symbol
_atom_site_label
_atom_site_fract_x
_atom_site_fract_y
_atom_site_fract_z
Si Si1 0.731655 0.500000 0.855513
Si Si2 0.211238 0.000000 0.270992
Si Si3 0.802465 0.364537 0.129324
Si Si4 0.603748 0.764410 0.883566
Si Si5 0.500000 0.000000 0.500000
Si Si6 0.696699 0.407718 0.877057
Si Si7 0.682686 0.915282 0.374388
Si Si8 0.809822 0.097373 0.645160
O O1 0.503811 0.500000 0.794375
O O2 0.708732 0.455898 0.916949
O O3 0.011952 0.500000 0.792765
O O4 0.193740 0.955155 0.334297
O O5 0.815932 0.313799 0.113343
O O6 0.568616 0.386226 0.095227
O O7 0.743375 0.377401 0.248580
O O8 0.078337 0.381678 0.095093
O O9 0.356550 0.760096 0.837130
O O10 0.500000 0.748641 0.000000
O O11 0.354204 0.037651 0.575732
O O12 0.756038 0.414968 0.751417
O O13 0.421570 0.893489 0.403035
O O14 0.915159 0.893681 0.404611
#
# Coordination Sequence:
#
# PCOD9172622 Si02
#       8
#     4   4   8   8   2   8   8   8
#     4  12  15  24  40  65  89 117 152 208 244 261
#     4  12  14  24  40  61  89 112 154 204 254 256
#     4  10  18  31  51  71  94 128 166 198 244 291
#     4  10  21  37  56  81 109 131 150 186 248 327
#     4  12  22  30  40  62  96 148 174 206 252 300
#     4  10  18  30  45  70  92 131 175 218 236 271
#     4  10  19  28  38  56  88 124 174 205 238 277
#     4  10  18  30  44  63  88 126 170 218 235 272
#
# _framework density 21.958943000000001
#
# number of rings (size 3 to 8) (size 9 to 14) (size 15 to 20)
#    0.000    1.600    6.400    2.400    0.000    1.280 
#    0.000    0.000    0.000    0.000    0.000    6.160 
#    0.000    0.000    0.000  230.400    0.000    0.000 
#
# Total GULP energy -139268.244195 kJ/mol
# GULP energy per Si atom -5570.729768 kJ/mol
# Density = 2.190896 g / cm^3
# Si number density = 21.958943 Si / 1000 Ang^3
#
#
#
# Elastic Constant Matrix: (Units=GPa)
#
#
# Indices 1 2 3 4 5 6 
#
# 1 248.9464 45.6600 38.8199 0.0000 -33.7529 0.0000
# 2 45.6600 100.8244 -1.5121 0.0000 -10.6905 0.0000
# 3 38.8199 -1.5121 70.1580 0.0000 -20.1875 0.0000
# 4 0.0000 0.0000 0.0000 1.2573 0.0000 -4.5629
# 5 -33.7529 -10.6905 -20.1875 0.0000 49.8768 0.0000
# 6 0.0000 0.0000 0.0000 -4.5629 0.0000 33.6694
#
#
#
# Elastic Compliance Matrix: (Units=1/GPa)
#
#
# Indices 1 2 3 4 5 6 
#
# 1 0.005027 -0.002093 -0.002238 0.000000 0.002048 0.000000
# 2 -0.002093 0.011077 0.001893 0.000000 0.001724 0.000000
# 3 -0.002238 0.001893 0.017219 0.000000 0.005861 0.000000
# 4 0.000000 0.000000 0.000000 1.564970 0.000000 0.212084
# 5 0.002048 0.001724 0.005861 0.000000 0.024177 0.000000
# 6 0.000000 0.000000 0.000000 0.212084 0.000000 0.058442
#
#
# Mechanical properties :
#
#
# Convention : Reuss Voigt Hill
#
# Bulk Modulus (GPa) = 35.15182 65.09605 50.12394
# Shear Modulus (GPa) = 2.94938 39.42478 21.18708
#
# Velocity S-wave (km/s) = 1.16019 4.24180 3.10957
# Velocity P-wave (km/s) = 4.22344 7.32798 5.98066
#
# Compressibility (1/GPa) = 0.02844803
#
# Stress axis : x y z
#
# Youngs Moduli (GPa) = 198.90880 90.27429 58.07586
#
# Poissons Ratio (x) = 0.18896 0.12995
# Poissons Ratio (y) = 0.41635 -0.10994
# Poissons Ratio (z) = 0.44509 -0.17089
#
# Static dielectric constant tensor:
#      x y z
#    x 1.925540 0.000000 0.015190 
#    y 0.000000 1.695840 0.000000 
#    z 0.015190 0.000000 1.950100 
# 
# From -- ./inp_files/253445.got.cif
#   From: 2010.05.17/outbox.cif.g08.bks.cpg/sg12_127_cif.got.tgz:253445.got - 2010.06.03 13:09:07.
