data_PCOD9172202
_publ_section_title
;
Structure prediction by ZEFSAII (Michael W. Deem and Ramdas Pophale) SiO2 
 PCOD9172202
Probable space group: C 2/M
;
_chemical_formula_sum "Si O2"
_cell_formula_units_Z 64
_cell_length_a 30.009012
_cell_length_b 7.521148
_cell_length_c 24.390013
_cell_angle_alpha 90.000000
_cell_angle_beta 28.980509
_cell_angle_gamma 90.000000
_cell_volume 2667.180807
_symmetry_space_group_name_H-M "C 2/M"
_symmetry_group_IT_number 12
_symmetry_cell_setting 'monoclinic'
loop_
_space_group_symop_operation_xyz
x,y,z
-x,y,-z
-x,-y,-z
x,-y,z
1/2+x,1/2+y,z
1/2-x,1/2+y,-z
1/2-x,1/2-y,-z
1/2+x,1/2-y,z
loop_
_atom_site_type_symbol
_atom_site_label
_atom_site_fract_x
_atom_site_fract_y
_atom_site_fract_z
Si Si1 0.851777 0.700936 0.301513
Si Si2 0.006745 0.201921 0.057313
Si Si3 0.489458 0.210658 0.791612
Si Si4 0.905176 0.719215 0.771366
Si Si5 0.792569 0.214966 0.167051
Si Si6 0.497937 0.797285 0.440881
Si Si7 0.785555 0.213192 0.054799
Si Si8 0.298223 0.707528 0.619527
O O1 0.826446 0.500000 0.345559
O O2 0.762354 0.779963 0.366590
O O3 0.924951 0.694932 0.172906
O O4 0.918600 0.781919 0.276723
O O5 0.005123 0.000000 0.082045
O O6 0.106102 0.283917 0.955866
O O7 0.000000 0.186910 0.000000
O O8 0.468563 0.279578 0.753384
O O9 0.505910 0.000000 0.771115
O O10 0.389825 0.229161 0.929082
O O11 0.907022 0.500000 0.769800
O O12 0.798819 0.775095 0.892308
O O13 0.944986 0.781800 0.670580
O O14 0.747350 0.254918 0.157404
O O15 0.755859 0.281987 0.264178
O O16 0.796996 0.000000 0.168406
O O17 0.500000 0.716740 0.500000
O O18 0.394127 0.799650 0.529913
O O19 0.533002 0.000000 0.410490
O O20 0.790556 0.000000 0.046814
O O21 0.315863 0.500000 0.589488
#
# Coordination Sequence:
#
# PCOD9172202 Si02
#       8
#     8   8   8   8   8   8   8   8
#     4  10  21  34  49  73 111 152 181 213 263 321
#     4  10  18  29  47  72 104 143 184 224 261 305
#     4  10  20  35  54  78 111 148 182 215 259 321
#     4   9  19  36  58  81 105 138 181 225 270 322
#     4  10  19  31  50  78 111 145 180 221 268 318
#     4  10  21  41  66  85 103 135 178 225 276 327
#     4  10  19  33  55  83 112 141 178 223 269 319
#     4  11  23  36  53  80 112 145 182 226 272 319
#
# _framework density 23.995372
#
# number of rings (size 3 to 8) (size 9 to 14) (size 15 to 20)
#    0.000    2.000    2.500    1.500    0.000    4.000 
#    0.000    1.875    0.000    0.000    0.000    0.000 
#    0.000    0.000    0.000    0.000    0.000    0.000 
#
# Total GULP energy -178380.976242 kJ/mol
# GULP energy per Si atom -5574.405508 kJ/mol
# Density = 2.394076 g / cm^3
# Si number density = 23.995372 Si / 1000 Ang^3
#
#
#
# Elastic Constant Matrix: (Units=GPa)
#
#
# Indices 1 2 3 4 5 6 
#
# 1 182.1251 3.6542 56.8501 -0.0123 -15.4235 0.0070
# 2 3.6542 67.9539 -9.1078 -0.0270 -0.1639 0.0169
# 3 56.8501 -9.1078 62.0528 -0.0084 -5.5016 0.0081
# 4 -0.0123 -0.0270 -0.0084 10.8700 0.0112 -4.1747
# 5 -15.4235 -0.1639 -5.5016 0.0112 42.6537 0.0012
# 6 0.0070 0.0169 0.0081 -4.1747 0.0012 10.3160
#
#
#
# Elastic Compliance Matrix: (Units=1/GPa)
#
#
# Indices 1 2 3 4 5 6 
#
# 1 0.007974 -0.001408 -0.007341 -0.000001 0.001931 0.000002
# 2 -0.001408 0.015265 0.003531 0.000034 0.000005 -0.000013
# 3 -0.007341 0.003531 0.023392 0.000013 0.000376 -0.000014
# 4 -0.000001 0.000034 0.000013 0.108926 -0.000029 0.044081
# 5 0.001931 0.000005 0.000376 -0.000029 0.024191 -0.000016
# 6 0.000002 -0.000013 -0.000014 0.044081 -0.000016 0.114776
#
#
# Mechanical properties :
#
#
# Convention : Reuss Voigt Hill
#
# Bulk Modulus (GPa) = 27.62798 46.10275 36.86537
# Shear Modulus (GPa) = 15.77161 30.15030 22.96095
#
# Velocity S-wave (km/s) = 2.56652 3.54857 3.09672
# Velocity P-wave (km/s) = 4.50795 6.00372 5.30878
#
# Compressibility (1/GPa) = 0.03619518
#
# Stress axis : x y z
#
# Youngs Moduli (GPa) = 125.40830 65.50998 42.74916
#
# Poissons Ratio (x) = 0.09224 0.31381
# Poissons Ratio (y) = 0.17658 -0.15094
# Poissons Ratio (z) = 0.92060 -0.23131
#
# Static dielectric constant tensor:
#      x y z
#    x 2.108380 -0.000130 -0.006200 
#    y -0.000130 1.963140 0.000020 
#    z -0.006200 0.000020 1.889540 
# 
# From -- ./inp_files/353378.got.cif
#   From: 2010.05.17/outbox.cif.g08.bks.cpg/sg12_177_cif.got.tgz:353378.got - 2010.06.03 13:09:07.
