data_PCOD9172626
_publ_section_title
;
Structure prediction by ZEFSAII (Michael W. Deem and Ramdas Pophale) SiO2 
 PCOD9172626
Probable space group: C 2/M
;
_chemical_formula_sum "Si O2"
_cell_formula_units_Z 64
_cell_length_a 24.502940
_cell_length_b 17.799777
_cell_length_c 18.578490
_cell_angle_alpha 90.000000
_cell_angle_beta 28.801303
_cell_angle_gamma 90.000000
_cell_volume 3903.787521
_symmetry_space_group_name_H-M "C 2/M"
_symmetry_group_IT_number 12
_symmetry_cell_setting 'monoclinic'
loop_
_space_group_symop_operation_xyz
x,y,z
-x,y,-z
-x,-y,-z
x,-y,z
1/2+x,1/2+y,z
1/2-x,1/2+y,-z
1/2-x,1/2-y,-z
1/2+x,1/2-y,z
loop_
_atom_site_type_symbol
_atom_site_label
_atom_site_fract_x
_atom_site_fract_y
_atom_site_fract_z
Si Si1 0.503476 0.200431 0.645518
Si Si2 0.889225 0.311492 0.927762
Si Si3 0.116362 0.412121 0.412852
Si Si4 0.993204 0.138201 0.618665
Si Si5 0.835736 0.083663 0.681468
Si Si6 0.202321 0.086931 0.061041
Si Si7 0.760088 0.669258 0.854715
Si Si8 0.428795 0.911335 0.011728
O O1 0.474546 0.204051 0.763318
O O2 0.581351 0.133431 0.525353
O O3 0.547054 0.281019 0.569753
O O4 0.380921 0.194213 0.748263
O O5 0.790524 0.362333 0.004654
O O6 0.827368 0.238524 0.033784
O O7 0.950968 0.359591 0.917552
O O8 0.146129 0.500000 0.390067
O O9 0.209445 0.366520 0.257973
O O10 0.000000 0.411999 0.500000
O O11 0.898640 0.138680 0.664097
O O12 0.922611 0.109178 0.767906
O O13 0.091944 0.086274 0.474486
O O14 0.705343 0.099517 0.819718
O O15 0.845402 0.000000 0.702580
O O16 0.225520 0.000000 0.048150
O O17 0.218166 0.105891 0.959119
O O18 0.446928 0.000000 0.975228
O O19 0.500000 0.892041 0.000000
#
# Coordination Sequence:
#
# PCOD9172626 Si02
#       8
#     8   8   8   8   8   8   8   8
#     4  10  19  28  45  67  99 133 164 197 248 299
#     4  11  19  32  46  72  98 130 171 208 249 304
#     4   9  19  30  41  62  94 136 176 203 235 288
#     4  11  18  28  44  75 105 133 159 194 247 311
#     4  10  20  30  46  72 102 134 167 200 244 302
#     4  11  18  27  45  70 103 136 161 197 249 303
#     4  10  18  30  44  67 100 135 168 200 241 301
#     4  10  21  36  53  72  96 130 171 212 253 296
#
# _framework density 16.394334000000001
#
# number of rings (size 3 to 8) (size 9 to 14) (size 15 to 20)
#    0.000    1.750    3.750    3.000    7.000    3.500 
#    0.000    0.000    0.000    0.750    0.000    0.000 
#    0.000    2.000    0.000    0.250    0.000    0.375 
#
# Total GULP energy -178271.953934 kJ/mol
# GULP energy per Si atom -5570.998560 kJ/mol
# Density = 1.635702 g / cm^3
# Si number density = 16.394334 Si / 1000 Ang^3
#
#
#
# Elastic Constant Matrix: (Units=GPa)
#
#
# Indices 1 2 3 4 5 6 
#
# 1 56.1979 34.5989 29.6708 0.0000 11.1203 0.0000
# 2 34.5989 108.5180 40.2469 0.0000 16.3582 0.0000
# 3 29.6708 40.2469 76.6156 0.0000 27.5846 0.0000
# 4 0.0000 0.0000 0.0000 4.4608 0.0000 10.5330
# 5 11.1203 16.3582 27.5846 0.0000 18.3066 0.0000
# 6 0.0000 0.0000 0.0000 10.5330 0.0000 16.9285
#
#
#
# Elastic Compliance Matrix: (Units=1/GPa)
#
#
# Indices 1 2 3 4 5 6 
#
# 1 0.024649 -0.005361 -0.006696 0.000000 -0.000092 0.000000
# 2 -0.005361 0.012666 -0.003661 0.000000 -0.002544 0.000000
# 3 -0.006696 -0.003661 0.032626 0.000000 -0.041823 0.000000
# 4 0.000000 0.000000 0.000000 -0.477819 0.000000 0.297301
# 5 -0.000092 -0.002544 -0.041823 0.000000 0.119974 0.000000
# 6 0.000000 0.000000 0.000000 0.297301 0.000000 -0.125909
#
#
# Mechanical properties :
#
#
# Convention : Reuss Voigt Hill
#
# Bulk Modulus (GPa) = 25.97138 50.04053 38.00596
# Shear Modulus (GPa) = -13.53024 17.06017 1.76497
#
# Velocity S-wave (km/s) = -2.87592 3.22935 1.03871
# Velocity P-wave (km/s) = 2.20186 6.67041 4.96702
#
# Compressibility (1/GPa) = 0.03850392
#
# Stress axis : x y z
#
# Youngs Moduli (GPa) = 40.57018 78.95273 30.65007
#
# Poissons Ratio (x) = 0.42330 0.20523
# Poissons Ratio (y) = 0.21751 0.11221
# Poissons Ratio (z) = 0.27166 0.28905
#
# Static dielectric constant tensor:
#      x y z
#    x 1.520920 0.000000 0.046020 
#    y 0.000000 1.588260 0.000000 
#    z 0.046020 0.000000 1.586060 
# 
# From -- ./inp_files/290437.got.cif
#   From: 2010.05.17/outbox.cif.g08.bks.cpg/sg12_146_cif.got.tgz:290437.got - 2010.06.03 13:09:07.
