data_PCOD9172703
_publ_section_title
;
Structure prediction by ZEFSAII (Michael W. Deem and Ramdas Pophale) SiO2 
 PCOD9172703
Probable space group: C 2/M
;
_chemical_formula_sum "Si O2"
_cell_formula_units_Z 52
_cell_length_a 23.299698
_cell_length_b 13.016033
_cell_length_c 9.686402
_cell_angle_alpha 90.000000
_cell_angle_beta 95.034182
_cell_angle_gamma 90.000000
_cell_volume 2926.259941
_symmetry_space_group_name_H-M "C 2/M"
_symmetry_group_IT_number 12
_symmetry_cell_setting 'monoclinic'
loop_
_space_group_symop_operation_xyz
x,y,z
-x,y,-z
-x,-y,-z
x,-y,z
1/2+x,1/2+y,z
1/2-x,1/2+y,-z
1/2-x,1/2-y,-z
1/2+x,1/2-y,z
loop_
_atom_site_type_symbol
_atom_site_label
_atom_site_fract_x
_atom_site_fract_y
_atom_site_fract_z
Si Si1 0.061233 0.500000 0.316120
Si Si2 0.364065 0.000000 0.408940
Si Si3 0.831937 0.784411 0.161457
Si Si4 0.365525 0.196930 0.753115
Si Si5 0.222703 0.616977 0.050022
Si Si6 0.565218 0.772491 0.978706
Si Si7 0.564597 0.000000 0.850493
Si Si8 0.186004 0.723067 0.535198
O O1 0.078212 0.500000 0.482117
O O2 0.093835 0.599631 0.266317
O O3 0.996333 0.500000 0.245849
O O4 0.327727 0.897847 0.438382
O O5 0.386146 0.000000 0.256561
O O6 0.791003 0.870873 0.086529
O O7 0.898919 0.781816 0.134944
O O8 0.826514 0.778982 0.324069
O O9 0.802101 0.684295 0.081518
O O10 0.307227 0.158878 0.816096
O O11 0.353081 0.249891 0.605645
O O12 0.398219 0.257062 0.878735
O O13 0.205936 0.500000 0.027271
O O14 0.567616 0.895284 0.941200
O O15 0.500000 0.747077 0.000000
O O16 0.250000 0.750000 0.500000
#
# Coordination Sequence:
#
# PCOD9172703 Si02
#       8
#     4   4   8   8   8   8   4   8
#     4  10  18  30  46  77 107 144 181 206 260 330
#     4  10  23  33  50  80 113 147 177 228 273 315
#     4  10  22  35  53  82 106 143 183 223 274 323
#     4  10  19  30  50  76 104 141 177 214 264 320
#     4  10  20  35  56  77 108 139 180 229 271 323
#     4  11  21  33  51  76 108 144 184 219 266 321
#     4  12  19  32  53  74 108 155 185 210 264 337
#     4  11  21  36  51  74 112 145 181 223 270 322
#
# _framework density 17.770123000000002
#
# number of rings (size 3 to 8) (size 9 to 14) (size 15 to 20)
#    0.000    1.538    5.385    0.923    4.308    0.000 
#    0.000    0.769    0.000    0.462    0.000    0.000 
#    0.000    1.231    0.000    0.000    0.000    0.000 
#
# Total GULP energy -144891.101449 kJ/mol
# GULP energy per Si atom -5572.734671 kJ/mol
# Density = 1.772968 g / cm^3
# Si number density = 17.770123 Si / 1000 Ang^3
#
#
#
# Elastic Constant Matrix: (Units=GPa)
#
#
# Indices 1 2 3 4 5 6 
#
# 1 124.4625 11.8729 40.1848 0.0000 -12.2828 0.0000
# 2 11.8729 12.8718 9.2972 0.0000 4.1228 0.0000
# 3 40.1848 9.2972 132.2078 0.0000 -8.2407 0.0000
# 4 0.0000 0.0000 0.0000 23.4831 0.0000 -1.2088
# 5 -12.2828 4.1228 -8.2407 0.0000 29.1434 0.0000
# 6 0.0000 0.0000 0.0000 -1.2088 0.0000 24.0907
#
#
#
# Elastic Compliance Matrix: (Units=1/GPa)
#
#
# Indices 1 2 3 4 5 6 
#
# 1 0.010102 -0.009402 -0.002098 0.000000 0.004994 0.000000
# 2 -0.009402 0.096120 -0.005086 0.000000 -0.018999 0.000000
# 3 -0.002098 -0.005086 0.008702 0.000000 0.002296 0.000000
# 4 0.000000 0.000000 0.000000 0.042694 0.000000 0.002142
# 5 0.004994 -0.018999 0.002296 0.000000 0.039755 0.000000
# 6 0.000000 0.000000 0.000000 0.002142 0.000000 0.041617
#
#
# Mechanical properties :
#
#
# Convention : Reuss Voigt Hill
#
# Bulk Modulus (GPa) = 12.23206 43.58356 27.90781
# Shear Modulus (GPa) = 16.69934 29.22259 22.96097
#
# Velocity S-wave (km/s) = 3.06885 4.05962 3.59849
# Velocity P-wave (km/s) = 4.41084 6.82302 5.74496
#
# Compressibility (1/GPa) = 0.08175241
#
# Stress axis : x y z
#
# Youngs Moduli (GPa) = 98.99355 10.40364 114.91228
#
# Poissons Ratio (x) = 0.09782 0.24108
# Poissons Ratio (y) = 0.93074 0.58443
# Poissons Ratio (z) = 0.20768 0.05291
#
# Static dielectric constant tensor:
#      x y z
#    x 1.652800 0.000000 -0.002920 
#    y 0.000000 1.587430 0.000000 
#    z -0.002920 0.000000 1.660080 
# 
# From -- ./inp_files/95844.got.cif
#   From: 2010.05.17/outbox.cif.g08.bks.cpg/sg12_48_cif.got.tgz:95844.got - 2010.06.03 13:09:07.
