data_PCOD9172161
_publ_section_title
;
Structure prediction by ZEFSAII (Michael W. Deem and Ramdas Pophale) SiO2 
 PCOD9172161
Probable space group: C 2/M
;
_chemical_formula_sum "Si O2"
_cell_formula_units_Z 64
_cell_length_a 31.663478
_cell_length_b 7.563367
_cell_length_c 12.739642
_cell_angle_alpha 90.000000
_cell_angle_beta 78.682433
_cell_angle_gamma 90.000000
_cell_volume 2991.594789
_symmetry_space_group_name_H-M "C 2/M"
_symmetry_group_IT_number 12
_symmetry_cell_setting 'monoclinic'
loop_
_space_group_symop_operation_xyz
x,y,z
-x,y,-z
-x,-y,-z
x,-y,z
1/2+x,1/2+y,z
1/2-x,1/2+y,-z
1/2-x,1/2-y,-z
1/2+x,1/2-y,z
loop_
_atom_site_type_symbol
_atom_site_label
_atom_site_fract_x
_atom_site_fract_y
_atom_site_fract_z
Si Si1 0.835692 0.788093 0.224110
Si Si2 0.398163 0.787155 0.384592
Si Si3 0.345552 0.216567 0.612845
Si Si4 0.749505 0.212218 0.376447
Si Si5 0.411805 0.210822 0.756435
Si Si6 0.491812 0.199415 0.313069
Si Si7 0.615901 0.286308 0.992899
Si Si8 0.463224 0.297325 0.104027
O O1 0.875639 0.753684 0.284226
O O2 0.792185 0.717040 0.298599
O O3 0.832085 0.000000 0.221288
O O4 0.844066 0.728638 0.099798
O O5 0.366243 0.727557 0.492059
O O6 0.447146 0.719624 0.378843
O O7 0.401302 0.000000 0.388074
O O8 0.296280 0.276312 0.645425
O O9 0.376813 0.276414 0.690429
O O10 0.345147 0.000000 0.613509
O O11 0.750000 0.250000 0.500000
O O12 0.750064 0.000000 0.364517
O O13 0.460271 0.281744 0.709815
O O14 0.393787 0.236706 0.882907
O O15 0.415674 0.000000 0.741056
O O16 0.479611 0.193736 0.195994
O O17 0.495241 0.000000 0.355101
O O18 0.615008 0.500000 0.993293
O O19 0.576646 0.222049 0.939896
O O20 0.453804 0.500000 0.143118
O O21 0.500000 0.306645 0.000000
#
# Coordination Sequence:
#
# PCOD9172161 Si02
#       8
#     8   8   8   8   8   8   8   8
#     4  10  20  33  53  82 109 132 165 214 266 310
#     4  10  19  32  52  78 106 135 169 214 262 308
#     4   9  19  36  55  75 104 139 172 208 260 317
#     4  10  19  34  58  84 106 131 166 212 263 313
#     4  10  21  36  52  72 103 145 182 211 250 305
#     4  10  20  30  47  77 105 132 173 219 255 296
#     4  10  20  34  51  74 105 140 175 214 259 304
#     4  10  18  29  47  69  96 134 173 209 253 303
#
# _framework density 21.393273000000001
#
# number of rings (size 3 to 8) (size 9 to 14) (size 15 to 20)
#    0.000    2.125    3.750    0.000    0.000    1.750 
#    0.000    4.375    0.000    0.000    0.000    2.625 
#    0.000    0.000    0.000    0.000    0.000    0.000 
#
# Total GULP energy -178439.479603 kJ/mol
# GULP energy per Si atom -5576.233738 kJ/mol
# Density = 2.134458 g / cm^3
# Si number density = 21.393273 Si / 1000 Ang^3
#
#
#
# Elastic Constant Matrix: (Units=GPa)
#
#
# Indices 1 2 3 4 5 6 
#
# 1 167.1735 5.4058 60.5855 0.0000 -19.0624 0.0000
# 2 5.4058 53.3983 -5.5909 0.0000 -2.5858 0.0000
# 3 60.5855 -5.5909 63.7363 0.0000 -8.6740 0.0000
# 4 0.0000 0.0000 0.0000 859.9237 0.0000 74.3575
# 5 -19.0624 -2.5858 -8.6740 0.0000 38.9520 0.0000
# 6 0.0000 0.0000 0.0000 74.3575 0.0000 17.8976
#
#
#
# Elastic Compliance Matrix: (Units=1/GPa)
#
#
# Indices 1 2 3 4 5 6 
#
# 1 0.009553 -0.001773 -0.008886 0.000000 0.002579 0.000000
# 2 -0.001773 0.019336 0.003545 0.000000 0.001206 0.000000
# 3 -0.008886 0.003545 0.024634 0.000000 0.001372 0.000000
# 4 0.000000 0.000000 0.000000 0.001815 0.000000 -0.007540
# 5 0.002579 0.001206 0.001372 0.000000 0.027320 0.000000
# 6 0.000000 0.000000 0.000000 -0.007540 0.000000 0.087200
#
#
# Mechanical properties :
#
#
# Convention : Reuss Voigt Hill
#
# Bulk Modulus (GPa) = 25.44702 45.01210 35.22956
# Shear Modulus (GPa) = 25.35702 198.28186 111.81944
#
# Velocity S-wave (km/s) = 3.44652 9.63771 7.23754
# Velocity P-wave (km/s) = 5.26866 12.03882 9.29225
#
# Compressibility (1/GPa) = 0.03929733
#
# Stress axis : x y z
#
# Youngs Moduli (GPa) = 104.67390 51.71643 40.59454
#
# Poissons Ratio (x) = 0.09167 0.36071
# Poissons Ratio (y) = 0.18555 -0.14392
# Poissons Ratio (z) = 0.93010 -0.18335
#
# Static dielectric constant tensor:
#      x y z
#    x 1.814020 0.000000 -0.049890 
#    y 0.000000 1.855650 0.000000 
#    z -0.049890 0.000000 1.752350 
# 
# From -- ./inp_files/187507.got.cif
#   From: 2010.05.17/outbox.cif.g08.bks.cpg/sg12_94_cif.got.tgz:187507.got - 2010.06.03 13:09:07.
