data_PCOD9172364
_publ_section_title
;
Structure prediction by ZEFSAII (Michael W. Deem and Ramdas Pophale) SiO2 
 PCOD9172364
Probable space group: C 2/M
;
_chemical_formula_sum "Si O2"
_cell_formula_units_Z 48
_cell_length_a 7.883972
_cell_length_b 30.007073
_cell_length_c 9.825043
_cell_angle_alpha 90.000000
_cell_angle_beta 71.961561
_cell_angle_gamma 90.000000
_cell_volume 2210.114205
_symmetry_space_group_name_H-M "C 2/M"
_symmetry_group_IT_number 12
_symmetry_cell_setting 'monoclinic'
loop_
_space_group_symop_operation_xyz
x,y,z
-x,y,-z
-x,-y,-z
x,-y,z
1/2+x,1/2+y,z
1/2-x,1/2+y,-z
1/2-x,1/2-y,-z
1/2+x,1/2-y,z
loop_
_atom_site_type_symbol
_atom_site_label
_atom_site_fract_x
_atom_site_fract_y
_atom_site_fract_z
Si Si1 0.715163 0.402431 0.221964
Si Si2 0.476204 0.837974 0.843223
Si Si3 0.293172 0.590752 0.079851
Si Si4 0.247963 0.500000 0.795689
Si Si5 0.501208 0.320776 0.659419
Si Si6 0.819555 0.500000 0.874125
Si Si7 0.861554 0.269355 0.661085
O O1 0.682444 0.452726 0.281584
O O2 0.551624 0.367433 0.256814
O O3 0.871247 0.372240 0.246978
O O4 0.789033 0.412276 0.052148
O O5 0.292976 0.863836 0.852790
O O6 0.455389 0.793781 0.762800
O O7 0.500000 0.829974 0.000000
O O8 0.240409 0.546656 0.175048
O O9 0.500000 0.591193 0.000000
O O10 0.032773 0.500000 0.833048
O O11 0.278295 0.500000 0.952556
O O12 0.500000 0.332094 0.500000
O O13 0.682702 0.295588 0.660035
O O14 0.349096 0.282407 0.709755
O O15 0.000000 0.269812 0.500000
#
# Coordination Sequence:
#
# PCOD9172364 Si02
#       7
#     8   8   8   4   8   4   8
#     4  10  19  34  54  80 113 151 190 236 288 341
#     4  10  20  35  56  85 122 155 191 236 293 340
#     4  10  18  29  48  80 116 150 189 235 286 342
#     4   9  16  30  53  78 107 152 191 231 282 342
#     4  11  22  39  62  86 110 149 197 242 287 342
#     4   9  15  28  48  76 108 148 194 231 280 340
#     4  11  22  40  63  87 113 151 198 240 283 348
#
# _framework density 21.718333999999999
#
# number of rings (size 3 to 8) (size 9 to 14) (size 15 to 20)
#    0.000    1.833    1.667    5.250    0.000    0.000 
#    0.000    8.750    0.000    0.000    0.000    4.083 
#    0.000    0.000    0.000    0.000    0.000    0.000 
#
# Total GULP energy -133658.004435 kJ/mol
# GULP energy per Si atom -5569.083518 kJ/mol
# Density = 2.166890 g / cm^3
# Si number density = 21.718334 Si / 1000 Ang^3
#
#
#
# Elastic Constant Matrix: (Units=GPa)
#
#
# Indices 1 2 3 4 5 6 
#
# 1 109.8681 30.9056 9.9071 0.0000 -9.4235 0.0000
# 2 30.9056 194.5725 44.4562 0.0000 -3.6975 0.0000
# 3 9.9071 44.4562 28.9831 0.0000 11.1256 0.0000
# 4 0.0000 0.0000 0.0000 30.3696 0.0000 -6.6273
# 5 -9.4235 -3.6975 11.1256 0.0000 21.7786 0.0000
# 6 0.0000 0.0000 0.0000 -6.6273 0.0000 26.3318
#
#
#
# Elastic Compliance Matrix: (Units=1/GPa)
#
#
# Indices 1 2 3 4 5 6 
#
# 1 0.010364 -0.000002 -0.006543 0.000000 0.007827 0.000000
# 2 -0.000002 0.009827 -0.019545 0.000000 0.011652 0.000000
# 3 -0.006543 -0.019545 0.085931 0.000000 -0.050047 0.000000
# 4 0.000000 0.000000 0.000000 0.034841 0.000000 0.008769
# 5 0.007827 0.011652 -0.050047 0.000000 0.076848 0.000000
# 6 0.000000 0.000000 0.000000 0.008769 0.000000 0.040184
#
#
# Mechanical properties :
#
#
# Convention : Reuss Voigt Hill
#
# Bulk Modulus (GPa) = 18.53917 55.99572 37.26745
# Shear Modulus (GPa) = 15.23660 32.23964 23.73812
#
# Velocity S-wave (km/s) = 2.65156 3.85703 3.30964
# Velocity P-wave (km/s) = 4.23428 6.75827 5.63930
#
# Compressibility (1/GPa) = 0.05393985
#
# Stress axis : x y z
#
# Youngs Moduli (GPa) = 96.48956 101.75992 11.63725
#
# Poissons Ratio (x) = 0.00025 0.07614
# Poissons Ratio (y) = 0.00024 0.22745
# Poissons Ratio (z) = 0.63135 1.98894
#
# Static dielectric constant tensor:
#      x y z
#    x 1.875120 0.000000 0.007140 
#    y 0.000000 1.880640 0.000000 
#    z 0.007140 0.000000 1.808430 
# 
# From -- ./inp_files/122492.got.cif
#   From: 2010.05.17/outbox.cif.g08.bks.cpg/sg12_62_cif.got.tgz:122492.got - 2010.06.03 13:09:07.
