data_PCOD9172787
_publ_section_title
;
Structure prediction by ZEFSAII (Michael W. Deem and Ramdas Pophale) SiO2 
 PCOD9172787
Probable space group: C 2/M
;
_chemical_formula_sum "Si O2"
_cell_formula_units_Z 64
_cell_length_a 26.838548
_cell_length_b 7.400503
_cell_length_c 18.877350
_cell_angle_alpha 90.000000
_cell_angle_beta 49.790643
_cell_angle_gamma 90.000000
_cell_volume 2863.378325
_symmetry_space_group_name_H-M "C 2/M"
_symmetry_group_IT_number 12
_symmetry_cell_setting 'monoclinic'
loop_
_space_group_symop_operation_xyz
x,y,z
-x,y,-z
-x,-y,-z
x,-y,z
1/2+x,1/2+y,z
1/2-x,1/2+y,-z
1/2-x,1/2-y,-z
1/2+x,1/2-y,z
loop_
_atom_site_type_symbol
_atom_site_label
_atom_site_fract_x
_atom_site_fract_y
_atom_site_fract_z
Si Si1 0.834481 0.782161 0.806337
Si Si2 0.039801 0.277443 0.688120
Si Si3 0.184835 0.721273 0.915921
Si Si4 0.702450 0.219086 0.743688
Si Si5 0.086391 0.709889 0.124061
Si Si6 0.852095 0.217259 0.632773
Si Si7 0.522603 0.204293 0.551989
Si Si8 0.681888 0.783615 0.603747
O O1 0.758281 0.725000 0.872276
O O2 0.872684 0.718063 0.840194
O O3 0.865561 0.728717 0.701998
O O4 0.834915 0.000000 0.807828
O O5 0.039479 0.500000 0.686039
O O6 0.012443 0.213178 0.637484
O O7 0.114297 0.219065 0.630658
O O8 0.986285 0.218517 0.794674
O O9 0.185976 0.500000 0.915686
O O10 0.171340 0.777133 0.847051
O O11 0.131277 0.787064 0.020709
O O12 0.778301 0.265173 0.683379
O O13 0.681934 0.283685 0.685076
O O14 0.697274 0.000000 0.747282
O O15 0.077247 0.500000 0.114361
O O16 0.900031 0.301044 0.532108
O O17 0.857321 0.000000 0.623888
O O18 0.500000 0.295650 0.500000
O O19 0.496547 0.000000 0.576506
O O20 0.750000 0.750000 0.500000
O O21 0.676950 0.000000 0.611357
#
# Coordination Sequence:
#
# PCOD9172787 Si02
#       8
#     8   8   8   8   8   8   8   8
#     4   9  17  29  45  68  97 123 150 190 231 263
#     4   9  19  32  45  68  97 120 149 192 235 269
#     4   8  15  28  47  70  94 121 154 190 226 267
#     4   8  15  29  48  69  91 115 145 185 233 272
#     4  10  18  30  48  67  92 126 158 186 221 272
#     4   9  17  29  45  65  88 114 148 188 225 266
#     4  10  19  30  43  60  89 125 152 178 219 270
#     4  10  19  33  53  72  93 120 150 190 235 276
#
# _framework density 22.351220999999999
#
# number of rings (size 3 to 8) (size 9 to 14) (size 15 to 20)
#    0.000    2.875    0.000    3.375    0.000    1.750 
#    0.000    1.875    0.000    6.000    0.000    0.000 
#    0.000    2.000    0.000    0.000    0.000    0.000 
#
# Total GULP energy -178568.718000 kJ/mol
# GULP energy per Si atom -5580.272438 kJ/mol
# Density = 2.230035 g / cm^3
# Si number density = 22.351221 Si / 1000 Ang^3
#
#
#
# Elastic Constant Matrix: (Units=GPa)
#
#
# Indices 1 2 3 4 5 6 
#
# 1 109.0836 0.8309 48.7188 0.0071 8.3368 0.0010
# 2 0.8309 77.1673 3.7402 0.0072 -4.2505 -0.0276
# 3 48.7188 3.7402 154.0510 0.0227 -5.5634 -0.0092
# 4 0.0071 0.0072 0.0227 10.3455 -0.0139 -3.5418
# 5 8.3368 -4.2505 -5.5634 -0.0139 30.4662 0.0043
# 6 0.0010 -0.0276 -0.0092 -3.5418 0.0043 8.5900
#
#
#
# Elastic Compliance Matrix: (Units=1/GPa)
#
#
# Indices 1 2 3 4 5 6 
#
# 1 0.011075 -0.000148 -0.003633 -0.000007 -0.003715 -0.000007
# 2 -0.000148 0.013071 -0.000205 0.000009 0.001827 0.000045
# 3 -0.003633 -0.000205 0.007731 -0.000010 0.002377 0.000003
# 4 -0.000007 0.000009 -0.000010 0.112548 0.000046 0.046405
# 5 -0.003715 0.001827 0.002377 0.000046 0.034529 0.000010
# 6 -0.000007 0.000045 0.000003 0.046405 0.000010 0.135549
#
#
# Mechanical properties :
#
#
# Convention : Reuss Voigt Hill
#
# Bulk Modulus (GPa) = 41.83025 49.65354 45.74189
# Shear Modulus (GPa) = 15.13128 29.01447 22.07287
#
# Velocity S-wave (km/s) = 2.60470 3.60685 3.14593
# Velocity P-wave (km/s) = 5.27272 6.29358 5.80563
#
# Compressibility (1/GPa) = 0.02390615
#
# Stress axis : x y z
#
# Youngs Moduli (GPa) = 90.29459 76.50527 129.34733
#
# Poissons Ratio (x) = 0.01131 0.46992
# Poissons Ratio (y) = 0.01334 0.02647
# Poissons Ratio (z) = 0.32804 0.01566
#
# Static dielectric constant tensor:
#      x y z
#    x 1.833990 0.000000 -0.005790 
#    y 0.000000 1.842600 0.000000 
#    z -0.005790 0.000000 1.830870 
# 
# From -- ./inp_files/289072.got.cif
#   From: 2010.05.17/outbox.cif.g08.bks.cpg/sg12_145_cif.got.tgz:289072.got - 2010.06.03 13:09:07.
