data_PCOD9172645
_publ_section_title
;
Structure prediction by ZEFSAII (Michael W. Deem and Ramdas Pophale) SiO2 
 PCOD9172645
Probable space group: C 2/M
;
_chemical_formula_sum "Si O2"
_cell_formula_units_Z 64
_cell_length_a 26.227356
_cell_length_b 8.619167
_cell_length_c 22.095719
_cell_angle_alpha 90.000000
_cell_angle_beta 127.129446
_cell_angle_gamma 90.000000
_cell_volume 3982.313506
_symmetry_space_group_name_H-M "C 2/M"
_symmetry_group_IT_number 12
_symmetry_cell_setting 'monoclinic'
loop_
_space_group_symop_operation_xyz
x,y,z
-x,y,-z
-x,-y,-z
x,-y,z
1/2+x,1/2+y,z
1/2-x,1/2+y,-z
1/2-x,1/2-y,-z
1/2+x,1/2-y,z
loop_
_atom_site_type_symbol
_atom_site_label
_atom_site_fract_x
_atom_site_fract_y
_atom_site_fract_z
Si Si1 0.502310 0.812606 0.820397
Si Si2 0.149566 0.312647 0.919335
Si Si3 0.108312 0.185623 0.337801
Si Si4 0.227185 0.188381 0.337434
Si Si5 0.552390 0.187546 0.087721
Si Si6 0.753309 0.314379 0.905523
Si Si7 0.309546 0.813779 0.503521
Si Si8 0.194736 0.185996 0.180413
O O1 0.576027 0.762449 0.868970
O O2 0.458037 0.747349 0.735627
O O3 0.472274 0.765267 0.863492
O O4 0.501019 0.000000 0.817434
O O5 0.150869 0.500000 0.917454
O O6 0.189124 0.246636 0.891293
O O7 0.188631 0.266405 0.007747
O O8 0.164130 0.237348 0.330290
O O9 0.128762 0.247525 0.418339
O O10 0.108626 0.000000 0.339096
O O11 0.289825 0.232905 0.421160
O O12 0.222022 0.241816 0.264861
O O13 0.225809 0.000000 0.335739
O O14 0.621457 0.258161 0.124044
O O15 0.557923 0.000000 0.090460
O O16 0.500000 0.231787 0.000000
O O17 0.752266 0.500000 0.902715
O O18 0.766466 0.249033 0.848787
O O19 0.250000 0.750000 0.500000
O O20 0.310749 0.000000 0.507665
O O21 0.196175 0.000000 0.180813
#
# Coordination Sequence:
#
# PCOD9172645 Si02
#       8
#     8   8   8   8   8   8   8   8
#     4  10  19  31  49  71  96 129 164 200 244 291
#     4   9  19  36  54  71  94 125 165 209 250 291
#     4  10  18  30  45  67  99 130 162 200 238 285
#     4   8  16  29  44  65  96 128 158 197 234 278
#     4  10  20  33  47  67  98 132 163 198 241 289
#     4  10  20  35  53  73  96 124 163 210 252 289
#     4   9  16  28  45  66  93 127 163 197 238 284
#     4  11  20  32  49  71  99 131 164 198 240 288
#
# _framework density 16.071059000000002
#
# number of rings (size 3 to 8) (size 9 to 14) (size 15 to 20)
#    0.000    2.375    1.250    3.000    0.000    3.250 
#    0.000    3.125    0.000    0.000    0.000    0.875 
#    0.000    7.000    0.000    0.000    0.000    0.000 
#
# Total GULP energy -178412.136521 kJ/mol
# GULP energy per Si atom -5575.379266 kJ/mol
# Density = 1.603448 g / cm^3
# Si number density = 16.071059 Si / 1000 Ang^3
#
#
#
# Elastic Constant Matrix: (Units=GPa)
#
#
# Indices 1 2 3 4 5 6 
#
# 1 56.9087 11.6505 26.0152 0.0000 -11.5409 0.0000
# 2 11.6505 18.6434 13.0000 0.0000 -2.3084 0.0000
# 3 26.0152 13.0000 95.0576 0.0000 -13.5318 0.0000
# 4 0.0000 0.0000 0.0000 20.6996 0.0000 1.2517
# 5 -11.5409 -2.3084 -13.5318 0.0000 20.7385 0.0000
# 6 0.0000 0.0000 0.0000 1.2517 0.0000 23.1410
#
#
#
# Elastic Compliance Matrix: (Units=1/GPa)
#
#
# Indices 1 2 3 4 5 6 
#
# 1 0.023354 -0.010949 -0.003547 0.000000 0.009463 0.000000
# 2 -0.010949 0.064465 -0.006246 0.000000 -0.002993 0.000000
# 3 -0.003547 -0.006246 0.013190 0.000000 0.005937 0.000000
# 4 0.000000 0.000000 0.000000 0.048469 0.000000 -0.002622
# 5 0.009463 -0.002993 0.005937 0.000000 0.057027 0.000000
# 6 0.000000 0.000000 0.000000 -0.002622 0.000000 0.043355
#
#
# Mechanical properties :
#
#
# Convention : Reuss Voigt Hill
#
# Bulk Modulus (GPa) = 16.79951 30.21567 23.50759
# Shear Modulus (GPa) = 16.06756 20.91208 18.48982
#
# Velocity S-wave (km/s) = 3.16536 3.61116 3.39559
# Velocity P-wave (km/s) = 4.88214 6.01909 5.48018
#
# Compressibility (1/GPa) = 0.05952555
#
# Stress axis : x y z
#
# Youngs Moduli (GPa) = 42.81884 15.51222 75.81491
#
# Poissons Ratio (x) = 0.16985 0.26891
# Poissons Ratio (y) = 0.46884 0.47351
# Poissons Ratio (z) = 0.15188 0.09688
#
# Static dielectric constant tensor:
#      x y z
#    x 1.511960 0.000000 -0.002590 
#    y 0.000000 1.543270 0.000000 
#    z -0.002590 0.000000 1.565400 
# 
# From -- ./inp_files/326930.got.cif
#   From: 2010.05.17/outbox.cif.g08.bks.cpg/sg12_164_cif.got.tgz:326930.got - 2010.06.03 13:09:07.
