data_PCOD9172866
_publ_section_title
;
Structure prediction by ZEFSAII (Michael W. Deem and Ramdas Pophale) SiO2 
 PCOD9172866
Probable space group: C 2/M
;
_chemical_formula_sum "Si O2"
_cell_formula_units_Z 64
_cell_length_a 27.665539
_cell_length_b 7.412895
_cell_length_c 13.985453
_cell_angle_alpha 90.000000
_cell_angle_beta 89.791424
_cell_angle_gamma 90.000000
_cell_volume 2868.141972
_symmetry_space_group_name_H-M "C 2/M"
_symmetry_group_IT_number 12
_symmetry_cell_setting 'monoclinic'
loop_
_space_group_symop_operation_xyz
x,y,z
-x,y,-z
-x,-y,-z
x,-y,z
1/2+x,1/2+y,z
1/2-x,1/2+y,-z
1/2-x,1/2-y,-z
1/2+x,1/2-y,z
loop_
_atom_site_type_symbol
_atom_site_label
_atom_site_fract_x
_atom_site_fract_y
_atom_site_fract_z
Si Si1 0.874901 0.721021 0.880614
Si Si2 0.982917 0.720407 0.605607
Si Si3 0.124065 0.714320 0.334158
Si Si4 0.733314 0.288135 0.392760
Si Si5 0.178991 0.720585 0.743706
Si Si6 0.554250 0.207203 0.965855
Si Si7 0.302074 0.213920 0.040221
Si Si8 0.569061 0.779528 0.748926
O O1 0.873970 0.500000 0.873404
O O2 0.871234 0.786791 0.773527
O O3 0.834426 0.782802 0.953918
O O4 0.920775 0.782965 0.940121
O O5 0.982903 0.500000 0.608412
O O6 0.023733 0.777392 0.683071
O O7 0.000000 0.774266 0.500000
O O8 0.927343 0.781392 0.623502
O O9 0.117050 0.500000 0.330214
O O10 0.176981 0.735625 0.380946
O O11 0.733488 0.500000 0.375786
O O12 0.750000 0.250000 0.500000
O O13 0.775547 0.215621 0.321141
O O14 0.179447 0.500000 0.741365
O O15 0.187512 0.781479 0.853277
O O16 0.123709 0.772080 0.715813
O O17 0.562337 0.281805 0.859555
O O18 0.572587 0.000000 0.956832
O O19 0.500000 0.201651 0.000000
O O20 0.310113 0.000000 0.046809
O O21 0.250000 0.250000 0.000000
O O22 0.567682 0.000000 0.748623
#
# Coordination Sequence:
#
# PCOD9172866 Si02
#       8
#     8   8   8   8   8   8   8   8
#     4   9  16  27  44  71 107 140 168 203 255 310
#     4   9  18  29  47  76 107 140 179 225 276 319
#     4  10  20  35  54  81 114 142 175 222 270 321
#     4  11  24  40  59  81 104 139 183 226 273 322
#     4   9  18  32  51  76 106 138 177 220 265 317
#     4   9  14  21  38  66 104 141 167 202 257 311
#     4  10  18  30  48  73 104 139 173 208 252 307
#     4   9  15  26  44  71 106 140 175 218 267 318
#
# _framework density 22.314095999999999
#
# number of rings (size 3 to 8) (size 9 to 14) (size 15 to 20)
#    0.000    2.500    1.250    1.875    1.750    3.000 
#    0.000    0.625    0.000    0.375    0.000    0.000 
#    0.000    2.000    0.000    0.000    0.000    0.000 
#
# Total GULP energy -178337.691692 kJ/mol
# GULP energy per Si atom -5573.052865 kJ/mol
# Density = 2.226331 g / cm^3
# Si number density = 22.314096 Si / 1000 Ang^3
#
#
#
# Elastic Constant Matrix: (Units=GPa)
#
#
# Indices 1 2 3 4 5 6 
#
# 1 216.4492 2.1973 110.9022 0.0000 9.7896 0.0000
# 2 2.1973 67.2466 -2.4327 0.0000 -5.9115 0.0000
# 3 110.9022 -2.4327 173.6268 0.0000 3.6366 0.0000
# 4 0.0000 0.0000 0.0000 -6.2477 0.0000 1.5427
# 5 9.7896 -5.9115 3.6366 0.0000 40.8866 0.0000
# 6 0.0000 0.0000 0.0000 1.5427 0.0000 -9.8851
#
#
#
# Elastic Compliance Matrix: (Units=1/GPa)
#
#
# Indices 1 2 3 4 5 6 
#
# 1 0.006950 -0.000505 -0.004418 0.000000 -0.001344 0.000000
# 2 -0.000505 0.015104 0.000487 0.000000 0.002261 0.000000
# 3 -0.004418 0.000487 0.008581 0.000000 0.000365 0.000000
# 4 0.000000 0.000000 0.000000 -0.166474 0.000000 -0.025980
# 5 -0.001344 0.002261 0.000365 0.000000 0.025074 0.000000
# 6 0.000000 0.000000 0.000000 -0.025980 0.000000 -0.105217
#
#
# Mechanical properties :
#
#
# Convention : Reuss Voigt Hill
#
# Bulk Modulus (GPa) = 45.95278 75.40625 60.67952
# Shear Modulus (GPa) = -25.01787 28.06114 1.52163
#
# Velocity S-wave (km/s) = -3.35202 3.55005 0.82668
# Velocity P-wave (km/s) = 2.37843 7.11830 5.30694
#
# Compressibility (1/GPa) = 0.02176147
#
# Stress axis : x y z
#
# Youngs Moduli (GPa) = 143.89493 66.20959 116.54318
#
# Poissons Ratio (x) = 0.03344 0.51487
# Poissons Ratio (y) = 0.07267 -0.05674
# Poissons Ratio (z) = 0.63571 -0.03223
#
# Static dielectric constant tensor:
#      x y z
#    x 1.770180 0.000000 -0.009450 
#    y 0.000000 1.843830 0.000000 
#    z -0.009450 0.000000 1.781120 
# 
# From -- ./inp_files/238630.got.cif
#   From: 2010.05.17/outbox.cif.g08.bks.cpg/sg12_120_cif.got.tgz:238630.got - 2010.06.03 13:09:07.
