data_PCOD9172959
_publ_section_title
;
Structure prediction by ZEFSAII (Michael W. Deem and Ramdas Pophale) SiO2 
 PCOD9172959
Probable space group: C 2/M
;
_chemical_formula_sum "Si O2"
_cell_formula_units_Z 64
_cell_length_a 14.274914
_cell_length_b 16.492628
_cell_length_c 20.260604
_cell_angle_alpha 90.000000
_cell_angle_beta 53.602830
_cell_angle_gamma 90.000000
_cell_volume 3839.459996
_symmetry_space_group_name_H-M "C 2/M"
_symmetry_group_IT_number 12
_symmetry_cell_setting 'monoclinic'
loop_
_space_group_symop_operation_xyz
x,y,z
-x,y,-z
-x,-y,-z
x,-y,z
1/2+x,1/2+y,z
1/2-x,1/2+y,-z
1/2-x,1/2-y,-z
1/2+x,1/2-y,z
loop_
_atom_site_type_symbol
_atom_site_label
_atom_site_fract_x
_atom_site_fract_y
_atom_site_fract_z
Si Si1 0.219243 0.189194 0.570905
Si Si2 0.761308 0.250157 0.292403
Si Si3 0.937216 0.593632 0.455158
Si Si4 0.161679 0.910334 0.815697
Si Si5 0.054540 0.181253 0.046916
Si Si6 0.776525 0.409498 0.909540
Si Si7 0.478310 0.756905 0.673834
Si Si8 0.492529 0.190660 0.819012
O O1 0.250000 0.250000 0.500000
O O2 0.255716 0.232996 0.623517
O O3 0.300379 0.111622 0.525432
O O4 0.079428 0.188887 0.628562
O O5 0.803189 0.163197 0.245938
O O6 0.642412 0.272092 0.306395
O O7 0.867345 0.312480 0.236856
O O8 0.956536 0.500000 0.425959
O O9 0.000000 0.605042 0.500000
O O10 0.983515 0.661771 0.383845
O O11 0.244402 0.906909 0.845228
O O12 0.031572 0.892330 0.896440
O O13 0.170363 0.000000 0.782345
O O14 0.044696 0.246143 0.108943
O O15 0.185402 0.151706 0.980886
O O16 0.000000 0.211544 0.000000
O O17 0.752272 0.500000 0.943352
O O18 0.910231 0.386169 0.863528
O O19 0.465512 0.778353 0.756232
#
# Coordination Sequence:
#
# PCOD9172959 Si02
#       8
#     8   8   8   8   8   8   8   8
#     4   9  19  32  48  71 100 134 167 194 232 293
#     4  10  18  31  48  72 104 132 164 202 240 290
#     4  10  19  31  51  79 109 130 151 198 257 303
#     4   9  17  28  46  74 105 129 152 196 260 313
#     4   9  18  32  50  73  99 130 167 207 251 297
#     4  10  18  30  49  73 100 128 163 206 251 302
#     4  10  19  33  51  73 103 135 167 198 242 294
#     4  10  20  32  49  75 100 132 170 205 246 293
#
# _framework density 16.669011000000001
#
# number of rings (size 3 to 8) (size 9 to 14) (size 15 to 20)
#    0.000    2.375    2.500    0.750    0.000    3.000 
#    0.000    0.000    0.000    1.125    0.000    7.875 
#    0.000    0.000    0.000    0.000    0.000    0.000 
#
# Total GULP energy -178157.012494 kJ/mol
# GULP energy per Si atom -5567.406640 kJ/mol
# Density = 1.663107 g / cm^3
# Si number density = 16.669011 Si / 1000 Ang^3
#
#
#
# Elastic Constant Matrix: (Units=GPa)
#
#
# Indices 1 2 3 4 5 6 
#
# 1 108.6498 17.7779 34.0625 0.0000 -12.2668 0.0000
# 2 17.7779 35.1754 10.7847 0.0000 3.9084 0.0000
# 3 34.0625 10.7847 71.8087 0.0000 9.8542 0.0000
# 4 0.0000 0.0000 0.0000 13.6345 0.0000 -1.1835
# 5 -12.2668 3.9084 9.8542 0.0000 29.5295 0.0000
# 6 0.0000 0.0000 0.0000 -1.1835 0.0000 12.7128
#
#
#
# Elastic Compliance Matrix: (Units=1/GPa)
#
#
# Indices 1 2 3 4 5 6 
#
# 1 0.013102 -0.005549 -0.006528 0.000000 0.008355 0.000000
# 2 -0.005549 0.032338 -0.001384 0.000000 -0.006123 0.000000
# 3 -0.006528 -0.001384 0.018421 0.000000 -0.008676 0.000000
# 4 0.000000 0.000000 0.000000 0.073941 0.000000 0.006884
# 5 0.008355 -0.006123 -0.008676 0.000000 0.041041 0.000000
# 6 0.000000 0.000000 0.000000 0.006884 0.000000 0.079302
#
#
# Mechanical properties :
#
#
# Convention : Reuss Voigt Hill
#
# Bulk Modulus (GPa) = 27.07204 37.87601 32.47402
# Shear Modulus (GPa) = 16.81351 21.37595 19.09473
#
# Velocity S-wave (km/s) = 3.17940 3.58491 3.38823
# Velocity P-wave (km/s) = 5.45475 6.31722 5.90176
#
# Compressibility (1/GPa) = 0.03693848
#
# Stress axis : x y z
#
# Youngs Moduli (GPa) = 76.32569 30.92324 54.28582
#
# Poissons Ratio (x) = 0.17158 0.35438
# Poissons Ratio (y) = 0.42350 0.07516
# Poissons Ratio (z) = 0.49826 0.04281
#
# Static dielectric constant tensor:
#      x y z
#    x 1.554530 0.000000 -0.038040 
#    y 0.000000 1.537640 0.000000 
#    z -0.038040 0.000000 1.594620 
# 
# From -- ./inp_files/305968.got.cif
#   From: 2010.05.17/outbox.cif.g08.bks.cpg/sg12_153_cif.got.tgz:305968.got - 2010.06.03 13:09:07.
