data_PCOD9172589
_publ_section_title
;
Structure prediction by ZEFSAII (Michael W. Deem and Ramdas Pophale) SiO2 
 PCOD9172589
Probable space group: C 2/M
;
_chemical_formula_sum "Si O2"
_cell_formula_units_Z 56
_cell_length_a 8.996304
_cell_length_b 20.109514
_cell_length_c 15.975764
_cell_angle_alpha 90.000000
_cell_angle_beta 114.378366
_cell_angle_gamma 90.000000
_cell_volume 2632.505135
_symmetry_space_group_name_H-M "C 2/M"
_symmetry_group_IT_number 12
_symmetry_cell_setting 'monoclinic'
loop_
_space_group_symop_operation_xyz
x,y,z
-x,y,-z
-x,-y,-z
x,-y,z
1/2+x,1/2+y,z
1/2-x,1/2+y,-z
1/2-x,1/2-y,-z
1/2+x,1/2-y,z
loop_
_atom_site_type_symbol
_atom_site_label
_atom_site_fract_x
_atom_site_fract_y
_atom_site_fract_z
Si Si1 0.849653 0.425386 0.245508
Si Si2 0.083808 0.701187 0.287292
Si Si3 0.467412 0.306224 0.395737
Si Si4 0.481383 0.200722 0.088465
Si Si5 0.191920 0.888727 0.037686
Si Si6 0.221094 0.574184 0.127330
Si Si7 0.057953 0.922730 0.307325
O O1 0.914642 0.500000 0.276138
O O2 0.983478 0.367486 0.272119
O O3 0.757733 0.424882 0.135168
O O4 0.712637 0.409644 0.283425
O O5 0.032464 0.748600 0.350569
O O6 0.040113 0.735491 0.187173
O O7 0.274677 0.687857 0.335929
O O8 0.500000 0.292440 0.500000
O O9 0.553073 0.373544 0.384139
O O10 0.294973 0.179381 0.058009
O O11 0.590466 0.132389 0.112537
O O12 0.500000 0.229376 0.000000
O O13 0.236093 0.923842 0.960852
O O14 0.000000 0.881288 0.000000
O O15 0.159851 0.500000 0.135234
O O16 0.389260 0.586879 0.216137
O O17 0.063893 0.000000 0.333108
#
# Coordination Sequence:
#
# PCOD9172589 Si02
#       7
#     8   8   8   8   8   8   8
#     4  10  21  37  62  98 138 176 213 260 316 375
#     4  11  24  44  68  96 128 167 218 270 320 386
#     4  12  26  47  73  94 120 164 220 275 333 394
#     4   9  20  36  57  89 130 170 214 249 313 376
#     4  10  18  29  52  90 133 177 221 255 297 367
#     4  10  18  31  53  84 128 170 206 252 302 365
#     4  10  21  39  65  96 129 162 203 266 330 382
#
# _framework density 21.272514000000001
#
# number of rings (size 3 to 8) (size 9 to 14) (size 15 to 20)
#    0.000    1.714    2.857    1.714    0.000    6.286 
#    0.000    0.714    3.143    2.143    0.000    0.000 
#    0.000    0.000    0.000    0.000    0.000    0.000 
#
# Total GULP energy -156630.609632 kJ/mol
# GULP energy per Si atom -5593.950344 kJ/mol
# Density = 2.122410 g / cm^3
# Si number density = 21.272514 Si / 1000 Ang^3
#
#
#
# Elastic Constant Matrix: (Units=GPa)
#
#
# Indices 1 2 3 4 5 6 
#
# 1 115.7840 45.2384 24.8337 0.0000 -18.1774 0.0000
# 2 45.2384 75.0997 25.0976 0.0000 -17.9018 0.0000
# 3 24.8337 25.0976 106.9090 0.0000 -42.8604 0.0000
# 4 0.0000 0.0000 0.0000 11.5261 0.0000 -7.7861
# 5 -18.1774 -17.9018 -42.8604 0.0000 36.1528 0.0000
# 6 0.0000 0.0000 0.0000 -7.7861 0.0000 25.6787
#
#
#
# Elastic Compliance Matrix: (Units=1/GPa)
#
#
# Indices 1 2 3 4 5 6 
#
# 1 0.011521 -0.006289 -0.000240 0.000000 0.002394 0.000000
# 2 -0.006289 0.018592 -0.000916 0.000000 0.004958 0.000000
# 3 -0.000240 -0.000916 0.017904 0.000000 0.020651 0.000000
# 4 0.000000 0.000000 0.000000 0.109108 0.000000 0.033083
# 5 0.002394 0.004958 0.020651 0.000000 0.055802 0.000000
# 6 0.000000 0.000000 0.000000 0.033083 0.000000 0.048974
#
#
# Mechanical properties :
#
#
# Convention : Reuss Voigt Hill
#
# Bulk Modulus (GPa) = 30.18718 54.23690 42.21204
# Shear Modulus (GPa) = 17.37114 28.17974 22.77544
#
# Velocity S-wave (km/s) = 2.86072 3.64359 3.27563
# Velocity P-wave (km/s) = 5.01330 6.57667 5.84747
#
# Compressibility (1/GPa) = 0.03312665
#
# Stress axis : x y z
#
# Youngs Moduli (GPa) = 86.79473 53.78603 55.85422
#
# Poissons Ratio (x) = 0.33828 0.01341
# Poissons Ratio (y) = 0.54588 0.05116
# Poissons Ratio (z) = 0.02084 0.04927
#
# Static dielectric constant tensor:
#      x y z
#    x 1.739790 0.000000 -0.009840 
#    y 0.000000 1.796860 0.000000 
#    z -0.009840 0.000000 1.753630 
# 
# From -- ./inp_files/198959.got.cif
#   From: 2010.05.17/outbox.cif.g08.bks.cpg/sg12_100_cif.got.tgz:198959.got - 2010.06.03 13:09:07.
