data_PCOD9172374
_publ_section_title
;
Structure prediction by ZEFSAII (Michael W. Deem and Ramdas Pophale) SiO2 
 PCOD9172374
Probable space group: C 2/M
;
_chemical_formula_sum "Si O2"
_cell_formula_units_Z 48
_cell_length_a 29.901959
_cell_length_b 13.481945
_cell_length_c 7.707536
_cell_angle_alpha 90.000000
_cell_angle_beta 95.984342
_cell_angle_gamma 90.000000
_cell_volume 3090.256735
_symmetry_space_group_name_H-M "C 2/M"
_symmetry_group_IT_number 12
_symmetry_cell_setting 'monoclinic'
loop_
_space_group_symop_operation_xyz
x,y,z
-x,y,-z
-x,-y,-z
x,-y,z
1/2+x,1/2+y,z
1/2-x,1/2+y,-z
1/2-x,1/2-y,-z
1/2+x,1/2-y,z
loop_
_atom_site_type_symbol
_atom_site_label
_atom_site_fract_x
_atom_site_fract_y
_atom_site_fract_z
Si Si1 0.103248 0.382287 0.929822
Si Si2 0.185549 0.251427 0.828556
Si Si3 0.724086 0.616217 0.138379
Si Si4 0.122822 0.617682 0.332959
Si Si5 0.197370 0.226335 0.450358
Si Si6 0.547952 0.119838 0.585052
O O1 0.112721 0.500000 0.907453
O O2 0.144050 0.316422 0.876476
O O3 0.061159 0.356941 0.788844
O O4 0.100146 0.367403 0.135116
O O5 0.228185 0.326346 0.836962
O O6 0.178639 0.206764 0.634477
O O7 0.197475 0.166045 0.969367
O O8 0.730805 0.500000 0.119744
O O9 0.697759 0.641614 0.305392
O O10 0.132569 0.500000 0.355403
O O11 0.168460 0.681044 0.366099
O O12 0.088348 0.648049 0.471031
O O13 0.250000 0.250000 0.500000
O O14 0.500000 0.158682 0.500000
O O15 0.545870 0.000000 0.573665
#
# Coordination Sequence:
#
# PCOD9172374 Si02
#       6
#     8   8   8   8   8   8
#     4  10  18  29  49  72  98 133 166 200 242 291
#     4  10  19  33  50  70  95 133 170 201 239 297
#     4  10  21  34  47  69 100 129 165 210 249 281
#     4  10  19  31  49  72 100 136 169 200 242 291
#     4  10  20  32  47  70  98 131 169 207 236 284
#     4   9  18  31  47  71 102 133 164 201 246 296
#
# _framework density 15.532690000000001
#
# number of rings (size 3 to 8) (size 9 to 14) (size 15 to 20)
#    0.000    2.167    3.333    0.500    0.000    4.000 
#    0.000    3.333    0.000    0.000    0.000    0.000 
#    0.000    4.000    0.000    0.000    0.000    0.000 
#
# Total GULP energy -133654.729388 kJ/mol
# GULP energy per Si atom -5568.947058 kJ/mol
# Density = 1.549734 g / cm^3
# Si number density = 15.532690 Si / 1000 Ang^3
#
#
#
# Elastic Constant Matrix: (Units=GPa)
#
#
# Indices 1 2 3 4 5 6 
#
# 1 42.2468 14.9209 19.1531 0.0000 17.1401 0.0000
# 2 14.9209 58.2145 37.9039 0.0000 0.4401 0.0000
# 3 19.1531 37.9039 118.1175 0.0000 3.9625 0.0000
# 4 0.0000 0.0000 0.0000 12.9063 0.0000 1.2246
# 5 17.1401 0.4401 3.9625 0.0000 22.4784 0.0000
# 6 0.0000 0.0000 0.0000 1.2246 0.0000 14.7707
#
#
#
# Elastic Compliance Matrix: (Units=1/GPa)
#
#
# Indices 1 2 3 4 5 6 
#
# 1 0.039927 -0.008145 -0.002861 0.000000 -0.029781 0.000000
# 2 -0.008145 0.023391 -0.006416 0.000000 0.006884 0.000000
# 3 -0.002861 -0.006416 0.010977 0.000000 0.000373 0.000000
# 4 0.000000 0.000000 0.000000 0.078096 0.000000 -0.006475
# 5 -0.029781 0.006884 0.000373 0.000000 0.066995 0.000000
# 6 0.000000 0.000000 0.000000 -0.006475 0.000000 0.068238
#
#
# Mechanical properties :
#
#
# Convention : Reuss Voigt Hill
#
# Bulk Modulus (GPa) = 25.34948 40.28165 32.81556
# Shear Modulus (GPa) = 14.89779 19.80447 17.35113
#
# Velocity S-wave (km/s) = 3.10033 3.57461 3.34589
# Velocity P-wave (km/s) = 5.40107 6.55949 6.00827
#
# Compressibility (1/GPa) = 0.03944854
#
# Stress axis : x y z
#
# Youngs Moduli (GPa) = 25.04568 42.75089 91.10248
#
# Poissons Ratio (x) = 0.34823 0.26068
# Poissons Ratio (y) = 0.20401 0.58455
# Poissons Ratio (z) = 0.07166 0.27431
#
# Static dielectric constant tensor:
#      x y z
#    x 1.513990 0.000000 -0.000920 
#    y 0.000000 1.477500 0.000000 
#    z -0.000920 0.000000 1.570420 
# 
# From -- ./inp_files/109485.got.cif
#   From: 2010.05.17/outbox.cif.g08.bks.cpg/sg12_55_cif.got.tgz:109485.got - 2010.06.03 13:09:07.
