data_PCOD9172285
_publ_section_title
;
Structure prediction by ZEFSAII (Michael W. Deem and Ramdas Pophale) SiO2 
 PCOD9172285
Probable space group: C 2/M
;
_chemical_formula_sum "Si O2"
_cell_formula_units_Z 64
_cell_length_a 19.797690
_cell_length_b 7.844045
_cell_length_c 26.377457
_cell_angle_alpha 90.000000
_cell_angle_beta 124.467925
_cell_angle_gamma 90.000000
_cell_volume 3377.133505
_symmetry_space_group_name_H-M "C 2/M"
_symmetry_group_IT_number 12
_symmetry_cell_setting 'monoclinic'
loop_
_space_group_symop_operation_xyz
x,y,z
-x,y,-z
-x,-y,-z
x,-y,z
1/2+x,1/2+y,z
1/2-x,1/2+y,-z
1/2-x,1/2-y,-z
1/2+x,1/2-y,z
loop_
_atom_site_type_symbol
_atom_site_label
_atom_site_fract_x
_atom_site_fract_y
_atom_site_fract_z
Si Si1 0.069594 0.805459 0.310219
Si Si2 0.531329 0.291739 0.933939
Si Si3 0.872159 0.205338 0.928623
Si Si4 0.042740 0.790536 0.823299
Si Si5 0.160195 0.794308 0.442940
Si Si6 0.493245 0.705710 0.554575
Si Si7 0.807693 0.201863 0.183945
Si Si8 0.921237 0.304434 0.313913
O O1 0.137234 0.728263 0.376683
O O2 0.035306 0.730551 0.243233
O O3 0.988066 0.805267 0.311193
O O4 0.094295 0.000000 0.309698
O O5 0.532116 0.500000 0.933456
O O6 0.444474 0.239065 0.921258
O O7 0.541929 0.233811 0.880939
O O8 0.600999 0.237270 0.003604
O O9 0.783221 0.259141 0.872751
O O10 0.873853 0.000000 0.929818
O O11 0.124929 0.736658 0.828541
O O12 0.041140 0.000000 0.822126
O O13 0.250000 0.750000 0.500000
O O14 0.089680 0.735129 0.452121
O O15 0.153687 0.000000 0.437792
O O16 0.500000 0.768355 0.500000
O O17 0.491183 0.500000 0.552337
O O18 0.567922 0.758560 0.622879
O O19 0.834965 0.276786 0.249734
O O20 0.816739 0.000000 0.191839
O O21 0.945472 0.500000 0.317294
#
# Coordination Sequence:
#
# PCOD9172285 Si02
#       8
#     8   8   8   8   8   8   8   8
#     4   8  15  29  47  66  90 122 157 190 232 284
#     4   8  15  29  48  68  92 123 156 191 235 283
#     4   9  17  30  48  69  94 124 156 191 233 281
#     4   8  14  27  48  69  88 117 157 194 230 278
#     4   9  17  29  46  68  93 123 156 191 233 277
#     4   9  18  34  53  70  94 129 162 191 229 278
#     4  10  19  31  48  69  94 123 155 192 233 279
#     4  10  18  29  48  72  96 121 153 195 237 277
#
# _framework density 18.950982
#
# number of rings (size 3 to 8) (size 9 to 14) (size 15 to 20)
#    0.000    3.125    0.000    3.750    0.000    2.750 
#    0.000    2.500    0.000    8.250    0.000    0.000 
#    0.000    0.000    0.000    0.000    0.000    0.000 
#
# Total GULP energy -178218.531757 kJ/mol
# GULP energy per Si atom -5569.329117 kJ/mol
# Density = 1.890785 g / cm^3
# Si number density = 18.950982 Si / 1000 Ang^3
#
#
#
# Elastic Constant Matrix: (Units=GPa)
#
#
# Indices 1 2 3 4 5 6 
#
# 1 58.5145 7.2853 87.2135 0.0000 -3.3279 0.0000
# 2 7.2853 30.7190 8.9291 0.0000 -2.6985 0.0000
# 3 87.2135 8.9291 226.3043 0.0000 -1.6651 0.0000
# 4 0.0000 0.0000 0.0000 20.4920 0.0000 10.6356
# 5 -3.3279 -2.6985 -1.6651 0.0000 35.0932 0.0000
# 6 0.0000 0.0000 0.0000 10.6356 0.0000 9.3290
#
#
#
# Elastic Compliance Matrix: (Units=1/GPa)
#
#
# Indices 1 2 3 4 5 6 
#
# 1 0.041222 -0.004977 -0.015670 0.000000 0.002783 0.000000
# 2 -0.004977 0.033747 0.000602 0.000000 0.002152 0.000000
# 3 -0.015670 0.000602 0.010427 0.000000 -0.000945 0.000000
# 4 0.000000 0.000000 0.000000 0.119519 0.000000 -0.136257
# 5 0.002783 0.002152 -0.000945 0.000000 0.028880 0.000000
# 6 0.000000 0.000000 0.000000 -0.136257 0.000000 0.262533
#
#
# Mechanical properties :
#
#
# Convention : Reuss Voigt Hill
#
# Bulk Modulus (GPa) = 22.07104 58.04373 40.05739
# Shear Modulus (GPa) = 9.06587 27.12351 18.09469
#
# Velocity S-wave (km/s) = 2.18957 3.78728 3.09336
# Velocity P-wave (km/s) = 4.25017 7.05830 5.82596
#
# Compressibility (1/GPa) = 0.04530823
#
# Stress axis : x y z
#
# Youngs Moduli (GPa) = 24.25862 29.63189 95.90625
#
# Poissons Ratio (x) = 0.14748 1.50280
# Poissons Ratio (y) = 0.12074 -0.05777
# Poissons Ratio (z) = 0.38012 -0.01785
#
# Static dielectric constant tensor:
#      x y z
#    x 1.627380 0.000000 -0.009030 
#    y 0.000000 1.691990 0.000000 
#    z -0.009030 0.000000 1.700660 
# 
# From -- ./inp_files/365247.got.cif
#   From: 2010.05.17/outbox.cif.g08.bks.cpg/sg12_183_cif.got.tgz:365247.got - 2010.06.03 13:09:07.
