data_PCOD9172967
_publ_section_title
;
Structure prediction by ZEFSAII (Michael W. Deem and Ramdas Pophale) SiO2 
 PCOD9172967
Probable space group: C 2/M
;
_chemical_formula_sum "Si O2"
_cell_formula_units_Z 40
_cell_length_a 8.649639
_cell_length_b 34.285620
_cell_length_c 5.336737
_cell_angle_alpha 90.000000
_cell_angle_beta 95.827366
_cell_angle_gamma 90.000000
_cell_volume 1574.474677
_symmetry_space_group_name_H-M "C 2/M"
_symmetry_group_IT_number 12
_symmetry_cell_setting 'monoclinic'
loop_
_space_group_symop_operation_xyz
x,y,z
-x,y,-z
-x,-y,-z
x,-y,z
1/2+x,1/2+y,z
1/2-x,1/2+y,-z
1/2-x,1/2-y,-z
1/2+x,1/2-y,z
loop_
_atom_site_type_symbol
_atom_site_label
_atom_site_fract_x
_atom_site_fract_y
_atom_site_fract_z
Si Si1 0.805726 0.545241 0.214318
Si Si2 0.352120 0.247650 0.762344
Si Si3 0.330537 0.836897 0.739993
Si Si4 0.648752 0.077029 0.278445
Si Si5 0.370868 0.667329 0.801434
O O1 0.765147 0.500000 0.205053
O O2 0.755911 0.566596 0.458879
O O3 0.994431 0.550239 0.249498
O O4 0.756939 0.567103 0.954982
O O5 0.250000 0.250000 0.500000
O O6 0.421387 0.204288 0.740202
O O7 0.440052 0.288776 0.769241
O O8 0.250000 0.250000 0.000000
O O9 0.410816 0.878700 0.732987
O O10 0.202968 0.840617 0.488018
O O11 0.264071 0.834165 0.011777
O O12 0.500000 0.646047 0.000000
#
# Coordination Sequence:
#
# PCOD9172967 Si02
#       5
#     8   8   8   8   8
#     4  10  19  33  51  74 109 133 156 191 237 313
#     4   8  16  30  47  63  89 126 160 203 250 282
#     4  10  19  32  50  71 102 125 163 219 246 284
#     4  10  18  30  49  73 102 133 161 191 247 283
#     4  10  19  33  50  69  94 134 174 206 250 294
#
# _framework density 25.405301000000001
#
# number of rings (size 3 to 8) (size 9 to 14) (size 15 to 20)
#    0.000    2.400    0.000    4.800    0.000    0.000 
#    3.600    0.000   13.200    0.000    0.000    0.000 
#    0.000   92.800    0.000    0.000    0.000    0.000 
#
# Total GULP energy -111349.963619 kJ/mol
# GULP energy per Si atom -5567.498181 kJ/mol
# Density = 2.534748 g / cm^3
# Si number density = 25.405301 Si / 1000 Ang^3
#
#
#
# Elastic Constant Matrix: (Units=GPa)
#
#
# Indices 1 2 3 4 5 6 
#
# 1 22.4317 2.6346 27.2667 0.0000 4.4668 0.0000
# 2 2.6346 159.6604 37.4407 0.0000 -10.6600 0.0000
# 3 27.2667 37.4407 274.4053 0.0000 -0.7578 0.0000
# 4 0.0000 0.0000 0.0000 38.7889 0.0000 -16.0102
# 5 4.4668 -10.6600 -0.7578 0.0000 47.0064 0.0000
# 6 0.0000 0.0000 0.0000 -16.0102 0.0000 46.3193
#
#
#
# Elastic Compliance Matrix: (Units=1/GPa)
#
#
# Indices 1 2 3 4 5 6 
#
# 1 0.051858 0.000022 -0.005170 0.000000 -0.005006 0.000000
# 2 0.000022 0.006571 -0.000895 0.000000 0.001474 0.000000
# 3 -0.005170 -0.000895 0.004281 0.000000 0.000357 0.000000
# 4 0.000000 0.000000 0.000000 0.030071 0.000000 0.010394
# 5 -0.005006 0.001474 0.000357 0.000000 0.022089 0.000000
# 6 0.000000 0.000000 0.000000 0.010394 0.000000 0.025182
#
#
# Mechanical properties :
#
#
# Convention : Reuss Voigt Hill
#
# Bulk Modulus (GPa) = 19.75277 65.68685 42.71981
# Shear Modulus (GPa) = 29.58371 52.36660 40.97515
#
# Velocity S-wave (km/s) = 3.41614 4.54502 4.02040
# Velocity P-wave (km/s) = 4.83238 7.31127 6.19704
#
# Compressibility (1/GPa) = 0.05062581
#
# Stress axis : x y z
#
# Youngs Moduli (GPa) = 19.28339 152.18074 233.58914
#
# Poissons Ratio (x) = -0.00340 1.20762
# Poissons Ratio (y) = -0.00043 0.20900
# Poissons Ratio (z) = 0.09969 0.13616
#
# Static dielectric constant tensor:
#      x y z
#    x 1.927580 0.000000 -0.018800 
#    y 0.000000 1.983140 0.000000 
#    z -0.018800 0.000000 2.004450 
# 
# From -- ./inp_files/8194.got.cif
#   From: 2010.05.17/outbox.cif.g08.bks.cpg/sg12_5_cif.got.tgz:8194.got - 2010.06.03 13:09:07.
