data_PCOD9172056
_publ_section_title
;
Structure prediction by ZEFSAII (Michael W. Deem and Ramdas Pophale) SiO2 
 PCOD9172056
Probable space group: C 2/M
;
_chemical_formula_sum "Si O2"
_cell_formula_units_Z 56
_cell_length_a 29.534946
_cell_length_b 8.941276
_cell_length_c 17.615031
_cell_angle_alpha 90.000000
_cell_angle_beta 129.817989
_cell_angle_gamma 90.000000
_cell_volume 3572.950266
_symmetry_space_group_name_H-M "C 2/M"
_symmetry_group_IT_number 12
_symmetry_cell_setting 'monoclinic'
loop_
_space_group_symop_operation_xyz
x,y,z
-x,y,-z
-x,-y,-z
x,-y,z
1/2+x,1/2+y,z
1/2-x,1/2+y,-z
1/2-x,1/2-y,-z
1/2+x,1/2-y,z
loop_
_atom_site_type_symbol
_atom_site_label
_atom_site_fract_x
_atom_site_fract_y
_atom_site_fract_z
Si Si1 0.961510 0.178256 0.130002
Si Si2 0.208503 0.821655 0.392366
Si Si3 0.265169 0.322266 0.137727
Si Si4 0.405373 0.176450 0.924149
Si Si5 0.339076 0.678842 0.072594
Si Si6 0.721933 0.678121 0.232748
Si Si7 0.418834 0.176252 0.760981
O O1 0.906157 0.217874 0.124553
O O2 0.023448 0.254835 0.215523
O O3 0.968562 0.000000 0.137567
O O4 0.941632 0.233924 0.025452
O O5 0.250000 0.750000 0.500000
O O6 0.232626 0.789983 0.333004
O O7 0.142432 0.755766 0.325468
O O8 0.206140 0.000000 0.398777
O O9 0.260960 0.500000 0.144437
O O10 0.318308 0.290804 0.136191
O O11 0.268212 0.239530 0.221455
O O12 0.206659 0.263896 0.031190
O O13 0.339022 0.238813 0.852933
O O14 0.426739 0.195682 0.860639
O O15 0.406885 0.000000 0.943793
O O16 0.331879 0.500000 0.051446
O O17 0.714440 0.500000 0.215902
O O18 0.414047 0.000000 0.740972
#
# Coordination Sequence:
#
# PCOD9172056 Si02
#       7
#     8   8   8   8   8   8   8
#     4  11  20  30  45  66  96 132 166 199 238 282
#     4  10  21  37  56  76  98 123 155 197 246 294
#     4  10  18  29  46  67  93 129 169 204 239 280
#     4  10  19  30  44  65  93 128 166 200 233 277
#     4   9  19  31  43  64  96 132 168 205 239 276
#     4  10  19  31  48  71  98 127 159 198 242 288
#     4  10  21  34  48  68  96 126 161 200 237 286
#
# _framework density 15.673321
#
# number of rings (size 3 to 8) (size 9 to 14) (size 15 to 20)
#    0.000    2.000    1.429    3.000    0.000    6.286 
#    0.000    0.000    0.000    0.000    0.000    1.000 
#    0.000    8.000    0.000    0.000    0.000    0.000 
#
# Total GULP energy -156215.776780 kJ/mol
# GULP energy per Si atom -5579.134885 kJ/mol
# Density = 1.563765 g / cm^3
# Si number density = 15.673321 Si / 1000 Ang^3
#
#
#
# Elastic Constant Matrix: (Units=GPa)
#
#
# Indices 1 2 3 4 5 6 
#
# 1 119.5046 62.9897 57.8604 0.0000 7.9868 0.0000
# 2 62.9897 60.8420 36.5248 0.0000 1.8337 0.0000
# 3 57.8604 36.5248 73.9170 0.0000 0.0795 0.0000
# 4 0.0000 0.0000 0.0000 25.4325 0.0000 0.6182
# 5 7.9868 1.8337 0.0795 0.0000 11.9820 0.0000
# 6 0.0000 0.0000 0.0000 0.6182 0.0000 25.3434
#
#
#
# Elastic Compliance Matrix: (Units=1/GPa)
#
#
# Indices 1 2 3 4 5 6 
#
# 1 0.023238 -0.018149 -0.009209 0.000000 -0.012651 0.000000
# 2 -0.018149 0.037690 -0.004424 0.000000 0.006359 0.000000
# 3 -0.009209 -0.004424 0.022916 0.000000 0.006663 0.000000
# 4 0.000000 0.000000 0.000000 0.039343 0.000000 -0.000960
# 5 -0.012651 0.006359 0.006663 0.000000 0.090874 0.000000
# 6 0.000000 0.000000 0.000000 -0.000960 0.000000 0.039481
#
#
# Mechanical properties :
#
#
# Convention : Reuss Voigt Hill
#
# Bulk Modulus (GPa) = 49.30839 63.22373 56.26606
# Shear Modulus (GPa) = 15.43853 19.01083 17.22468
#
# Velocity S-wave (km/s) = 3.14191 3.48651 3.31868
# Velocity P-wave (km/s) = 6.68509 7.52554 7.11773
#
# Compressibility (1/GPa) = 0.02028052
#
# Stress axis : x y z
#
# Youngs Moduli (GPa) = 43.03308 26.53242 43.63794
#
# Poissons Ratio (x) = 0.48153 0.40184
# Poissons Ratio (y) = 0.78100 0.19306
# Poissons Ratio (z) = 0.39627 0.11738
#
# Static dielectric constant tensor:
#      x y z
#    x 1.566020 0.000000 -0.007220 
#    y 0.000000 1.520180 0.000000 
#    z -0.007220 0.000000 1.485510 
# 
# From -- ./inp_files/291803.got.cif
#   From: 2010.05.17/outbox.cif.g08.bks.cpg/sg12_146_cif.got.tgz:291803.got - 2010.06.03 13:09:07.
