data_PCOD9172666
_publ_section_title
;
Structure prediction by ZEFSAII (Michael W. Deem and Ramdas Pophale) SiO2 
 PCOD9172666
Probable space group: C 2/M
;
_chemical_formula_sum "Si O2"
_cell_formula_units_Z 48
_cell_length_a 17.129806
_cell_length_b 26.269805
_cell_length_c 13.182855
_cell_angle_alpha 90.000000
_cell_angle_beta 151.822915
_cell_angle_gamma 90.000000
_cell_volume 2801.193746
_symmetry_space_group_name_H-M "C 2/M"
_symmetry_group_IT_number 12
_symmetry_cell_setting 'monoclinic'
loop_
_space_group_symop_operation_xyz
x,y,z
-x,y,-z
-x,-y,-z
x,-y,z
1/2+x,1/2+y,z
1/2-x,1/2+y,-z
1/2-x,1/2-y,-z
1/2+x,1/2-y,z
loop_
_atom_site_type_symbol
_atom_site_label
_atom_site_fract_x
_atom_site_fract_y
_atom_site_fract_z
Si Si1 0.100526 0.677116 0.702839
Si Si2 0.401286 0.790127 0.673445
Si Si3 0.732664 0.220736 0.166454
Si Si4 0.775276 0.139508 0.393473
Si Si5 0.841904 0.864358 0.135770
Si Si6 0.799095 0.058218 0.257671
O O1 0.183512 0.724848 0.740731
O O2 0.000000 0.648843 0.500000
O O3 0.986460 0.700007 0.662637
O O4 0.241452 0.644128 0.918583
O O5 0.250000 0.750000 0.500000
O O6 0.338802 0.844306 0.644672
O O7 0.542948 0.772906 0.914909
O O8 0.763437 0.187864 0.302673
O O9 0.812204 0.186260 0.168852
O O10 0.729613 0.091208 0.271825
O O11 0.961153 0.131319 0.646004
O O12 0.770871 0.910469 0.122147
O O13 0.000000 0.058959 0.500000
O O14 0.744175 0.000000 0.192956
#
# Coordination Sequence:
#
# PCOD9172666 Si02
#       6
#     8   8   8   8   8   8
#     4  11  21  32  45  61  90 131 169 192 220 274
#     4  11  20  29  44  67  95 126 162 196 231 272
#     4  10  18  30  46  64  92 126 157 187 232 285
#     4  10  18  30  49  73  98 120 150 199 245 280
#     4   9  17  30  48  67  93 123 153 187 229 280
#     4   8  15  29  52  78  97 117 148 188 240 298
#
# _framework density 17.135552000000001
#
# number of rings (size 3 to 8) (size 9 to 14) (size 15 to 20)
#    0.000    2.167    0.000    8.000    0.000    0.000 
#    0.000    2.500    0.000   18.500    0.000    0.000 
#    0.000    5.333    0.000    0.000    0.000    0.000 
#
# Total GULP energy -133859.118977 kJ/mol
# GULP energy per Si atom -5577.463291 kJ/mol
# Density = 1.709655 g / cm^3
# Si number density = 17.135552 Si / 1000 Ang^3
#
#
#
# Elastic Constant Matrix: (Units=GPa)
#
#
# Indices 1 2 3 4 5 6 
#
# 1 42.0048 19.3173 30.9799 0.0000 -7.1204 0.0000
# 2 19.3173 86.0735 25.9905 0.0000 -10.3867 0.0000
# 3 30.9799 25.9905 104.9406 0.0000 -17.5865 0.0000
# 4 0.0000 0.0000 0.0000 12.9443 0.0000 2.1007
# 5 -7.1204 -10.3867 -17.5865 0.0000 31.2779 0.0000
# 6 0.0000 0.0000 0.0000 2.1007 0.0000 11.3838
#
#
#
# Elastic Compliance Matrix: (Units=1/GPa)
#
#
# Indices 1 2 3 4 5 6 
#
# 1 0.032137 -0.004608 -0.008144 0.000000 0.001207 0.000000
# 2 -0.004608 0.013423 -0.001538 0.000000 0.002544 0.000000
# 3 -0.008144 -0.001538 0.013158 0.000000 0.005034 0.000000
# 4 0.000000 0.000000 0.000000 0.079639 0.000000 -0.014696
# 5 0.001207 0.002544 0.005034 0.000000 0.035921 0.000000
# 6 0.000000 0.000000 0.000000 -0.014696 0.000000 0.090556
#
#
# Mechanical properties :
#
#
# Convention : Reuss Voigt Hill
#
# Bulk Modulus (GPa) = 33.17953 42.84382 38.01168
# Shear Modulus (GPa) = 16.47669 21.56996 19.02333
#
# Velocity S-wave (km/s) = 3.10425 3.55178 3.33553
# Velocity P-wave (km/s) = 5.67922 6.47127 6.08814
#
# Compressibility (1/GPa) = 0.03013906
#
# Stress axis : x y z
#
# Youngs Moduli (GPa) = 31.11717 74.49639 76.00050
#
# Poissons Ratio (x) = 0.34325 0.61893
# Poissons Ratio (y) = 0.14338 0.11689
# Poissons Ratio (z) = 0.25341 0.11458
#
# Static dielectric constant tensor:
#      x y z
#    x 1.612620 0.000000 0.018140 
#    y 0.000000 1.564510 0.000000 
#    z 0.018140 0.000000 1.637810 
# 
# From -- ./inp_files/64692.got.cif
#   From: 2010.05.17/outbox.cif.g08.bks.cpg/sg12_33_cif.got.tgz:64692.got - 2010.06.03 13:09:07.
