data_PCOD9172239
_publ_section_title
;
Structure prediction by ZEFSAII (Michael W. Deem and Ramdas Pophale) SiO2 
 PCOD9172239
Probable space group: C 2/M
;
_chemical_formula_sum "Si O2"
_cell_formula_units_Z 64
_cell_length_a 17.499513
_cell_length_b 17.058549
_cell_length_c 12.106422
_cell_angle_alpha 90.000000
_cell_angle_beta 105.392548
_cell_angle_gamma 90.000000
_cell_volume 3484.331166
_symmetry_space_group_name_H-M "C 2/M"
_symmetry_group_IT_number 12
_symmetry_cell_setting 'monoclinic'
loop_
_space_group_symop_operation_xyz
x,y,z
-x,y,-z
-x,-y,-z
x,-y,z
1/2+x,1/2+y,z
1/2-x,1/2+y,-z
1/2-x,1/2-y,-z
1/2+x,1/2-y,z
loop_
_atom_site_type_symbol
_atom_site_label
_atom_site_fract_x
_atom_site_fract_y
_atom_site_fract_z
Si Si1 0.069611 0.191807 0.672813
Si Si2 0.501646 0.907568 0.692572
Si Si3 0.835322 0.673537 0.219166
Si Si4 0.565756 0.166454 0.108892
Si Si5 0.297451 0.412643 0.262411
Si Si6 0.086735 0.739570 0.435620
Si Si7 0.696835 0.088520 0.011904
Si Si8 0.704263 0.760970 0.296757
O O1 0.115649 0.245616 0.777994
O O2 0.110337 0.108111 0.689517
O O3 0.088559 0.234489 0.562815
O O4 0.976589 0.202069 0.646975
O O5 0.595028 0.886117 0.716544
O O6 0.475386 0.881010 0.806400
O O7 0.449701 0.847708 0.597056
O O8 0.487962 0.000000 0.669582
O O9 0.764406 0.695187 0.275546
O O10 0.800028 0.645268 0.090472
O O11 0.620392 0.109049 0.056749
O O12 0.627587 0.227371 0.187335
O O13 0.500000 0.199390 0.000000
O O14 0.277781 0.500000 0.292838
O O15 0.269648 0.406102 0.124718
O O16 0.249724 0.344326 0.306068
O O17 0.168603 0.748755 0.404044
O O18 0.690231 0.000000 0.967994
#
# Coordination Sequence:
#
# PCOD9172239 Si02
#       8
#     8   8   8   8   8   8   8   8
#     4   9  19  36  57  74  98 132 175 214 255 303
#     4  10  19  32  52  77 105 139 174 207 250 304
#     4  10  19  31  47  74 104 140 168 197 250 308
#     4  10  18  29  47  76 102 136 176 215 249 286
#     4   9  19  34  54  78 100 131 174 216 254 295
#     4   9  19  37  54  75 102 133 166 217 264 293
#     4  10  19  31  48  74 110 141 167 208 254 299
#     4   9  20  33  50  75 107 136 166 211 256 310
#
# _framework density 18.367944000000001
#
# number of rings (size 3 to 8) (size 9 to 14) (size 15 to 20)
#    0.000    2.500    1.250    0.750    0.000   10.000 
#    0.000    6.875    0.000    9.000    0.000    1.750 
#    0.000    0.000    0.000    0.000    0.000    0.000 
#
# Total GULP energy -178299.371389 kJ/mol
# GULP energy per Si atom -5571.855356 kJ/mol
# Density = 1.832614 g / cm^3
# Si number density = 18.367944 Si / 1000 Ang^3
#
#
#
# Elastic Constant Matrix: (Units=GPa)
#
#
# Indices 1 2 3 4 5 6 
#
# 1 105.3345 43.6112 35.0596 0.0000 -1.3068 0.0000
# 2 43.6112 53.5934 35.6353 0.0000 -9.9545 0.0000
# 3 35.0596 35.6353 43.4993 0.0000 -5.0942 0.0000
# 4 0.0000 0.0000 0.0000 10.5523 0.0000 2.0545
# 5 -1.3068 -9.9545 -5.0942 0.0000 31.4154 0.0000
# 6 0.0000 0.0000 0.0000 2.0545 0.0000 15.8673
#
#
#
# Elastic Compliance Matrix: (Units=1/GPa)
#
#
# Indices 1 2 3 4 5 6 
#
# 1 0.015008 -0.009922 -0.004345 0.000000 -0.003224 0.000000
# 2 -0.009922 0.049449 -0.031321 0.000000 0.010177 0.000000
# 3 -0.004345 -0.031321 0.051953 0.000000 -0.001681 0.000000
# 4 0.000000 0.000000 0.000000 0.097217 0.000000 -0.012588
# 5 -0.003224 0.010177 -0.001681 0.000000 0.034650 0.000000
# 6 0.000000 0.000000 0.000000 -0.012588 0.000000 0.064653
#
#
# Mechanical properties :
#
#
# Convention : Reuss Voigt Hill
#
# Bulk Modulus (GPa) = 39.62977 47.89326 43.76152
# Shear Modulus (GPa) = 12.12072 17.44172 14.78122
#
# Velocity S-wave (km/s) = 2.57161 3.08486 2.83985
# Velocity P-wave (km/s) = 5.51724 6.23053 5.88470
#
# Compressibility (1/GPa) = 0.02523355
#
# Stress axis : x y z
#
# Youngs Moduli (GPa) = 66.63164 20.22279 19.24830
#
# Poissons Ratio (x) = 0.20065 0.08364
# Poissons Ratio (y) = 0.66113 0.60287
# Poissons Ratio (z) = 0.28953 0.63339
#
# Static dielectric constant tensor:
#      x y z
#    x 1.688540 0.000000 0.030740 
#    y 0.000000 1.629090 0.000000 
#    z 0.030740 0.000000 1.670910 
# 
# From -- ./inp_files/157888.got.cif
#   From: 2010.05.17/outbox.cif.g08.bks.cpg/sg12_79_cif.got.tgz:157888.got - 2010.06.03 13:09:07.
