data_PCOD9172295
_publ_section_title
;
Structure prediction by ZEFSAII (Michael W. Deem and Ramdas Pophale) SiO2 
 PCOD9172295
Probable space group: C 2/M
;
_chemical_formula_sum "Si O2"
_cell_formula_units_Z 64
_cell_length_a 27.496805
_cell_length_b 7.420264
_cell_length_c 22.741178
_cell_angle_alpha 90.000000
_cell_angle_beta 34.104792
_cell_angle_gamma 90.000000
_cell_volume 2601.665711
_symmetry_space_group_name_H-M "C 2/M"
_symmetry_group_IT_number 12
_symmetry_cell_setting 'monoclinic'
loop_
_space_group_symop_operation_xyz
x,y,z
-x,y,-z
-x,-y,-z
x,-y,z
1/2+x,1/2+y,z
1/2-x,1/2+y,-z
1/2-x,1/2-y,-z
1/2+x,1/2-y,z
loop_
_atom_site_type_symbol
_atom_site_label
_atom_site_fract_x
_atom_site_fract_y
_atom_site_fract_z
Si Si1 0.496077 0.702822 0.286925
Si Si2 0.668292 0.786449 0.621293
Si Si3 0.067090 0.221071 0.096139
Si Si4 0.254203 0.214639 0.926449
Si Si5 0.900010 0.796306 0.190483
Si Si6 0.059481 0.295418 0.529320
Si Si7 0.126279 0.280579 0.293312
Si Si8 0.264754 0.780272 0.703283
O O1 0.522541 0.500000 0.275060
O O2 0.409360 0.696652 0.335397
O O3 0.556529 0.783048 0.175083
O O4 0.466191 0.799188 0.376081
O O5 0.750000 0.750000 0.500000
O O6 0.666131 0.703580 0.687880
O O7 0.654370 0.000000 0.640969
O O8 0.989328 0.280201 0.130026
O O9 0.061354 0.000000 0.103621
O O10 0.165117 0.274759 0.983876
O O11 0.337711 0.278496 0.806356
O O12 0.255166 0.000000 0.919820
O O13 0.250000 0.250000 0.000000
O O14 0.833692 0.713372 0.209419
O O15 0.922597 0.000000 0.149326
O O16 0.064793 0.500000 0.501016
O O17 0.155467 0.220620 0.419960
O O18 0.969889 0.212992 0.594642
O O19 0.119868 0.500000 0.298882
O O20 0.196275 0.233472 0.272349
O O21 0.257450 0.000000 0.706782
#
# Coordination Sequence:
#
# PCOD9172295 Si02
#       8
#     8   8   8   8   8   8   8   8
#     4  10  19  31  47  69  99 131 165 203 248 300
#     4  11  20  30  45  68  99 132 168 207 248 294
#     4   8  16  30  47  69  98 129 159 202 254 295
#     4  10  19  33  53  75 100 127 159 201 252 306
#     4   9  17  31  49  68  94 131 171 207 248 296
#     4  10  18  29  48  73 100 130 166 208 253 298
#     4   9  18  31  49  75 101 127 165 209 249 299
#     4   9  17  30  49  71  97 130 167 207 248 292
#
# _framework density 24.599623999999999
#
# number of rings (size 3 to 8) (size 9 to 14) (size 15 to 20)
#    0.000    2.500    0.000    4.125    0.000    2.500 
#    0.000    3.125    0.000    7.500    0.000    0.000 
#    0.000    5.000    0.000    0.000    0.000    0.000 
#
# Total GULP energy -178399.550512 kJ/mol
# GULP energy per Si atom -5574.985953 kJ/mol
# Density = 2.454363 g / cm^3
# Si number density = 24.599624 Si / 1000 Ang^3
#
#
#
# Elastic Constant Matrix: (Units=GPa)
#
#
# Indices 1 2 3 4 5 6 
#
# 1 121.2475 5.9705 17.0266 0.1318 -17.7611 -0.0322
# 2 5.9705 100.1784 4.4738 -1.2941 -5.5428 0.3437
# 3 17.0266 4.4738 88.5495 -0.5466 -19.6010 0.1437
# 4 0.1318 -1.2941 -0.5466 286.1179 0.3344 -75.7035
# 5 -17.7611 -5.5428 -19.6010 0.3344 34.3428 -0.0973
# 6 -0.0322 0.3437 0.1437 -75.7035 -0.0973 25.9156
#
#
#
# Elastic Compliance Matrix: (Units=1/GPa)
#
#
# Indices 1 2 3 4 5 6 
#
# 1 0.008980 -0.000270 -0.000795 -0.000011 0.004147 0.000002
# 2 -0.000270 0.010083 -0.000146 0.000044 0.001403 0.000000
# 3 -0.000795 -0.000146 0.013000 0.000020 0.006984 0.000013
# 4 -0.000011 0.000044 0.000020 0.015390 -0.000010 0.044957
# 5 0.004147 0.001403 0.006984 -0.000010 0.035476 0.000052
# 6 0.000002 0.000000 0.000013 0.044957 0.000052 0.169914
#
#
# Mechanical properties :
#
#
# Convention : Reuss Voigt Hill
#
# Bulk Modulus (GPa) = 33.73989 40.54637 37.14313
# Shear Modulus (GPa) = 18.85750 88.10887 53.48319
#
# Velocity S-wave (km/s) = 2.77172 5.99124 4.66783
# Velocity P-wave (km/s) = 4.89782 8.02360 6.64706
#
# Compressibility (1/GPa) = 0.02963851
#
# Stress axis : x y z
#
# Youngs Moduli (GPa) = 111.35804 99.17617 76.92564
#
# Poissons Ratio (x) = 0.02682 0.06117
# Poissons Ratio (y) = 0.03011 0.01127
# Poissons Ratio (z) = 0.08855 0.01453
#
# Static dielectric constant tensor:
#      x y z
#    x 1.953400 -0.000240 -0.392490 
#    y -0.000240 1.764890 -0.001270 
#    z -0.392490 -0.001270 -0.639190 
# 
# From -- ./inp_files/353379.got.cif
#   From: 2010.05.17/outbox.cif.g08.bks.cpg/sg12_177_cif.got.tgz:353379.got - 2010.06.03 13:09:07.
