data_PCOD9172298
_publ_section_title
;
Structure prediction by ZEFSAII (Michael W. Deem and Ramdas Pophale) SiO2 
 PCOD9172298
Probable space group: C 2/M
;
_chemical_formula_sum "Si O2"
_cell_formula_units_Z 64
_cell_length_a 21.099197
_cell_length_b 8.921976
_cell_length_c 27.022268
_cell_angle_alpha 90.000000
_cell_angle_beta 127.807274
_cell_angle_gamma 90.000000
_cell_volume 4019.002725
_symmetry_space_group_name_H-M "C 2/M"
_symmetry_group_IT_number 12
_symmetry_cell_setting 'monoclinic'
loop_
_space_group_symop_operation_xyz
x,y,z
-x,y,-z
-x,-y,-z
x,-y,z
1/2+x,1/2+y,z
1/2-x,1/2+y,-z
1/2-x,1/2-y,-z
1/2+x,1/2-y,z
loop_
_atom_site_type_symbol
_atom_site_label
_atom_site_fract_x
_atom_site_fract_y
_atom_site_fract_z
Si Si1 0.288464 0.176164 0.566192
Si Si2 0.331110 0.820720 0.786199
Si Si3 0.445829 0.176422 0.691068
Si Si4 0.492291 0.680126 0.135363
Si Si5 0.696780 0.322388 0.326265
Si Si6 0.907652 0.180352 0.198298
Si Si7 0.923179 0.179837 0.995977
Si Si8 0.774521 0.319747 0.868908
O O1 0.250000 0.250000 0.500000
O O2 0.386026 0.193645 0.615532
O O3 0.261143 0.252000 0.604995
O O4 0.271159 0.000000 0.559240
O O5 0.422237 0.760827 0.828418
O O6 0.284099 0.748760 0.717388
O O7 0.293773 0.779311 0.821258
O O8 0.330960 0.000000 0.780868
O O9 0.395551 0.272402 0.707219
O O10 0.534403 0.241299 0.733910
O O11 0.445716 0.000000 0.703795
O O12 0.506542 0.500000 0.142994
O O13 0.443367 0.719965 0.161430
O O14 0.441550 0.715467 0.061817
O O15 0.704062 0.500000 0.329255
O O16 0.815443 0.226136 0.159737
O O17 0.912515 0.000000 0.206241
O O18 0.842718 0.251126 0.936238
O O19 0.917234 0.000000 0.988456
O O20 0.000000 0.228705 0.000000
O O21 0.778865 0.500000 0.874644
#
# Coordination Sequence:
#
# PCOD9172298 Si02
#       8
#     8   8   8   8   8   8   8   8
#     4   9  17  28  46  76 112 141 172 207 249 293
#     4  11  20  32  50  73  99 128 170 216 258 302
#     4   9  18  30  47  74 104 132 168 207 245 293
#     4  10  19  32  53  72  93 127 168 211 259 313
#     4  10  18  29  48  73 102 133 168 206 249 296
#     4  10  20  35  52  72 100 135 172 207 256 312
#     4  10  20  34  51  73  97 125 168 215 262 316
#     4  10  23  37  50  72 101 132 168 214 261 311
#
# _framework density 15.924348
#
# number of rings (size 3 to 8) (size 9 to 14) (size 15 to 20)
#    0.750    1.375    2.500    1.875    0.000    2.250 
#    0.000    0.000    0.000    0.000    0.000    0.875 
#    0.000    7.000    0.000    0.000    0.000    0.000 
#
# Total GULP energy -178174.830784 kJ/mol
# GULP energy per Si atom -5567.963462 kJ/mol
# Density = 1.588810 g / cm^3
# Si number density = 15.924348 Si / 1000 Ang^3
#
#
#
# Elastic Constant Matrix: (Units=GPa)
#
#
# Indices 1 2 3 4 5 6 
#
# 1 86.7162 32.3225 49.4427 0.0000 0.3091 0.0000
# 2 32.3225 59.6801 54.5698 0.0000 -3.6041 0.0000
# 3 49.4427 54.5698 135.8196 0.0000 -6.5327 0.0000
# 4 0.0000 0.0000 0.0000 30.6817 0.0000 4.0379
# 5 0.3091 -3.6041 -6.5327 0.0000 18.8843 0.0000
# 6 0.0000 0.0000 0.0000 4.0379 0.0000 16.7064
#
#
#
# Elastic Compliance Matrix: (Units=1/GPa)
#
#
# Indices 1 2 3 4 5 6 
#
# 1 0.015596 -0.005212 -0.003705 0.000000 -0.002532 0.000000
# 2 -0.005212 0.028264 -0.009351 0.000000 0.002245 0.000000
# 3 -0.003705 -0.009351 0.012595 0.000000 0.002633 0.000000
# 4 0.000000 0.000000 0.000000 0.033664 0.000000 -0.008136
# 5 -0.002532 0.002245 0.002633 0.000000 0.054335 0.000000
# 6 0.000000 0.000000 0.000000 -0.008136 0.000000 0.061824
#
#
# Mechanical properties :
#
#
# Convention : Reuss Voigt Hill
#
# Bulk Modulus (GPa) = 50.20092 61.65401 55.92746
# Shear Modulus (GPa) = 20.04381 22.97988 21.51185
#
# Velocity S-wave (km/s) = 3.55165 3.80289 3.67942
# Velocity P-wave (km/s) = 6.95788 7.62125 7.29711
#
# Compressibility (1/GPa) = 0.01991995
#
# Stress axis : x y z
#
# Youngs Moduli (GPa) = 64.11846 35.38023 79.39518
#
# Poissons Ratio (x) = 0.18439 0.29418
# Poissons Ratio (y) = 0.33416 0.74242
# Poissons Ratio (z) = 0.23758 0.33084
#
# Static dielectric constant tensor:
#      x y z
#    x 1.523540 0.000000 -0.007610 
#    y 0.000000 1.533540 0.000000 
#    z -0.007610 0.000000 1.545960 
# 
# From -- ./inp_files/345585.got.cif
#   From: 2010.05.17/outbox.cif.g08.bks.cpg/sg12_173_cif.got.tgz:345585.got - 2010.06.03 13:09:07.
