data_PCOD9172806
_publ_section_title
;
Structure prediction by ZEFSAII (Michael W. Deem and Ramdas Pophale) SiO2 
 PCOD9172806
Probable space group: C 2/M
;
_chemical_formula_sum "Si O2"
_cell_formula_units_Z 56
_cell_length_a 26.777845
_cell_length_b 7.513465
_cell_length_c 14.804219
_cell_angle_alpha 90.000000
_cell_angle_beta 90.472490
_cell_angle_gamma 90.000000
_cell_volume 2978.424700
_symmetry_space_group_name_H-M "C 2/M"
_symmetry_group_IT_number 12
_symmetry_cell_setting 'monoclinic'
loop_
_space_group_symop_operation_xyz
x,y,z
-x,y,-z
-x,-y,-z
x,-y,z
1/2+x,1/2+y,z
1/2-x,1/2+y,-z
1/2-x,1/2-y,-z
1/2+x,1/2-y,z
loop_
_atom_site_type_symbol
_atom_site_label
_atom_site_fract_x
_atom_site_fract_y
_atom_site_fract_z
Si Si1 0.442253 0.217574 0.600492
Si Si2 0.057785 0.285616 0.600774
Si Si3 0.903093 0.209665 0.206815
Si Si4 0.693317 0.216478 0.098205
Si Si5 0.305158 0.709472 0.111156
Si Si6 0.398096 0.210271 0.784122
Si Si7 0.998551 0.784608 0.895775
O O1 0.426545 0.273063 0.499462
O O2 0.500156 0.271661 0.614134
O O3 0.410122 0.282145 0.684524
O O4 0.442007 0.000000 0.601709
O O5 0.057535 0.500000 0.600322
O O6 0.090117 0.227771 0.686117
O O7 0.851228 0.285750 0.168554
O O8 0.952734 0.281373 0.157937
O O9 0.902430 0.000000 0.184677
O O10 0.749066 0.281027 0.123775
O O11 0.649856 0.281812 0.163613
O O12 0.693599 0.000000 0.098712
O O13 0.683093 0.271057 0.994882
O O14 0.301774 0.500000 0.132636
O O15 0.447827 0.230798 0.844956
O O16 0.389114 0.000000 0.772921
O O17 0.999182 0.000000 0.895474
O O18 0.000000 0.725897 0.000000
#
# Coordination Sequence:
#
# PCOD9172806 Si02
#       7
#     8   8   8   8   8   8   8
#     4   8  15  28  46  67  90 117 147 184 228 269
#     4   9  16  29  48  66  88 119 152 184 223 269
#     4  10  19  30  45  66  92 121 151 183 222 267
#     4   9  18  31  49  71  89 114 156 194 222 259
#     4   9  18  33  49  65  91 124 153 185 224 264
#     4  10  18  30  48  69  91 114 147 190 228 263
#     4  10  20  31  42  62  93 125 150 173 216 276
#
# _framework density 18.801886
#
# number of rings (size 3 to 8) (size 9 to 14) (size 15 to 20)
#    0.000    2.714    1.429    1.714    0.000    2.571 
#    0.000    2.143    0.000    0.857    0.000    0.000 
#    0.000    0.000    0.000    0.000    0.000    0.000 
#
# Total GULP energy -156182.577809 kJ/mol
# GULP energy per Si atom -5577.949207 kJ/mol
# Density = 1.875909 g / cm^3
# Si number density = 18.801886 Si / 1000 Ang^3
#
#
#
# Elastic Constant Matrix: (Units=GPa)
#
#
# Indices 1 2 3 4 5 6 
#
# 1 144.2769 -3.8591 101.5559 0.0000 1.0226 0.0000
# 2 -3.8591 42.3450 -14.8061 0.0000 1.5082 0.0000
# 3 101.5559 -14.8061 143.3603 0.0000 -2.8293 0.0000
# 4 0.0000 0.0000 0.0000 23.8349 0.0000 3.2945
# 5 1.0226 1.5082 -2.8293 0.0000 22.3663 0.0000
# 6 0.0000 0.0000 0.0000 3.2945 0.0000 8.5675
#
#
#
# Elastic Compliance Matrix: (Units=1/GPa)
#
#
# Indices 1 2 3 4 5 6 
#
# 1 0.014105 -0.002238 -0.010258 0.000000 -0.001792 0.000000
# 2 -0.002238 0.024895 0.004135 0.000000 -0.001053 0.000000
# 3 -0.010258 0.004135 0.014710 0.000000 0.002051 0.000000
# 4 0.000000 0.000000 0.000000 0.044310 0.000000 -0.017039
# 5 -0.001792 -0.001053 0.002051 0.000000 0.045123 0.000000
# 6 0.000000 0.000000 0.000000 -0.017039 0.000000 0.123272
#
#
# Mechanical properties :
#
#
# Convention : Reuss Voigt Hill
#
# Bulk Modulus (GPa) = 27.03501 55.08484 41.05993
# Shear Modulus (GPa) = 16.92250 27.42651 22.17450
#
# Velocity S-wave (km/s) = 3.00333 3.82345 3.43793
# Velocity P-wave (km/s) = 5.14166 6.98948 6.13553
#
# Compressibility (1/GPa) = 0.03698907
#
# Stress axis : x y z
#
# Youngs Moduli (GPa) = 70.89888 40.16855 67.98187
#
# Poissons Ratio (x) = 0.08988 0.69736
# Poissons Ratio (y) = 0.15864 -0.28113
# Poissons Ratio (z) = 0.72729 -0.16611
#
# Static dielectric constant tensor:
#      x y z
#    x 1.649120 0.000000 -0.012970 
#    y 0.000000 1.712330 0.000000 
#    z -0.012970 0.000000 1.640620 
# 
# From -- ./inp_files/173936.got.cif
#   From: 2010.05.17/outbox.cif.g08.bks.cpg/sg12_87_cif.got.tgz:173936.got - 2010.06.03 13:09:07.
