data_PCOD9172632
_publ_section_title
;
Structure prediction by ZEFSAII (Michael W. Deem and Ramdas Pophale) SiO2 
 PCOD9172632
Probable space group: C 2/M
;
_chemical_formula_sum "Si O2"
_cell_formula_units_Z 56
_cell_length_a 20.111822
_cell_length_b 27.661619
_cell_length_c 5.868260
_cell_angle_alpha 90.000000
_cell_angle_beta 138.626982
_cell_angle_gamma 90.000000
_cell_volume 2157.806921
_symmetry_space_group_name_H-M "C 2/M"
_symmetry_group_IT_number 12
_symmetry_cell_setting 'monoclinic'
loop_
_space_group_symop_operation_xyz
x,y,z
-x,y,-z
-x,-y,-z
x,-y,z
1/2+x,1/2+y,z
1/2-x,1/2+y,-z
1/2-x,1/2-y,-z
1/2+x,1/2-y,z
loop_
_atom_site_type_symbol
_atom_site_label
_atom_site_fract_x
_atom_site_fract_y
_atom_site_fract_z
Si Si1 0.354611 0.052046 0.734397
Si Si2 0.902322 0.345490 0.639728
Si Si3 0.112063 0.055711 0.154779
Si Si4 0.833053 0.396798 0.076747
Si Si5 0.299758 0.690780 0.385180
Si Si6 0.132993 0.941246 0.717037
Si Si7 0.810234 0.209388 0.903004
O O1 0.390978 0.100809 0.712930
O O2 0.233934 0.052419 0.459251
O O3 0.383821 0.000000 0.715954
O O4 0.388774 0.062204 0.080476
O O5 0.906524 0.359850 0.388756
O O6 0.799466 0.316175 0.396941
O O7 0.000000 0.321720 0.000000
O O8 0.088368 0.073225 0.352533
O O9 0.078535 0.000000 0.052964
O O10 0.090073 0.077511 0.848097
O O11 0.760610 0.359243 0.754883
O O12 0.748876 0.423866 0.012147
O O13 0.217472 0.734033 0.164505
O O14 0.358461 0.697253 0.778150
O O15 0.350167 0.693955 0.259162
O O16 0.131177 0.000000 0.715105
#
# Coordination Sequence:
#
# PCOD9172632 Si02
#       7
#     8   8   8   8   8   8   8
#     4  10  19  31  43  58  83 116 155 189 223 256
#     4  11  22  33  45  61  87 118 152 189 228 271
#     4   8  14  23  36  50  67  96 129 164 197 230
#     4  10  18  30  45  63  81 109 146 190 226 267
#     4   9  17  30  54  66  85 101 137 187 231 269
#     4   9  15  23  37  54  75 100 129 164 203 242
#     4   9  18  34  47  70  83 106 137 185 228 273
#
# _framework density 25.952273999999999
#
# number of rings (size 3 to 8) (size 9 to 14) (size 15 to 20)
#    0.000    2.571    2.857    1.286    0.000    1.429 
#    0.000    0.714    0.000    0.000    0.000    0.000 
#    0.000    0.000    0.000    0.000    0.000    2.857 
#
# Total GULP energy -155971.210526 kJ/mol
# GULP energy per Si atom -5570.400376 kJ/mol
# Density = 2.589321 g / cm^3
# Si number density = 25.952274 Si / 1000 Ang^3
#
#
#
# Elastic Constant Matrix: (Units=GPa)
#
#
# Indices 1 2 3 4 5 6 
#
# 1 99.0863 16.9292 51.0629 0.0000 -37.7769 0.0000
# 2 16.9292 109.4688 -6.6903 0.0000 -0.2675 0.0000
# 3 51.0629 -6.6903 132.6930 0.0000 -43.3312 0.0000
# 4 0.0000 0.0000 0.0000 24.9959 0.0000 -23.9403
# 5 -37.7769 -0.2675 -43.3312 0.0000 56.2334 0.0000
# 6 0.0000 0.0000 0.0000 -23.9403 0.0000 24.8583
#
#
#
# Elastic Compliance Matrix: (Units=1/GPa)
#
#
# Indices 1 2 3 4 5 6 
#
# 1 0.015200 -0.002549 -0.003537 0.000000 0.007473 0.000000
# 2 -0.002549 0.009603 0.001230 0.000000 -0.000718 0.000000
# 3 -0.003537 0.001230 0.010938 0.000000 0.006058 0.000000
# 4 0.000000 0.000000 0.000000 0.515550 0.000000 0.496512
# 5 0.007473 -0.000718 0.006058 0.000000 0.027468 0.000000
# 6 0.000000 0.000000 0.000000 0.496512 0.000000 0.518404
#
#
# Mechanical properties :
#
#
# Convention : Reuss Voigt Hill
#
# Bulk Modulus (GPa) = 38.41891 51.53908 44.97899
# Shear Modulus (GPa) = 4.48210 39.88061 22.18135
#
# Velocity S-wave (km/s) = 1.31560 3.92432 2.92669
# Velocity P-wave (km/s) = 4.14048 6.35893 5.36561
#
# Compressibility (1/GPa) = 0.02602885
#
# Stress axis : x y z
#
# Youngs Moduli (GPa) = 65.79082 104.13859 91.42805
#
# Poissons Ratio (x) = 0.26540 0.32340
# Poissons Ratio (y) = 0.16767 -0.11248
# Poissons Ratio (z) = 0.23272 -0.12812
#
# Static dielectric constant tensor:
#      x y z
#    x 2.202650 0.000000 -0.127880 
#    y 0.000000 1.978940 0.000000 
#    z -0.127880 0.000000 2.345230 
# 
# From -- ./inp_files/18161.got.cif
#   From: 2010.05.17/outbox.cif.g08.bks.cpg/sg12_10_cif.got.tgz:18161.got - 2010.06.03 13:09:07.
