data_PCOD9172902
_publ_section_title
;
Structure prediction by ZEFSAII (Michael W. Deem and Ramdas Pophale) SiO2 
 PCOD9172902
Probable space group: C 2/M
;
_chemical_formula_sum "Si O2"
_cell_formula_units_Z 56
_cell_length_a 19.979930
_cell_length_b 7.508804
_cell_length_c 18.874005
_cell_angle_alpha 90.000000
_cell_angle_beta 94.704893
_cell_angle_gamma 90.000000
_cell_volume 2822.038409
_symmetry_space_group_name_H-M "C 2/M"
_symmetry_group_IT_number 12
_symmetry_cell_setting 'monoclinic'
loop_
_space_group_symop_operation_xyz
x,y,z
-x,y,-z
-x,-y,-z
x,-y,z
1/2+x,1/2+y,z
1/2-x,1/2+y,-z
1/2-x,1/2-y,-z
1/2+x,1/2-y,z
loop_
_atom_site_type_symbol
_atom_site_label
_atom_site_fract_x
_atom_site_fract_y
_atom_site_fract_z
Si Si1 0.329893 0.713792 0.007784
Si Si2 0.049387 0.793222 0.072946
Si Si3 0.575711 0.281074 0.854451
Si Si4 0.010161 0.781421 0.419723
Si Si5 0.345785 0.705319 0.564233
Si Si6 0.701360 0.211115 0.589383
Si Si7 0.603192 0.713443 0.698380
O O1 0.336114 0.500000 0.006677
O O2 0.368200 0.773736 0.082875
O O3 0.250000 0.750000 0.000000
O O4 0.378643 0.780472 0.947609
O O5 0.999048 0.719470 0.128435
O O6 0.061531 0.000000 0.092923
O O7 0.000000 0.790417 0.000000
O O8 0.574336 0.500000 0.855869
O O9 0.594892 0.221938 0.777472
O O10 0.084179 0.718616 0.404544
O O11 0.000000 0.725378 0.500000
O O12 0.954188 0.719970 0.360202
O O13 0.009542 0.000000 0.419914
O O14 0.344973 0.500000 0.586895
O O15 0.343183 0.709495 0.478150
O O16 0.276161 0.785024 0.584809
O O17 0.671892 0.244907 0.663780
O O18 0.701938 0.000000 0.576181
O O19 0.597114 0.500000 0.700804
#
# Coordination Sequence:
#
# PCOD9172902 Si02
#       7
#     8   8   8   8   8   8   8
#     4   9  16  28  48  73  97 119 147 185 224 267
#     4   7  11  23  44  67  89 113 147 188 218 247
#     4   8  15  28  47  69  89 117 157 189 217 265
#     4   9  15  26  46  67  83 106 148 196 225 249
#     4   9  17  31  47  63  85 115 154 193 229 271
#     4  10  19  29  44  66  92 119 146 184 232 280
#     4  10  18  30  49  67  87 118 154 191 229 269
#
# _framework density 19.843813000000001
#
# number of rings (size 3 to 8) (size 9 to 14) (size 15 to 20)
#    0.000    3.143    1.429    2.143    0.000    0.571 
#    0.000    3.571    0.000    8.143    0.000    0.000 
#    0.000    0.000    0.000    0.000    0.000    0.000 
#
# Total GULP energy -155922.807716 kJ/mol
# GULP energy per Si atom -5568.671704 kJ/mol
# Density = 1.979865 g / cm^3
# Si number density = 19.843813 Si / 1000 Ang^3
#
#
#
# Elastic Constant Matrix: (Units=GPa)
#
#
# Indices 1 2 3 4 5 6 
#
# 1 154.1075 2.4286 68.0898 0.0000 -21.8318 0.0000
# 2 2.4286 53.2693 0.9241 0.0000 2.2177 0.0000
# 3 68.0898 0.9241 115.0035 0.0000 -28.0466 0.0000
# 4 0.0000 0.0000 0.0000 3.2781 0.0000 -1.9565
# 5 -21.8318 2.2177 -28.0466 0.0000 28.8016 0.0000
# 6 0.0000 0.0000 0.0000 -1.9565 0.0000 12.9609
#
#
#
# Elastic Compliance Matrix: (Units=1/GPa)
#
#
# Indices 1 2 3 4 5 6 
#
# 1 0.008894 -0.000413 -0.004735 0.000000 0.002163 0.000000
# 2 -0.000413 0.018891 -0.000444 0.000000 -0.002200 0.000000
# 3 -0.004735 -0.000444 0.013948 0.000000 0.010027 0.000000
# 4 0.000000 0.000000 0.000000 0.335256 0.000000 0.050607
# 5 0.002163 -0.002200 0.010027 0.000000 0.046293 0.000000
# 6 0.000000 0.000000 0.000000 0.050607 0.000000 0.084794
#
#
# Mechanical properties :
#
#
# Convention : Reuss Voigt Hill
#
# Bulk Modulus (GPa) = 32.73493 51.69616 42.21554
# Shear Modulus (GPa) = 9.44390 25.73731 17.59061
#
# Velocity S-wave (km/s) = 2.18391 3.60529 2.98057
# Velocity P-wave (km/s) = 4.78449 6.59082 5.75892
#
# Compressibility (1/GPa) = 0.03054841
#
# Stress axis : x y z
#
# Youngs Moduli (GPa) = 112.43555 52.93624 71.69566
#
# Poissons Ratio (x) = 0.02188 0.33949
# Poissons Ratio (y) = 0.04648 0.03180
# Poissons Ratio (z) = 0.53240 0.02348
#
# Static dielectric constant tensor:
#      x y z
#    x 1.751090 0.000000 -0.029320 
#    y 0.000000 1.782210 0.000000 
#    z -0.029320 0.000000 1.681750 
# 
# From -- ./inp_files/280249.got.cif
#   From: 2010.05.17/outbox.cif.g08.bks.cpg/sg12_141_cif.got.tgz:280249.got - 2010.06.03 13:09:07.
