data_PCOD9172759
_publ_section_title
;
Structure prediction by ZEFSAII (Michael W. Deem and Ramdas Pophale) SiO2 
 PCOD9172759
Probable space group: C 2/M
;
_chemical_formula_sum "Si O2"
_cell_formula_units_Z 64
_cell_length_a 31.081853
_cell_length_b 7.841746
_cell_length_c 23.700922
_cell_angle_alpha 90.000000
_cell_angle_beta 40.111203
_cell_angle_gamma 90.000000
_cell_volume 3721.816598
_symmetry_space_group_name_H-M "C 2/M"
_symmetry_group_IT_number 12
_symmetry_cell_setting 'monoclinic'
loop_
_space_group_symop_operation_xyz
x,y,z
-x,y,-z
-x,-y,-z
x,-y,z
1/2+x,1/2+y,z
1/2-x,1/2+y,-z
1/2-x,1/2-y,-z
1/2+x,1/2-y,z
loop_
_atom_site_type_symbol
_atom_site_label
_atom_site_fract_x
_atom_site_fract_y
_atom_site_fract_z
Si Si1 0.005027 0.801102 0.866904
Si Si2 0.363079 0.293306 0.199021
Si Si3 0.771450 0.795176 0.389390
Si Si4 0.499045 0.199012 0.744831
Si Si5 0.629815 0.797973 0.938021
Si Si6 0.645656 0.206691 0.582943
Si Si7 0.353953 0.204169 0.872385
Si Si8 0.272477 0.205587 0.064082
O O1 0.068205 0.737464 0.839519
O O2 0.997266 0.709849 0.814712
O O3 0.016813 0.000000 0.842111
O O4 0.938126 0.783802 0.970564
O O5 0.363583 0.500000 0.197989
O O6 0.302251 0.233648 0.299747
O O7 0.360080 0.234901 0.137883
O O8 0.699362 0.731486 0.482844
O O9 0.823534 0.753922 0.387187
O O10 0.766991 0.000000 0.390340
O O11 0.570157 0.272765 0.654071
O O12 0.429068 0.273502 0.793026
O O13 0.500141 0.000000 0.727376
O O14 0.691759 0.737969 0.914483
O O15 0.622435 0.000000 0.954654
O O16 0.644053 0.000000 0.582334
O O17 0.302982 0.239632 0.872888
O O18 0.359192 0.000000 0.873501
O O19 0.317651 0.268452 0.965952
O O20 0.272765 0.000000 0.062541
#
# Coordination Sequence:
#
# PCOD9172759 Si02
#       8
#     8   8   8   8   8   8   8   8
#     4  11  21  32  46  66  95 129 161 190 224 268
#     4  10  21  34  46  65  95 127 161 195 226 267
#     4   9  17  31  46  66  95 124 154 192 230 267
#     4  10  18  30  47  71  98 123 155 190 227 274
#     4  11  22  35  49  66  91 123 160 199 231 268
#     4   9  17  28  48  70  92 123 155 188 230 274
#     4   9  17  30  47  66  92 119 147 187 232 275
#     4   9  18  32  46  65  90 116 150 191 232 273
#
# _framework density 17.195905
#
# number of rings (size 3 to 8) (size 9 to 14) (size 15 to 20)
#    0.000    2.250    2.500    1.125    0.000    4.500 
#    0.000    0.000    0.000    0.000    0.000    0.875 
#    0.000    7.000    0.000    0.000    0.000    0.000 
#
# Total GULP energy -178462.244576 kJ/mol
# GULP energy per Si atom -5576.945143 kJ/mol
# Density = 1.715677 g / cm^3
# Si number density = 17.195905 Si / 1000 Ang^3
#
#
#
# Elastic Constant Matrix: (Units=GPa)
#
#
# Indices 1 2 3 4 5 6 
#
# 1 111.4016 -1.8135 67.7323 -0.0008 -24.2373 0.0145
# 2 -1.8135 18.2428 -2.1977 -0.0117 -3.3801 -0.0185
# 3 67.7323 -2.1977 104.0703 -0.0007 -27.3431 0.0001
# 4 -0.0008 -0.0117 -0.0007 10.6102 -0.0023 1.4576
# 5 -24.2373 -3.3801 -27.3431 -0.0023 28.5721 0.0016
# 6 0.0145 -0.0185 0.0001 1.4576 0.0016 19.7523
#
#
#
# Elastic Compliance Matrix: (Units=1/GPa)
#
#
# Indices 1 2 3 4 5 6 
#
# 1 0.015329 0.001383 -0.008667 0.000005 0.004872 -0.000011
# 2 0.001383 0.057385 0.003211 0.000060 0.011035 0.000047
# 3 -0.008667 0.003211 0.018015 0.000005 0.010268 0.000008
# 4 0.000005 0.000060 0.000005 0.095215 0.000024 -0.007026
# 5 0.004872 0.011035 0.010268 0.000024 0.050264 0.000001
# 6 -0.000011 0.000047 0.000008 -0.007026 0.000001 0.051145
#
#
# Mechanical properties :
#
#
# Convention : Reuss Voigt Hill
#
# Bulk Modulus (GPa) = 12.10910 40.12854 26.11882
# Shear Modulus (GPa) = 15.47855 23.11981 19.29918
#
# Velocity S-wave (km/s) = 3.00347 3.67071 3.35373
# Velocity P-wave (km/s) = 4.36863 6.43057 5.49715
#
# Compressibility (1/GPa) = 0.08258249
#
# Stress axis : x y z
#
# Youngs Moduli (GPa) = 65.23711 17.42613 55.50824
#
# Poissons Ratio (x) = -0.02409 0.48109
# Poissons Ratio (y) = -0.09019 -0.17825
# Poissons Ratio (z) = 0.56541 -0.05596
#
# Static dielectric constant tensor:
#      x y z
#    x 1.578410 -0.000010 -0.034930 
#    y -0.000010 1.629550 0.000010 
#    z -0.034930 0.000010 1.594160 
# 
# From -- ./inp_files/326819.got.cif
#   From: 2010.05.17/outbox.cif.g08.bks.cpg/sg12_164_cif.got.tgz:326819.got - 2010.06.03 13:09:07.
