data_PCOD9172038
_publ_section_title
;
Structure prediction by ZEFSAII (Michael W. Deem and Ramdas Pophale) SiO2 
 PCOD9172038
Probable space group: C 2/M
;
_chemical_formula_sum "Si O2"
_cell_formula_units_Z 64
_cell_length_a 28.778739
_cell_length_b 9.173915
_cell_length_c 21.044995
_cell_angle_alpha 90.000000
_cell_angle_beta 133.940972
_cell_angle_gamma 90.000000
_cell_volume 4000.746344
_symmetry_space_group_name_H-M "C 2/M"
_symmetry_group_IT_number 12
_symmetry_cell_setting 'monoclinic'
loop_
_space_group_symop_operation_xyz
x,y,z
-x,y,-z
-x,-y,-z
x,-y,z
1/2+x,1/2+y,z
1/2-x,1/2+y,-z
1/2-x,1/2-y,-z
1/2+x,1/2-y,z
loop_
_atom_site_type_symbol
_atom_site_label
_atom_site_fract_x
_atom_site_fract_y
_atom_site_fract_z
Si Si1 0.185599 0.175276 0.257485
Si Si2 0.682083 0.829234 0.660513
Si Si3 0.537198 0.675385 0.099540
Si Si4 0.483318 0.832273 0.790879
Si Si5 0.501779 0.326002 0.322472
Si Si6 0.826946 0.333153 0.624889
Si Si7 0.863546 0.328011 0.527235
Si Si8 0.940542 0.175116 0.397616
O O1 0.243622 0.222742 0.266203
O O2 0.113195 0.215855 0.167887
O O3 0.195772 0.237400 0.337897
O O4 0.188990 0.000000 0.264322
O O5 0.665740 0.817443 0.570085
O O6 0.626837 0.743249 0.644736
O O7 0.678699 0.000000 0.674989
O O8 0.534050 0.500000 0.104367
O O9 0.507677 0.750717 0.133862
O O10 0.500000 0.714936 0.000000
O O11 0.513586 0.751192 0.758889
O O12 0.405579 0.831088 0.705802
O O13 0.503897 0.000000 0.813504
O O14 0.502494 0.500000 0.314975
O O15 0.572787 0.269563 0.409160
O O16 0.457237 0.288713 0.340482
O O17 0.804533 0.500000 0.611195
O O18 0.818050 0.284970 0.543351
O O19 0.879915 0.500000 0.553132
O O20 0.000000 0.223899 0.500000
O O21 0.937255 0.000000 0.400171
#
# Coordination Sequence:
#
# PCOD9172038 Si02
#       8
#     8   8   8   8   8   8   8   8
#     4   9  18  31  44  64  92 119 152 190 226 272
#     4  10  20  31  44  62  88 122 158 196 235 274
#     4   9  17  31  52  75  99 126 153 183 226 281
#     4   9  17  29  46  70  98 122 150 189 231 277
#     4  10  18  29  46  65  90 121 156 198 236 270
#     4   8  15  27  41  58  84 118 152 184 220 265
#     4   9  17  28  41  60  86 118 157 194 229 268
#     4  10  20  33  46  65  90 119 161 206 239 271
#
# _framework density 15.997014999999999
#
# number of rings (size 3 to 8) (size 9 to 14) (size 15 to 20)
#    0.000    2.750    1.250    1.500    0.000    5.500 
#    0.000    0.000    0.000    0.000    0.000    0.875 
#    0.000    0.000    0.000    0.000    0.000    0.000 
#
# Total GULP energy -178282.900960 kJ/mol
# GULP energy per Si atom -5571.340655 kJ/mol
# Density = 1.596061 g / cm^3
# Si number density = 15.997015 Si / 1000 Ang^3
#
#
#
# Elastic Constant Matrix: (Units=GPa)
#
#
# Indices 1 2 3 4 5 6 
#
# 1 145.7972 53.8154 48.9078 0.0000 -7.3262 0.0000
# 2 53.8154 36.2877 30.6636 0.0000 -8.1181 0.0000
# 3 48.9078 30.6636 72.9209 0.0000 -14.1087 0.0000
# 4 0.0000 0.0000 0.0000 13.0216 0.0000 -6.8613
# 5 -7.3262 -8.1181 -14.1087 0.0000 19.5814 0.0000
# 6 0.0000 0.0000 0.0000 -6.8613 0.0000 25.6210
#
#
#
# Elastic Compliance Matrix: (Units=1/GPa)
#
#
# Indices 1 2 3 4 5 6 
#
# 1 0.015604 -0.022637 -0.001897 0.000000 -0.004914 0.000000
# 2 -0.022637 0.076111 -0.014358 0.000000 0.012740 0.000000
# 3 -0.001897 -0.014358 0.022931 0.000000 0.009860 0.000000
# 4 0.000000 0.000000 0.000000 0.089412 0.000000 0.023944
# 5 -0.004914 0.012740 0.009860 0.000000 0.061616 0.000000
# 6 0.000000 0.000000 0.000000 0.023944 0.000000 0.045443
#
#
# Mechanical properties :
#
#
# Convention : Reuss Voigt Hill
#
# Bulk Modulus (GPa) = 27.12784 57.97551 42.55167
# Shear Modulus (GPa) = 12.46295 19.75274 16.10784
#
# Velocity S-wave (km/s) = 2.79423 3.51775 3.17666
# Velocity P-wave (km/s) = 5.23499 7.26771 6.33343
#
# Compressibility (1/GPa) = 0.03686249
#
# Stress axis : x y z
#
# Youngs Moduli (GPa) = 64.08625 13.13865 43.60883
#
# Poissons Ratio (x) = 0.29742 0.08274
# Poissons Ratio (y) = 1.45073 0.62612
# Poissons Ratio (z) = 0.12159 0.18864
#
# Static dielectric constant tensor:
#      x y z
#    x 1.547330 0.000000 0.007040 
#    y 0.000000 1.538430 0.000000 
#    z 0.007040 0.000000 1.539460 
# 
# From -- ./inp_files/326941.got.cif
#   From: 2010.05.17/outbox.cif.g08.bks.cpg/sg12_164_cif.got.tgz:326941.got - 2010.06.03 13:09:07.
