data_PCOD9172012
_publ_section_title
;
Structure prediction by ZEFSAII (Michael W. Deem and Ramdas Pophale) SiO2 
 PCOD9172012
Probable space group: C 2/M
;
_chemical_formula_sum "Si O2"
_cell_formula_units_Z 64
_cell_length_a 26.042613
_cell_length_b 7.795584
_cell_length_c 24.648155
_cell_angle_alpha 90.000000
_cell_angle_beta 46.243988
_cell_angle_gamma 90.000000
_cell_volume 3614.348888
_symmetry_space_group_name_H-M "C 2/M"
_symmetry_group_IT_number 12
_symmetry_cell_setting 'monoclinic'
loop_
_space_group_symop_operation_xyz
x,y,z
-x,y,-z
-x,-y,-z
x,-y,z
1/2+x,1/2+y,z
1/2-x,1/2+y,-z
1/2-x,1/2-y,-z
1/2+x,1/2-y,z
loop_
_atom_site_type_symbol
_atom_site_label
_atom_site_fract_x
_atom_site_fract_y
_atom_site_fract_z
Si Si1 0.165314 0.289355 0.420276
Si Si2 0.283710 0.293711 0.417252
Si Si3 0.689733 0.794090 0.999779
Si Si4 0.940600 0.199732 0.324112
Si Si5 0.076751 0.700897 0.162928
Si Si6 0.522536 0.800251 0.582724
Si Si7 0.196219 0.204092 0.162260
Si Si8 0.363804 0.207473 0.679012
O O1 0.165137 0.500000 0.422261
O O2 0.231409 0.229566 0.408340
O O3 0.091124 0.229213 0.501377
O O4 0.167023 0.237853 0.356321
O O5 0.285542 0.500000 0.410749
O O6 0.250000 0.250000 0.500000
O O7 0.365135 0.232142 0.357892
O O8 0.727155 0.735272 0.916821
O O9 0.681850 0.000000 0.002855
O O10 0.750000 0.750000 0.000000
O O11 0.616864 0.728392 0.079996
O O12 0.963454 0.289027 0.363312
O O13 0.003816 0.214941 0.234849
O O14 0.931195 0.000000 0.345141
O O15 0.062388 0.500000 0.165765
O O16 0.133446 0.718332 0.170915
O O17 0.444982 0.726557 0.626163
O O18 0.518976 0.000000 0.569365
O O19 0.180889 0.240233 0.235857
O O20 0.192368 0.000000 0.156165
O O21 0.366387 0.000000 0.677456
#
# Coordination Sequence:
#
# PCOD9172012 Si02
#       8
#     8   8   8   8   8   8   8   8
#     4   9  18  33  50  67  90 124 164 200 230 268
#     4  10  20  34  51  69  91 122 160 199 239 278
#     4   8  16  28  43  64  91 123 154 184 223 275
#     4  11  21  30  45  71  99 124 153 195 242 277
#     4  10  18  30  47  67  92 125 162 190 221 277
#     4  10  18  30  49  68  91 123 159 193 228 276
#     4  10  18  29  45  68  99 126 148 186 237 278
#     4  10  19  30  47  71  95 124 162 193 223 278
#
# _framework density 17.707201000000001
#
# number of rings (size 3 to 8) (size 9 to 14) (size 15 to 20)
#    0.000    2.250    2.500    1.500    0.000    3.000 
#    0.000    1.250    0.000    1.500    0.000    0.875 
#    0.000    7.000    0.000    0.000    0.000    0.000 
#
# Total GULP energy -178395.251020 kJ/mol
# GULP energy per Si atom -5574.851594 kJ/mol
# Density = 1.766690 g / cm^3
# Si number density = 17.707201 Si / 1000 Ang^3
#
#
#
# Elastic Constant Matrix: (Units=GPa)
#
#
# Indices 1 2 3 4 5 6 
#
# 1 102.2162 -4.3210 67.4997 0.0012 8.1151 0.0006
# 2 -4.3210 21.2127 -9.3868 0.0025 -0.0725 0.0105
# 3 67.4997 -9.3868 147.8478 0.0040 -7.2044 -0.0028
# 4 0.0012 0.0025 0.0040 18.1265 -0.0017 -0.3908
# 5 8.1151 -0.0725 -7.2044 -0.0017 14.4712 0.0015
# 6 0.0006 0.0105 -0.0028 -0.3908 0.0015 6.2691
#
#
#
# Elastic Compliance Matrix: (Units=1/GPa)
#
#
# Indices 1 2 3 4 5 6 
#
# 1 0.016082 -0.000306 -0.007995 -0.000001 -0.013000 -0.000002
# 2 -0.000306 0.048557 0.003324 -0.000009 0.002070 -0.000081
# 3 -0.007995 0.003324 0.011114 -0.000001 0.010033 -0.000002
# 4 -0.000001 -0.000009 -0.000001 0.055242 0.000006 0.003444
# 5 -0.013000 0.002070 0.010033 0.000006 0.081399 -0.000016
# 6 -0.000002 -0.000081 -0.000002 0.003444 -0.000016 0.159727
#
#
# Mechanical properties :
#
#
# Convention : Reuss Voigt Hill
#
# Bulk Modulus (GPa) = 15.19830 42.09560 28.64695
# Shear Modulus (GPa) = 12.37596 22.27234 17.32415
#
# Velocity S-wave (km/s) = 2.64658 3.55041 3.13128
# Velocity P-wave (km/s) = 4.23568 6.37432 5.41170
#
# Compressibility (1/GPa) = 0.06579682
#
# Stress axis : x y z
#
# Youngs Moduli (GPa) = 62.18102 20.59437 89.97805
#
# Poissons Ratio (x) = 0.00631 0.71939
# Poissons Ratio (y) = 0.01906 -0.29905
# Poissons Ratio (z) = 0.49715 -0.06845
#
# Static dielectric constant tensor:
#      x y z
#    x 1.578570 0.000000 -0.015960 
#    y 0.000000 1.643690 0.000000 
#    z -0.015960 0.000000 1.638350 
# 
# From -- ./inp_files/323773.got.cif
#   From: 2010.05.17/outbox.cif.g08.bks.cpg/sg12_162_cif.got.tgz:323773.got - 2010.06.03 13:09:07.
