data_PCOD9172004
_publ_section_title
;
Structure prediction by ZEFSAII (Michael W. Deem and Ramdas Pophale) SiO2 
 PCOD9172004
Probable space group: C 2/M
;
_chemical_formula_sum "Si O2"
_cell_formula_units_Z 48
_cell_length_a 27.429160
_cell_length_b 15.450255
_cell_length_c 8.916171
_cell_angle_alpha 90.000000
_cell_angle_beta 130.491402
_cell_angle_gamma 90.000000
_cell_volume 2873.609279
_symmetry_space_group_name_H-M "C 2/M"
_symmetry_group_IT_number 12
_symmetry_cell_setting 'monoclinic'
loop_
_space_group_symop_operation_xyz
x,y,z
-x,y,-z
-x,-y,-z
x,-y,z
1/2+x,1/2+y,z
1/2-x,1/2+y,-z
1/2-x,1/2-y,-z
1/2+x,1/2-y,z
loop_
_atom_site_type_symbol
_atom_site_label
_atom_site_fract_x
_atom_site_fract_y
_atom_site_fract_z
Si Si1 0.084437 0.595401 0.794494
Si Si2 0.786461 0.399668 0.752744
Si Si3 0.203163 0.234188 0.766483
Si Si4 0.673160 0.902683 0.510170
Si Si5 0.028263 0.647949 0.219654
Si Si6 0.562129 0.737230 0.543393
O O1 0.088655 0.500000 0.732158
O O2 0.024321 0.598811 0.786319
O O3 0.074042 0.671566 0.655168
O O4 0.147955 0.610679 0.020218
O O5 0.766592 0.500000 0.731030
O O6 0.735780 0.333090 0.718473
O O7 0.800503 0.385456 0.604899
O O8 0.193133 0.326257 0.662486
O O9 0.133381 0.198859 0.679608
O O10 0.250000 0.250000 0.000000
O O11 0.692901 0.000000 0.595842
O O12 0.596122 0.899296 0.345677
O O13 0.041505 0.737148 0.334644
O O14 0.000000 0.661628 0.000000
O O15 0.500000 0.695704 0.500000
#
# Coordination Sequence:
#
# PCOD9172004 Si02
#       6
#     8   8   8   8   8   8
#     4  10  18  29  45  68 101 136 166 197 244 303
#     4  10  20  34  51  72 100 137 175 214 256 302
#     4  11  21  35  53  75 103 138 175 215 260 305
#     4  10  21  34  51  77 108 138 172 208 250 310
#     4  10  18  29  47  73 105 139 167 195 241 309
#     4   9  20  33  47  70 102 133 170 211 253 303
#
# _framework density 16.703731999999999
#
# number of rings (size 3 to 8) (size 9 to 14) (size 15 to 20)
#    0.000    2.000    3.333    1.000    0.000    7.000 
#    0.000    0.000    0.000    0.500    0.000    0.000 
#    0.000   13.333    0.000    0.000    0.000    0.000 
#
# Total GULP energy -133836.137181 kJ/mol
# GULP energy per Si atom -5576.505716 kJ/mol
# Density = 1.666571 g / cm^3
# Si number density = 16.703732 Si / 1000 Ang^3
#
#
#
# Elastic Constant Matrix: (Units=GPa)
#
#
# Indices 1 2 3 4 5 6 
#
# 1 128.3539 46.3400 32.5591 0.0000 17.4857 0.0000
# 2 46.3400 50.5283 36.8283 0.0000 3.8505 0.0000
# 3 32.5591 36.8283 93.4571 0.0000 0.8510 0.0000
# 4 0.0000 0.0000 0.0000 16.3435 0.0000 -0.0306
# 5 17.4857 3.8505 0.8510 0.0000 32.8623 0.0000
# 6 0.0000 0.0000 0.0000 -0.0306 0.0000 6.7813
#
#
#
# Elastic Compliance Matrix: (Units=1/GPa)
#
#
# Indices 1 2 3 4 5 6 
#
# 1 0.012520 -0.011125 0.000071 0.000000 -0.005360 0.000000
# 2 -0.011125 0.037945 -0.011093 0.000000 0.001761 0.000000
# 3 0.000071 -0.011093 0.015039 0.000000 0.000872 0.000000
# 4 0.000000 0.000000 0.000000 0.061187 0.000000 0.000276
# 5 -0.005360 0.001761 0.000872 0.000000 0.033053 0.000000
# 6 0.000000 0.000000 0.000000 0.000276 0.000000 0.147466
#
#
# Mechanical properties :
#
#
# Convention : Reuss Voigt Hill
#
# Bulk Modulus (GPa) = 47.14919 55.97715 51.56317
# Shear Modulus (GPa) = 13.94411 21.63819 17.79115
#
# Velocity S-wave (km/s) = 2.89241 3.60309 3.26713
# Velocity P-wave (km/s) = 6.28034 7.13401 6.72075
#
# Compressibility (1/GPa) = 0.02120927
#
# Stress axis : x y z
#
# Youngs Moduli (GPa) = 79.87399 26.35368 66.49494
#
# Poissons Ratio (x) = 0.29320 -0.00474
# Poissons Ratio (y) = 0.88864 0.73763
# Poissons Ratio (z) = -0.00569 0.29234
#
# Static dielectric constant tensor:
#      x y z
#    x 1.596150 0.000000 0.004200 
#    y 0.000000 1.548430 0.000000 
#    z 0.004200 0.000000 1.566510 
# 
# From -- ./inp_files/111777.got.cif
#   From: 2010.05.17/outbox.cif.g08.bks.cpg/sg12_56_cif.got.tgz:111777.got - 2010.06.03 13:09:07.
