data_PCOD9172705
_publ_section_title
;
Structure prediction by ZEFSAII (Michael W. Deem and Ramdas Pophale) SiO2 
 PCOD9172705
Probable space group: C 2/M
;
_chemical_formula_sum "Si O2"
_cell_formula_units_Z 52
_cell_length_a 23.705421
_cell_length_b 12.161230
_cell_length_c 13.157154
_cell_angle_alpha 90.000000
_cell_angle_beta 126.664749
_cell_angle_gamma 90.000000
_cell_volume 3042.559133
_symmetry_space_group_name_H-M "C 2/M"
_symmetry_group_IT_number 12
_symmetry_cell_setting 'monoclinic'
loop_
_space_group_symop_operation_xyz
x,y,z
-x,y,-z
-x,-y,-z
x,-y,z
1/2+x,1/2+y,z
1/2-x,1/2+y,-z
1/2-x,1/2-y,-z
1/2+x,1/2-y,z
loop_
_atom_site_type_symbol
_atom_site_label
_atom_site_fract_x
_atom_site_fract_y
_atom_site_fract_z
Si Si1 0.501287 0.371672 0.697520
Si Si2 0.854524 0.625518 0.399650
Si Si3 0.721073 0.877628 0.344169
Si Si4 0.000000 0.284729 0.500000
Si Si5 0.354503 0.280226 0.593875
Si Si6 0.744536 0.285001 0.832860
Si Si7 0.839800 0.127608 0.065083
O O1 0.494380 0.500000 0.661675
O O2 0.503881 0.294887 0.601308
O O3 0.430900 0.335417 0.681593
O O4 0.576170 0.359165 0.833725
O O5 0.833573 0.500000 0.386097
O O6 0.931656 0.640750 0.436244
O O7 0.856130 0.684329 0.510547
O O8 0.803326 0.692782 0.271789
O O9 0.672499 0.779172 0.333831
O O10 0.794866 0.861563 0.484526
O O11 0.732777 0.861324 0.236625
O O12 0.693596 0.000000 0.335022
O O13 0.698555 0.348643 0.867917
O O14 0.807089 0.218658 0.955108
O O15 0.825499 0.000000 0.020669
#
# Coordination Sequence:
#
# PCOD9172705 Si02
#       7
#     8   8   8   4   8   8   8
#     4  10  19  33  53  77 106 134 168 217 266 308
#     4  10  18  30  48  73 106 140 169 207 253 304
#     4  10  19  35  56  78 105 139 173 214 258 306
#     4  10  18  30  46  78 104 136 168 208 256 316
#     4   9  20  33  52  80 108 134 171 214 256 317
#     4  10  20  34  53  77 103 136 181 215 250 311
#     4  10  20  35  54  76 104 137 171 218 265 303
#
# _framework density 17.090876999999999
#
# number of rings (size 3 to 8) (size 9 to 14) (size 15 to 20)
#    0.000    2.154    1.538    2.308    0.000    0.000 
#    0.000    3.077    0.000    2.769    0.000    0.000 
#    0.000    0.000    0.000    0.000    0.000    0.000 
#
# Total GULP energy -144956.961625 kJ/mol
# GULP energy per Si atom -5575.267755 kJ/mol
# Density = 1.705198 g / cm^3
# Si number density = 17.090877 Si / 1000 Ang^3
#
#
#
# Elastic Constant Matrix: (Units=GPa)
#
#
# Indices 1 2 3 4 5 6 
#
# 1 48.7668 -9.6914 14.9279 0.0000 3.6120 0.0000
# 2 -9.6914 59.8880 6.0230 0.0000 1.7390 0.0000
# 3 14.9279 6.0230 45.4803 0.0000 1.7220 0.0000
# 4 0.0000 0.0000 0.0000 -25.0376 0.0000 -38.3494
# 5 3.6120 1.7390 1.7220 0.0000 24.0216 0.0000
# 6 0.0000 0.0000 0.0000 -38.3494 0.0000 -41.9852
#
#
#
# Elastic Compliance Matrix: (Units=1/GPa)
#
#
# Indices 1 2 3 4 5 6 
#
# 1 0.024334 0.004892 -0.008506 0.000000 -0.003403 0.000000
# 2 0.004892 0.017934 -0.003914 0.000000 -0.001753 0.000000
# 3 -0.008506 -0.003914 0.025307 0.000000 -0.000252 0.000000
# 4 0.000000 0.000000 0.000000 0.100091 0.000000 -0.091424
# 5 -0.003403 -0.001753 -0.000252 0.000000 0.042286 0.000000
# 6 0.000000 0.000000 0.000000 -0.091424 0.000000 0.059689
#
#
# Mechanical properties :
#
#
# Convention : Reuss Voigt Hill
#
# Bulk Modulus (GPa) = 19.04085 19.62824 19.33454
# Shear Modulus (GPa) = 16.54509 0.92478 8.73494
#
# Velocity S-wave (km/s) = 3.11475 0.73639 2.26318
# Velocity P-wave (km/s) = 4.90925 3.49751 4.26223
#
# Compressibility (1/GPa) = 0.05251867
#
# Stress axis : x y z
#
# Youngs Moduli (GPa) = 41.09510 55.75973 39.51413
#
# Poissons Ratio (x) = -0.27278 0.33611
# Poissons Ratio (y) = -0.20104 0.15467
# Poissons Ratio (z) = 0.34956 0.21826
#
# Static dielectric constant tensor:
#      x y z
#    x 1.600080 0.000000 -0.001990 
#    y 0.000000 1.552340 0.000000 
#    z -0.001990 0.000000 1.562810 
# 
# From -- ./inp_files/165550.got.cif
#   From: 2010.05.17/outbox.cif.g08.bks.cpg/sg12_83_cif.got.tgz:165550.got - 2010.06.03 13:09:07.
