data_PCOD9172436
_publ_section_title
;
Structure prediction by ZEFSAII (Michael W. Deem and Ramdas Pophale) SiO2 
 PCOD9172436
Probable space group: C 2/M
;
_chemical_formula_sum "Si O2"
_cell_formula_units_Z 64
_cell_length_a 22.372337
_cell_length_b 7.832393
_cell_length_c 19.887958
_cell_angle_alpha 90.000000
_cell_angle_beta 60.384212
_cell_angle_gamma 90.000000
_cell_volume 3029.668187
_symmetry_space_group_name_H-M "C 2/M"
_symmetry_group_IT_number 12
_symmetry_cell_setting 'monoclinic'
loop_
_space_group_symop_operation_xyz
x,y,z
-x,y,-z
-x,-y,-z
x,-y,z
1/2+x,1/2+y,z
1/2-x,1/2+y,-z
1/2-x,1/2-y,-z
1/2+x,1/2-y,z
loop_
_atom_site_type_symbol
_atom_site_label
_atom_site_fract_x
_atom_site_fract_y
_atom_site_fract_z
Si Si1 0.476352 0.705951 0.255181
Si Si2 0.754493 0.697974 0.894062
Si Si3 0.599047 0.195506 0.978389
Si Si4 0.108272 0.200462 0.827235
Si Si5 0.779731 0.793060 0.587377
Si Si6 0.735546 0.302940 0.256819
Si Si7 0.358174 0.704857 0.414368
Si Si8 0.609167 0.795487 0.116350
O O1 0.475222 0.500000 0.256734
O O2 0.439278 0.763133 0.206640
O O3 0.429165 0.768503 0.342814
O O4 0.554826 0.760379 0.204970
O O5 0.739881 0.500000 0.917913
O O6 0.682688 0.796684 0.934996
O O7 0.781628 0.707295 0.802259
O O8 0.814813 0.768002 0.907657
O O9 0.578898 0.278229 0.918884
O O10 0.576213 0.000000 0.988308
O O11 0.580820 0.274158 0.060933
O O12 0.181415 0.294045 0.783747
O O13 0.122279 0.000000 0.809008
O O14 0.791316 0.733542 0.657051
O O15 0.704311 0.742560 0.602237
O O16 0.833295 0.731029 0.500990
O O17 0.781326 0.000000 0.588131
O O18 0.714547 0.500000 0.260790
O O19 0.363354 0.500000 0.416799
O O20 0.615227 0.000000 0.105464
#
# Coordination Sequence:
#
# PCOD9172436 Si02
#       8
#     8   8   8   8   8   8   8   8
#     4  10  21  34  51  72 101 137 169 201 241 291
#     4  10  20  35  54  75  97 127 164 209 254 293
#     4  10  20  35  54  76  98 125 161 209 256 295
#     4  10  19  32  49  74 103 133 164 200 245 295
#     4   9  17  28  48  76 104 131 162 199 242 289
#     4  10  18  29  49  78 104 130 162 202 248 294
#     4   9  17  31  48  72 104 134 164 199 238 288
#     4  10  23  38  52  71  97 130 170 208 249 296
#
# _framework density 21.124426
#
# number of rings (size 3 to 8) (size 9 to 14) (size 15 to 20)
#    0.000    2.250    1.250    3.375    0.000    4.500 
#    0.000    2.500    0.000    0.750    0.000    5.250 
#    0.000    0.000    0.000    0.000    0.000    0.000 
#
# Total GULP energy -178625.845714 kJ/mol
# GULP energy per Si atom -5582.057679 kJ/mol
# Density = 2.107635 g / cm^3
# Si number density = 21.124426 Si / 1000 Ang^3
#
#
#
# Elastic Constant Matrix: (Units=GPa)
#
#
# Indices 1 2 3 4 5 6 
#
# 1 40.8132 -1.1693 9.5438 0.0000 -2.0895 0.0005
# 2 -1.1693 36.3840 -3.5054 0.0001 1.6125 0.0010
# 3 9.5438 -3.5054 125.4796 0.0000 1.9722 -0.0001
# 4 0.0000 0.0001 0.0000 18.9696 0.0000 0.7822
# 5 -2.0895 1.6125 1.9722 0.0000 28.2195 0.0001
# 6 0.0005 0.0010 -0.0001 0.7822 0.0001 13.9720
#
#
#
# Elastic Compliance Matrix: (Units=1/GPa)
#
#
# Indices 1 2 3 4 5 6 
#
# 1 0.025067 0.000534 -0.001922 0.000000 0.001960 -0.000001
# 2 0.000534 0.027645 0.000757 0.000000 -0.001593 -0.000002
# 3 -0.001922 0.000757 0.008149 0.000000 -0.000755 0.000000
# 4 0.000000 0.000000 0.000000 0.052838 0.000000 -0.002958
# 5 0.001960 -0.001593 -0.000755 0.000000 0.035725 0.000000
# 6 -0.000001 -0.000002 0.000000 -0.002958 0.000000 0.071737
#
#
# Mechanical properties :
#
#
# Convention : Reuss Voigt Hill
#
# Bulk Modulus (GPa) = 16.77946 23.60165 20.19056
# Shear Modulus (GPa) = 20.63630 25.41940 23.02785
#
# Velocity S-wave (km/s) = 3.12892 3.47265 3.30526
# Velocity P-wave (km/s) = 4.58409 5.22264 4.91375
#
# Compressibility (1/GPa) = 0.05959666
#
# Stress axis : x y z
#
# Youngs Moduli (GPa) = 39.89295 36.17258 122.71968
#
# Poissons Ratio (x) = -0.01930 0.23592
# Poissons Ratio (y) = -0.02128 -0.09287
# Poissons Ratio (z) = 0.07669 -0.02737
#
# Static dielectric constant tensor:
#      x y z
#    x 1.746250 0.000000 0.017880 
#    y 0.000000 1.733310 0.000000 
#    z 0.017880 0.000000 1.831610 
# 
# From -- ./inp_files/324078.got.cif
#   From: 2010.05.17/outbox.cif.g08.bks.cpg/sg12_163_cif.got.tgz:324078.got - 2010.06.03 13:09:07.
