data_PCOD9172358
_publ_section_title
;
Structure prediction by ZEFSAII (Michael W. Deem and Ramdas Pophale) SiO2 
 PCOD9172358
Probable space group: C 2/M
;
_chemical_formula_sum "Si O2"
_cell_formula_units_Z 64
_cell_length_a 23.121536
_cell_length_b 7.800945
_cell_length_c 22.803536
_cell_angle_alpha 90.000000
_cell_angle_beta 46.247481
_cell_angle_gamma 90.000000
_cell_volume 2971.008439
_symmetry_space_group_name_H-M "C 2/M"
_symmetry_group_IT_number 12
_symmetry_cell_setting 'monoclinic'
loop_
_space_group_symop_operation_xyz
x,y,z
-x,y,-z
-x,-y,-z
x,-y,z
1/2+x,1/2+y,z
1/2-x,1/2+y,-z
1/2-x,1/2-y,-z
1/2+x,1/2-y,z
loop_
_atom_site_type_symbol
_atom_site_label
_atom_site_fract_x
_atom_site_fract_y
_atom_site_fract_z
Si Si1 0.822792 0.300973 0.775900
Si Si2 0.063415 0.206168 0.505171
Si Si3 0.507100 0.197320 0.796195
Si Si4 0.790078 0.207497 0.670325
Si Si5 0.851465 0.696423 0.070699
Si Si6 0.001952 0.706768 0.321990
Si Si7 0.841135 0.806355 0.947819
Si Si8 0.110933 0.291201 0.827836
O O1 0.812161 0.500000 0.801167
O O2 0.826972 0.288546 0.702848
O O3 0.743827 0.200191 0.849824
O O4 0.906596 0.229778 0.739119
O O5 0.152879 0.259020 0.423079
O O6 0.000000 0.268737 0.500000
O O7 0.040848 0.254655 0.586966
O O8 0.060267 0.000000 0.505009
O O9 0.533350 0.271327 0.714993
O O10 0.410986 0.201213 0.867448
O O11 0.543832 0.272646 0.830049
O O12 0.534269 0.000000 0.777690
O O13 0.696531 0.252845 0.738469
O O14 0.794015 0.000000 0.673091
O O15 0.878667 0.500000 0.042432
O O16 0.890184 0.768189 0.103578
O O17 0.860084 0.792625 0.003700
O O18 0.006680 0.500000 0.314699
O O19 0.848933 0.000000 0.921985
O O20 0.750000 0.750000 0.000000
O O21 0.107589 0.500000 0.835803
#
# Coordination Sequence:
#
# PCOD9172358 Si02
#       8
#     8   8   8   8   8   8   8   8
#     4  10  18  29  48  78 111 144 180 229 286 339
#     4  10  19  31  51  79 110 144 183 233 285 338
#     4  10  21  40  60  80 110 152 194 232 277 335
#     4   9  17  32  52  77 106 142 187 231 279 337
#     4  10  20  36  59  86 113 149 191 233 276 328
#     4  10  21  33  50  76 109 144 181 227 283 341
#     4  12  25  41  61  88 118 148 181 227 283 337
#     4   8  17  35  60  82 107 149 198 235 271 329
#
# _framework density 21.541506999999999
#
# number of rings (size 3 to 8) (size 9 to 14) (size 15 to 20)
#    0.000    2.125    1.250    3.375    0.000    3.250 
#    0.000    6.250    0.000    0.000    0.000    0.000 
#    0.000    0.000    0.000    0.000    0.000    0.000 
#
# Total GULP energy -178575.619969 kJ/mol
# GULP energy per Si atom -5580.488124 kJ/mol
# Density = 2.149248 g / cm^3
# Si number density = 21.541507 Si / 1000 Ang^3
#
#
#
# Elastic Constant Matrix: (Units=GPa)
#
#
# Indices 1 2 3 4 5 6 
#
# 1 103.1067 5.0340 45.9519 0.0035 16.4431 -0.0023
# 2 5.0340 32.5309 -10.1746 0.0126 2.6318 -0.0057
# 3 45.9519 -10.1746 106.3707 0.0037 27.7715 -0.0056
# 4 0.0035 0.0126 0.0037 23.2424 -0.0037 3.2290
# 5 16.4431 2.6318 27.7715 -0.0037 25.6767 0.0040
# 6 -0.0023 -0.0057 -0.0056 3.2290 0.0040 8.0160
#
#
#
# Elastic Compliance Matrix: (Units=1/GPa)
#
#
# Indices 1 2 3 4 5 6 
#
# 1 0.012505 -0.003394 -0.005193 0.000001 -0.002043 -0.000002
# 2 -0.003394 0.034210 0.007088 -0.000027 -0.008999 0.000044
# 3 -0.005193 0.007088 0.016226 -0.000012 -0.014950 0.000027
# 4 0.000001 -0.000027 -0.000012 0.045575 0.000025 -0.018359
# 5 -0.002043 -0.008999 -0.014950 0.000025 0.057347 -0.000056
# 6 -0.000002 0.000044 0.000027 -0.018359 -0.000056 0.132146
#
#
# Mechanical properties :
#
#
# Convention : Reuss Voigt Hill
#
# Bulk Modulus (GPa) = 16.68266 35.95898 26.32082
# Shear Modulus (GPa) = 15.57687 24.80014 20.18850
#
# Velocity S-wave (km/s) = 2.69199 3.39672 3.06468
# Velocity P-wave (km/s) = 4.17416 5.66681 4.97676
#
# Compressibility (1/GPa) = 0.05994250
#
# Stress axis : x y z
#
# Youngs Moduli (GPa) = 79.96982 29.23098 61.62994
#
# Poissons Ratio (x) = 0.09921 0.32006
# Poissons Ratio (y) = 0.27142 -0.43684
# Poissons Ratio (z) = 0.41530 -0.20719
#
# Static dielectric constant tensor:
#      x y z
#    x 1.813540 0.000000 0.010630 
#    y 0.000000 1.793410 0.000000 
#    z 0.010630 0.000000 1.799340 
# 
# From -- ./inp_files/324109.got.cif
#   From: 2010.05.17/outbox.cif.g08.bks.cpg/sg12_163_cif.got.tgz:324109.got - 2010.06.03 13:09:07.
