data_PCOD9172334
_publ_section_title
;
Structure prediction by ZEFSAII (Michael W. Deem and Ramdas Pophale) SiO2 
 PCOD9172334
Probable space group: C 2/M
;
_chemical_formula_sum "Si O2"
_cell_formula_units_Z 52
_cell_length_a 23.185417
_cell_length_b 13.105194
_cell_length_c 11.051279
_cell_angle_alpha 90.000000
_cell_angle_beta 111.387091
_cell_angle_gamma 90.000000
_cell_volume 3126.690973
_symmetry_space_group_name_H-M "C 2/M"
_symmetry_group_IT_number 12
_symmetry_cell_setting 'monoclinic'
loop_
_space_group_symop_operation_xyz
x,y,z
-x,y,-z
-x,-y,-z
x,-y,z
1/2+x,1/2+y,z
1/2-x,1/2+y,-z
1/2-x,1/2-y,-z
1/2+x,1/2-y,z
loop_
_atom_site_type_symbol
_atom_site_label
_atom_site_fract_x
_atom_site_fract_y
_atom_site_fract_z
Si Si1 0.763525 0.672757 0.192139
Si Si2 0.135262 0.119781 0.184546
Si Si3 0.500000 0.238110 0.500000
Si Si4 0.711671 0.386079 0.889274
Si Si5 0.461352 0.379246 0.686791
Si Si6 0.412476 0.696290 0.102243
Si Si7 0.098915 0.618757 0.735840
O O1 0.708604 0.640332 0.238600
O O2 0.765897 0.795019 0.178874
O O3 0.832439 0.633211 0.267345
O O4 0.744414 0.629657 0.044701
O O5 0.100032 0.141320 0.281788
O O6 0.125264 0.000000 0.148343
O O7 0.105308 0.182815 0.050969
O O8 0.466317 0.311359 0.570899
O O9 0.548748 0.168211 0.608244
O O10 0.722621 0.500000 0.853447
O O11 0.639191 0.367002 0.861939
O O12 0.464605 0.500000 0.662813
O O13 0.520371 0.347235 0.814210
O O14 0.404757 0.811269 0.146217
O O15 0.087576 0.500000 0.749939
#
# Coordination Sequence:
#
# PCOD9172334 Si02
#       7
#     8   8   4   8   8   8   8
#     4   9  17  27  44  70  95 124 158 188 227 284
#     4  10  18  29  48  75 105 128 147 182 237 296
#     4  10  22  36  50  68  88 120 172 216 232 266
#     4   9  15  25  43  69 101 128 150 183 227 279
#     4  10  19  32  51  72  97 127 155 192 240 283
#     4   9  17  28  48  77 101 123 152 188 231 289
#     4  10  19  33  52  69  91 128 166 201 236 267
#
# _framework density 16.631
#
# number of rings (size 3 to 8) (size 9 to 14) (size 15 to 20)
#    0.000    2.462    0.000    5.538    0.000    1.231 
#    0.000    1.538    0.000   12.923    0.000    0.000 
#    0.000    0.000    0.000    0.000    0.000    0.000 
#
# Total GULP energy -144972.806530 kJ/mol
# GULP energy per Si atom -5575.877174 kJ/mol
# Density = 1.659315 g / cm^3
# Si number density = 16.631000 Si / 1000 Ang^3
#
#
#
# Elastic Constant Matrix: (Units=GPa)
#
#
# Indices 1 2 3 4 5 6 
#
# 1 101.0503 45.7333 38.1227 0.0000 -5.8433 0.0000
# 2 45.7333 142.2202 41.5414 0.0000 -11.2589 0.0000
# 3 38.1227 41.5414 39.4558 0.0000 -10.4848 0.0000
# 4 0.0000 0.0000 0.0000 12.4251 0.0000 -1.7832
# 5 -5.8433 -11.2589 -10.4848 0.0000 16.7690 0.0000
# 6 0.0000 0.0000 0.0000 -1.7832 0.0000 16.7747
#
#
#
# Elastic Compliance Matrix: (Units=1/GPa)
#
#
# Indices 1 2 3 4 5 6 
#
# 1 0.015981 -0.000919 -0.015779 0.000000 -0.004914 0.000000
# 2 -0.000919 0.010207 -0.009741 0.000000 0.000442 0.000000
# 3 -0.015779 -0.009741 0.057142 0.000000 0.023689 0.000000
# 4 0.000000 0.000000 0.000000 0.081729 0.000000 0.008688
# 5 -0.004914 0.000442 0.023689 0.000000 0.073030 0.000000
# 6 0.000000 0.000000 0.000000 0.008688 0.000000 0.060537
#
#
# Mechanical properties :
#
#
# Convention : Reuss Voigt Hill
#
# Bulk Modulus (GPa) = 32.83936 59.28011 46.05974
# Shear Modulus (GPa) = 13.82530 19.68235 16.75383
#
# Velocity S-wave (km/s) = 2.88635 3.44390 3.17738
# Velocity P-wave (km/s) = 5.55849 7.17883 6.41998
#
# Compressibility (1/GPa) = 0.03045126
#
# Stress axis : x y z
#
# Youngs Moduli (GPa) = 62.57559 97.96962 17.50020
#
# Poissons Ratio (x) = 0.09003 0.27614
# Poissons Ratio (y) = 0.05750 0.17048
# Poissons Ratio (z) = 0.98739 0.95436
#
# Static dielectric constant tensor:
#      x y z
#    x 1.569030 0.000000 0.014830 
#    y 0.000000 1.562720 0.000000 
#    z 0.014830 0.000000 1.548330 
# 
# From -- ./inp_files/174042.got.cif
#   From: 2010.05.17/outbox.cif.g08.bks.cpg/sg12_88_cif.got.tgz:174042.got - 2010.06.03 13:09:07.
