data_PCOD9172745
_publ_section_title
;
Structure prediction by ZEFSAII (Michael W. Deem and Ramdas Pophale) SiO2 
 PCOD9172745
Probable space group: C 2/M
;
_chemical_formula_sum "Si O2"
_cell_formula_units_Z 50
_cell_length_a 19.897905
_cell_length_b 7.500791
_cell_length_c 27.923807
_cell_angle_alpha 90.000000
_cell_angle_beta 34.943428
_cell_angle_gamma 90.000000
_cell_volume 2387.081796
_symmetry_space_group_name_H-M "C 2/M"
_symmetry_group_IT_number 12
_symmetry_cell_setting 'monoclinic'
loop_
_space_group_symop_operation_xyz
x,y,z
-x,y,-z
-x,-y,-z
x,-y,z
1/2+x,1/2+y,z
1/2-x,1/2+y,-z
1/2-x,1/2-y,-z
1/2+x,1/2-y,z
loop_
_atom_site_type_symbol
_atom_site_label
_atom_site_fract_x
_atom_site_fract_y
_atom_site_fract_z
Si Si1 0.276754 0.785356 0.230574
Si Si2 0.510057 0.792234 0.372312
Si Si3 0.064025 0.716535 0.233920
Si Si4 0.500000 0.500000 0.000000
Si Si5 0.829337 0.706927 0.092226
Si Si6 0.611187 0.705485 0.463236
Si Si7 0.862023 0.718094 0.281111
O O1 0.141804 0.728988 0.316014
O O2 0.316662 0.724213 0.154976
O O3 0.353653 0.727192 0.230588
O O4 0.276881 0.000000 0.228810
O O5 0.519038 0.722386 0.312778
O O6 0.421002 0.708792 0.462054
O O7 0.480593 0.000000 0.386964
O O8 0.066458 0.500000 0.234016
O O9 0.197516 0.777596 0.149185
O O10 0.974022 0.776343 0.245871
O O11 0.576566 0.342084 0.983029
O O12 0.863702 0.500000 0.070684
O O13 0.500000 0.787752 0.500000
O O14 0.617364 0.500000 0.442949
O O15 0.739435 0.778747 0.376717
O O16 0.864835 0.500000 0.280529
#
# Coordination Sequence:
#
# PCOD9172745 Si02
#       7
#     8   8   8   2   8   8   8
#     4   9  17  33  55  81 105 141 192 234 263 325
#     4  10  19  29  46  70 108 144 185 240 289 325
#     4   9  18  35  54  79 111 151 186 226 286 338
#     4  12  22  40  68  94 120 146 168 226 284 334
#     4  10  21  37  63  94 116 142 185 224 272 339
#     4  10  18  30  47  70 100 144 198 244 282 321
#     4   9  17  31  54  77 104 150 197 231 282 332
#
# _framework density 20.946078
#
# number of rings (size 3 to 8) (size 9 to 14) (size 15 to 20)
#    0.000    2.400    2.400    0.720    1.120    1.600 
#    0.000    1.600    0.000    0.960    0.000    0.000 
#    0.000    0.000    0.000    0.000    0.000    0.000 
#
# Total GULP energy -139254.966493 kJ/mol
# GULP energy per Si atom -5570.198660 kJ/mol
# Density = 2.089840 g / cm^3
# Si number density = 20.946078 Si / 1000 Ang^3
#
#
#
# Elastic Constant Matrix: (Units=GPa)
#
#
# Indices 1 2 3 4 5 6 
#
# 1 146.2273 9.3078 22.3199 -0.0009 -26.5755 -0.0014
# 2 9.3078 85.2744 3.5697 -0.0012 -9.4703 0.0001
# 3 22.3199 3.5697 40.9252 -0.0001 -24.9360 0.0000
# 4 -0.0009 -0.0012 -0.0001 8.5080 0.0002 6.4497
# 5 -26.5755 -9.4703 -24.9360 0.0002 26.0961 0.0003
# 6 -0.0014 0.0001 0.0000 6.4497 0.0003 24.4954
#
#
#
# Elastic Compliance Matrix: (Units=1/GPa)
#
#
# Indices 1 2 3 4 5 6 
#
# 1 0.008432 0.000139 0.001561 0.000000 0.010129 0.000000
# 2 0.000139 0.012490 0.004028 0.000002 0.008523 -0.000001
# 3 0.001561 0.004028 0.060058 0.000000 0.060440 -0.000001
# 4 0.000000 0.000002 0.000000 0.146847 0.000001 -0.038665
# 5 0.010129 0.008523 0.060440 0.000001 0.109481 -0.000001
# 6 0.000000 -0.000001 -0.000001 -0.038665 -0.000001 0.051005
#
#
# Mechanical properties :
#
#
# Convention : Reuss Voigt Hill
#
# Bulk Modulus (GPa) = 10.81832 38.09130 24.45481
# Shear Modulus (GPa) = 12.26484 27.63521 19.95002
#
# Velocity S-wave (km/s) = 2.42243 3.63623 3.08952
# Velocity P-wave (km/s) = 3.60559 5.98786 4.94240
#
# Compressibility (1/GPa) = 0.09243577
#
# Stress axis : x y z
#
# Youngs Moduli (GPa) = 118.58909 80.06683 16.65044
#
# Poissons Ratio (x) = -0.01114 -0.02599
# Poissons Ratio (y) = -0.01650 -0.06706
# Poissons Ratio (z) = -0.18509 -0.32249
#
# Static dielectric constant tensor:
#      x y z
#    x 1.759060 0.000000 0.013200 
#    y 0.000000 1.781300 0.000000 
#    z 0.013200 0.000000 1.801860 
# 
# From -- ./inp_files/362666.got.cif
#   From: 2010.05.17/outbox.cif.g08.bks.cpg/sg12_182_cif.got.tgz:362666.got - 2010.06.03 13:09:07.
