data_PCOD9172134
_publ_section_title
;
Structure prediction by ZEFSAII (Michael W. Deem and Ramdas Pophale) SiO2 
 PCOD9172134
Probable space group: C 2/M
;
_chemical_formula_sum "Si O2"
_cell_formula_units_Z 64
_cell_length_a 28.813439
_cell_length_b 7.408932
_cell_length_c 14.785174
_cell_angle_alpha 90.000000
_cell_angle_beta 76.948712
_cell_angle_gamma 90.000000
_cell_volume 3074.759436
_symmetry_space_group_name_H-M "C 2/M"
_symmetry_group_IT_number 12
_symmetry_cell_setting 'monoclinic'
loop_
_space_group_symop_operation_xyz
x,y,z
-x,y,-z
-x,-y,-z
x,-y,z
1/2+x,1/2+y,z
1/2-x,1/2+y,-z
1/2-x,1/2-y,-z
1/2+x,1/2-y,z
loop_
_atom_site_type_symbol
_atom_site_label
_atom_site_fract_x
_atom_site_fract_y
_atom_site_fract_z
Si Si1 0.914048 0.785842 0.893573
Si Si2 0.375628 0.215986 0.716480
Si Si3 0.361169 0.217930 0.437518
Si Si4 0.708645 0.779732 0.373394
Si Si5 0.554375 0.779688 0.470884
Si Si6 0.384502 0.277673 0.103759
Si Si7 0.514670 0.293465 0.887025
Si Si8 0.312199 0.709126 0.277245
O O1 0.884349 0.760849 0.816284
O O2 0.968118 0.711279 0.860307
O O3 0.920370 0.000000 0.904266
O O4 0.889937 0.720356 0.997020
O O5 0.326235 0.276002 0.693044
O O6 0.418594 0.278769 0.632531
O O7 0.375469 0.000000 0.709870
O O8 0.318153 0.277313 0.523110
O O9 0.410836 0.274588 0.461926
O O10 0.349674 0.282209 0.342677
O O11 0.361202 0.000000 0.436070
O O12 0.762081 0.713423 0.333768
O O13 0.709385 0.000000 0.376934
O O14 0.500000 0.718232 0.500000
O O15 0.553629 0.000000 0.471446
O O16 0.384930 0.500000 0.105091
O O17 0.432380 0.215619 0.135163
O O18 0.337939 0.215139 0.177317
O O19 0.519692 0.500000 0.852643
O O20 0.500000 0.297069 0.000000
O O21 0.302172 0.500000 0.261170
#
# Coordination Sequence:
#
# PCOD9172134 Si02
#       8
#     8   8   8   8   8   8   8   8
#     4   9  16  28  46  65  86 114 146 177 211 252
#     4   9  17  30  47  64  84 114 150 179 207 252
#     4   9  17  30  47  66  88 113 142 175 214 259
#     4   8  16  31  47  62  84 116 146 172 211 264
#     4   8  15  29  47  65  88 119 148 171 204 258
#     4   8  15  27  43  64  88 114 144 175 209 256
#     4   7  11  22  40  59  80 108 138 166 201 248
#     4  10  18  29  47  67  86 111 145 181 215 253
#
# _framework density 20.814637000000001
#
# number of rings (size 3 to 8) (size 9 to 14) (size 15 to 20)
#    0.000    3.500    0.000    3.375    0.000    1.000 
#    0.000    4.375    0.000    4.125    0.000    0.000 
#    0.000    0.000    0.000    0.000    0.000    0.000 
#
# Total GULP energy -178349.315595 kJ/mol
# GULP energy per Si atom -5573.416112 kJ/mol
# Density = 2.076726 g / cm^3
# Si number density = 20.814637 Si / 1000 Ang^3
#
#
#
# Elastic Constant Matrix: (Units=GPa)
#
#
# Indices 1 2 3 4 5 6 
#
# 1 103.0355 -1.2531 52.1427 0.0000 -17.2368 0.0000
# 2 -1.2531 66.1652 -6.4274 0.0000 -5.5139 0.0000
# 3 52.1427 -6.4274 87.7171 0.0000 6.7028 0.0000
# 4 0.0000 0.0000 0.0000 10.7270 0.0000 12.2443
# 5 -17.2368 -5.5139 6.7028 0.0000 27.4480 0.0000
# 6 0.0000 0.0000 0.0000 12.2443 0.0000 2.4039
#
#
#
# Elastic Compliance Matrix: (Units=1/GPa)
#
#
# Indices 1 2 3 4 5 6 
#
# 1 0.018086 0.000388 -0.011817 0.000000 0.014321 0.000000
# 2 0.000388 0.015451 0.000658 0.000000 0.003187 0.000000
# 3 -0.011817 0.000658 0.019392 0.000000 -0.012024 0.000000
# 4 0.000000 0.000000 0.000000 -0.019365 0.000000 0.098636
# 5 0.014321 0.003187 -0.012024 0.000000 0.049003 0.000000
# 6 0.000000 0.000000 0.000000 0.098636 0.000000 -0.086413
#
#
# Mechanical properties :
#
#
# Convention : Reuss Voigt Hill
#
# Bulk Modulus (GPa) = 31.86094 38.42689 35.14392
# Shear Modulus (GPa) = 177.57042 22.27949 99.92496
#
# Velocity S-wave (km/s) = 9.24638 3.27521 6.93623
# Velocity P-wave (km/s) = 11.37252 5.72750 9.00385
#
# Compressibility (1/GPa) = 0.03138639
#
# Stress axis : x y z
#
# Youngs Moduli (GPa) = 55.29086 64.72278 51.56799
#
# Poissons Ratio (x) = -0.02512 0.60938
# Poissons Ratio (y) = -0.02146 -0.03393
# Poissons Ratio (z) = 0.65338 -0.04258
#
# Static dielectric constant tensor:
#      x y z
#    x 1.765380 0.000000 -0.011370 
#    y 0.000000 1.794310 0.000000 
#    z -0.011370 0.000000 1.717590 
# 
# From -- ./inp_files/182066.got.cif
#   From: 2010.05.17/outbox.cif.g08.bks.cpg/sg12_92_cif.got.tgz:182066.got - 2010.06.03 13:09:07.
