data_PCOD9172426
_publ_section_title
;
Structure prediction by ZEFSAII (Michael W. Deem and Ramdas Pophale) SiO2 
 PCOD9172426
Probable space group: C 2/M
;
_chemical_formula_sum "Si O2"
_cell_formula_units_Z 56
_cell_length_a 18.719463
_cell_length_b 13.322190
_cell_length_c 12.980833
_cell_angle_alpha 90.000000
_cell_angle_beta 111.359534
_cell_angle_gamma 90.000000
_cell_volume 3014.861525
_symmetry_space_group_name_H-M "C 2/M"
_symmetry_group_IT_number 12
_symmetry_cell_setting 'monoclinic'
loop_
_space_group_symop_operation_xyz
x,y,z
-x,y,-z
-x,-y,-z
x,-y,z
1/2+x,1/2+y,z
1/2-x,1/2+y,-z
1/2-x,1/2-y,-z
1/2+x,1/2-y,z
loop_
_atom_site_type_symbol
_atom_site_label
_atom_site_fract_x
_atom_site_fract_y
_atom_site_fract_z
Si Si1 0.908766 0.386919 0.470563
Si Si2 0.914057 0.617992 0.847746
Si Si3 0.262796 0.194969 0.673084
Si Si4 0.641412 0.224717 0.751957
Si Si5 0.349962 0.309335 0.558157
Si Si6 0.084507 0.378328 0.915373
Si Si7 0.011740 0.885932 0.629292
O O1 0.890799 0.500000 0.496387
O O2 0.873102 0.361888 0.340662
O O3 0.879891 0.299210 0.531150
O O4 0.000000 0.379777 0.500000
O O5 0.924705 0.500000 0.864670
O O6 0.839911 0.637522 0.741091
O O7 0.995666 0.652074 0.844815
O O8 0.903123 0.653779 0.959624
O O9 0.219039 0.223278 0.754230
O O10 0.293289 0.290136 0.623182
O O11 0.199859 0.146272 0.562964
O O12 0.637860 0.177459 0.862287
O O13 0.572985 0.305631 0.700935
O O14 0.426119 0.368689 0.627184
O O15 0.092568 0.500000 0.910644
O O16 0.000000 0.871811 0.500000
O O17 0.037360 0.000000 0.661099
#
# Coordination Sequence:
#
# PCOD9172426 Si02
#       7
#     8   8   8   8   8   8   8
#     4  10  18  29  49  77 104 133 174 214 256 311
#     4   9  19  35  54  83 106 131 176 217 269 322
#     4  10  21  31  52  74 109 141 168 216 258 310
#     4  11  19  35  52  77 107 138 177 215 261 312
#     4  10  19  37  47  75 109 143 177 209 256 311
#     4   9  19  36  59  79 104 135 170 222 270 319
#     4  11  20  34  53  71 101 143 181 213 246 296
#
# _framework density 18.574649999999998
#
# number of rings (size 3 to 8) (size 9 to 14) (size 15 to 20)
#    0.000    2.000    4.286    2.143    0.000    2.286 
#    0.000    6.429    0.000    0.000    0.000    9.000 
#    0.000    0.000    0.000    0.000    0.000    0.000 
#
# Total GULP energy -156100.597520 kJ/mol
# GULP energy per Si atom -5575.021340 kJ/mol
# Density = 1.853237 g / cm^3
# Si number density = 18.574650 Si / 1000 Ang^3
#
#
#
# Elastic Constant Matrix: (Units=GPa)
#
#
# Indices 1 2 3 4 5 6 
#
# 1 74.9418 -0.2304 16.2509 0.0000 -6.6795 0.0000
# 2 -0.2304 53.4301 11.6217 0.0000 -0.1112 0.0000
# 3 16.2509 11.6217 32.1551 0.0000 -8.9611 0.0000
# 4 0.0000 0.0000 0.0000 12.6571 0.0000 -1.3919
# 5 -6.6795 -0.1112 -8.9611 0.0000 32.4594 0.0000
# 6 0.0000 0.0000 0.0000 -1.3919 0.0000 17.6102
#
#
#
# Elastic Compliance Matrix: (Units=1/GPa)
#
#
# Indices 1 2 3 4 5 6 
#
# 1 0.015182 0.001825 -0.008082 0.000000 0.000899 0.000000
# 2 0.001825 0.020668 -0.008957 0.000000 -0.002026 0.000000
# 3 -0.008082 -0.008957 0.041112 0.000000 0.009656 0.000000
# 4 0.000000 0.000000 0.000000 0.079700 0.000000 0.006299
# 5 0.000899 -0.002026 0.009656 0.000000 0.033652 0.000000
# 6 0.000000 0.000000 0.000000 0.006299 0.000000 0.057283
#
#
# Mechanical properties :
#
#
# Convention : Reuss Voigt Hill
#
# Bulk Modulus (GPa) = 21.48945 23.97905 22.73425
# Shear Modulus (GPa) = 17.03370 21.40434 19.21902
#
# Velocity S-wave (km/s) = 3.03155 3.39830 3.22015
# Velocity P-wave (km/s) = 4.88345 5.32311 5.10801
#
# Compressibility (1/GPa) = 0.04653446
#
# Stress axis : x y z
#
# Youngs Moduli (GPa) = 65.86756 48.38401 24.32369
#
# Poissons Ratio (x) = -0.08831 0.19658
# Poissons Ratio (y) = -0.12023 0.21787
# Poissons Ratio (z) = 0.53234 0.43338
#
# Static dielectric constant tensor:
#      x y z
#    x 1.692550 0.000000 -0.000360 
#    y 0.000000 1.645230 0.000000 
#    z -0.000360 0.000000 1.671040 
# 
# From -- ./inp_files/156137.got.cif
#   From: 2010.05.17/outbox.cif.g08.bks.cpg/sg12_79_cif.got.tgz:156137.got - 2010.06.03 13:09:07.
