data_PCOD9172914
_publ_section_title
;
Structure prediction by ZEFSAII (Michael W. Deem and Ramdas Pophale) SiO2 
 PCOD9172914
Probable space group: C 2/M
;
_chemical_formula_sum "Si O2"
_cell_formula_units_Z 64
_cell_length_a 29.618724
_cell_length_b 7.364576
_cell_length_c 14.974836
_cell_angle_alpha 90.000000
_cell_angle_beta 121.091354
_cell_angle_gamma 90.000000
_cell_volume 2797.209178
_symmetry_space_group_name_H-M "C 2/M"
_symmetry_group_IT_number 12
_symmetry_cell_setting 'monoclinic'
loop_
_space_group_symop_operation_xyz
x,y,z
-x,y,-z
-x,-y,-z
x,-y,z
1/2+x,1/2+y,z
1/2-x,1/2+y,-z
1/2-x,1/2-y,-z
1/2+x,1/2-y,z
loop_
_atom_site_type_symbol
_atom_site_label
_atom_site_fract_x
_atom_site_fract_y
_atom_site_fract_z
Si Si1 0.047995 0.222206 0.612123
Si Si2 0.807453 0.215814 0.019668
Si Si3 0.734381 0.718624 0.205321
Si Si4 0.556175 0.721391 0.016118
Si Si5 0.846113 0.210467 0.374368
Si Si6 0.852563 0.778713 0.753726
Si Si7 0.310160 0.282627 0.529940
Si Si8 0.077931 0.778363 0.834295
O O1 0.102769 0.284881 0.622854
O O2 0.045763 0.279400 0.713776
O O3 0.000000 0.278393 0.500000
O O4 0.048193 0.000000 0.613928
O O5 0.801997 0.281344 0.912870
O O6 0.813593 0.000000 0.023414
O O7 0.750000 0.250000 0.000000
O O8 0.861186 0.281639 0.118258
O O9 0.736293 0.500000 0.205181
O O10 0.793947 0.783221 0.260156
O O11 0.703923 0.775385 0.262672
O O12 0.558865 0.500000 0.016844
O O13 0.601643 0.780791 0.132027
O O14 0.500000 0.772693 0.000000
O O15 0.562423 0.779437 0.918997
O O16 0.826897 0.289701 0.449798
O O17 0.858911 0.000000 0.403886
O O18 0.850076 0.719733 0.648695
O O19 0.854530 0.000000 0.756108
O O20 0.314309 0.500000 0.529520
O O21 0.250000 0.250000 0.500000
O O22 0.075593 0.000000 0.832975
#
# Coordination Sequence:
#
# PCOD9172914 Si02
#       8
#     8   8   8   8   8   8   8   8
#     4   9  18  31  46  64  93 129 160 195 242 289
#     4  10  19  30  47  71  99 130 162 196 241 291
#     4  10  18  30  49  69  97 133 161 192 245 299
#     4   9  16  26  43  67  93 123 160 199 239 286
#     4  10  20  32  48  74 100 126 166 207 238 284
#     4   9  16  28  43  63  93 126 156 193 240 286
#     4  10  19  30  47  69  98 131 162 198 243 290
#     4   9  16  28  44  64  92 124 156 196 242 284
#
# _framework density 22.879947999999999
#
# number of rings (size 3 to 8) (size 9 to 14) (size 15 to 20)
#    0.000    2.500    2.500    0.750    0.000    2.500 
#    0.000    5.000    0.000    0.375    0.000    0.000 
#    0.000    4.500    0.000    0.000    0.000    0.000 
#
# Total GULP energy -178566.637835 kJ/mol
# GULP energy per Si atom -5580.207432 kJ/mol
# Density = 2.282787 g / cm^3
# Si number density = 22.879948 Si / 1000 Ang^3
#
#
#
# Elastic Constant Matrix: (Units=GPa)
#
#
# Indices 1 2 3 4 5 6 
#
# 1 107.5340 -0.3529 65.8335 0.0000 10.2331 0.0000
# 2 -0.3529 80.0778 3.9598 0.0000 -4.1526 0.0000
# 3 65.8335 3.9598 188.0318 0.0000 4.9795 0.0000
# 4 0.0000 0.0000 0.0000 -0.0686 0.0000 4.7096
# 5 10.2331 -4.1526 4.9795 0.0000 33.4693 0.0000
# 6 0.0000 0.0000 0.0000 4.7096 0.0000 7.8535
#
#
#
# Elastic Compliance Matrix: (Units=1/GPa)
#
#
# Indices 1 2 3 4 5 6 
#
# 1 0.012148 0.000100 -0.004174 0.000000 -0.003081 0.000000
# 2 0.000100 0.012587 -0.000342 0.000000 0.001582 0.000000
# 3 -0.004174 -0.000342 0.006781 0.000000 0.000225 0.000000
# 4 0.000000 0.000000 0.000000 -0.345685 0.000000 0.207300
# 5 -0.003081 0.001582 0.000225 0.000000 0.030983 0.000000
# 6 0.000000 0.000000 0.000000 0.207300 0.000000 0.003019
#
#
# Mechanical properties :
#
#
# Convention : Reuss Voigt Hill
#
# Bulk Modulus (GPa) = 44.08232 57.16939 50.62585
# Shear Modulus (GPa) = -18.95563 28.66438 4.85437
#
# Velocity S-wave (km/s) = -2.88146 3.54335 1.45818
# Velocity P-wave (km/s) = 2.87023 6.46385 5.00098
#
# Compressibility (1/GPa) = 0.02268483
#
# Stress axis : x y z
#
# Youngs Moduli (GPa) = 82.31699 79.44546 147.47444
#
# Poissons Ratio (x) = -0.00796 0.61553
# Poissons Ratio (y) = -0.00824 0.05044
# Poissons Ratio (z) = 0.34358 0.02717
#
# Static dielectric constant tensor:
#      x y z
#    x 1.837770 0.000000 -0.036630 
#    y 0.000000 1.939580 0.000000 
#    z -0.036630 0.000000 1.857780 
# 
# From -- ./inp_files/249206.got.cif
#   From: 2010.05.17/outbox.cif.g08.bks.cpg/sg12_125_cif.got.tgz:249206.got - 2010.06.03 13:09:07.
