data_PCOD9172363
_publ_section_title
;
Structure prediction by ZEFSAII (Michael W. Deem and Ramdas Pophale) SiO2 
 PCOD9172363
Probable space group: C 2/M
;
_chemical_formula_sum "Si O2"
_cell_formula_units_Z 64
_cell_length_a 17.413344
_cell_length_b 20.467366
_cell_length_c 16.954546
_cell_angle_alpha 90.000000
_cell_angle_beta 32.410881
_cell_angle_gamma 90.000000
_cell_volume 3238.803968
_symmetry_space_group_name_H-M "C 2/M"
_symmetry_group_IT_number 12
_symmetry_cell_setting 'monoclinic'
loop_
_space_group_symop_operation_xyz
x,y,z
-x,y,-z
-x,-y,-z
x,-y,z
1/2+x,1/2+y,z
1/2-x,1/2+y,-z
1/2-x,1/2-y,-z
1/2+x,1/2-y,z
loop_
_atom_site_type_symbol
_atom_site_label
_atom_site_fract_x
_atom_site_fract_y
_atom_site_fract_z
Si Si1 0.088504 0.425721 0.661176
Si Si2 0.851015 0.425694 0.578419
Si Si3 0.275523 0.170323 0.765694
Si Si4 0.182565 0.816039 0.100615
Si Si5 0.835202 0.697752 0.332409
Si Si6 0.546444 0.755641 0.603396
Si Si7 0.078783 0.287512 0.002431
Si Si8 0.250785 0.075709 0.928135
O O1 0.124681 0.500000 0.647131
O O2 0.127396 0.416720 0.534047
O O3 0.157879 0.380114 0.667561
O O4 0.915980 0.417794 0.812851
O O5 0.791384 0.500000 0.641330
O O6 0.770297 0.362368 0.684056
O O7 0.000000 0.425879 0.500000
O O8 0.430906 0.201882 0.654656
O O9 0.250744 0.106950 0.841821
O O10 0.161329 0.225213 0.892353
O O11 0.046979 0.798348 0.270082
O O12 0.250000 0.750000 0.000000
O O13 0.306748 0.832445 0.054371
O O14 0.160803 0.874070 0.058937
O O15 0.680719 0.724797 0.442019
O O16 0.880088 0.709835 0.384913
O O17 0.957964 0.728698 0.171738
O O18 0.000000 0.322574 0.000000
O O19 0.209519 0.000000 0.965873
#
# Coordination Sequence:
#
# PCOD9172363 Si02
#       8
#     8   8   8   8   8   8   8   8
#     4  10  19  32  54  82 111 150 190 233 282 337
#     4  10  18  29  48  79 115 146 187 233 272 333
#     4  11  19  35  52  81 116 151 188 229 289 337
#     4  11  17  39  57  78 110 149 190 241 288 335
#     4  11  19  37  52  80 110 138 193 238 283 327
#     4  10  20  31  59  77 104 150 189 233 279 337
#     4  11  23  36  56  81 114 149 186 238 291 342
#     4  11  18  30  58  86 108 151 201 235 277 340
#
# _framework density 19.760380000000001
#
# number of rings (size 3 to 8) (size 9 to 14) (size 15 to 20)
#    0.000    1.375    7.500    0.375    0.000    3.000 
#    0.000    2.500    0.000    4.500    0.000    2.625 
#    0.000    5.000    0.000    0.000    0.000    0.000 
#
# Total GULP energy -178345.158625 kJ/mol
# GULP energy per Si atom -5573.286207 kJ/mol
# Density = 1.971540 g / cm^3
# Si number density = 19.760380 Si / 1000 Ang^3
#
#
#
# Elastic Constant Matrix: (Units=GPa)
#
#
# Indices 1 2 3 4 5 6 
#
# 1 36.5364 16.2750 -1.7507 -0.0005 -4.0195 0.0004
# 2 16.2750 102.6186 42.7281 -0.0017 13.3701 0.0008
# 3 -1.7507 42.7281 92.5653 -0.0015 -4.3840 0.0003
# 4 -0.0005 -0.0017 -0.0015 24.3742 0.0003 11.1559
# 5 -4.0195 13.3701 -4.3840 0.0003 15.7429 0.0000
# 6 0.0004 0.0008 0.0003 11.1559 0.0000 22.5121
#
#
#
# Elastic Compliance Matrix: (Units=1/GPa)
#
#
# Indices 1 2 3 4 5 6 
#
# 1 0.034713 -0.010853 0.006610 0.000000 0.019921 0.000000
# 2 -0.010853 0.018177 -0.009585 0.000001 -0.020877 -0.000001
# 3 0.006610 -0.009585 0.016029 0.000000 0.014291 0.000000
# 4 0.000000 0.000001 0.000000 0.053062 -0.000002 -0.026295
# 5 0.019921 -0.020877 0.014291 -0.000002 0.090317 0.000001
# 6 0.000000 -0.000001 0.000000 -0.026295 0.000001 0.057451
#
#
# Mechanical properties :
#
#
# Convention : Reuss Voigt Hill
#
# Bulk Modulus (GPa) = 24.23456 38.46944 31.35200
# Shear Modulus (GPa) = 16.06894 24.15703 20.11298
#
# Velocity S-wave (km/s) = 2.85474 3.50022 3.19383
# Velocity P-wave (km/s) = 4.81216 5.98712 5.43151
#
# Compressibility (1/GPa) = 0.04126338
#
# Stress axis : x y z
#
# Youngs Moduli (GPa) = 28.80796 55.01477 62.38590
#
# Poissons Ratio (x) = 0.59707 -0.41235
# Poissons Ratio (y) = 0.31265 0.59794
# Poissons Ratio (z) = -0.19041 0.52729
#
# Static dielectric constant tensor:
#      x y z
#    x 1.722530 0.000000 0.018140 
#    y 0.000000 1.780450 0.000000 
#    z 0.018140 0.000000 1.783180 
# 
# From -- ./inp_files/279099.got.cif
#   From: 2010.05.17/outbox.cif.g08.bks.cpg/sg12_140_cif.got.tgz:279099.got - 2010.06.03 13:09:07.
