data_PCOD9172449
_publ_section_title
;
Structure prediction by ZEFSAII (Michael W. Deem and Ramdas Pophale) SiO2 
 PCOD9172449
Probable space group: C 2/M
;
_chemical_formula_sum "Si O2"
_cell_formula_units_Z 56
_cell_length_a 16.112143
_cell_length_b 15.710780
_cell_length_c 14.154199
_cell_angle_alpha 90.000000
_cell_angle_beta 129.622808
_cell_angle_gamma 90.000000
_cell_volume 2759.773127
_symmetry_space_group_name_H-M "C 2/M"
_symmetry_group_IT_number 12
_symmetry_cell_setting 'monoclinic'
loop_
_space_group_symop_operation_xyz
x,y,z
-x,y,-z
-x,-y,-z
x,-y,z
1/2+x,1/2+y,z
1/2-x,1/2+y,-z
1/2-x,1/2-y,-z
1/2+x,1/2-y,z
loop_
_atom_site_type_symbol
_atom_site_label
_atom_site_fract_x
_atom_site_fract_y
_atom_site_fract_z
Si Si1 0.068822 0.403650 0.834074
Si Si2 0.210207 0.194821 0.668284
Si Si3 0.595650 0.595361 0.426775
Si Si4 0.604412 0.863912 0.643870
Si Si5 0.904052 0.733797 0.670405
Si Si6 0.680324 0.910085 0.520541
Si Si7 0.127504 0.401083 0.076645
O O1 0.024696 0.500000 0.816607
O O2 0.104589 0.396057 0.750780
O O3 0.986040 0.325900 0.785934
O O4 0.149961 0.392856 0.980516
O O5 0.132902 0.129001 0.556587
O O6 0.134430 0.264810 0.661460
O O7 0.293688 0.236075 0.651195
O O8 0.289205 0.151689 0.800795
O O9 0.545764 0.500000 0.392066
O O10 0.549947 0.676996 0.335191
O O11 0.708907 0.587006 0.454200
O O12 0.500000 0.882100 0.500000
O O13 0.695120 0.905288 0.643052
O O14 0.880168 0.672545 0.563344
O O15 0.623244 0.000000 0.456826
O O16 0.139458 0.500000 0.112124
O O17 0.000000 0.380266 0.000000
#
# Coordination Sequence:
#
# PCOD9172449 Si02
#       7
#     8   8   8   8   8   8   8
#     4  11  23  36  57  90 122 146 185 245 299 349
#     4  11  20  36  57  81 118 158 193 239 278 344
#     4  10  19  32  54  83 111 147 194 239 283 335
#     4  12  22  34  53  84 125 154 183 225 290 360
#     4  11  18  34  55  84 114 149 194 239 283 344
#     4  10  18  29  49  79 115 146 175 226 291 343
#     4  10  21  37  59  87 112 146 197 248 291 332
#
# _framework density 20.291522000000001
#
# number of rings (size 3 to 8) (size 9 to 14) (size 15 to 20)
#    0.000    1.286    5.714    2.143    0.000    2.286 
#    0.000    0.000    0.000    7.714    0.000    4.000 
#    0.000    0.000    0.000    0.000    0.000    0.000 
#
# Total GULP energy -155903.904691 kJ/mol
# GULP energy per Si atom -5567.996596 kJ/mol
# Density = 2.024534 g / cm^3
# Si number density = 20.291522 Si / 1000 Ang^3
#
#
#
# Elastic Constant Matrix: (Units=GPa)
#
#
# Indices 1 2 3 4 5 6 
#
# 1 36.2291 10.5795 17.1944 0.0000 -23.7181 0.0000
# 2 10.5795 154.3483 45.1912 0.0000 -3.7590 0.0000
# 3 17.1944 45.1912 102.2589 0.0000 -25.8244 0.0000
# 4 0.0000 0.0000 0.0000 22.4917 0.0000 0.0254
# 5 -23.7181 -3.7590 -25.8244 0.0000 29.4340 0.0000
# 6 0.0000 0.0000 0.0000 0.0254 0.0000 -17.0104
#
#
#
# Elastic Compliance Matrix: (Units=1/GPa)
#
#
# Indices 1 2 3 4 5 6 
#
# 1 0.061444 -0.004406 0.005109 0.000000 0.053432 0.000000
# 2 -0.004406 0.007902 -0.004359 0.000000 -0.006366 0.000000
# 3 0.005109 -0.004359 0.015089 0.000000 0.016799 0.000000
# 4 0.000000 0.000000 0.000000 0.044461 0.000000 0.000066
# 5 0.053432 -0.006366 0.016799 0.000000 0.090956 0.000000
# 6 0.000000 0.000000 0.000000 0.000066 0.000000 -0.058787
#
#
# Mechanical properties :
#
#
# Convention : Reuss Voigt Hill
#
# Bulk Modulus (GPa) = 12.96624 48.75185 30.85905
# Shear Modulus (GPa) = 25.76215 21.64115 23.70165
#
# Velocity S-wave (km/s) = 3.56701 3.26929 3.42139
# Velocity P-wave (km/s) = 4.83411 6.19103 5.55417
#
# Compressibility (1/GPa) = 0.07712336
#
# Stress axis : x y z
#
# Youngs Moduli (GPa) = 16.27492 126.54940 66.27524
#
# Poissons Ratio (x) = 0.55761 -0.33862
# Poissons Ratio (y) = 0.07171 0.28888
# Poissons Ratio (z) = -0.08315 0.55161
#
# Static dielectric constant tensor:
#      x y z
#    x 1.853630 0.000000 -0.005620 
#    y 0.000000 1.830270 0.000000 
#    z -0.005620 0.000000 1.716190 
# 
# From -- ./inp_files/225370.got.cif
#   From: 2010.05.17/outbox.cif.g08.bks.cpg/sg12_113_cif.got.tgz:225370.got - 2010.06.03 13:09:07.
