data_PCOD9172061
_publ_section_title
;
Structure prediction by ZEFSAII (Michael W. Deem and Ramdas Pophale) SiO2 
 PCOD9172061
Probable space group: C 2/M
;
_chemical_formula_sum "Si O2"
_cell_formula_units_Z 48
_cell_length_a 15.391006
_cell_length_b 18.243495
_cell_length_c 12.510936
_cell_angle_alpha 90.000000
_cell_angle_beta 60.469865
_cell_angle_gamma 90.000000
_cell_volume 3056.555704
_symmetry_space_group_name_H-M "C 2/M"
_symmetry_group_IT_number 12
_symmetry_cell_setting 'monoclinic'
loop_
_space_group_symop_operation_xyz
x,y,z
-x,y,-z
-x,-y,-z
x,-y,z
1/2+x,1/2+y,z
1/2-x,1/2+y,-z
1/2-x,1/2-y,-z
1/2+x,1/2-y,z
loop_
_atom_site_type_symbol
_atom_site_label
_atom_site_fract_x
_atom_site_fract_y
_atom_site_fract_z
Si Si1 0.477331 0.349990 0.681074
Si Si2 0.351702 0.412694 0.574363
Si Si3 0.647488 0.085358 0.593273
Si Si4 0.281735 0.085914 0.695795
Si Si5 0.950015 0.088223 0.142311
Si Si6 0.965046 0.319320 0.645307
O O1 0.390038 0.390730 0.668073
O O2 0.577085 0.370210 0.552339
O O3 0.494668 0.377535 0.789771
O O4 0.457979 0.263592 0.688588
O O5 0.365410 0.500000 0.548579
O O6 0.236841 0.395155 0.619498
O O7 0.693862 0.091262 0.445594
O O8 0.551137 0.136453 0.655065
O O9 0.619860 0.000000 0.625110
O O10 0.167325 0.107633 0.783968
O O11 0.361563 0.136294 0.707775
O O12 0.294521 0.000000 0.717151
O O13 0.955136 0.000000 0.150053
O O14 0.000000 0.109014 0.000000
O O15 0.000000 0.316735 0.500000
#
# Coordination Sequence:
#
# PCOD9172061 Si02
#       6
#     8   8   8   8   8   8
#     4  11  19  30  45  72 100 125 153 190 243 286
#     4  10  18  29  46  67  98 130 154 188 237 287
#     4   9  17  29  47  71  98 130 159 187 230 284
#     4   9  17  31  49  69  96 127 160 199 232 270
#     4  10  20  35  54  71  89 122 167 205 235 271
#     4  10  19  29  45  72 102 129 156 186 234 291
#
# _framework density 15.703951
#
# number of rings (size 3 to 8) (size 9 to 14) (size 15 to 20)
#    0.000    2.167    3.333    2.500    0.000    4.000 
#    0.000    0.833    0.000    0.000    0.000    0.000 
#    0.000    8.000    0.000    0.000    0.000    0.000 
#
# Total GULP energy -133823.557880 kJ/mol
# GULP energy per Si atom -5575.981578 kJ/mol
# Density = 1.566821 g / cm^3
# Si number density = 15.703951 Si / 1000 Ang^3
#
#
#
# Elastic Constant Matrix: (Units=GPa)
#
#
# Indices 1 2 3 4 5 6 
#
# 1 138.1865 63.0482 42.5735 0.0000 18.4579 0.0000
# 2 63.0482 69.7036 24.6781 0.0000 6.7372 0.0000
# 3 42.5735 24.6781 58.0440 0.0000 12.7714 0.0000
# 4 0.0000 0.0000 0.0000 -1.3185 0.0000 5.5144
# 5 18.4579 6.7372 12.7714 0.0000 15.1517 0.0000
# 6 0.0000 0.0000 0.0000 5.5144 0.0000 -3.9990
#
#
#
# Elastic Compliance Matrix: (Units=1/GPa)
#
#
# Indices 1 2 3 4 5 6 
#
# 1 0.014812 -0.011029 -0.004032 0.000000 -0.009742 0.000000
# 2 -0.011029 0.025140 -0.003801 0.000000 0.005460 0.000000
# 3 -0.004032 -0.003801 0.024982 0.000000 -0.014456 0.000000
# 4 0.000000 0.000000 0.000000 0.159094 0.000000 0.219382
# 5 -0.009742 0.005460 -0.014456 0.000000 0.087624 0.000000
# 6 0.000000 0.000000 0.000000 0.219382 0.000000 0.052453
#
#
# Mechanical properties :
#
#
# Convention : Reuss Voigt Hill
#
# Bulk Modulus (GPa) = 36.74874 58.50374 47.62624
# Shear Modulus (GPa) = 12.16850 11.00913 11.58882
#
# Velocity S-wave (km/s) = 2.78667 2.65059 2.71948
# Velocity P-wave (km/s) = 5.81427 6.83393 6.34462
#
# Compressibility (1/GPa) = 0.02721182
#
# Stress axis : x y z
#
# Youngs Moduli (GPa) = 67.51428 39.77749 40.02866
#
# Poissons Ratio (x) = 0.43869 0.16138
# Poissons Ratio (y) = 0.74458 0.15214
# Poissons Ratio (z) = 0.27219 0.15119
#
# Static dielectric constant tensor:
#      x y z
#    x 1.531450 0.000000 0.002940 
#    y 0.000000 1.521030 0.000000 
#    z 0.002940 0.000000 1.495160 
# 
# From -- ./inp_files/144763.got.cif
#   From: 2010.05.17/outbox.cif.g08.bks.cpg/sg12_73_cif.got.tgz:144763.got - 2010.06.03 13:09:07.
