data_PCOD9172312
_publ_section_title
;
Structure prediction by ZEFSAII (Michael W. Deem and Ramdas Pophale) SiO2 
 PCOD9172312
Probable space group: C 2/M
;
_chemical_formula_sum "Si O2"
_cell_formula_units_Z 64
_cell_length_a 19.873933
_cell_length_b 7.677582
_cell_length_c 24.354215
_cell_angle_alpha 90.000000
_cell_angle_beta 61.838648
_cell_angle_gamma 90.000000
_cell_volume 3276.158023
_symmetry_space_group_name_H-M "C 2/M"
_symmetry_group_IT_number 12
_symmetry_cell_setting 'monoclinic'
loop_
_space_group_symop_operation_xyz
x,y,z
-x,y,-z
-x,-y,-z
x,-y,z
1/2+x,1/2+y,z
1/2-x,1/2+y,-z
1/2-x,1/2-y,-z
1/2+x,1/2-y,z
loop_
_atom_site_type_symbol
_atom_site_label
_atom_site_fract_x
_atom_site_fract_y
_atom_site_fract_z
Si Si1 0.695782 0.288258 0.148093
Si Si2 0.433292 0.793633 0.233232
Si Si3 0.765152 0.791996 0.321581
Si Si4 0.196983 0.209656 0.571658
Si Si5 0.636018 0.707673 0.287566
Si Si6 0.315410 0.209333 0.019779
Si Si7 0.434020 0.206474 0.891624
Si Si8 0.468184 0.297589 0.343985
O O1 0.696695 0.500000 0.147420
O O2 0.676078 0.225480 0.216518
O O3 0.776646 0.228505 0.091165
O O4 0.627963 0.231957 0.133203
O O5 0.343134 0.766244 0.261732
O O6 0.486422 0.725573 0.163451
O O7 0.457602 0.710782 0.282030
O O8 0.447392 0.000000 0.233354
O O9 0.770004 0.727157 0.382588
O O10 0.690640 0.735841 0.317800
O O11 0.766311 0.000000 0.322416
O O12 0.250000 0.250000 0.500000
O O13 0.109974 0.278222 0.601149
O O14 0.191966 0.000000 0.577646
O O15 0.627790 0.500000 0.282587
O O16 0.550420 0.780404 0.326502
O O17 0.322889 0.000000 0.020878
O O18 0.250000 0.250000 0.000000
O O19 0.393517 0.278025 0.962384
O O20 0.444129 0.000000 0.896797
O O21 0.470147 0.500000 0.360088
#
# Coordination Sequence:
#
# PCOD9172312 Si02
#       8
#     8   8   8   8   8   8   8   8
#     4   9  16  26  44  67  94 130 165 199 246 295
#     4  10  18  29  48  73  98 129 169 209 249 294
#     4  10  22  37  52  73 102 132 163 202 247 292
#     4   9  19  36  57  78 100 129 161 195 237 286
#     4  10  19  32  51  75 102 132 167 206 245 291
#     4   8  14  24  37  60  93 125 159 201 246 291
#     4   9  16  25  41  67  97 125 161 208 250 291
#     4   9  18  33  52  76 105 132 163 202 242 285
#
# _framework density 19.535077999999999
#
# number of rings (size 3 to 8) (size 9 to 14) (size 15 to 20)
#    0.000    2.750    1.250    1.500    0.000    4.000 
#    0.000    0.625    0.000    4.500    0.000    5.250 
#    0.000    0.000    0.000    0.000    0.000    0.000 
#
# Total GULP energy -178267.304384 kJ/mol
# GULP energy per Si atom -5570.853262 kJ/mol
# Density = 1.949061 g / cm^3
# Si number density = 19.535078 Si / 1000 Ang^3
#
#
#
# Elastic Constant Matrix: (Units=GPa)
#
#
# Indices 1 2 3 4 5 6 
#
# 1 116.4836 -4.1822 78.3763 -0.0004 -24.9597 0.0009
# 2 -4.1822 27.2335 5.9639 -0.0017 -1.2651 0.0010
# 3 78.3763 5.9639 170.7563 -0.0002 -41.2693 0.0000
# 4 -0.0004 -0.0017 -0.0002 11.9265 -0.0002 2.4068
# 5 -24.9597 -1.2651 -41.2693 -0.0002 25.0234 -0.0003
# 6 0.0009 0.0010 0.0000 2.4068 -0.0003 17.5513
#
#
#
# Elastic Compliance Matrix: (Units=1/GPa)
#
#
# Indices 1 2 3 4 5 6 
#
# 1 0.013095 0.003319 -0.004870 0.000001 0.005197 -0.000001
# 2 0.003319 0.037846 -0.002632 0.000006 0.000884 -0.000003
# 3 -0.004870 -0.002632 0.011602 0.000000 0.014143 0.000001
# 4 0.000001 0.000006 0.000000 0.086233 0.000002 -0.011825
# 5 0.005197 0.000884 0.014143 0.000002 0.068516 0.000001
# 6 -0.000001 -0.000003 0.000001 -0.011825 0.000001 0.058597
#
#
# Mechanical properties :
#
#
# Convention : Reuss Voigt Hill
#
# Bulk Modulus (GPa) = 18.45802 52.75437 35.60620
# Shear Modulus (GPa) = 16.53907 26.52128 21.53018
#
# Velocity S-wave (km/s) = 2.91286 3.68859 3.32343
# Velocity P-wave (km/s) = 4.55874 6.72343 5.74398
#
# Compressibility (1/GPa) = 0.05417700
#
# Stress axis : x y z
#
# Youngs Moduli (GPa) = 76.36736 26.42252 86.19326
#
# Poissons Ratio (x) = -0.08769 0.41978
# Poissons Ratio (y) = -0.25345 0.22683
# Poissons Ratio (z) = 0.37193 0.06953
#
# Static dielectric constant tensor:
#      x y z
#    x 1.668200 0.000000 -0.042110 
#    y 0.000000 1.688640 0.000000 
#    z -0.042110 0.000000 1.724400 
# 
# From -- ./inp_files/345549.got.cif
#   From: 2010.05.17/outbox.cif.g08.bks.cpg/sg12_173_cif.got.tgz:345549.got - 2010.06.03 13:09:07.
