data_PCOD9172352
_publ_section_title
;
Structure prediction by ZEFSAII (Michael W. Deem and Ramdas Pophale) SiO2 
 PCOD9172352
Probable space group: C 2/M
;
_chemical_formula_sum "Si O2"
_cell_formula_units_Z 64
_cell_length_a 33.189965
_cell_length_b 8.919755
_cell_length_c 15.561066
_cell_angle_alpha 90.000000
_cell_angle_beta 134.957946
_cell_angle_gamma 90.000000
_cell_volume 3259.887382
_symmetry_space_group_name_H-M "C 2/M"
_symmetry_group_IT_number 12
_symmetry_cell_setting 'monoclinic'
loop_
_space_group_symop_operation_xyz
x,y,z
-x,y,-z
-x,-y,-z
x,-y,z
1/2+x,1/2+y,z
1/2-x,1/2+y,-z
1/2-x,1/2-y,-z
1/2+x,1/2-y,z
loop_
_atom_site_type_symbol
_atom_site_label
_atom_site_fract_x
_atom_site_fract_y
_atom_site_fract_z
Si Si1 0.537799 0.325133 0.776104
Si Si2 0.903761 0.321835 0.977133
Si Si3 0.727312 0.669959 0.382179
Si Si4 0.157880 0.321772 0.643016
Si Si5 0.064161 0.180259 0.625381
Si Si6 0.591396 0.331457 0.193938
Si Si7 0.092119 0.177063 0.389514
Si Si8 0.727145 0.822852 0.204781
O O1 0.549550 0.500000 0.813355
O O2 0.568199 0.285124 0.732812
O O3 0.469966 0.312909 0.660963
O O4 0.556992 0.228643 0.885656
O O5 0.902015 0.500000 0.964722
O O6 0.924754 0.253995 0.917770
O O7 0.838835 0.272974 0.904861
O O8 0.749663 0.500000 0.403293
O O9 0.750000 0.750000 0.500000
O O10 0.659539 0.658078 0.288475
O O11 0.738932 0.779279 0.321034
O O12 0.159088 0.500000 0.642931
O O13 0.111426 0.261629 0.640423
O O14 0.136440 0.260844 0.517498
O O15 0.220499 0.259644 0.762176
O O16 0.000000 0.220335 0.500000
O O17 0.069930 0.000000 0.622738
O O18 0.566630 0.500000 0.156009
O O19 0.583626 0.267063 0.278400
O O20 0.108099 0.000000 0.407939
O O21 0.730512 0.000000 0.194647
#
# Coordination Sequence:
#
# PCOD9172352 Si02
#       8
#     8   8   8   8   8   8   8   8
#     4  10  21  38  63  87 112 152 196 238 282 339
#     4  10  22  39  59  82 115 155 196 242 289 338
#     4  10  18  29  48  77 110 148 192 240 291 341
#     4  12  24  36  58  92 123 149 183 242 301 348
#     4  10  20  40  65  88 116 152 192 230 280 350
#     4   9  19  34  54  78 110 152 197 239 278 334
#     4  10  20  37  59  86 118 156 199 237 282 346
#     4  10  21  38  57  77 108 155 198 237 287 346
#
# _framework density 19.632580000000001
#
# number of rings (size 3 to 8) (size 9 to 14) (size 15 to 20)
#    0.000    1.875    1.250    3.000    0.000    5.250 
#    0.000    3.125    0.000    0.000    0.000    0.000 
#    0.000    0.000    0.000    0.000    0.000    0.000 
#
# Total GULP energy -178562.578988 kJ/mol
# GULP energy per Si atom -5580.080593 kJ/mol
# Density = 1.958790 g / cm^3
# Si number density = 19.632580 Si / 1000 Ang^3
#
#
#
# Elastic Constant Matrix: (Units=GPa)
#
#
# Indices 1 2 3 4 5 6 
#
# 1 87.1717 15.5541 0.7814 0.0000 -3.7740 0.0000
# 2 15.5541 42.3987 15.7952 0.0000 -3.6716 0.0000
# 3 0.7814 15.7952 39.4911 0.0000 -7.6297 0.0000
# 4 0.0000 0.0000 0.0000 20.5535 0.0000 -0.7010
# 5 -3.7740 -3.6716 -7.6297 0.0000 25.4382 0.0000
# 6 0.0000 0.0000 0.0000 -0.7010 0.0000 22.4037
#
#
#
# Elastic Compliance Matrix: (Units=1/GPa)
#
#
# Indices 1 2 3 4 5 6 
#
# 1 0.012462 -0.005234 0.002185 0.000000 0.001749 0.000000
# 2 -0.005234 0.029926 -0.011869 0.000000 -0.000017 0.000000
# 3 0.002185 -0.011869 0.031588 0.000000 0.008085 0.000000
# 4 0.000000 0.000000 0.000000 0.048706 0.000000 0.001524
# 5 0.001749 -0.000017 0.008085 0.000000 0.041993 0.000000
# 6 0.000000 0.000000 0.000000 0.001524 0.000000 0.044683
#
#
# Mechanical properties :
#
#
# Convention : Reuss Voigt Hill
#
# Bulk Modulus (GPa) = 22.65575 25.92477 24.29026
# Shear Modulus (GPa) = 19.69218 22.80779 21.24998
#
# Velocity S-wave (km/s) = 3.17051 3.41212 3.29353
# Velocity P-wave (km/s) = 4.99678 5.36256 5.18289
#
# Compressibility (1/GPa) = 0.04413891
#
# Stress axis : x y z
#
# Youngs Moduli (GPa) = 80.24618 33.41569 31.65721
#
# Poissons Ratio (x) = 0.17490 -0.06916
# Poissons Ratio (y) = 0.42001 0.37575
# Poissons Ratio (z) = -0.17531 0.39662
#
# Static dielectric constant tensor:
#      x y z
#    x 1.708600 0.000000 0.030060 
#    y 0.000000 1.673690 0.000000 
#    z 0.030060 0.000000 1.664220 
# 
# From -- ./inp_files/249922.got.cif
#   From: 2010.05.17/outbox.cif.g08.bks.cpg/sg12_125_cif.got.tgz:249922.got - 2010.06.03 13:09:07.
