data_PCOD9172966
_publ_section_title
;
Structure prediction by ZEFSAII (Michael W. Deem and Ramdas Pophale) SiO2 
 PCOD9172966
Probable space group: C 2/M
;
_chemical_formula_sum "Si O2"
_cell_formula_units_Z 48
_cell_length_a 14.365111
_cell_length_b 14.948286
_cell_length_c 22.500165
_cell_angle_alpha 90.000000
_cell_angle_beta 150.504179
_cell_angle_gamma 90.000000
_cell_volume 2378.860192
_symmetry_space_group_name_H-M "C 2/M"
_symmetry_group_IT_number 12
_symmetry_cell_setting 'monoclinic'
loop_
_space_group_symop_operation_xyz
x,y,z
-x,y,-z
-x,-y,-z
x,-y,z
1/2+x,1/2+y,z
1/2-x,1/2+y,-z
1/2-x,1/2-y,-z
1/2+x,1/2-y,z
loop_
_atom_site_type_symbol
_atom_site_label
_atom_site_fract_x
_atom_site_fract_y
_atom_site_fract_z
Si Si1 0.822186 0.649365 0.040251
Si Si2 0.027142 0.108934 0.373534
Si Si3 0.206958 0.103546 0.108256
Si Si4 0.394306 0.109497 0.633262
Si Si5 0.210946 0.603052 0.108589
Si Si6 0.272503 0.892067 0.697433
O O1 0.759654 0.606408 0.067830
O O2 0.048847 0.643145 0.166426
O O3 0.750000 0.750000 0.000000
O O4 0.749017 0.605550 0.939226
O O5 0.888686 0.140856 0.244026
O O6 0.917516 0.131975 0.373732
O O7 0.244872 0.138607 0.500184
O O8 0.035581 0.000000 0.374667
O O9 0.388095 0.141147 0.244528
O O10 0.190837 0.000000 0.118376
O O11 0.000000 0.145603 0.000000
O O12 0.305615 0.135415 0.647947
O O13 0.401681 0.000000 0.636727
O O14 0.194330 0.500000 0.120087
O O15 0.000000 0.642887 0.000000
O O16 0.282241 0.000000 0.703385
#
# Coordination Sequence:
#
# PCOD9172966 Si02
#       6
#     8   8   8   8   8   8
#     4  11  21  31  46  71  99 131 164 201 238 286
#     4   9  15  24  45  76 102 123 147 190 251 300
#     4   9  18  34  54  72  92 125 168 209 239 269
#     4   8  14  24  44  75 101 118 153 201 241 284
#     4  10  18  30  49  73 102 129 155 193 248 303
#     4   9  15  27  46  70 100 128 157 195 243 288
#
# _framework density 20.17773
#
# number of rings (size 3 to 8) (size 9 to 14) (size 15 to 20)
#    0.000    2.667    1.667    3.000    0.000    2.667 
#    0.000    0.000    0.000    5.000    8.667    5.833 
#    0.000    0.000    0.000    0.000    0.000    0.000 
#
# Total GULP energy -133678.135064 kJ/mol
# GULP energy per Si atom -5569.922294 kJ/mol
# Density = 2.013180 g / cm^3
# Si number density = 20.177730 Si / 1000 Ang^3
#
#
#
# Elastic Constant Matrix: (Units=GPa)
#
#
# Indices 1 2 3 4 5 6 
#
# 1 40.4587 -9.8103 51.6162 0.0002 18.5804 0.0000
# 2 -9.8103 38.5196 2.4713 0.0007 5.7826 0.0003
# 3 51.6162 2.4713 220.6311 0.0018 27.0492 0.0008
# 4 0.0002 0.0007 0.0018 -16.0344 0.0006 1.6141
# 5 18.5804 5.7826 27.0492 0.0006 30.7438 0.0002
# 6 0.0000 0.0003 0.0008 1.6141 0.0002 -23.6900
#
#
#
# Elastic Compliance Matrix: (Units=1/GPa)
#
#
# Indices 1 2 3 4 5 6 
#
# 1 0.054042 0.018550 -0.009437 -0.000001 -0.027847 0.000000
# 2 0.018550 0.033107 -0.002884 0.000001 -0.014901 0.000000
# 3 -0.009437 -0.002884 0.006733 0.000001 0.000322 0.000000
# 4 -0.000001 0.000001 0.000001 -0.062797 0.000001 -0.004279
# 5 -0.027847 -0.014901 0.000322 0.000001 0.051876 0.000000
# 6 0.000000 0.000000 0.000000 -0.004279 0.000000 -0.042503
#
#
# Mechanical properties :
#
#
# Convention : Reuss Voigt Hill
#
# Bulk Modulus (GPa) = 9.40374 43.12932 26.26653
# Shear Modulus (GPa) = 78.80533 15.22602 47.01568
#
# Velocity S-wave (km/s) = 6.25623 2.74997 4.83232
# Velocity P-wave (km/s) = 7.54041 5.61286 6.64688
#
# Compressibility (1/GPa) = 0.10634066
#
# Stress axis : x y z
#
# Youngs Moduli (GPa) = 18.50400 30.20509 148.52157
#
# Poissons Ratio (x) = -0.56029 1.40157
# Poissons Ratio (y) = -0.34324 0.42829
# Poissons Ratio (z) = 0.17462 0.08710
#
# Static dielectric constant tensor:
#      x y z
#    x 1.714410 0.000000 0.016690 
#    y 0.000000 1.755960 0.000000 
#    z 0.016690 0.000000 1.772020 
# 
# From -- ./inp_files/143900.got.cif
#   From: 2010.05.17/outbox.cif.g08.bks.cpg/sg12_72_cif.got.tgz:143900.got - 2010.06.03 13:09:07.
