data_PCOD9172990
_publ_section_title
;
Structure prediction by ZEFSAII (Michael W. Deem and Ramdas Pophale) SiO2 
 PCOD9172990
Probable space group: C 2/M
;
_chemical_formula_sum "Si O2"
_cell_formula_units_Z 48
_cell_length_a 13.459666
_cell_length_b 20.559044
_cell_length_c 9.472430
_cell_angle_alpha 90.000000
_cell_angle_beta 64.874247
_cell_angle_gamma 90.000000
_cell_volume 2373.168419
_symmetry_space_group_name_H-M "C 2/M"
_symmetry_group_IT_number 12
_symmetry_cell_setting 'monoclinic'
loop_
_space_group_symop_operation_xyz
x,y,z
-x,y,-z
-x,-y,-z
x,-y,z
1/2+x,1/2+y,z
1/2-x,1/2+y,-z
1/2-x,1/2-y,-z
1/2+x,1/2-y,z
loop_
_atom_site_type_symbol
_atom_site_label
_atom_site_fract_x
_atom_site_fract_y
_atom_site_fract_z
Si Si1 0.370222 0.650246 0.069226
Si Si2 0.524624 0.071592 0.637971
Si Si3 0.900815 0.288393 0.911729
Si Si4 0.315220 0.926283 0.964704
Si Si5 0.301352 0.217278 0.663368
Si Si6 0.862229 0.684555 0.312808
O O1 0.301879 0.594025 0.030917
O O2 0.301522 0.666858 0.253759
O O3 0.500000 0.636719 0.000000
O O4 0.358304 0.719328 0.993269
O O5 0.500000 0.101564 0.500000
O O6 0.409596 0.068015 0.788553
O O7 0.609832 0.109561 0.683522
O O8 0.568540 0.000000 0.584144
O O9 0.856312 0.356507 0.006445
O O10 0.871004 0.291720 0.762597
O O11 0.032751 0.286699 0.831683
O O12 0.311893 0.000000 0.032226
O O13 0.247806 0.288793 0.688673
O O14 0.357832 0.208468 0.478745
#
# Coordination Sequence:
#
# PCOD9172990 Si02
#       6
#     8   8   8   8   8   8
#     4  11  20  33  50  73 101 133 167 202 247 298
#     4   9  16  28  47  70  98 129 158 199 252 297
#     4  10  19  34  52  72 101 132 163 206 250 298
#     4   9  18  30  48  71  96 126 162 204 248 290
#     4  10  19  30  48  73  99 129 160 201 246 287
#     4  10  18  30  49  74 102 121 162 206 244 296
#
# _framework density 20.226125
#
# number of rings (size 3 to 8) (size 9 to 14) (size 15 to 20)
#    0.000    2.167    1.667    5.500    0.000    0.333 
#    0.000    0.000    0.000    4.500    0.000    0.000 
#    0.000    8.333    0.000    0.000    0.000    0.000 
#
# Total GULP energy -133623.840047 kJ/mol
# GULP energy per Si atom -5567.660002 kJ/mol
# Density = 2.018009 g / cm^3
# Si number density = 20.226125 Si / 1000 Ang^3
#
#
#
# Elastic Constant Matrix: (Units=GPa)
#
#
# Indices 1 2 3 4 5 6 
#
# 1 72.4630 26.9909 -4.5726 0.0000 -10.8161 0.0000
# 2 26.9909 113.2964 10.9480 0.0000 1.0729 0.0000
# 3 -4.5726 10.9480 72.8107 0.0000 -6.5826 0.0000
# 4 0.0000 0.0000 0.0000 20.4565 0.0000 7.1287
# 5 -10.8161 1.0729 -6.5826 0.0000 29.2905 0.0000
# 6 0.0000 0.0000 0.0000 7.1287 0.0000 21.4571
#
#
#
# Elastic Compliance Matrix: (Units=1/GPa)
#
#
# Indices 1 2 3 4 5 6 
#
# 1 0.016528 -0.004222 0.002285 0.000000 0.006771 0.000000
# 2 -0.004222 0.010047 -0.001991 0.000000 -0.002375 0.000000
# 3 0.002285 -0.001991 0.014556 0.000000 0.004188 0.000000
# 4 0.000000 0.000000 0.000000 0.055285 0.000000 -0.018367
# 5 0.006771 -0.002375 0.004188 0.000000 0.037669 0.000000
# 6 0.000000 0.000000 0.000000 -0.018367 0.000000 0.052707
#
#
# Mechanical properties :
#
#
# Convention : Reuss Voigt Hill
#
# Bulk Modulus (GPa) = 30.05278 36.14474 33.09876
# Shear Modulus (GPa) = 24.30259 29.25440 26.77849
#
# Velocity S-wave (km/s) = 3.47009 3.80724 3.64257
# Velocity P-wave (km/s) = 5.56292 6.10212 5.83875
#
# Compressibility (1/GPa) = 0.03327479
#
# Stress axis : x y z
#
# Youngs Moduli (GPa) = 60.50413 99.53068 68.70175
#
# Poissons Ratio (x) = 0.42026 -0.15699
# Poissons Ratio (y) = 0.25547 0.13676
# Poissons Ratio (z) = -0.13825 0.19812
#
# Static dielectric constant tensor:
#      x y z
#    x 1.785780 0.000000 0.023910 
#    y 0.000000 1.779490 0.000000 
#    z 0.023910 0.000000 1.777790 
# 
# From -- ./inp_files/146516.got.cif
#   From: 2010.05.17/outbox.cif.g08.bks.cpg/sg12_74_cif.got.tgz:146516.got - 2010.06.03 13:09:07.
