data_PCOD9172276
_publ_section_title
;
Structure prediction by ZEFSAII (Michael W. Deem and Ramdas Pophale) SiO2 
 PCOD9172276
Probable space group: C 2/M
;
_chemical_formula_sum "Si O2"
_cell_formula_units_Z 64
_cell_length_a 25.862124
_cell_length_b 7.849376
_cell_length_c 17.918314
_cell_angle_alpha 90.000000
_cell_angle_beta 136.909913
_cell_angle_gamma 90.000000
_cell_volume 2484.911395
_symmetry_space_group_name_H-M "C 2/M"
_symmetry_group_IT_number 12
_symmetry_cell_setting 'monoclinic'
loop_
_space_group_symop_operation_xyz
x,y,z
-x,y,-z
-x,-y,-z
x,-y,z
1/2+x,1/2+y,z
1/2-x,1/2+y,-z
1/2-x,1/2-y,-z
1/2+x,1/2-y,z
loop_
_atom_site_type_symbol
_atom_site_label
_atom_site_fract_x
_atom_site_fract_y
_atom_site_fract_z
Si Si1 0.540916 0.203233 0.117420
Si Si2 0.182671 0.201277 0.183715
Si Si3 0.317905 0.191433 0.521724
Si Si4 0.843472 0.792096 0.168855
Si Si5 0.517405 0.196659 0.251607
Si Si6 0.330443 0.700389 0.990620
Si Si7 0.350621 0.693449 0.396645
Si Si8 0.011027 0.801591 0.611322
O O1 0.630285 0.230936 0.195308
O O2 0.504665 0.273482 0.156037
O O3 0.529137 0.000000 0.109566
O O4 0.500000 0.271118 0.000000
O O5 0.153876 0.277817 0.074080
O O6 0.272944 0.230533 0.282995
O O7 0.171073 0.000000 0.170483
O O8 0.250000 0.250000 0.500000
O O9 0.391329 0.188148 0.650287
O O10 0.332326 0.307350 0.465735
O O11 0.305473 0.000000 0.478547
O O12 0.760037 0.723718 0.095088
O O13 0.902717 0.733429 0.295074
O O14 0.841365 0.000000 0.167159
O O15 0.863882 0.735968 0.104855
O O16 0.502358 0.291178 0.313361
O O17 0.492015 0.000000 0.231656
O O18 0.346880 0.500000 0.005722
O O19 0.355316 0.500000 0.373380
O O20 0.437093 0.770303 0.490567
O O21 0.012645 0.000000 0.593871
#
# Coordination Sequence:
#
# PCOD9172276 Si02
#       8
#     8   8   8   8   8   8   8   8
#     4  10  22  38  54  78 113 150 189 229 271 327
#     4  11  23  38  57  81 112 149 187 228 277 333
#     4  10  18  29  48  72 100 137 184 230 273 319
#     4   9  18  36  60  85 111 138 178 228 276 329
#     4   9  19  33  48  72 105 141 179 221 266 317
#     4   9  20  37  57  84 113 142 179 225 276 332
#     4  10  20  35  53  77 108 145 186 229 279 332
#     4   9  19  34  57  84 110 142 183 232 279 324
#
# _framework density 25.755447
#
# number of rings (size 3 to 8) (size 9 to 14) (size 15 to 20)
#    0.000    2.375    0.000    1.875    1.750    4.250 
#    0.000    0.625    0.000    3.750    0.000    0.000 
#    0.000    0.000    0.000    0.000    0.000    0.000 
#
# Total GULP energy -178709.917736 kJ/mol
# GULP energy per Si atom -5584.684929 kJ/mol
# Density = 2.569683 g / cm^3
# Si number density = 25.755447 Si / 1000 Ang^3
#
#
#
# Elastic Constant Matrix: (Units=GPa)
#
#
# Indices 1 2 3 4 5 6 
#
# 1 85.0674 13.4369 27.3323 0.0000 -13.2983 0.0000
# 2 13.4369 64.7595 12.0905 0.0000 -2.8283 0.0000
# 3 27.3323 12.0905 168.6248 0.0000 -3.5957 0.0000
# 4 0.0000 0.0000 0.0000 18.1268 0.0000 6.5660
# 5 -13.2983 -2.8283 -3.5957 0.0000 60.7642 0.0000
# 6 0.0000 0.0000 0.0000 6.5660 0.0000 18.6697
#
#
#
# Elastic Compliance Matrix: (Units=1/GPa)
#
#
# Indices 1 2 3 4 5 6 
#
# 1 0.013141 -0.002254 -0.001912 0.000000 0.002658 0.000000
# 2 -0.002254 0.016064 -0.000782 0.000000 0.000208 0.000000
# 3 -0.001912 -0.000782 0.006295 0.000000 -0.000082 0.000000
# 4 0.000000 0.000000 0.000000 0.063221 0.000000 -0.022234
# 5 0.002658 0.000208 -0.000082 0.000000 0.017044 0.000000
# 6 0.000000 0.000000 0.000000 -0.022234 0.000000 0.061382
#
#
# Mechanical properties :
#
#
# Convention : Reuss Voigt Hill
#
# Bulk Modulus (GPa) = 39.05470 47.13009 43.09240
# Shear Modulus (GPa) = 25.56539 37.21827 31.39183
#
# Velocity S-wave (km/s) = 3.15401 3.80552 3.49498
# Velocity P-wave (km/s) = 5.33482 6.13581 5.74928
#
# Compressibility (1/GPa) = 0.02560511
#
# Stress axis : x y z
#
# Youngs Moduli (GPa) = 76.09699 62.24915 158.86817
#
# Poissons Ratio (x) = 0.14029 0.30372
# Poissons Ratio (y) = 0.17149 0.12425
# Poissons Ratio (z) = 0.14548 0.04869
#
# Static dielectric constant tensor:
#      x y z
#    x 2.122090 0.000000 0.020400 
#    y 0.000000 1.945000 0.000000 
#    z 0.020400 0.000000 2.079470 
# 
# From -- ./inp_files/295762.got.cif
#   From: 2010.05.17/outbox.cif.g08.bks.cpg/sg12_148_cif.got.tgz:295762.got - 2010.06.03 13:09:07.
