data_PCOD9172903
_publ_section_title
;
Structure prediction by ZEFSAII (Michael W. Deem and Ramdas Pophale) SiO2 
 PCOD9172903
Probable space group: C 2/M
;
_chemical_formula_sum "Si O2"
_cell_formula_units_Z 64
_cell_length_a 26.824358
_cell_length_b 7.469655
_cell_length_c 14.988852
_cell_angle_alpha 90.000000
_cell_angle_beta 102.920617
_cell_angle_gamma 90.000000
_cell_volume 2927.255710
_symmetry_space_group_name_H-M "C 2/M"
_symmetry_group_IT_number 12
_symmetry_cell_setting 'monoclinic'
loop_
_space_group_symop_operation_xyz
x,y,z
-x,y,-z
-x,-y,-z
x,-y,z
1/2+x,1/2+y,z
1/2-x,1/2+y,-z
1/2-x,1/2-y,-z
1/2+x,1/2-y,z
loop_
_atom_site_type_symbol
_atom_site_label
_atom_site_fract_x
_atom_site_fract_y
_atom_site_fract_z
Si Si1 0.031904 0.200168 0.275908
Si Si2 0.175547 0.716530 0.918778
Si Si3 0.239152 0.720234 0.770077
Si Si4 0.648023 0.792465 0.622275
Si Si5 0.946794 0.293633 0.519013
Si Si6 0.952635 0.219582 0.919122
Si Si7 0.161412 0.207305 0.108541
Si Si8 0.581762 0.207379 0.776959
O O1 0.050441 0.292623 0.373344
O O2 0.041881 0.276151 0.181868
O O3 0.970610 0.193492 0.258007
O O4 0.053638 0.000000 0.286474
O O5 0.176128 0.500000 0.919929
O O6 0.187528 0.783126 0.021682
O O7 0.210897 0.774531 0.850882
O O8 0.117959 0.775398 0.870094
O O9 0.238500 0.500000 0.768527
O O10 0.203503 0.781261 0.673611
O O11 0.297674 0.781019 0.804143
O O12 0.606816 0.713274 0.536867
O O13 0.616265 0.789192 0.702294
O O14 0.657175 0.000000 0.599834
O O15 0.946179 0.500000 0.485741
O O16 0.000000 0.215919 0.500000
O O17 0.895763 0.281792 0.923512
O O18 0.954659 0.000000 0.922191
O O19 0.000000 0.279666 0.000000
O O20 0.154526 0.000000 0.129779
O O21 0.568728 0.000000 0.788899
#
# Coordination Sequence:
#
# PCOD9172903 Si02
#       8
#     8   8   8   8   8   8   8   8
#     4  11  21  31  47  71  99 127 160 205 243 271
#     4   9  17  28  45  70  99 122 148 197 250 284
#     4   8  15  27  46  71  93 119 156 197 236 282
#     4   8  14  27  46  68  94 120 149 186 229 281
#     4  10  18  31  52  73  96 129 159 186 235 301
#     4   9  19  34  48  65  94 132 167 197 232 275
#     4  10  18  30  49  67  88 123 167 201 232 284
#     4   9  16  29  46  65  93 128 158 185 228 291
#
# _framework density 21.863481
#
# number of rings (size 3 to 8) (size 9 to 14) (size 15 to 20)
#    0.000    2.750    1.250    3.000    0.000    1.750 
#    0.000    1.250    0.000    5.625    0.000    0.000 
#    0.000    0.000    0.000    0.000    0.000    0.125 
#
# Total GULP energy -178363.011103 kJ/mol
# GULP energy per Si atom -5573.844097 kJ/mol
# Density = 2.181372 g / cm^3
# Si number density = 21.863481 Si / 1000 Ang^3
#
#
#
# Elastic Constant Matrix: (Units=GPa)
#
#
# Indices 1 2 3 4 5 6 
#
# 1 91.6435 5.9151 60.9902 0.0000 43.2824 0.0000
# 2 5.9151 59.6509 2.6662 0.0000 4.6391 0.0000
# 3 60.9902 2.6662 149.8136 0.0000 46.1831 0.0000
# 4 0.0000 0.0000 0.0000 11.4622 0.0000 -2.9050
# 5 43.2824 4.6391 46.1831 0.0000 46.9780 0.0000
# 6 0.0000 0.0000 0.0000 -2.9050 0.0000 -4.7364
#
#
#
# Elastic Compliance Matrix: (Units=1/GPa)
#
#
# Indices 1 2 3 4 5 6 
#
# 1 0.020643 -0.000689 -0.003658 0.000000 -0.015354 0.000000
# 2 -0.000689 0.016927 0.000429 0.000000 -0.001458 0.000000
# 3 -0.003658 0.000429 0.010231 0.000000 -0.006730 0.000000
# 4 0.000000 0.000000 0.000000 0.075506 0.000000 -0.046310
# 5 -0.015354 -0.001458 -0.006730 0.000000 0.042193 0.000000
# 6 0.000000 0.000000 0.000000 -0.046310 0.000000 -0.182726
#
#
# Mechanical properties :
#
#
# Convention : Reuss Voigt Hill
#
# Bulk Modulus (GPa) = 25.02287 48.91677 36.96982
# Shear Modulus (GPa) = 1271.29500 26.17653 648.73576
#
# Velocity S-wave (km/s) = 24.13984 3.46392 17.24428
# Velocity P-wave (km/s) = 28.07928 6.19843 20.33306
#
# Compressibility (1/GPa) = 0.03996344
#
# Stress axis : x y z
#
# Youngs Moduli (GPa) = 48.44332 59.07797 97.73923
#
# Poissons Ratio (x) = 0.04072 0.35755
# Poissons Ratio (y) = 0.03339 -0.04192
# Poissons Ratio (z) = 0.17722 -0.02534
#
# Static dielectric constant tensor:
#      x y z
#    x 1.830280 0.000000 0.046390 
#    y 0.000000 1.855510 0.000000 
#    z 0.046390 0.000000 1.805640 
# 
# From -- ./inp_files/239697.got.cif
#   From: 2010.05.17/outbox.cif.g08.bks.cpg/sg12_120_cif.got.tgz:239697.got - 2010.06.03 13:09:07.
