data_PCOD9172818
_publ_section_title
;
Structure prediction by ZEFSAII (Michael W. Deem and Ramdas Pophale) SiO2 
 PCOD9172818
Probable space group: C 2/M
;
_chemical_formula_sum "Si O2"
_cell_formula_units_Z 64
_cell_length_a 18.073469
_cell_length_b 20.500153
_cell_length_c 17.744773
_cell_angle_alpha 90.000000
_cell_angle_beta 143.801064
_cell_angle_gamma 90.000000
_cell_volume 3882.895115
_symmetry_space_group_name_H-M "C 2/M"
_symmetry_group_IT_number 12
_symmetry_cell_setting 'monoclinic'
loop_
_space_group_symop_operation_xyz
x,y,z
-x,y,-z
-x,-y,-z
x,-y,z
1/2+x,1/2+y,z
1/2-x,1/2+y,-z
1/2-x,1/2-y,-z
1/2+x,1/2-y,z
loop_
_atom_site_type_symbol
_atom_site_label
_atom_site_fract_x
_atom_site_fract_y
_atom_site_fract_z
Si Si1 0.583455 0.307945 0.857103
Si Si2 0.278869 0.924026 0.607019
Si Si3 0.361586 0.602474 0.357066
Si Si4 0.063831 0.754168 0.624484
Si Si5 0.795358 0.312262 0.134538
Si Si6 0.928440 0.576153 0.157583
Si Si7 0.208991 0.926865 0.870843
Si Si8 0.641740 0.697194 0.420739
O O1 0.639378 0.242582 0.865074
O O2 0.632950 0.369832 0.849654
O O3 0.436392 0.306968 0.721158
O O4 0.649085 0.312261 0.992235
O O5 0.232434 0.917178 0.654666
O O6 0.425694 0.906183 0.724998
O O7 0.198430 0.872086 0.493109
O O8 0.262911 0.000000 0.570806
O O9 0.500000 0.581511 0.500000
O O10 0.371079 0.680401 0.353386
O O11 0.319634 0.576625 0.241249
O O12 0.162791 0.709412 0.748841
O O13 0.000000 0.721312 0.500000
O O14 0.957324 0.778451 0.596534
O O15 0.856155 0.379801 0.158365
O O16 0.921235 0.500000 0.170935
O O17 0.852513 0.584215 0.016209
O O18 0.174456 0.000000 0.868336
O O19 0.750000 0.750000 0.500000
#
# Coordination Sequence:
#
# PCOD9172818 Si02
#       8
#     8   8   8   8   8   8   8   8
#     4   9  17  29  47  72  91 120 171 203 245 289
#     4  11  21  32  47  70 103 140 169 199 243 295
#     4  11  19  32  44  66 101 133 170 199 229 292
#     4  10  18  34  50  71 100 126 169 206 245 298
#     4   9  16  31  54  69  89 127 162 210 250 286
#     4   9  20  34  48  72  99 127 168 212 256 291
#     4  10  18  30  48  69  99 134 168 205 239 290
#     4  11  20  33  50  72  99 130 168 211 248 288
#
# _framework density 16.482548000000001
#
# number of rings (size 3 to 8) (size 9 to 14) (size 15 to 20)
#    0.000    2.000    5.000    1.875    0.000    3.000 
#    0.000    1.875    0.000    1.125    0.000    0.000 
#    0.000    0.000    0.000   10.750    0.000    0.000 
#
# Total GULP energy -178216.298239 kJ/mol
# GULP energy per Si atom -5569.259320 kJ/mol
# Density = 1.644503 g / cm^3
# Si number density = 16.482548 Si / 1000 Ang^3
#
#
#
# Elastic Constant Matrix: (Units=GPa)
#
#
# Indices 1 2 3 4 5 6 
#
# 1 14.0895 10.4541 26.5095 0.0000 -3.4481 0.0000
# 2 10.4541 52.2582 45.9912 0.0000 -0.2083 0.0000
# 3 26.5095 45.9912 162.0984 0.0001 -12.2204 0.0001
# 4 0.0000 0.0000 0.0001 23.7511 0.0001 -2.6968
# 5 -3.4481 -0.2083 -12.2204 0.0001 25.8032 0.0000
# 6 0.0000 0.0000 0.0001 -2.6968 0.0000 20.5131
#
#
#
# Elastic Compliance Matrix: (Units=1/GPa)
#
#
# Indices 1 2 3 4 5 6 
#
# 1 0.106176 -0.008549 -0.014388 0.000000 0.007305 0.000000
# 2 -0.008549 0.026473 -0.006412 0.000000 -0.003965 0.000000
# 3 -0.014388 -0.006412 0.010570 0.000000 0.003031 0.000000
# 4 0.000000 0.000000 0.000000 0.042741 0.000000 0.005619
# 5 0.007305 -0.003965 0.003031 0.000000 0.041135 0.000000
# 6 0.000000 0.000000 0.000000 0.005619 0.000000 0.049488
#
#
# Mechanical properties :
#
#
# Convention : Reuss Voigt Hill
#
# Bulk Modulus (GPa) = 11.83123 43.81728 27.82426
# Shear Modulus (GPa) = 13.75691 23.71291 18.73491
#
# Velocity S-wave (km/s) = 2.89214 3.79709 3.37508
# Velocity P-wave (km/s) = 4.28325 6.77242 5.66621
#
# Compressibility (1/GPa) = 0.08452204
#
# Stress axis : x y z
#
# Youngs Moduli (GPa) = 9.41834 37.77422 94.60916
#
# Poissons Ratio (x) = 0.32292 1.36121
# Poissons Ratio (y) = 0.08051 0.60663
# Poissons Ratio (z) = 0.13551 0.24221
#
# Static dielectric constant tensor:
#      x y z
#    x 1.524500 0.000000 -0.009060 
#    y 0.000000 1.563150 0.000000 
#    z -0.009060 0.000000 1.616950 
# 
# From -- ./inp_files/322473.got.cif
#   From: 2010.05.17/outbox.cif.g08.bks.cpg/sg12_162_cif.got.tgz:322473.got - 2010.06.03 13:09:07.
