data_PCOD9172891
_publ_section_title
;
Structure prediction by ZEFSAII (Michael W. Deem and Ramdas Pophale) SiO2 
 PCOD9172891
Probable space group: C 2/M
;
_chemical_formula_sum "Si O2"
_cell_formula_units_Z 44
_cell_length_a 14.969856
_cell_length_b 29.013813
_cell_length_c 11.196239
_cell_angle_alpha 90.000000
_cell_angle_beta 152.373997
_cell_angle_gamma 90.000000
_cell_volume 2254.913997
_symmetry_space_group_name_H-M "C 2/M"
_symmetry_group_IT_number 12
_symmetry_cell_setting 'monoclinic'
loop_
_space_group_symop_operation_xyz
x,y,z
-x,y,-z
-x,-y,-z
x,-y,z
1/2+x,1/2+y,z
1/2-x,1/2+y,-z
1/2-x,1/2-y,-z
1/2+x,1/2-y,z
loop_
_atom_site_type_symbol
_atom_site_label
_atom_site_fract_x
_atom_site_fract_y
_atom_site_fract_z
Si Si1 0.500000 0.260600 0.000000
Si Si2 0.603317 0.948188 0.251914
Si Si3 0.327242 0.702185 0.033908
Si Si4 0.161231 0.193634 0.603364
Si Si5 0.035585 0.050315 0.684397
Si Si6 0.335741 0.871359 0.018218
O O1 0.396814 0.288677 0.982681
O O2 0.670774 0.226394 0.244862
O O3 0.830114 0.943823 0.501815
O O4 0.564842 0.000000 0.257177
O O5 0.500000 0.948456 0.000000
O O6 0.521913 0.902460 0.217066
O O7 0.519256 0.681916 0.327060
O O8 0.159993 0.666815 0.873760
O O9 0.250000 0.750000 0.000000
O O10 0.259167 0.154303 0.804625
O O11 0.000000 0.216738 0.500000
O O12 0.000000 0.049769 0.500000
O O13 0.180551 0.091156 0.875601
O O14 0.113933 0.000000 0.810558
#
# Coordination Sequence:
#
# PCOD9172891 Si02
#       6
#     4   8   8   8   8   8
#     4  12  22  42  60  72 114 148 188 246 274 322
#     4  10  20  30  49  80 114 150 174 213 285 342
#     4  11  23  40  56  82 109 150 195 234 282 325
#     4  10  22  36  56  82 106 148 191 227 283 328
#     4  10  18  30  48  77 117 145 173 221 270 337
#     4  11  21  34  54  80 115 147 188 223 271 342
#
# _framework density 19.512938999999999
#
# number of rings (size 3 to 8) (size 9 to 14) (size 15 to 20)
#    0.000    1.455    5.455    2.727    1.273    0.000 
#    3.273    0.000    0.000    0.000    0.000    2.545 
#    0.000    2.909    0.000    0.000    0.000    0.000 
#
# Total GULP energy -122536.925638 kJ/mol
# GULP energy per Si atom -5569.860256 kJ/mol
# Density = 1.946853 g / cm^3
# Si number density = 19.512939 Si / 1000 Ang^3
#
#
#
# Elastic Constant Matrix: (Units=GPa)
#
#
# Indices 1 2 3 4 5 6 
#
# 1 103.3758 65.1009 15.0865 0.0000 19.0400 0.0000
# 2 65.1009 136.4492 6.8068 0.0000 19.8261 0.0000
# 3 15.0865 6.8068 25.2411 -0.0001 17.6327 0.0000
# 4 0.0000 0.0000 -0.0001 18.3902 0.0000 18.7424
# 5 19.0400 19.8261 17.6327 0.0000 25.7467 0.0000
# 6 0.0000 0.0000 0.0000 18.7424 0.0000 41.2220
#
#
#
# Elastic Compliance Matrix: (Units=1/GPa)
#
#
# Indices 1 2 3 4 5 6 
#
# 1 0.015049 -0.006584 -0.005726 0.000000 -0.002138 0.000000
# 2 -0.006584 0.011376 0.006875 0.000000 -0.008600 0.000000
# 3 -0.005726 0.006875 0.080383 0.000001 -0.056110 0.000000
# 4 0.000000 0.000000 0.000001 0.101331 0.000000 -0.046072
# 5 -0.002138 -0.008600 -0.056110 0.000000 0.085470 0.000000
# 6 0.000000 0.000000 0.000000 -0.046072 0.000000 0.045207
#
#
# Mechanical properties :
#
#
# Convention : Reuss Voigt Hill
#
# Bulk Modulus (GPa) = 10.42334 48.78384 29.60359
# Shear Modulus (GPa) = 13.10050 28.94326 21.02188
#
# Velocity S-wave (km/s) = 2.59390 3.85552 3.28583
# Velocity P-wave (km/s) = 3.78477 6.69889 5.44057
#
# Compressibility (1/GPa) = 0.09593851
#
# Stress axis : x y z
#
# Youngs Moduli (GPa) = 66.45017 87.90085 12.44047
#
# Poissons Ratio (x) = 0.57871 0.07123
# Poissons Ratio (y) = 0.43749 -0.08552
# Poissons Ratio (z) = 0.38048 -0.60429
#
# Static dielectric constant tensor:
#      x y z
#    x 1.725000 0.000000 0.008670 
#    y 0.000000 1.776910 0.000000 
#    z 0.008670 0.000000 1.718120 
# 
# From -- ./inp_files/149557.got.cif
#   From: 2010.05.17/outbox.cif.g08.bks.cpg/sg12_75_cif.got.tgz:149557.got - 2010.06.03 13:09:07.
