data_PCOD9172595
_publ_section_title
;
Structure prediction by ZEFSAII (Michael W. Deem and Ramdas Pophale) SiO2 
 PCOD9172595
Probable space group: C 2/M
;
_chemical_formula_sum "Si O2"
_cell_formula_units_Z 36
_cell_length_a 15.403320
_cell_length_b 15.410499
_cell_length_c 8.150066
_cell_angle_alpha 90.000000
_cell_angle_beta 128.250799
_cell_angle_gamma 90.000000
_cell_volume 1519.260867
_symmetry_space_group_name_H-M "C 2/M"
_symmetry_group_IT_number 12
_symmetry_cell_setting 'monoclinic'
loop_
_space_group_symop_operation_xyz
x,y,z
-x,y,-z
-x,-y,-z
x,-y,z
1/2+x,1/2+y,z
1/2-x,1/2+y,-z
1/2-x,1/2-y,-z
1/2+x,1/2-y,z
loop_
_atom_site_type_symbol
_atom_site_label
_atom_site_fract_x
_atom_site_fract_y
_atom_site_fract_z
Si Si1 0.704890 0.687338 0.589492
Si Si2 0.530922 0.325568 0.848455
Si Si3 0.234610 0.000000 0.520323
Si Si4 0.884835 0.312694 0.260508
Si Si5 0.022375 0.000000 0.721249
Si Si6 0.634343 0.000000 0.673286
O O1 0.750000 0.750000 0.500000
O O2 0.577974 0.672285 0.391212
O O3 0.757782 0.591169 0.641903
O O4 0.695455 0.745570 0.740009
O O5 0.585132 0.233721 0.873236
O O6 0.586932 0.414220 0.853594
O O7 0.500000 0.332525 0.000000
O O8 0.303241 0.000000 0.430453
O O9 0.100274 0.000000 0.335340
O O10 0.840219 0.409683 0.207086
O O11 0.000000 0.316748 0.500000
O O12 0.000000 0.000000 0.500000
O O13 0.500000 0.000000 0.500000
#
# Coordination Sequence:
#
# PCOD9172595 Si02
#       6
#     8   8   4   8   4   4
#     4  10  18  32  54  79 105 139 185 232 268 331
#     4  10  20  34  53  82 111 144 178 226 290 333
#     4  10  18  29  53  82 105 132 181 229 280 309
#     4   9  18  32  52  76 104 138 184 225 271 331
#     4  10  19  35  60  84 109 139 183 233 278 339
#     4  10  18  30  50  78 104 143 184 229 262 314
#
# _framework density 23.695734000000002
#
# number of rings (size 3 to 8) (size 9 to 14) (size 15 to 20)
#    0.000    2.222    2.222    3.667    0.000    0.000 
#    0.000    1.667    0.000    0.000    0.000    0.000 
#    0.000    0.000    0.000    0.000    0.000    0.000 
#
# Total GULP energy -100472.114702 kJ/mol
# GULP energy per Si atom -5581.784150 kJ/mol
# Density = 2.364180 g / cm^3
# Si number density = 23.695734 Si / 1000 Ang^3
#
#
#
# Elastic Constant Matrix: (Units=GPa)
#
#
# Indices 1 2 3 4 5 6 
#
# 1 95.7762 50.4610 19.9368 0.0000 -8.2421 0.0000
# 2 50.4610 292.9862 34.4210 0.0000 -39.9514 0.0000
# 3 19.9368 34.4210 57.1614 0.0000 -9.4572 0.0000
# 4 0.0000 0.0000 0.0000 0.3056 0.0000 -28.9553
# 5 -8.2421 -39.9514 -9.4572 0.0000 55.2430 0.0000
# 6 0.0000 0.0000 0.0000 -28.9553 0.0000 26.3647
#
#
#
# Elastic Compliance Matrix: (Units=1/GPa)
#
#
# Indices 1 2 3 4 5 6 
#
# 1 0.011992 -0.001691 -0.003160 0.000000 0.000025 0.000000
# 2 -0.001691 0.004232 -0.001538 0.000000 0.002545 0.000000
# 3 -0.003160 -0.001538 0.019822 0.000000 0.001810 0.000000
# 4 0.000000 0.000000 0.000000 -0.031751 0.000000 -0.034871
# 5 0.000025 0.002545 0.001810 0.000000 0.020256 0.000000
# 6 0.000000 0.000000 0.000000 -0.034871 0.000000 -0.000368
#
#
# Mechanical properties :
#
#
# Convention : Reuss Voigt Hill
#
# Bulk Modulus (GPa) = 42.97627 72.84016 57.90821
# Shear Modulus (GPa) = 111.81738 39.12299 75.47019
#
# Velocity S-wave (km/s) = 6.87686 4.06773 5.64968
# Velocity P-wave (km/s) = 9.01283 7.27107 8.18839
#
# Compressibility (1/GPa) = 0.02326866
#
# Stress axis : x y z
#
# Youngs Moduli (GPa) = 83.39067 236.29514 50.44921
#
# Poissons Ratio (x) = 0.39948 0.15943
# Poissons Ratio (y) = 0.14098 0.07757
# Poissons Ratio (z) = 0.26354 0.36334
#
# Static dielectric constant tensor:
#      x y z
#    x 1.972270 0.000000 0.044580 
#    y 0.000000 2.297160 0.000000 
#    z 0.044580 0.000000 1.866480 
# 
# From -- ./inp_files/72238.got.cif
#   From: 2010.05.17/outbox.cif.g08.bks.cpg/sg12_37_cif.got.tgz:72238.got - 2010.06.03 13:09:07.
