data_PCOD9172497
_publ_section_title
;
Structure prediction by ZEFSAII (Michael W. Deem and Ramdas Pophale) SiO2 
 PCOD9172497
Probable space group: C 2/M
;
_chemical_formula_sum "Si O2"
_cell_formula_units_Z 48
_cell_length_a 14.217912
_cell_length_b 15.495082
_cell_length_c 21.262837
_cell_angle_alpha 90.000000
_cell_angle_beta 143.623756
_cell_angle_gamma 90.000000
_cell_volume 2778.228305
_symmetry_space_group_name_H-M "C 2/M"
_symmetry_group_IT_number 12
_symmetry_cell_setting 'monoclinic'
loop_
_space_group_symop_operation_xyz
x,y,z
-x,y,-z
-x,-y,-z
x,-y,z
1/2+x,1/2+y,z
1/2-x,1/2+y,-z
1/2-x,1/2-y,-z
1/2+x,1/2-y,z
loop_
_atom_site_type_symbol
_atom_site_label
_atom_site_fract_x
_atom_site_fract_y
_atom_site_fract_z
Si Si1 0.639227 0.803311 0.752497
Si Si2 0.968001 0.195627 0.755284
Si Si3 0.849550 0.398859 0.373359
Si Si4 0.033641 0.741530 0.107211
Si Si5 0.322283 0.597955 0.959257
Si Si6 0.713510 0.902848 0.043398
O O1 0.494771 0.752404 0.707272
O O2 0.613261 0.853711 0.673476
O O3 0.784234 0.738045 0.814816
O O4 0.709363 0.866884 0.843668
O O5 0.803710 0.145386 0.676874
O O6 0.980769 0.254677 0.824926
O O7 0.118655 0.131284 0.839980
O O8 0.814951 0.500000 0.344084
O O9 0.000000 0.391167 0.500000
O O10 0.963929 0.833845 0.046713
O O11 0.922892 0.667330 0.020325
O O12 0.372798 0.500000 0.974590
O O13 0.235492 0.596314 0.979727
O O14 0.679048 0.000000 0.046459
#
# Coordination Sequence:
#
# PCOD9172497 Si02
#       6
#     8   8   8   8   8   8
#     4  11  20  32  57  79 107 141 186 219 267 328
#     4  10  19  35  54  79 110 143 179 225 269 323
#     4  10  23  41  58  80 107 135 181 244 295 331
#     4  10  19  32  47  77 119 148 174 217 257 310
#     4  10  18  29  50  77 108 145 181 217 263 316
#     4  10  18  31  50  75 113 154 178 207 257 314
#
# _framework density 17.277199
#
# number of rings (size 3 to 8) (size 9 to 14) (size 15 to 20)
#    0.000    1.833    3.333    2.500    0.000    6.000 
#    0.000    2.500    0.000    0.000    0.000    0.000 
#    0.000   12.000    0.000    0.000    0.000    0.000 
#
# Total GULP energy -133881.010468 kJ/mol
# GULP energy per Si atom -5578.375436 kJ/mol
# Density = 1.723787 g / cm^3
# Si number density = 17.277199 Si / 1000 Ang^3
#
#
#
# Elastic Constant Matrix: (Units=GPa)
#
#
# Indices 1 2 3 4 5 6 
#
# 1 119.1135 62.2556 39.9653 0.0000 -0.7902 0.0000
# 2 62.2556 99.1243 38.7734 0.0000 15.7547 0.0000
# 3 39.9653 38.7734 63.5579 0.0001 3.5846 0.0000
# 4 0.0000 0.0000 0.0001 14.0421 0.0000 -18.8210
# 5 -0.7902 15.7547 3.5846 0.0000 19.9581 0.0000
# 6 0.0000 0.0000 0.0000 -18.8210 0.0000 -17.7635
#
#
#
# Elastic Compliance Matrix: (Units=1/GPa)
#
#
# Indices 1 2 3 4 5 6 
#
# 1 0.014416 -0.008709 -0.004214 0.000000 0.008203 0.000000
# 2 -0.008709 0.020378 -0.006090 0.000000 -0.015337 0.000000
# 3 -0.004214 -0.006090 0.022061 0.000000 0.000679 0.000000
# 4 0.000000 0.000000 0.000000 0.029426 0.000000 -0.031178
# 5 0.008203 -0.015337 0.000679 0.000000 0.062415 0.000000
# 6 0.000000 0.000000 0.000000 -0.031178 0.000000 -0.023261
#
#
# Mechanical properties :
#
#
# Convention : Reuss Voigt Hill
#
# Bulk Modulus (GPa) = 53.11473 62.64269 57.87871
# Shear Modulus (GPa) = 29.45736 12.63411 21.04573
#
# Velocity S-wave (km/s) = 4.13363 2.70711 3.49395
# Velocity P-wave (km/s) = 7.32065 6.79025 7.06043
#
# Compressibility (1/GPa) = 0.01882717
#
# Stress axis : x y z
#
# Youngs Moduli (GPa) = 69.36930 49.07232 45.32947
#
# Poissons Ratio (x) = 0.42737 0.19103
# Poissons Ratio (y) = 0.60414 0.27607
# Poissons Ratio (z) = 0.29234 0.29887
#
# Static dielectric constant tensor:
#      x y z
#    x 1.632140 0.000000 -0.001750 
#    y 0.000000 1.604130 0.000000 
#    z -0.001750 0.000000 1.559180 
# 
# From -- ./inp_files/310527.got.cif
#   From: 2010.05.17/outbox.cif.g08.bks.cpg/sg12_156_cif.got.tgz:310527.got - 2010.06.03 13:09:07.
