data_PCOD9172296
_publ_section_title
;
Structure prediction by ZEFSAII (Michael W. Deem and Ramdas Pophale) SiO2 
 PCOD9172296
Probable space group: C 2/M
;
_chemical_formula_sum "Si O2"
_cell_formula_units_Z 64
_cell_length_a 18.262417
_cell_length_b 14.809713
_cell_length_c 18.673243
_cell_angle_alpha 90.000000
_cell_angle_beta 141.940655
_cell_angle_gamma 90.000000
_cell_volume 3113.449054
_symmetry_space_group_name_H-M "C 2/M"
_symmetry_group_IT_number 12
_symmetry_cell_setting 'monoclinic'
loop_
_space_group_symop_operation_xyz
x,y,z
-x,y,-z
-x,-y,-z
x,-y,z
1/2+x,1/2+y,z
1/2-x,1/2+y,-z
1/2-x,1/2-y,-z
1/2+x,1/2-y,z
loop_
_atom_site_type_symbol
_atom_site_label
_atom_site_fract_x
_atom_site_fract_y
_atom_site_fract_z
Si Si1 0.498839 0.890274 0.329603
Si Si2 0.622111 0.159639 0.626598
Si Si3 0.246538 0.393726 0.591612
Si Si4 0.618701 0.359584 0.559980
Si Si5 0.544212 0.610359 0.343792
Si Si6 0.055199 0.610374 0.873439
Si Si7 0.350158 0.897989 0.816552
Si Si8 0.771378 0.889731 0.131989
O O1 0.396088 0.854787 0.303762
O O2 0.627341 0.859225 0.459382
O O3 0.478826 0.861410 0.232669
O O4 0.496066 0.000000 0.330267
O O5 0.500000 0.117328 0.500000
O O6 0.729071 0.119506 0.662914
O O7 0.622493 0.263092 0.602294
O O8 0.247003 0.500000 0.577845
O O9 0.368195 0.358068 0.651778
O O10 0.500000 0.404613 0.500000
O O11 0.600005 0.356591 0.461274
O O12 0.742207 0.402899 0.677092
O O13 0.542861 0.500000 0.345245
O O14 0.407655 0.640466 0.232908
O O15 0.047433 0.500000 0.867748
O O16 0.961182 0.644103 0.860662
O O17 0.187143 0.634523 0.000870
O O18 0.294688 0.857738 0.846245
O O19 0.386077 0.000000 0.863744
O O20 0.775656 0.000000 0.139319
#
# Coordination Sequence:
#
# PCOD9172296 Si02
#       8
#     8   8   8   8   8   8   8   8
#     4   9  16  30  52  75  98 123 156 204 251 285
#     4   9  19  32  48  72  96 129 160 200 246 288
#     4   9  17  31  51  76 100 121 154 199 250 300
#     4  11  20  30  45  71  99 133 162 193 237 291
#     4  10  19  30  47  73 104 133 159 193 238 291
#     4   9  17  29  49  77  99 120 161 207 241 281
#     4  10  18  29  48  73 101 130 161 199 241 285
#     4   9  17  29  46  72 103 131 158 195 240 284
#
# _framework density 20.555980999999999
#
# number of rings (size 3 to 8) (size 9 to 14) (size 15 to 20)
#    0.000    2.500    1.250    1.875    0.000    6.000 
#    0.000    1.250    0.000    1.500    3.250    4.375 
#    0.000    0.000    0.000    0.000    0.000    0.000 
#
# Total GULP energy -178458.853748 kJ/mol
# GULP energy per Si atom -5576.839180 kJ/mol
# Density = 2.050920 g / cm^3
# Si number density = 20.555981 Si / 1000 Ang^3
#
#
#
# Elastic Constant Matrix: (Units=GPa)
#
#
# Indices 1 2 3 4 5 6 
#
# 1 180.8702 15.6772 59.3485 0.0000 0.6219 0.0000
# 2 15.6772 35.7408 7.9962 0.0000 4.0029 0.0000
# 3 59.3485 7.9962 102.7668 -0.0001 12.4461 -0.0001
# 4 0.0000 0.0000 -0.0001 3.5399 0.0000 -2.9005
# 5 0.6219 4.0029 12.4461 0.0000 12.8572 0.0000
# 6 0.0000 0.0000 -0.0001 -2.9005 0.0000 9.2282
#
#
#
# Elastic Compliance Matrix: (Units=1/GPa)
#
#
# Indices 1 2 3 4 5 6 
#
# 1 0.007246 -0.002707 -0.004569 0.000000 0.004915 0.000000
# 2 -0.002707 0.030159 0.000383 0.000000 -0.009629 0.000000
# 3 -0.004569 0.000383 0.013965 0.000000 -0.013416 0.000000
# 4 0.000000 0.000000 0.000000 0.380480 0.000001 0.119587
# 5 0.004915 -0.009629 -0.013416 0.000001 0.093525 0.000000
# 6 0.000000 0.000000 0.000000 0.119587 0.000000 0.145950
#
#
# Mechanical properties :
#
#
# Convention : Reuss Voigt Hill
#
# Bulk Modulus (GPa) = 26.60753 53.93574 40.27163
# Shear Modulus (GPa) = 7.16703 20.88212 14.02457
#
# Velocity S-wave (km/s) = 1.86927 3.19072 2.61485
# Velocity P-wave (km/s) = 4.19892 6.31425 5.36193
#
# Compressibility (1/GPa) = 0.03758335
#
# Stress axis : x y z
#
# Youngs Moduli (GPa) = 138.01108 33.15728 71.60978
#
# Poissons Ratio (x) = 0.08974 0.32720
# Poissons Ratio (y) = 0.37353 -0.02739
# Poissons Ratio (z) = 0.63060 -0.01268
#
# Static dielectric constant tensor:
#      x y z
#    x 1.777950 0.000000 0.011990 
#    y 0.000000 1.786910 0.000000 
#    z 0.011990 0.000000 1.728780 
# 
# From -- ./inp_files/278924.got.cif
#   From: 2010.05.17/outbox.cif.g08.bks.cpg/sg12_140_cif.got.tgz:278924.got - 2010.06.03 13:09:07.
