data_PCOD9172989
_publ_section_title
;
Structure prediction by ZEFSAII (Michael W. Deem and Ramdas Pophale) SiO2 
 PCOD9172989
Probable space group: C 2/M
;
_chemical_formula_sum "Si O2"
_cell_formula_units_Z 64
_cell_length_a 20.816423
_cell_length_b 8.231037
_cell_length_c 21.124646
_cell_angle_alpha 90.000000
_cell_angle_beta 96.733927
_cell_angle_gamma 90.000000
_cell_volume 3594.543040
_symmetry_space_group_name_H-M "C 2/M"
_symmetry_group_IT_number 12
_symmetry_cell_setting 'monoclinic'
loop_
_space_group_symop_operation_xyz
x,y,z
-x,y,-z
-x,-y,-z
x,-y,z
1/2+x,1/2+y,z
1/2-x,1/2+y,-z
1/2-x,1/2-y,-z
1/2+x,1/2-y,z
loop_
_atom_site_type_symbol
_atom_site_label
_atom_site_fract_x
_atom_site_fract_y
_atom_site_fract_z
Si Si1 0.240189 0.306356 0.324855
Si Si2 0.090925 0.301511 0.328994
Si Si3 0.060398 0.698784 0.465387
Si Si4 0.805049 0.305620 0.457845
Si Si5 0.942919 0.805716 0.948402
Si Si6 0.287517 0.307401 0.807854
Si Si7 0.704867 0.694636 0.051653
Si Si8 0.568278 0.811161 0.190523
O O1 0.239030 0.500000 0.319308
O O2 0.166795 0.252262 0.335101
O O3 0.287627 0.256631 0.386308
O O4 0.255500 0.232405 0.257865
O O5 0.090588 0.500000 0.327426
O O6 0.061057 0.248897 0.392135
O O7 0.055538 0.246925 0.260202
O O8 0.060057 0.500000 0.464410
O O9 0.126467 0.750921 0.506850
O O10 0.000000 0.752933 0.500000
O O11 0.805782 0.500000 0.456538
O O12 0.750000 0.250000 0.500000
O O13 0.870063 0.744358 0.956457
O O14 0.957143 0.771688 0.876080
O O15 0.940577 0.000000 0.956026
O O16 0.000000 0.741283 0.000000
O O17 0.302857 0.500000 0.809347
O O18 0.265104 0.264208 0.875899
O O19 0.353984 0.209378 0.805399
O O20 0.701265 0.500000 0.047910
O O21 0.750000 0.750000 0.000000
O O22 0.550581 0.000000 0.185813
#
# Coordination Sequence:
#
# PCOD9172989 Si02
#       8
#     8   8   8   8   8   8   8   8
#     4  10  18  30  49  74 101 127 160 209 254 289
#     4   8  14  26  44  69  96 120 156 199 239 285
#     4   9  17  30  49  71  96 130 166 199 240 293
#     4  11  20  31  50  76 100 128 165 206 250 296
#     4   9  18  33  51  71  97 130 166 206 247 291
#     4   9  17  30  47  72 101 130 166 202 241 292
#     4   9  18  31  50  74 100 130 164 201 241 292
#     4   9  16  26  45  72 100 126 157 204 249 288
#
# _framework density 17.804766000000001
#
# number of rings (size 3 to 8) (size 9 to 14) (size 15 to 20)
#    0.000    2.750    1.250    3.000    0.000    2.750 
#    0.000    0.000    2.750    1.500    0.000    0.000 
#    0.000    0.000    0.000    0.000    0.000    0.000 
#
# Total GULP energy -178192.971636 kJ/mol
# GULP energy per Si atom -5568.530364 kJ/mol
# Density = 1.776424 g / cm^3
# Si number density = 17.804766 Si / 1000 Ang^3
#
#
#
# Elastic Constant Matrix: (Units=GPa)
#
#
# Indices 1 2 3 4 5 6 
#
# 1 78.5873 9.7518 76.2344 0.0000 -2.4105 0.0000
# 2 9.7518 15.3486 12.5122 0.0000 -1.8098 0.0000
# 3 76.2344 12.5122 206.4520 0.0000 -0.2575 0.0000
# 4 0.0000 0.0000 0.0000 28.2367 0.0000 2.1594
# 5 -2.4105 -1.8098 -0.2575 0.0000 27.2823 0.0000
# 6 0.0000 0.0000 0.0000 2.1594 0.0000 11.7375
#
#
#
# Elastic Compliance Matrix: (Units=1/GPa)
#
#
# Indices 1 2 3 4 5 6 
#
# 1 0.020607 -0.007090 -0.007178 0.000000 0.001283 0.000000
# 2 -0.007090 0.071537 -0.001712 0.000000 0.004103 0.000000
# 3 -0.007178 -0.001712 0.007597 0.000000 -0.000676 0.000000
# 4 0.000000 0.000000 0.000000 0.035920 0.000000 -0.006609
# 5 0.001283 0.004103 -0.000676 0.000000 0.037033 0.000000
# 6 0.000000 0.000000 0.000000 -0.006609 0.000000 0.086413
#
#
# Mechanical properties :
#
#
# Convention : Reuss Voigt Hill
#
# Bulk Modulus (GPa) = 14.75350 55.26496 35.00923
# Shear Modulus (GPa) = 15.94072 26.91058 21.42565
#
# Velocity S-wave (km/s) = 2.99541 3.89192 3.47272
# Velocity P-wave (km/s) = 4.50195 7.16260 5.98208
#
# Compressibility (1/GPa) = 0.06778054
#
# Stress axis : x y z
#
# Youngs Moduli (GPa) = 48.52735 13.97874 131.62689
#
# Poissons Ratio (x) = 0.09911 0.94482
# Poissons Ratio (y) = 0.34406 0.22540
# Poissons Ratio (z) = 0.34833 0.02394
#
# Static dielectric constant tensor:
#      x y z
#    x 1.592620 0.000000 0.012350 
#    y 0.000000 1.635370 0.000000 
#    z 0.012350 0.000000 1.650440 
# 
# From -- ./inp_files/319178.got.cif
#   From: 2010.05.17/outbox.cif.g08.bks.cpg/sg12_160_cif.got.tgz:319178.got - 2010.06.03 13:09:07.
