data_PCOD9172265
_publ_section_title
;
Structure prediction by ZEFSAII (Michael W. Deem and Ramdas Pophale) SiO2 
 PCOD9172265
Probable space group: C 2/M
;
_chemical_formula_sum "Si O2"
_cell_formula_units_Z 40
_cell_length_a 23.468807
_cell_length_b 14.840473
_cell_length_c 9.165861
_cell_angle_alpha 90.000000
_cell_angle_beta 133.113375
_cell_angle_gamma 90.000000
_cell_volume 2330.432469
_symmetry_space_group_name_H-M "C 2/M"
_symmetry_group_IT_number 12
_symmetry_cell_setting 'monoclinic'
loop_
_space_group_symop_operation_xyz
x,y,z
-x,y,-z
-x,-y,-z
x,-y,z
1/2+x,1/2+y,z
1/2-x,1/2+y,-z
1/2-x,1/2-y,-z
1/2+x,1/2-y,z
loop_
_atom_site_type_symbol
_atom_site_label
_atom_site_fract_x
_atom_site_fract_y
_atom_site_fract_z
Si Si1 0.196828 0.226171 0.269598
Si Si2 0.969455 0.109354 0.289571
Si Si3 0.287846 0.606729 0.954028
Si Si4 0.761752 0.396416 0.801593
Si Si5 0.392086 0.394492 0.674929
O O1 0.250000 0.250000 0.500000
O O2 0.243869 0.166238 0.233745
O O3 0.181086 0.321379 0.164330
O O4 0.129591 0.165448 0.223899
O O5 0.000000 0.141090 0.500000
O O6 0.029477 0.136278 0.268648
O O7 0.972456 0.000000 0.296875
O O8 0.879301 0.133289 0.116426
O O9 0.281784 0.500000 0.912996
O O10 0.253525 0.622183 0.054449
O O11 0.787969 0.500000 0.831676
O O12 0.679135 0.390147 0.568329
O O13 0.399181 0.500000 0.730228
#
# Coordination Sequence:
#
# PCOD9172265 Si02
#       5
#     8   8   8   8   8
#     4  10  20  30  41  63  96 127 155 186 224 263
#     4   9  15  26  46  70  96 123 147 175 221 280
#     4  10  18  29  48  71  93 122 153 183 222 274
#     4   9  17  30  47  64  89 124 159 190 220 258
#     4   9  16  28  45  68  98 125 146 178 226 275
#
# _framework density 17.164196
#
# number of rings (size 3 to 8) (size 9 to 14) (size 15 to 20)
#    0.000    2.600    2.000    1.200    0.000    1.600 
#    0.000    3.000    0.000    0.000    0.000    2.800 
#    0.000    1.600    0.000    0.000    0.000    0.000 
#
# Total GULP energy -111418.011713 kJ/mol
# GULP energy per Si atom -5570.900586 kJ/mol
# Density = 1.712513 g / cm^3
# Si number density = 17.164196 Si / 1000 Ang^3
#
#
#
# Elastic Constant Matrix: (Units=GPa)
#
#
# Indices 1 2 3 4 5 6 
#
# 1 93.3290 64.1440 18.0064 0.0000 -28.6840 0.0000
# 2 64.1440 88.9526 29.2431 0.0000 -28.2303 0.0000
# 3 18.0064 29.2431 53.2301 0.0000 -23.4748 0.0000
# 4 0.0000 0.0000 0.0000 17.6870 0.0000 -20.3676
# 5 -28.6840 -28.2303 -23.4748 0.0000 27.9533 0.0000
# 6 0.0000 0.0000 0.0000 -20.3676 0.0000 23.1029
#
#
#
# Elastic Compliance Matrix: (Units=1/GPa)
#
#
# Indices 1 2 3 4 5 6 
#
# 1 0.024509 -0.014896 0.006908 0.000000 0.015907 0.000000
# 2 -0.014896 0.025852 -0.006973 0.000000 0.004967 0.000000
# 3 0.006908 -0.006973 0.032242 0.000000 0.027122 0.000000
# 4 0.000000 0.000000 0.000000 -3.714612 0.000000 -3.274815
# 5 0.015907 0.004967 0.027122 0.000000 0.079890 0.000000
# 6 0.000000 0.000000 0.000000 -3.274815 0.000000 -2.843803
#
#
# Mechanical properties :
#
#
# Convention : Reuss Voigt Hill
#
# Bulk Modulus (GPa) = 18.98246 50.92207 34.95226
# Shear Modulus (GPa) = -0.78759 22.02319 10.61780
#
# Velocity S-wave (km/s) = -0.67813 3.58591 2.48987
# Velocity P-wave (km/s) = 3.23577 6.84668 5.35477
#
# Compressibility (1/GPa) = 0.05268020
#
# Stress axis : x y z
#
# Youngs Moduli (GPa) = 40.80168 38.68123 31.01590
#
# Poissons Ratio (x) = 0.57620 -0.21425
# Poissons Ratio (y) = 0.60778 0.21627
# Poissons Ratio (z) = -0.28185 0.26972
#
# Static dielectric constant tensor:
#      x y z
#    x 1.578690 0.000000 -0.016520 
#    y 0.000000 1.612280 0.000000 
#    z -0.016520 0.000000 1.634270 
# 
# From -- ./inp_files/60248.got.cif
#   From: 2010.05.17/outbox.cif.g08.bks.cpg/sg12_31_cif.got.tgz:60248.got - 2010.06.03 13:09:07.
