data_PCOD9172189
_publ_section_title
;
Structure prediction by ZEFSAII (Michael W. Deem and Ramdas Pophale) SiO2 
 PCOD9172189
Probable space group: C 2/M
;
_chemical_formula_sum "Si O2"
_cell_formula_units_Z 56
_cell_length_a 19.942486
_cell_length_b 8.680770
_cell_length_c 25.059725
_cell_angle_alpha 90.000000
_cell_angle_beta 132.569919
_cell_angle_gamma 90.000000
_cell_volume 3194.909060
_symmetry_space_group_name_H-M "C 2/M"
_symmetry_group_IT_number 12
_symmetry_cell_setting 'monoclinic'
loop_
_space_group_symop_operation_xyz
x,y,z
-x,y,-z
-x,-y,-z
x,-y,z
1/2+x,1/2+y,z
1/2-x,1/2+y,-z
1/2-x,1/2-y,-z
1/2+x,1/2-y,z
loop_
_atom_site_type_symbol
_atom_site_label
_atom_site_fract_x
_atom_site_fract_y
_atom_site_fract_z
Si Si1 0.301079 0.816964 0.945290
Si Si2 0.565036 0.312722 0.582088
Si Si3 0.727584 0.813688 0.294134
Si Si4 0.756616 0.182746 0.812791
Si Si5 0.879784 0.314801 0.097578
Si Si6 0.948704 0.314510 0.737914
Si Si7 0.054501 0.184427 0.697381
O O1 0.312147 0.736965 0.894387
O O2 0.203059 0.767070 0.916462
O O3 0.302425 0.000000 0.938329
O O4 0.371438 0.775839 0.030464
O O5 0.500000 0.255706 0.500000
O O6 0.564702 0.500000 0.579606
O O7 0.670597 0.264297 0.634378
O O8 0.533429 0.270842 0.624815
O O9 0.709827 0.752001 0.225094
O O10 0.649228 0.765177 0.292750
O O11 0.727120 0.000000 0.291183
O O12 0.652904 0.243630 0.764022
O O13 0.755050 0.000000 0.809056
O O14 0.866100 0.500000 0.094957
O O15 0.974447 0.275832 0.176584
O O16 0.948493 0.500000 0.731860
O O17 0.980886 0.240959 0.700047
O O18 0.063487 0.000000 0.704555
#
# Coordination Sequence:
#
# PCOD9172189 Si02
#       7
#     8   8   8   8   8   8   8
#     4  10  18  29  47  71  97 128 171 215 253 297
#     4   8  15  31  54  77 100 129 167 206 242 289
#     4   9  19  34  53  75 100 133 170 204 248 302
#     4  11  20  32  50  72  99 132 171 214 257 296
#     4   9  18  30  46  70  99 132 167 209 257 296
#     4  10  19  33  51  74 104 134 165 206 253 300
#     4  10  19  31  52  78 100 130 170 206 245 297
#
# _framework density 17.527885999999999
#
# number of rings (size 3 to 8) (size 9 to 14) (size 15 to 20)
#    0.000    2.429    1.429    3.000    0.000    1.143 
#    0.000    1.429    0.000   15.000    0.000    0.000 
#    0.000    0.000    0.000    0.000    0.000    0.000 
#
# Total GULP energy -156153.386183 kJ/mol
# GULP energy per Si atom -5576.906649 kJ/mol
# Density = 1.748799 g / cm^3
# Si number density = 17.527886 Si / 1000 Ang^3
#
#
#
# Elastic Constant Matrix: (Units=GPa)
#
#
# Indices 1 2 3 4 5 6 
#
# 1 124.9719 27.7691 58.8335 0.0000 -12.0447 0.0000
# 2 27.7691 28.3038 27.0075 0.0000 -3.5637 0.0000
# 3 58.8335 27.0075 128.1817 0.0000 -14.8514 0.0000
# 4 0.0000 0.0000 0.0000 13.4342 0.0000 -5.8143
# 5 -12.0447 -3.5637 -14.8514 0.0000 16.3941 0.0000
# 6 0.0000 0.0000 0.0000 -5.8143 0.0000 23.7110
#
#
#
# Elastic Compliance Matrix: (Units=1/GPa)
#
#
# Indices 1 2 3 4 5 6 
#
# 1 0.011647 -0.007843 -0.003240 0.000000 0.003918 0.000000
# 2 -0.007843 0.049528 -0.006989 0.000000 -0.001328 0.000000
# 3 -0.003240 -0.006989 0.011518 0.000000 0.006535 0.000000
# 4 0.000000 0.000000 0.000000 0.083275 0.000000 0.020420
# 5 0.003918 -0.001328 0.006535 0.000000 0.069507 0.000000
# 6 0.000000 0.000000 0.000000 0.020420 0.000000 0.047182
#
#
# Mechanical properties :
#
#
# Convention : Reuss Voigt Hill
#
# Bulk Modulus (GPa) = 27.36006 56.51972 41.93989
# Shear Modulus (GPa) = 15.57711 21.89767 18.73739
#
# Velocity S-wave (km/s) = 2.98435 3.53839 3.27311
# Velocity P-wave (km/s) = 5.24580 7.00065 6.18577
#
# Compressibility (1/GPa) = 0.03654963
#
# Stress axis : x y z
#
# Youngs Moduli (GPa) = 85.85812 20.19070 86.81971
#
# Poissons Ratio (x) = 0.15835 0.28125
# Poissons Ratio (y) = 0.67336 0.60682
# Poissons Ratio (z) = 0.27814 0.14112
#
# Static dielectric constant tensor:
#      x y z
#    x 1.580160 0.000000 -0.008980 
#    y 0.000000 1.591410 0.000000 
#    z -0.008980 0.000000 1.607800 
# 
# From -- ./inp_files/342032.got.cif
#   From: 2010.05.17/outbox.cif.g08.bks.cpg/sg12_172_cif.got.tgz:342032.got - 2010.06.03 13:09:07.
