data_PCOD9172711
_publ_section_title
;
Structure prediction by ZEFSAII (Michael W. Deem and Ramdas Pophale) SiO2 
 PCOD9172711
Probable space group: C 2/M
;
_chemical_formula_sum "Si O2"
_cell_formula_units_Z 56
_cell_length_a 28.800776
_cell_length_b 8.812372
_cell_length_c 14.279832
_cell_angle_alpha 90.000000
_cell_angle_beta 82.473801
_cell_angle_gamma 90.000000
_cell_volume 3593.043583
_symmetry_space_group_name_H-M "C 2/M"
_symmetry_group_IT_number 12
_symmetry_cell_setting 'monoclinic'
loop_
_space_group_symop_operation_xyz
x,y,z
-x,y,-z
-x,-y,-z
x,-y,z
1/2+x,1/2+y,z
1/2-x,1/2+y,-z
1/2-x,1/2-y,-z
1/2+x,1/2-y,z
loop_
_atom_site_type_symbol
_atom_site_label
_atom_site_fract_x
_atom_site_fract_y
_atom_site_fract_z
Si Si1 0.445722 0.674494 0.980361
Si Si2 0.162243 0.817497 0.674608
Si Si3 0.415516 0.820078 0.173273
Si Si4 0.486928 0.683650 0.780409
Si Si5 0.761922 0.682169 0.598128
Si Si6 0.543159 0.682822 0.421266
Si Si7 0.861827 0.682245 0.523380
O O1 0.429294 0.500000 0.987814
O O2 0.418192 0.771604 0.063673
O O3 0.500000 0.674553 0.000000
O O4 0.450268 0.727600 0.871968
O O5 0.128683 0.750917 0.762340
O O6 0.217218 0.774001 0.672707
O O7 0.145871 0.753892 0.577674
O O8 0.158346 0.000000 0.674198
O O9 0.462796 0.755261 0.209121
O O10 0.415070 0.000000 0.182077
O O11 0.492058 0.500000 0.784508
O O12 0.469606 0.724169 0.681873
O O13 0.760798 0.500000 0.592748
O O14 0.750000 0.750000 0.500000
O O15 0.816136 0.724682 0.598539
O O16 0.500000 0.725075 0.500000
O O17 0.548309 0.500000 0.424276
O O18 0.590637 0.757877 0.444439
O O19 0.863261 0.500000 0.513566
#
# Coordination Sequence:
#
# PCOD9172711 Si02
#       7
#     8   8   8   8   8   8   8
#     4   8  15  29  46  62  84 117 152 183 218 263
#     4  10  18  30  47  65  89 121 151 178 217 267
#     4  11  20  28  43  69  95 115 142 185 232 268
#     4   9  18  32  47  63  88 123 159 186 210 256
#     4   8  16  29  45  64  86 114 146 180 218 263
#     4  10  20  32  46  65  90 123 158 183 208 252
#     4  10  19  31  46  67  93 117 147 186 224 259
#
# _framework density 15.585673
#
# number of rings (size 3 to 8) (size 9 to 14) (size 15 to 20)
#    0.000    2.571    0.000    3.857    0.000    5.714 
#    0.000    0.000    0.000    0.000    0.000    1.000 
#    0.000    0.000    0.000    0.000    0.000    0.000 
#
# Total GULP energy -155959.270882 kJ/mol
# GULP energy per Si atom -5569.973960 kJ/mol
# Density = 1.555020 g / cm^3
# Si number density = 15.585673 Si / 1000 Ang^3
#
#
#
# Elastic Constant Matrix: (Units=GPa)
#
#
# Indices 1 2 3 4 5 6 
#
# 1 111.6264 39.6683 69.3705 0.0000 -24.3142 0.0000
# 2 39.6683 42.9687 42.5623 0.0000 -12.5003 0.0000
# 3 69.3705 42.5623 132.1692 0.0000 -19.3540 0.0000
# 4 0.0000 0.0000 0.0000 16.8642 0.0000 -2.7607
# 5 -24.3142 -12.5003 -19.3540 0.0000 26.6156 0.0000
# 6 0.0000 0.0000 0.0000 -2.7607 0.0000 10.6024
#
#
#
# Elastic Compliance Matrix: (Units=1/GPa)
#
#
# Indices 1 2 3 4 5 6 
#
# 1 0.016641 -0.008196 -0.004961 0.000000 0.007746 0.000000
# 2 -0.008196 0.040254 -0.007822 0.000000 0.005731 0.000000
# 3 -0.004961 -0.007822 0.012856 0.000000 0.001143 0.000000
# 4 0.000000 0.000000 0.000000 0.061937 0.000000 0.016127
# 5 0.007746 0.005731 0.001143 0.000000 0.048170 0.000000
# 6 0.000000 0.000000 0.000000 0.016127 0.000000 0.098517
#
#
# Mechanical properties :
#
#
# Convention : Reuss Voigt Hill
#
# Bulk Modulus (GPa) = 35.97892 65.55184 50.76538
# Shear Modulus (GPa) = 15.16998 19.82733 17.49866
#
# Velocity S-wave (km/s) = 3.12321 3.57059 3.35437
# Velocity P-wave (km/s) = 6.01171 7.69085 6.90253
#
# Compressibility (1/GPa) = 0.02779405
#
# Stress axis : x y z
#
# Youngs Moduli (GPa) = 60.09303 24.84202 77.78381
#
# Poissons Ratio (x) = 0.20359 0.38586
# Poissons Ratio (y) = 0.49250 0.60845
# Poissons Ratio (z) = 0.29810 0.19432
#
# Static dielectric constant tensor:
#      x y z
#    x 1.515110 0.000000 -0.024110 
#    y 0.000000 1.520540 0.000000 
#    z -0.024110 0.000000 1.531410 
# 
# From -- ./inp_files/243030.got.cif
#   From: 2010.05.17/outbox.cif.g08.bks.cpg/sg12_122_cif.got.tgz:243030.got - 2010.06.03 13:09:07.
