data_PCOD9172030
_publ_section_title
;
Structure prediction by ZEFSAII (Michael W. Deem and Ramdas Pophale) SiO2 
 PCOD9172030
Probable space group: C 2/M
;
_chemical_formula_sum "Si O2"
_cell_formula_units_Z 58
_cell_length_a 30.064910
_cell_length_b 7.766179
_cell_length_c 13.040984
_cell_angle_alpha 90.000000
_cell_angle_beta 87.861741
_cell_angle_gamma 90.000000
_cell_volume 3042.812298
_symmetry_space_group_name_H-M "C 2/M"
_symmetry_group_IT_number 12
_symmetry_cell_setting 'monoclinic'
loop_
_space_group_symop_operation_xyz
x,y,z
-x,y,-z
-x,-y,-z
x,-y,z
1/2+x,1/2+y,z
1/2-x,1/2+y,-z
1/2-x,1/2-y,-z
1/2+x,1/2-y,z
loop_
_atom_site_type_symbol
_atom_site_label
_atom_site_fract_x
_atom_site_fract_y
_atom_site_fract_z
Si Si1 0.100528 0.696338 0.844832
Si Si2 0.000000 0.500000 0.500000
Si Si3 0.491057 0.298402 0.220054
Si Si4 0.880277 0.700440 0.754334
Si Si5 0.449808 0.703055 0.592830
Si Si6 0.792331 0.795485 0.859246
Si Si7 0.306356 0.209020 0.094939
Si Si8 0.061078 0.800859 0.060290
O O1 0.104873 0.500000 0.811098
O O2 0.061422 0.775895 0.780342
O O3 0.149848 0.773982 0.850136
O O4 0.081301 0.703747 0.962383
O O5 0.961350 0.344559 0.507637
O O6 0.501516 0.500000 0.217723
O O7 0.516344 0.234269 0.318354
O O8 0.515768 0.230216 0.115753
O O9 0.892501 0.500000 0.757984
O O10 0.901533 0.777107 0.649556
O O11 0.827926 0.718784 0.778026
O O12 0.904305 0.792676 0.848354
O O13 0.456846 0.500000 0.567408
O O14 0.741335 0.732300 0.857842
O O15 0.792225 0.000000 0.844960
O O16 0.807636 0.758588 0.974929
O O17 0.307319 0.000000 0.097560
O O18 0.054994 0.000000 0.027373
#
# Coordination Sequence:
#
# PCOD9172030 Si02
#       8
#     8   2   8   8   8   8   8   8
#     4  11  20  28  43  65  95 134 178 222 249 292
#     4  12  22  40  64  86 106 136 158 208 256 334
#     4   9  20  34  47  66  98 134 169 211 245 297
#     4  11  19  31  49  73 101 134 176 215 256 304
#     4  10  22  39  58  83 110 136 165 202 258 316
#     4  10  18  29  46  62  92 135 178 222 264 297
#     4   9  19  31  40  63  93 134 183 222 260 296
#     4  10  19  30  43  62  91 133 180 213 251 288
#
# _framework density 19.061313999999999
#
# number of rings (size 3 to 8) (size 9 to 14) (size 15 to 20)
#    0.000    1.931    2.069    3.931    0.966    3.862 
#    0.000    0.000    0.000    0.000    0.000    0.000 
#    0.000    1.103    1.931    0.414    0.000    0.276 
#
# Total GULP energy -161481.148471 kJ/mol
# GULP energy per Si atom -5568.315465 kJ/mol
# Density = 1.901793 g / cm^3
# Si number density = 19.061314 Si / 1000 Ang^3
#
#
#
# Elastic Constant Matrix: (Units=GPa)
#
#
# Indices 1 2 3 4 5 6 
#
# 1 132.1190 9.1970 15.4803 0.0000 -23.2522 0.0000
# 2 9.1970 77.8920 8.4955 0.0000 -10.5404 0.0000
# 3 15.4803 8.4955 28.4894 0.0000 -22.6936 0.0000
# 4 0.0000 0.0000 0.0000 -3.1522 0.0000 -5.7949
# 5 -23.2522 -10.5404 -22.6936 0.0000 29.8090 0.0000
# 6 0.0000 0.0000 0.0000 -5.7949 0.0000 23.3937
#
#
#
# Elastic Compliance Matrix: (Units=1/GPa)
#
#
# Indices 1 2 3 4 5 6 
#
# 1 0.008809 -0.000127 0.001751 0.000000 0.008159 0.000000
# 2 -0.000127 0.013489 -0.000592 0.000000 0.004220 0.000000
# 3 0.001751 -0.000592 0.089556 0.000000 0.069335 0.000000
# 4 0.000000 0.000000 0.000000 -0.217976 0.000000 -0.053996
# 5 0.008159 0.004220 0.069335 0.000000 0.094188 0.000000
# 6 0.000000 0.000000 0.000000 -0.053996 0.000000 0.029371
#
#
# Mechanical properties :
#
#
# Convention : Reuss Voigt Hill
#
# Bulk Modulus (GPa) = 8.77834 33.87180 21.32507
# Shear Modulus (GPa) = 93.72956 23.69860 58.71408
#
# Velocity S-wave (km/s) = 7.01993 3.52985 5.55604
# Velocity P-wave (km/s) = 8.38577 5.86699 7.23681
#
# Compressibility (1/GPa) = 0.11391673
#
# Stress axis : x y z
#
# Youngs Moduli (GPa) = 113.52581 74.13513 11.16621
#
# Poissons Ratio (x) = 0.00941 -0.01955
# Poissons Ratio (y) = 0.01441 0.00661
# Poissons Ratio (z) = -0.19873 0.04388
#
# Static dielectric constant tensor:
#      x y z
#    x 1.725800 0.000000 -0.022410 
#    y 0.000000 1.695420 0.000000 
#    z -0.022410 0.000000 1.702840 
# 
# From -- ./inp_files/243102.got.cif
#   From: 2010.05.17/outbox.cif.g08.bks.cpg/sg12_122_cif.got.tgz:243102.got - 2010.06.03 13:09:07.
