data_PCOD9172490
_publ_section_title
;
Structure prediction by ZEFSAII (Michael W. Deem and Ramdas Pophale) SiO2 
 PCOD9172490
Probable space group: C 2/M
;
_chemical_formula_sum "Si O2"
_cell_formula_units_Z 56
_cell_length_a 18.927707
_cell_length_b 8.936432
_cell_length_c 23.745135
_cell_angle_alpha 90.000000
_cell_angle_beta 52.648635
_cell_angle_gamma 90.000000
_cell_volume 3192.755304
_symmetry_space_group_name_H-M "C 2/M"
_symmetry_group_IT_number 12
_symmetry_cell_setting 'monoclinic'
loop_
_space_group_symop_operation_xyz
x,y,z
-x,y,-z
-x,-y,-z
x,-y,z
1/2+x,1/2+y,z
1/2-x,1/2+y,-z
1/2-x,1/2-y,-z
1/2+x,1/2-y,z
loop_
_atom_site_type_symbol
_atom_site_label
_atom_site_fract_x
_atom_site_fract_y
_atom_site_fract_z
Si Si1 0.840544 0.179109 0.934118
Si Si2 0.879272 0.327765 0.212891
Si Si3 0.421854 0.682013 0.496838
Si Si4 0.773979 0.317958 0.368202
Si Si5 0.508351 0.679205 0.932188
Si Si6 0.435452 0.680038 0.360284
Si Si7 0.551185 0.173420 0.212973
O O1 0.919421 0.216642 0.940139
O O2 0.871438 0.245864 0.859297
O O3 0.833650 0.000000 0.933962
O O4 0.750000 0.250000 0.000000
O O5 0.863183 0.500000 0.205543
O O6 0.799695 0.273856 0.291698
O O7 0.908242 0.239863 0.143550
O O8 0.964791 0.322310 0.213410
O O9 0.500000 0.735148 0.500000
O O10 0.422865 0.500000 0.497370
O O11 0.324578 0.726384 0.565844
O O12 0.436905 0.725591 0.424859
O O13 0.782367 0.500000 0.367037
O O14 0.846742 0.246000 0.374260
O O15 0.515090 0.500000 0.930551
O O16 0.500000 0.735773 0.000000
O O17 0.434214 0.500000 0.356889
O O18 0.518468 0.743911 0.284863
O O19 0.572219 0.000000 0.213293
#
# Coordination Sequence:
#
# PCOD9172490 Si02
#       7
#     8   8   8   8   8   8   8
#     4  10  19  32  51  74 101 131 164 201 241 289
#     4   8  15  27  45  69  93 120 156 197 238 279
#     4   9  18  32  49  70  99 132 161 194 240 293
#     4   9  17  31  51  72  94 123 161 202 242 285
#     4   9  18  32  49  69  95 127 159 194 239 286
#     4  10  18  29  50  76  97 122 161 204 242 285
#     4   9  17  31  50  71  98 128 160 202 246 286
#
# _framework density 17.539709999999999
#
# number of rings (size 3 to 8) (size 9 to 14) (size 15 to 20)
#    0.000    2.857    0.000    2.571    0.000    4.286 
#    0.000    2.143    0.000    5.571    0.000    0.000 
#    0.000    0.000    0.000    0.000    0.000    0.000 
#
# Total GULP energy -156031.413738 kJ/mol
# GULP energy per Si atom -5572.550491 kJ/mol
# Density = 1.749979 g / cm^3
# Si number density = 17.539710 Si / 1000 Ang^3
#
#
#
# Elastic Constant Matrix: (Units=GPa)
#
#
# Indices 1 2 3 4 5 6 
#
# 1 58.4516 30.8707 78.8968 0.0000 2.8053 0.0003
# 2 30.8707 40.8940 57.4693 0.0001 -1.6418 0.0005
# 3 78.8968 57.4693 223.9316 0.0000 1.5977 0.0000
# 4 0.0000 0.0001 0.0000 29.7313 0.0000 -0.7369
# 5 2.8053 -1.6418 1.5977 0.0000 26.6060 0.0000
# 6 0.0003 0.0005 0.0000 -0.7369 0.0000 13.2889
#
#
#
# Elastic Compliance Matrix: (Units=1/GPa)
#
#
# Indices 1 2 3 4 5 6 
#
# 1 0.038491 -0.015990 -0.009426 0.000000 -0.004479 0.000000
# 2 -0.015990 0.045124 -0.005981 0.000000 0.004830 -0.000002
# 3 -0.009426 -0.005981 0.009321 0.000000 0.000065 0.000000
# 4 0.000000 0.000000 0.000000 0.033681 0.000000 0.001868
# 5 -0.004479 0.004830 0.000065 0.000000 0.038352 0.000000
# 6 0.000000 -0.000002 0.000000 0.001868 0.000000 0.075355
#
#
# Mechanical properties :
#
#
# Convention : Reuss Voigt Hill
#
# Bulk Modulus (GPa) = 33.17683 73.08343 53.13013
# Shear Modulus (GPa) = 15.96608 24.32794 20.14701
#
# Velocity S-wave (km/s) = 3.02036 3.72831 3.39285
# Velocity P-wave (km/s) = 5.57851 7.76477 6.76060
#
# Compressibility (1/GPa) = 0.03014152
#
# Stress axis : x y z
#
# Youngs Moduli (GPa) = 25.98030 22.16126 107.28415
#
# Poissons Ratio (x) = 0.35436 1.01121
# Poissons Ratio (y) = 0.41543 0.64168
# Poissons Ratio (z) = 0.24488 0.13255
#
# Static dielectric constant tensor:
#      x y z
#    x 1.583970 0.000000 0.001180 
#    y 0.000000 1.590850 0.000000 
#    z 0.001180 0.000000 1.609550 
# 
# From -- ./inp_files/345499.got.cif
#   From: 2010.05.17/outbox.cif.g08.bks.cpg/sg12_173_cif.got.tgz:345499.got - 2010.06.03 13:09:07.
