data_PCOD9172680
_publ_section_title
;
Structure prediction by ZEFSAII (Michael W. Deem and Ramdas Pophale) SiO2 
 PCOD9172680
Probable space group: C 2/M
;
_chemical_formula_sum "Si O2"
_cell_formula_units_Z 64
_cell_length_a 32.442995
_cell_length_b 8.290827
_cell_length_c 14.717382
_cell_angle_alpha 90.000000
_cell_angle_beta 90.461774
_cell_angle_gamma 90.000000
_cell_volume 3958.541936
_symmetry_space_group_name_H-M "C 2/M"
_symmetry_group_IT_number 12
_symmetry_cell_setting 'monoclinic'
loop_
_space_group_symop_operation_xyz
x,y,z
-x,y,-z
-x,-y,-z
x,-y,z
1/2+x,1/2+y,z
1/2-x,1/2+y,-z
1/2-x,1/2-y,-z
1/2+x,1/2-y,z
loop_
_atom_site_type_symbol
_atom_site_label
_atom_site_fract_x
_atom_site_fract_y
_atom_site_fract_z
Si Si1 0.501741 0.313520 0.610403
Si Si2 0.908270 0.802087 0.399720
Si Si3 0.247836 0.304983 0.396216
Si Si4 0.667100 0.807961 0.286056
Si Si5 0.702477 0.307611 0.101142
Si Si6 0.412077 0.305308 0.609292
Si Si7 0.671419 0.694844 0.713475
Si Si8 0.797512 0.692829 0.097545
O O1 0.500000 0.316243 0.500000
O O2 0.502389 0.500000 0.641511
O O3 0.546719 0.243822 0.633109
O O4 0.457624 0.242327 0.637916
O O5 0.902909 0.753244 0.505115
O O6 0.870003 0.750163 0.337889
O O7 0.909326 0.000000 0.399325
O O8 0.247758 0.500000 0.394400
O O9 0.250000 0.250000 0.500000
O O10 0.206170 0.246973 0.346075
O O11 0.288123 0.249655 0.341362
O O12 0.675720 0.761778 0.182335
O O13 0.624737 0.742330 0.325802
O O14 0.666406 0.000000 0.293815
O O15 0.702514 0.500000 0.108104
O O16 0.750097 0.249272 0.111822
O O17 0.688787 0.257904 0.000065
O O18 0.414932 0.500000 0.606870
O O19 0.671519 0.500000 0.712295
O O20 0.675857 0.751132 0.816800
O O21 0.796814 0.500000 0.093708
#
# Coordination Sequence:
#
# PCOD9172680 Si02
#       8
#     8   8   8   8   8   8   8   8
#     4   7  11  22  42  68  91 115 153 200 237 263
#     4   8  14  25  45  70  94 122 158 198 232 265
#     4  10  21  32  43  61  91 128 160 190 221 260
#     4  11  21  32  45  66  96 125 155 191 231 274
#     4  10  20  34  52  69  87 117 155 194 233 275
#     4   9  16  28  47  68  93 124 161 197 230 272
#     4  10  18  30  46  66  93 125 158 189 226 275
#     4  10  20  33  50  70  91 116 149 194 238 276
#
# _framework density 16.167567999999999
#
# number of rings (size 3 to 8) (size 9 to 14) (size 15 to 20)
#    0.000    2.625    1.250    3.375    0.000    3.500 
#    0.000    0.625    0.000    4.125    0.000    0.875 
#    0.000    7.000    0.000    0.000    0.000    0.000 
#
# Total GULP energy -178346.598938 kJ/mol
# GULP energy per Si atom -5573.331217 kJ/mol
# Density = 1.613077 g / cm^3
# Si number density = 16.167568 Si / 1000 Ang^3
#
#
#
# Elastic Constant Matrix: (Units=GPa)
#
#
# Indices 1 2 3 4 5 6 
#
# 1 136.7449 10.1451 61.5620 0.0000 -15.2960 0.0000
# 2 10.1451 6.2866 0.1709 0.0000 -2.6392 0.0000
# 3 61.5620 0.1709 93.3376 0.0000 -11.5665 0.0000
# 4 0.0000 0.0000 0.0000 22.4189 0.0000 -0.3259
# 5 -15.2960 -2.6392 -11.5665 0.0000 10.7258 0.0000
# 6 0.0000 0.0000 0.0000 -0.3259 0.0000 12.9259
#
#
#
# Elastic Compliance Matrix: (Units=1/GPa)
#
#
# Indices 1 2 3 4 5 6 
#
# 1 0.012715 -0.018040 -0.007683 0.000000 0.005409 0.000000
# 2 -0.018040 0.205814 0.016862 0.000000 0.043100 0.000000
# 3 -0.007683 0.016862 0.017206 0.000000 0.011747 0.000000
# 4 0.000000 0.000000 0.000000 0.044622 0.000000 0.001125
# 5 0.005409 0.043100 0.011747 0.000000 0.124219 0.000000
# 6 0.000000 0.000000 0.000000 0.001125 0.000000 0.077392
#
#
# Mechanical properties :
#
#
# Convention : Reuss Voigt Hill
#
# Bulk Modulus (GPa) = 4.58685 42.23612 23.41149
# Shear Modulus (GPa) = 8.73575 20.18021 14.45798
#
# Velocity S-wave (km/s) = 2.32701 3.53681 2.99366
# Velocity P-wave (km/s) = 3.17226 6.54671 5.14405
#
# Compressibility (1/GPa) = 0.21801454
#
# Stress axis : x y z
#
# Youngs Moduli (GPa) = 78.64604 4.85875 58.11874
#
# Poissons Ratio (x) = 0.08765 0.44654
# Poissons Ratio (y) = 1.41875 -0.98002
# Poissons Ratio (z) = 0.60425 -0.08193
#
# Static dielectric constant tensor:
#      x y z
#    x 1.570590 0.000000 0.005050 
#    y 0.000000 1.562060 0.000000 
#    z 0.005050 0.000000 1.509730 
# 
# From -- ./inp_files/248402.got.cif
#   From: 2010.05.17/outbox.cif.g08.bks.cpg/sg12_125_cif.got.tgz:248402.got - 2010.06.03 13:09:07.
