data_PCOD9172229
_publ_section_title
;
Structure prediction by ZEFSAII (Michael W. Deem and Ramdas Pophale) SiO2 
 PCOD9172229
Probable space group: C 2/M
;
_chemical_formula_sum "Si O2"
_cell_formula_units_Z 52
_cell_length_a 8.919114
_cell_length_b 26.562085
_cell_length_c 12.591069
_cell_angle_alpha 90.000000
_cell_angle_beta 89.999979
_cell_angle_gamma 90.000000
_cell_volume 2982.953483
_symmetry_space_group_name_H-M "C 2/M"
_symmetry_group_IT_number 12
_symmetry_cell_setting 'monoclinic'
loop_
_space_group_symop_operation_xyz
x,y,z
-x,y,-z
-x,-y,-z
x,-y,z
1/2+x,1/2+y,z
1/2-x,1/2+y,-z
1/2-x,1/2-y,-z
1/2+x,1/2-y,z
loop_
_atom_site_type_symbol
_atom_site_label
_atom_site_fract_x
_atom_site_fract_y
_atom_site_fract_z
Si Si1 0.177822 0.695931 0.873703
Si Si2 0.818768 0.888439 0.274123
Si Si3 0.177822 0.304069 0.126297
Si Si4 0.318769 0.611561 0.725877
Si Si5 0.166881 0.000000 0.263096
Si Si6 0.668367 0.112390 0.500000
Si Si7 0.749730 0.000000 0.500000
Si Si8 0.166882 0.000000 0.736905
O O1 0.250000 0.750000 0.847530
O O2 0.258405 0.652451 0.807628
O O3 0.000000 0.696463 0.851504
O O4 0.198256 0.687855 0.000000
O O5 0.758405 0.847549 0.192372
O O6 0.756097 0.875597 0.391505
O O7 1.000000 0.889649 0.277569
O O8 0.764506 0.945060 0.240676
O O9 0.264507 0.554940 0.759322
O O10 0.256097 0.624403 0.608495
O O11 0.999999 0.000000 0.216085
O O12 0.158137 0.000000 0.391510
O O13 0.500000 0.133424 0.500000
O O14 0.659918 0.051590 0.500001
O O15 0.841860 0.000000 0.391509
#
# Coordination Sequence:
#
# PCOD9172229 Si02
#       8
#     8   8   8   8   4   8   4   4
#     4  10  21  38  59  80 101 130 171 217 263 311
#     4  10  19  33  53  78 108 141 177 214 255 304
#     4  10  21  38  59  80 101 130 171 217 263 311
#     4  10  19  33  53  78 108 141 177 214 255 304
#     4   8  15  27  46  73 105 140 174 209 250 300
#     4  10  18  29  47  74 108 142 175 212 256 304
#     4   8  14  24  42  68  99 138 179 214 247 292
#     4   8  15  27  46  73 105 140 174 209 250 300
#
# _framework density 17.432386999999999
#
# number of rings (size 3 to 8) (size 9 to 14) (size 15 to 20)
#    0.000    2.462    0.000    2.769    0.000    5.538 
#    0.000    3.846    0.000    4.615    0.000    0.000 
#    0.000    0.000    0.000    0.000    0.000    0.000 
#
# Total GULP energy -144786.223302 kJ/mol
# GULP energy per Si atom -5568.700896 kJ/mol
# Density = 1.739271 g / cm^3
# Si number density = 17.432387 Si / 1000 Ang^3
#
#
#
# Elastic Constant Matrix: (Units=GPa)
#
#
# Indices 1 2 3 4 5 6 
#
# 1 98.2035 51.2638 43.3469 0.0000 0.0002 0.0000
# 2 51.2638 139.6763 69.6543 0.0000 0.0001 0.0000
# 3 43.3469 69.6543 57.0695 0.0000 0.0002 0.0000
# 4 0.0000 0.0000 0.0000 37.2142 0.0000 0.0004
# 5 0.0002 0.0001 0.0002 0.0000 24.5418 0.0000
# 6 0.0000 0.0000 0.0000 0.0004 0.0000 5.5570
#
#
#
# Elastic Compliance Matrix: (Units=1/GPa)
#
#
# Indices 1 2 3 4 5 6 
#
# 1 0.015330 0.000460 -0.012206 0.000000 0.000000 0.000000
# 2 0.000460 0.018308 -0.022695 0.000000 0.000000 0.000000
# 3 -0.012206 -0.022695 0.054493 0.000000 0.000000 0.000000
# 4 0.000000 0.000000 0.000000 0.026871 0.000000 -0.000002
# 5 0.000000 0.000000 0.000000 0.000000 0.040747 0.000000
# 6 0.000000 0.000000 0.000000 -0.000002 0.000000 0.179954
#
#
# Mechanical properties :
#
#
# Convention : Reuss Voigt Hill
#
# Bulk Modulus (GPa) = 51.94713 69.27547 60.61130
# Shear Modulus (GPa) = 12.16539 22.17488 17.17013
#
# Velocity S-wave (km/s) = 2.64457 3.57045 3.14181
# Velocity P-wave (km/s) = 6.26011 7.53812 6.92864
#
# Compressibility (1/GPa) = 0.01925034
#
# Stress axis : x y z
#
# Youngs Moduli (GPa) = 65.23021 54.62060 18.35082
#
# Poissons Ratio (x) = -0.02515 0.22399
# Poissons Ratio (y) = -0.03004 0.41647
# Poissons Ratio (z) = 0.79621 1.23962
#
# Static dielectric constant tensor:
#      x y z
#    x 1.615630 0.000000 0.000000 
#    y 0.000000 1.604160 0.000000 
#    z 0.000000 0.000000 1.566790 
# 
# From -- ./inp_files/123732.got.cif
#   From: 2010.05.17/outbox.cif.g08.bks.cpg/sg12_62_cif.got.tgz:123732.got - 2010.06.03 13:09:07.
