data_PCOD9172315
_publ_section_title
;
Structure prediction by ZEFSAII (Michael W. Deem and Ramdas Pophale) SiO2 
 PCOD9172315
Probable space group: C 2/M
;
_chemical_formula_sum "Si O2"
_cell_formula_units_Z 64
_cell_length_a 29.695491
_cell_length_b 7.294949
_cell_length_c 14.322602
_cell_angle_alpha 90.000000
_cell_angle_beta 119.140603
_cell_angle_gamma 90.000000
_cell_volume 2709.951298
_symmetry_space_group_name_H-M "C 2/M"
_symmetry_group_IT_number 12
_symmetry_cell_setting 'monoclinic'
loop_
_space_group_symop_operation_xyz
x,y,z
-x,y,-z
-x,-y,-z
x,-y,z
1/2+x,1/2+y,z
1/2-x,1/2+y,-z
1/2-x,1/2-y,-z
1/2+x,1/2-y,z
loop_
_atom_site_type_symbol
_atom_site_label
_atom_site_fract_x
_atom_site_fract_y
_atom_site_fract_z
Si Si1 0.944267 0.289214 0.921388
Si Si2 0.875386 0.222247 0.288172
Si Si3 0.512758 0.723446 0.619805
Si Si4 0.261235 0.782834 0.618846
Si Si5 0.166643 0.275783 0.154653
Si Si6 0.650624 0.722275 0.537180
Si Si7 0.928448 0.221820 0.688827
Si Si8 0.238791 0.782290 0.880673
O O1 0.946938 0.500000 0.956675
O O2 0.892031 0.210929 0.914558
O O3 0.936012 0.287660 0.801330
O O4 0.000000 0.205524 0.000000
O O5 0.928807 0.280470 0.295588
O O6 0.881026 0.270007 0.403202
O O7 0.819149 0.287676 0.198797
O O8 0.874157 0.000000 0.280346
O O9 0.500000 0.780289 0.500000
O O10 0.510887 0.500000 0.616094
O O11 0.472681 0.778642 0.659636
O O12 0.250000 0.750000 0.500000
O O13 0.311585 0.714821 0.721968
O O14 0.208651 0.713927 0.612545
O O15 0.262845 0.000000 0.633309
O O16 0.164197 0.500000 0.148772
O O17 0.211621 0.216723 0.128673
O O18 0.651943 0.500000 0.534473
O O19 0.624497 0.783118 0.415095
O O20 0.928488 0.000000 0.692812
O O21 0.236599 0.000000 0.858633
O O22 0.250000 0.750000 0.000000
#
# Coordination Sequence:
#
# PCOD9172315 Si02
#       8
#     8   8   8   8   8   8   8   8
#     4  10  22  39  55  70  95 138 183 214 245 296
#     4   9  15  27  48  73 100 132 166 199 240 298
#     4   9  15  25  46  78 109 133 161 200 249 308
#     4  10  18  29  48  74 100 129 164 202 246 298
#     4   9  18  35  56  73  95 134 177 207 243 302
#     4   9  15  26  47  74 101 127 159 198 244 299
#     4  10  19  31  52  82 108 129 162 212 259 296
#     4  10  20  35  55  77 102 134 172 212 250 295
#
# _framework density 23.616661000000001
#
# number of rings (size 3 to 8) (size 9 to 14) (size 15 to 20)
#    0.000    2.500    2.500    0.750    0.000    1.250 
#    0.000    1.250    0.000    1.125    0.000    0.000 
#    0.000    0.000    0.000    0.000    0.000    0.000 
#
# Total GULP energy -178616.006700 kJ/mol
# GULP energy per Si atom -5581.750209 kJ/mol
# Density = 2.356291 g / cm^3
# Si number density = 23.616661 Si / 1000 Ang^3
#
#
#
# Elastic Constant Matrix: (Units=GPa)
#
#
# Indices 1 2 3 4 5 6 
#
# 1 166.4807 3.9753 48.3289 0.0000 33.0738 0.0000
# 2 3.9753 99.1419 -10.4027 0.0000 6.8936 0.0000
# 3 48.3289 -10.4027 97.9076 0.0000 24.0213 0.0000
# 4 0.0000 0.0000 0.0000 2.7148 0.0000 -15.2634
# 5 33.0738 6.8936 24.0213 0.0000 43.6682 0.0000
# 6 0.0000 0.0000 0.0000 -15.2634 0.0000 -19.0418
#
#
#
# Elastic Compliance Matrix: (Units=1/GPa)
#
#
# Indices 1 2 3 4 5 6 
#
# 1 0.007659 -0.000305 -0.002776 0.000000 -0.004226 0.000000
# 2 -0.000305 0.010464 0.001862 0.000000 -0.002446 0.000000
# 3 -0.002776 0.001862 0.013107 0.000000 -0.005401 0.000000
# 4 0.000000 0.000000 0.000000 0.066891 0.000000 -0.053619
# 5 -0.004226 -0.002446 -0.005401 0.000000 0.029458 0.000000
# 6 0.000000 0.000000 0.000000 -0.053619 0.000000 -0.009537
#
#
# Mechanical properties :
#
#
# Convention : Reuss Voigt Hill
#
# Bulk Modulus (GPa) = 34.73035 49.70368 42.21701
# Shear Modulus (GPa) = 38.43822 26.91016 32.67419
#
# Velocity S-wave (km/s) = 4.03872 3.37925 3.72361
# Velocity P-wave (km/s) = 6.04037 6.02640 6.03339
#
# Compressibility (1/GPa) = 0.02879326
#
# Stress axis : x y z
#
# Youngs Moduli (GPa) = 130.55697 95.56383 76.29374
#
# Poissons Ratio (x) = 0.02911 0.21182
# Poissons Ratio (y) = 0.03977 -0.14207
# Poissons Ratio (z) = 0.36248 -0.17796
#
# Static dielectric constant tensor:
#      x y z
#    x 1.927440 0.000000 -0.004350 
#    y 0.000000 1.919120 0.000000 
#    z -0.004350 0.000000 1.837830 
# 
# From -- ./inp_files/188358.got.cif
#   From: 2010.05.17/outbox.cif.g08.bks.cpg/sg12_95_cif.got.tgz:188358.got - 2010.06.03 13:09:07.
