data_PCOD9172477
_publ_section_title
;
Structure prediction by ZEFSAII (Michael W. Deem and Ramdas Pophale) SiO2 
 PCOD9172477
Probable space group: C 2/M
;
_chemical_formula_sum "Si O2"
_cell_formula_units_Z 40
_cell_length_a 25.568185
_cell_length_b 9.907178
_cell_length_c 18.638392
_cell_angle_alpha 90.000000
_cell_angle_beta 149.784043
_cell_angle_gamma 90.000000
_cell_volume 2376.026412
_symmetry_space_group_name_H-M "C 2/M"
_symmetry_group_IT_number 12
_symmetry_cell_setting 'monoclinic'
loop_
_space_group_symop_operation_xyz
x,y,z
-x,y,-z
-x,-y,-z
x,-y,z
1/2+x,1/2+y,z
1/2-x,1/2+y,-z
1/2-x,1/2-y,-z
1/2+x,1/2-y,z
loop_
_atom_site_type_symbol
_atom_site_label
_atom_site_fract_x
_atom_site_fract_y
_atom_site_fract_z
Si Si1 0.824434 0.000000 0.604083
Si Si2 0.231239 0.274316 0.280684
Si Si3 0.927898 0.500000 0.692449
Si Si4 0.620792 0.500000 0.162454
Si Si5 0.582706 0.000000 0.161128
Si Si6 0.078656 0.777925 0.385838
Si Si7 0.025268 0.000000 0.649402
Si Si8 0.828103 0.000000 0.305908
O O1 0.699107 0.000000 0.454122
O O2 0.861510 0.000000 0.730285
O O3 0.868206 0.870179 0.612973
O O4 0.154914 0.368964 0.236870
O O5 0.332337 0.249082 0.449438
O O6 0.263704 0.367184 0.251862
O O7 0.175436 0.134754 0.197793
O O8 0.967207 0.500000 0.820250
O O9 0.959029 0.636808 0.689845
O O10 0.500000 0.500000 0.000000
O O11 0.500000 0.000000 0.000000
O O12 0.991765 0.869317 0.321180
O O13 0.126195 0.000000 0.719388
O O14 0.926310 0.000000 0.477498
#
# Coordination Sequence:
#
# PCOD9172477 Si02
#       8
#     4   8   4   4   4   8   4   4
#     4  11  18  31  49  67  99 141 164 191 247 290
#     4  10  18  32  48  70  96 132 168 197 245 295
#     4  12  18  29  49  71 101 135 163 197 247 289
#     4  12  23  31  44  73 110 136 161 198 239 297
#     4  11  21  31  46  71 102 134 169 194 229 296
#     4  10  18  29  50  74  94 128 168 204 242 296
#     4   8  16  31  48  76  99 118 166 217 257 286
#     4   8  16  31  53  68  96 132 162 211 255 292
#
# _framework density 16.834828999999999
#
# number of rings (size 3 to 8) (size 9 to 14) (size 15 to 20)
#    0.000    1.800    4.000    3.600    0.000    0.000 
#    0.000    1.000    0.000    4.800    0.000   22.400 
#    0.000    0.000    0.000    0.000    0.000    0.000 
#
# Total GULP energy -111604.816837 kJ/mol
# GULP energy per Si atom -5580.240842 kJ/mol
# Density = 1.679651 g / cm^3
# Si number density = 16.834829 Si / 1000 Ang^3
#
#
#
# Elastic Constant Matrix: (Units=GPa)
#
#
# Indices 1 2 3 4 5 6 
#
# 1 114.3125 70.1628 21.9052 0.0000 -6.7666 0.0000
# 2 70.1628 167.2425 22.2746 0.0000 1.5380 0.0000
# 3 21.9052 22.2746 58.2753 0.0000 -11.0870 0.0000
# 4 0.0000 0.0000 0.0000 -1.0004 0.0000 -0.8963
# 5 -6.7666 1.5380 -11.0870 0.0000 14.7759 0.0000
# 6 0.0000 0.0000 0.0000 -0.8963 0.0000 -0.1446
#
#
#
# Elastic Compliance Matrix: (Units=1/GPa)
#
#
# Indices 1 2 3 4 5 6 
#
# 1 0.012478 -0.005034 -0.001842 0.000000 0.004856 0.000000
# 2 -0.005034 0.008437 -0.002261 0.000000 -0.004880 0.000000
# 3 -0.001842 -0.002261 0.021699 0.000000 0.015673 0.000000
# 4 0.000000 0.000000 0.000000 0.219476 0.000000 -1.360609
# 5 0.004856 -0.004880 0.015673 0.000000 0.082169 0.000000
# 6 0.000000 0.000000 0.000000 -1.360609 0.000000 1.518529
#
#
# Mechanical properties :
#
#
# Convention : Reuss Voigt Hill
#
# Bulk Modulus (GPa) = 41.08695 63.16840 52.12768
# Shear Modulus (GPa) = 2.64665 17.75871 10.20268
#
# Velocity S-wave (km/s) = 1.25521 3.25141 2.46447
# Velocity P-wave (km/s) = 5.15360 7.19024 6.25536
#
# Compressibility (1/GPa) = 0.02433863
#
# Stress axis : x y z
#
# Youngs Moduli (GPa) = 80.13845 118.51976 46.08603
#
# Poissons Ratio (x) = 0.59666 0.08491
# Poissons Ratio (y) = 0.40344 0.10421
# Poissons Ratio (z) = 0.14765 0.26799
#
# Static dielectric constant tensor:
#      x y z
#    x 1.563490 0.000000 -0.008360 
#    y 0.000000 1.585510 0.000000 
#    z -0.008360 0.000000 1.558770 
# 
# From -- ./inp_files/229125.got.cif
#   From: 2010.05.17/outbox.cif.g08.bks.cpg/sg12_115_cif.got.tgz:229125.got - 2010.06.03 13:09:07.
