data_PCOD9172267
_publ_section_title
;
Structure prediction by ZEFSAII (Michael W. Deem and Ramdas Pophale) SiO2 
 PCOD9172267
Probable space group: C 2/M
;
_chemical_formula_sum "Si O2"
_cell_formula_units_Z 56
_cell_length_a 13.613750
_cell_length_b 13.459215
_cell_length_c 27.532328
_cell_angle_alpha 90.000000
_cell_angle_beta 39.763045
_cell_angle_gamma 90.000000
_cell_volume 3226.698749
_symmetry_space_group_name_H-M "C 2/M"
_symmetry_group_IT_number 12
_symmetry_cell_setting 'monoclinic'
loop_
_space_group_symop_operation_xyz
x,y,z
-x,y,-z
-x,-y,-z
x,-y,z
1/2+x,1/2+y,z
1/2-x,1/2+y,-z
1/2-x,1/2-y,-z
1/2+x,1/2-y,z
loop_
_atom_site_type_symbol
_atom_site_label
_atom_site_fract_x
_atom_site_fract_y
_atom_site_fract_z
Si Si1 0.866973 0.614430 0.188825
Si Si2 0.417876 0.883019 0.606094
Si Si3 0.092507 0.114668 0.075505
Si Si4 0.613195 0.305259 0.762457
Si Si5 0.922329 0.311093 0.977837
Si Si6 0.979538 0.119944 0.712212
Si Si7 0.775737 0.383533 0.551062
O O1 0.872336 0.500000 0.201598
O O2 0.908724 0.690614 0.215353
O O3 0.694741 0.638992 0.236324
O O4 0.981232 0.633882 0.100701
O O5 0.292954 0.828900 0.686454
O O6 0.347025 0.879100 0.578409
O O7 0.591860 0.842373 0.534723
O O8 0.422611 0.000000 0.617493
O O9 0.079346 0.195077 0.037343
O O10 0.957403 0.133724 0.165699
O O11 0.096354 0.000000 0.058953
O O12 0.251180 0.145090 0.041762
O O13 0.525460 0.334352 0.746515
O O14 0.000000 0.324757 0.000000
O O15 0.103522 0.155092 0.624623
O O16 0.997861 0.000000 0.709910
O O17 0.763195 0.500000 0.542727
#
# Coordination Sequence:
#
# PCOD9172267 Si02
#       7
#     8   8   8   8   8   8   8
#     4  10  21  34  48  68  94 122 155 193 231 274
#     4   8  12  21  40  67  95 119 145 186 233 269
#     4  10  20  33  50  73  98 122 152 190 230 274
#     4  10  18  29  48  71  94 121 156 191 229 274
#     4  10  21  35  51  71  94 122 156 190 228 276
#     4   9  16  29  50  72  94 122 154 191 232 272
#     4   7  11  20  38  66  94 117 147 185 226 270
#
# _framework density 17.3552
#
# number of rings (size 3 to 8) (size 9 to 14) (size 15 to 20)
#    0.000    2.857    0.000    4.286    0.000    2.571 
#    0.000    0.714    0.000   10.286    0.000    8.000 
#    0.000    0.000    0.000    0.000    0.000    0.000 
#
# Total GULP energy -155939.705299 kJ/mol
# GULP energy per Si atom -5569.275189 kJ/mol
# Density = 1.731570 g / cm^3
# Si number density = 17.355200 Si / 1000 Ang^3
#
#
#
# Elastic Constant Matrix: (Units=GPa)
#
#
# Indices 1 2 3 4 5 6 
#
# 1 28.0326 4.5871 7.8768 0.0000 -1.8133 0.0000
# 2 4.5871 67.5909 15.1214 0.0000 3.4686 0.0000
# 3 7.8768 15.1214 99.5281 0.0000 -2.1388 0.0000
# 4 0.0000 0.0000 0.0000 12.1789 0.0000 -4.2511
# 5 -1.8133 3.4686 -2.1388 0.0000 10.4326 0.0000
# 6 0.0000 0.0000 0.0000 -4.2511 0.0000 10.4492
#
#
#
# Elastic Compliance Matrix: (Units=1/GPa)
#
#
# Indices 1 2 3 4 5 6 
#
# 1 0.037175 -0.002321 -0.002445 0.000000 0.006732 0.000000
# 2 -0.002321 0.015792 -0.002347 0.000000 -0.006135 0.000000
# 3 -0.002445 -0.002347 0.010652 0.000000 0.002539 0.000000
# 4 0.000000 0.000000 0.000000 0.095699 0.000000 0.038934
# 5 0.006732 -0.006135 0.002539 0.000000 0.099584 0.000000
# 6 0.000000 0.000000 0.000000 0.038934 0.000000 0.111540
#
#
# Mechanical properties :
#
#
# Convention : Reuss Voigt Hill
#
# Bulk Modulus (GPa) = 20.24606 27.81358 24.02982
# Shear Modulus (GPa) = 12.46466 17.78324 15.12395
#
# Velocity S-wave (km/s) = 2.68285 3.20451 2.95521
# Velocity P-wave (km/s) = 4.61389 5.45460 5.05176
#
# Compressibility (1/GPa) = 0.04939232
#
# Stress axis : x y z
#
# Youngs Moduli (GPa) = 26.89973 63.32124 93.87804
#
# Poissons Ratio (x) = 0.14700 0.22951
# Poissons Ratio (y) = 0.06245 0.22038
# Poissons Ratio (z) = 0.06576 0.14865
#
# Static dielectric constant tensor:
#      x y z
#    x 1.561870 0.000000 -0.029860 
#    y 0.000000 1.583070 0.000000 
#    z -0.029860 0.000000 1.635520 
# 
# From -- ./inp_files/268841.got.cif
#   From: 2010.05.17/outbox.cif.g08.bks.cpg/sg12_135_cif.got.tgz:268841.got - 2010.06.03 13:09:07.
