data_PCOD9172050
_publ_section_title
;
Structure prediction by ZEFSAII (Michael W. Deem and Ramdas Pophale) SiO2 
 PCOD9172050
Probable space group: C 2/M
;
_chemical_formula_sum "Si O2"
_cell_formula_units_Z 40
_cell_length_a 11.503584
_cell_length_b 19.902881
_cell_length_c 7.929667
_cell_angle_alpha 90.000000
_cell_angle_beta 86.646564
_cell_angle_gamma 90.000000
_cell_volume 1812.423910
_symmetry_space_group_name_H-M "C 2/M"
_symmetry_group_IT_number 12
_symmetry_cell_setting 'monoclinic'
loop_
_space_group_symop_operation_xyz
x,y,z
-x,y,-z
-x,-y,-z
x,-y,z
1/2+x,1/2+y,z
1/2-x,1/2+y,-z
1/2-x,1/2-y,-z
1/2+x,1/2-y,z
loop_
_atom_site_type_symbol
_atom_site_label
_atom_site_fract_x
_atom_site_fract_y
_atom_site_fract_z
Si Si1 0.535866 0.920852 0.258795
Si Si2 0.128960 0.806288 0.622303
Si Si3 0.163710 0.351943 0.567700
Si Si4 0.084693 0.193029 0.137928
Si Si5 0.299372 0.165636 0.930992
O O1 0.606153 0.889481 0.412056
O O2 0.410410 0.885216 0.276488
O O3 0.621455 0.899134 0.101874
O O4 0.523387 0.000000 0.273904
O O5 0.137025 0.727740 0.572408
O O6 0.198241 0.851990 0.481095
O O7 0.209098 0.818831 0.783498
O O8 0.995558 0.815590 0.690928
O O9 0.112398 0.271310 0.092883
O O10 0.214075 0.163997 0.099541
O O11 0.000000 0.165180 0.000000
#
# Coordination Sequence:
#
# PCOD9172050 Si02
#       5
#     8   8   8   8   8
#     4  10  18  29  46  66  96 126 155 184 217 278
#     4   9  16  26  43  65  94 118 144 194 225 274
#     4   9  16  26  40  65  92 119 147 181 228 264
#     4   9  16  28  45  66  90 118 147 197 237 269
#     4   9  17  28  45  68  90 123 151 187 237 269
#
# _framework density 22.069893
#
# number of rings (size 3 to 8) (size 9 to 14) (size 15 to 20)
#    0.000    2.800    2.000    1.200    0.000    0.000 
#    0.000    0.000    0.000   16.800    0.000    0.000 
#    0.000   25.600    0.000    0.000    0.000    0.000 
#
# Total GULP energy -111446.407970 kJ/mol
# GULP energy per Si atom -5572.320398 kJ/mol
# Density = 2.201966 g / cm^3
# Si number density = 22.069893 Si / 1000 Ang^3
#
#
#
# Elastic Constant Matrix: (Units=GPa)
#
#
# Indices 1 2 3 4 5 6 
#
# 1 179.1611 61.6956 67.0903 0.0000 -50.3985 0.0000
# 2 61.6956 106.5414 33.2666 0.0000 -30.8751 0.0000
# 3 67.0903 33.2666 125.9582 0.0000 -61.2302 0.0000
# 4 0.0000 0.0000 0.0000 -10.6136 0.0000 -7.7285
# 5 -50.3985 -30.8751 -61.2302 0.0000 65.9926 0.0000
# 6 0.0000 0.0000 0.0000 -7.7285 0.0000 19.2898
#
#
#
# Elastic Compliance Matrix: (Units=1/GPa)
#
#
# Indices 1 2 3 4 5 6 
#
# 1 0.008335 -0.003338 -0.002227 0.000000 0.002737 0.000000
# 2 -0.003338 0.012231 0.000164 0.000000 0.003326 0.000000
# 3 -0.002227 0.000164 0.015106 0.000000 0.012391 0.000000
# 4 0.000000 0.000000 0.000000 -0.072939 0.000000 -0.029223
# 5 0.002737 0.003326 0.012391 0.000000 0.030297 0.000000
# 6 0.000000 0.000000 0.000000 -0.029223 0.000000 0.040133
#
#
# Mechanical properties :
#
#
# Convention : Reuss Voigt Hill
#
# Bulk Modulus (GPa) = 40.20917 81.75177 60.98047
# Shear Modulus (GPa) = 95.68472 31.57431 63.62951
#
# Velocity S-wave (km/s) = 6.59162 3.78650 5.37527
# Velocity P-wave (km/s) = 8.72875 7.49929 8.13728
#
# Compressibility (1/GPa) = 0.02486995
#
# Stress axis : x y z
#
# Youngs Moduli (GPa) = 119.97474 81.75641 66.19927
#
# Poissons Ratio (x) = 0.27290 0.14746
# Poissons Ratio (y) = 0.40047 -0.01087
# Poissons Ratio (z) = 0.26724 -0.01342
#
# Static dielectric constant tensor:
#      x y z
#    x 1.861180 0.000000 0.004540 
#    y 0.000000 1.710470 0.000000 
#    z 0.004540 0.000000 2.042160 
# 
# From -- ./inp_files/48790.got.cif
#   From: 2010.05.17/outbox.cif.g08.bks.cpg/sg12_25_cif.got.tgz:48790.got - 2010.06.03 13:09:07.
