data_PCOD9172408
_publ_section_title
;
Structure prediction by ZEFSAII (Michael W. Deem and Ramdas Pophale) SiO2 
 PCOD9172408
Probable space group: C 2/M
;
_chemical_formula_sum "Si O2"
_cell_formula_units_Z 56
_cell_length_a 19.135216
_cell_length_b 7.874351
_cell_length_c 24.126880
_cell_angle_alpha 90.000000
_cell_angle_beta 52.321004
_cell_angle_gamma 90.000000
_cell_volume 2877.209605
_symmetry_space_group_name_H-M "C 2/M"
_symmetry_group_IT_number 12
_symmetry_cell_setting 'monoclinic'
loop_
_space_group_symop_operation_xyz
x,y,z
-x,y,-z
-x,-y,-z
x,-y,z
1/2+x,1/2+y,z
1/2-x,1/2+y,-z
1/2-x,1/2-y,-z
1/2+x,1/2-y,z
loop_
_atom_site_type_symbol
_atom_site_label
_atom_site_fract_x
_atom_site_fract_y
_atom_site_fract_z
Si Si1 0.006813 0.291597 0.933359
Si Si2 0.130107 0.305610 0.781685
Si Si3 0.425414 0.204074 0.494359
Si Si4 0.767890 0.294326 0.369640
Si Si5 0.067261 0.705020 0.634875
Si Si6 0.346313 0.202090 0.932625
Si Si7 0.971384 0.804527 0.784294
O O1 0.009178 0.500000 0.931644
O O2 0.920262 0.238417 0.940914
O O3 0.092711 0.231230 0.857092
O O4 0.000000 0.236822 0.000000
O O5 0.155875 0.500000 0.780818
O O6 0.204165 0.229794 0.705236
O O7 0.042962 0.304205 0.784294
O O8 0.500000 0.270313 0.500000
O O9 0.328254 0.242179 0.564266
O O10 0.435613 0.268535 0.426514
O O11 0.434848 0.000000 0.487128
O O12 0.771898 0.500000 0.365912
O O13 0.843230 0.237856 0.376845
O O14 0.068814 0.500000 0.633246
O O15 0.986268 0.760472 0.713134
O O16 0.377200 0.272837 0.858146
O O17 0.351852 0.000000 0.926704
O O18 0.250000 0.250000 0.000000
O O19 0.995535 0.000000 0.781114
#
# Coordination Sequence:
#
# PCOD9172408 Si02
#       7
#     8   8   8   8   8   8   8
#     4   8  14  27  49  73  96 126 162 198 237 283
#     4   8  15  29  48  71  98 126 157 198 248 290
#     4  10  21  35  50  70  99 132 160 192 242 299
#     4   9  17  30  50  73  95 124 162 202 241 282
#     4   9  18  34  53  72  96 125 159 200 244 289
#     4  10  19  32  50  72 102 135 165 201 244 289
#     4  10  18  29  49  75  98 123 162 206 244 285
#
# _framework density 19.463301999999999
#
# number of rings (size 3 to 8) (size 9 to 14) (size 15 to 20)
#    0.000    2.857    0.000    3.857    0.000    3.143 
#    0.000    1.429    0.000   12.429    0.000    0.000 
#    0.000    0.000    0.000    0.000    0.000    0.000 
#
# Total GULP energy -156023.639159 kJ/mol
# GULP energy per Si atom -5572.272827 kJ/mol
# Density = 1.941900 g / cm^3
# Si number density = 19.463302 Si / 1000 Ang^3
#
#
#
# Elastic Constant Matrix: (Units=GPa)
#
#
# Indices 1 2 3 4 5 6 
#
# 1 71.2062 8.8144 85.6066 0.0000 10.6456 0.0003
# 2 8.8144 32.5710 6.1603 -0.0001 2.7947 0.0005
# 3 85.6066 6.1603 236.9198 0.0000 19.4622 0.0000
# 4 0.0000 -0.0001 0.0000 23.0824 0.0000 -9.0575
# 5 10.6456 2.7947 19.4622 0.0000 28.4196 0.0000
# 6 0.0003 0.0005 0.0000 -9.0575 0.0000 5.6461
#
#
#
# Elastic Compliance Matrix: (Units=1/GPa)
#
#
# Indices 1 2 3 4 5 6 
#
# 1 0.025932 -0.005055 -0.008987 -0.000001 -0.003062 -0.000002
# 2 -0.005055 0.032026 0.001162 -0.000002 -0.002052 -0.000007
# 3 -0.008987 0.001162 0.007598 0.000000 -0.001951 0.000001
# 4 -0.000001 -0.000002 0.000000 0.116929 0.000000 0.187579
# 5 -0.003062 -0.002052 -0.001951 0.000000 0.037872 0.000001
# 6 -0.000002 -0.000007 0.000001 0.187579 0.000001 0.478032
#
#
# Mechanical properties :
#
#
# Convention : Reuss Voigt Hill
#
# Bulk Modulus (GPa) = 25.12768 60.20664 42.66716
# Shear Modulus (GPa) = 6.78045 27.43732 17.10888
#
# Velocity S-wave (km/s) = 1.86849 3.75866 2.96807
# Velocity P-wave (km/s) = 4.19444 7.05955 5.80649
#
# Compressibility (1/GPa) = 0.03979675
#
# Stress axis : x y z
#
# Youngs Moduli (GPa) = 38.56277 31.22429 131.61040
#
# Poissons Ratio (x) = 0.15785 1.18278
# Poissons Ratio (y) = 0.19494 -0.15299
# Poissons Ratio (z) = 0.34656 -0.03630
#
# Static dielectric constant tensor:
#      x y z
#    x 1.658030 0.000000 0.018150 
#    y 0.000000 1.704410 0.000000 
#    z 0.018150 0.000000 1.724070 
# 
# From -- ./inp_files/342219.got.cif
#   From: 2010.05.17/outbox.cif.g08.bks.cpg/sg12_172_cif.got.tgz:342219.got - 2010.06.03 13:09:07.
