data_PCOD9172623
_publ_section_title
;
Structure prediction by ZEFSAII (Michael W. Deem and Ramdas Pophale) SiO2 
 PCOD9172623
Probable space group: C 2/M
;
_chemical_formula_sum "Si O2"
_cell_formula_units_Z 56
_cell_length_a 28.127533
_cell_length_b 8.029622
_cell_length_c 17.969791
_cell_angle_alpha 90.000000
_cell_angle_beta 125.318033
_cell_angle_gamma 90.000000
_cell_volume 3311.588293
_symmetry_space_group_name_H-M "C 2/M"
_symmetry_group_IT_number 12
_symmetry_cell_setting 'monoclinic'
loop_
_space_group_symop_operation_xyz
x,y,z
-x,y,-z
-x,-y,-z
x,-y,z
1/2+x,1/2+y,z
1/2-x,1/2+y,-z
1/2-x,1/2-y,-z
1/2+x,1/2-y,z
loop_
_atom_site_type_symbol
_atom_site_label
_atom_site_fract_x
_atom_site_fract_y
_atom_site_fract_z
Si Si1 0.587367 0.692740 0.602824
Si Si2 0.738126 0.802274 0.109469
Si Si3 0.715095 0.191185 0.700537
Si Si4 0.341810 0.298652 0.093008
Si Si5 0.078649 0.203676 0.429351
Si Si6 0.455848 0.295920 0.277007
Si Si7 0.711063 0.699092 0.534249
O O1 0.568972 0.500000 0.586216
O O2 0.657440 0.701511 0.665519
O O3 0.568667 0.761991 0.505752
O O4 0.564370 0.763241 0.659285
O O5 0.739754 0.724308 0.192599
O O6 0.794905 0.743165 0.113455
O O7 0.742754 0.000000 0.121719
O O8 0.683061 0.760610 0.008174
O O9 0.734142 0.232934 0.634094
O O10 0.696608 0.000000 0.686220
O O11 0.340681 0.500000 0.092041
O O12 0.406360 0.242032 0.174279
O O13 0.143553 0.257140 0.465284
O O14 0.023257 0.253853 0.329992
O O15 0.079524 0.000000 0.431868
O O16 0.454139 0.500000 0.275192
O O17 0.710133 0.500000 0.538707
O O18 0.750000 0.750000 0.500000
#
# Coordination Sequence:
#
# PCOD9172623 Si02
#       7
#     8   8   8   8   8   8   8
#     4   9  15  26  42  64  92 124 159 190 223 265
#     4  10  18  30  44  63  91 125 163 198 232 269
#     4  11  20  30  47  69  94 124 158 194 235 277
#     4   9  17  27  42  64  92 126 162 197 229 264
#     4   8  15  25  44  69  91 118 154 192 226 271
#     4   9  14  24  42  66  93 123 159 193 224 262
#     4  10  20  35  53  73  95 119 152 192 238 282
#
# _framework density 16.910315000000001
#
# number of rings (size 3 to 8) (size 9 to 14) (size 15 to 20)
#    0.000    2.571    1.429    3.429    0.000    2.286 
#    0.000    0.000    0.000   12.000    0.000    1.000 
#    0.000    8.000    0.000    0.000    0.000    0.000 
#
# Total GULP energy -156030.187088 kJ/mol
# GULP energy per Si atom -5572.506682 kJ/mol
# Density = 1.687183 g / cm^3
# Si number density = 16.910315 Si / 1000 Ang^3
#
#
#
# Elastic Constant Matrix: (Units=GPa)
#
#
# Indices 1 2 3 4 5 6 
#
# 1 64.0571 7.1446 67.4939 0.0000 0.9166 0.0000
# 2 7.1446 25.7442 13.3912 0.0000 0.9730 0.0000
# 3 67.4939 13.3912 145.2696 0.0000 16.6996 0.0000
# 4 0.0000 0.0000 0.0000 17.3670 0.0000 -2.3348
# 5 0.9166 0.9730 16.6996 0.0000 24.1803 0.0000
# 6 0.0000 0.0000 0.0000 -2.3348 0.0000 10.8780
#
#
#
# Elastic Compliance Matrix: (Units=1/GPa)
#
#
# Indices 1 2 3 4 5 6 
#
# 1 0.032709 -0.001000 -0.016258 0.000000 0.010028 0.000000
# 2 -0.001000 0.040855 -0.003386 0.000000 0.000732 0.000000
# 3 -0.016258 -0.003386 0.015927 0.000000 -0.010247 0.000000
# 4 0.000000 0.000000 0.000000 0.059291 0.000000 0.012726
# 5 0.010028 0.000732 -0.010247 0.000000 0.048023 0.000000
# 6 0.000000 0.000000 0.000000 0.012726 0.000000 0.094660
#
#
# Mechanical properties :
#
#
# Convention : Reuss Voigt Hill
#
# Bulk Modulus (GPa) = 20.74493 45.68115 33.21304
# Shear Modulus (GPa) = 14.33404 20.28782 17.31093
#
# Velocity S-wave (km/s) = 2.91460 3.46747 3.20299
# Velocity P-wave (km/s) = 4.86012 6.56533 5.77600
#
# Compressibility (1/GPa) = 0.04820455
#
# Stress axis : x y z
#
# Youngs Moduli (GPa) = 30.57278 24.47706 62.78550
#
# Poissons Ratio (x) = 0.02447 1.02074
# Poissons Ratio (y) = 0.03057 0.21257
# Poissons Ratio (z) = 0.49704 0.08287
#
# Static dielectric constant tensor:
#      x y z
#    x 1.563430 0.000000 0.027950 
#    y 0.000000 1.616810 0.000000 
#    z 0.027950 0.000000 1.597770 
# 
# From -- ./inp_files/248572.got.cif
#   From: 2010.05.17/outbox.cif.g08.bks.cpg/sg12_125_cif.got.tgz:248572.got - 2010.06.03 13:09:07.
