data_PCOD9172863
_publ_section_title
;
Structure prediction by ZEFSAII (Michael W. Deem and Ramdas Pophale) SiO2 
 PCOD9172863
Probable space group: C 2/M
;
_chemical_formula_sum "Si O2"
_cell_formula_units_Z 64
_cell_length_a 25.234813
_cell_length_b 7.631718
_cell_length_c 20.974046
_cell_angle_alpha 90.000000
_cell_angle_beta 126.126122
_cell_angle_gamma 90.000000
_cell_volume 3262.616968
_symmetry_space_group_name_H-M "C 2/M"
_symmetry_group_IT_number 12
_symmetry_cell_setting 'monoclinic'
loop_
_space_group_symop_operation_xyz
x,y,z
-x,y,-z
-x,-y,-z
x,-y,z
1/2+x,1/2+y,z
1/2-x,1/2+y,-z
1/2-x,1/2-y,-z
1/2+x,1/2-y,z
loop_
_atom_site_type_symbol
_atom_site_label
_atom_site_fract_x
_atom_site_fract_y
_atom_site_fract_z
Si Si1 0.925078 0.783888 0.704599
Si Si2 0.177430 0.790072 0.474230
Si Si3 0.350842 0.702395 0.775449
Si Si4 0.324327 0.289408 0.032142
Si Si5 0.705235 0.294058 0.632846
Si Si6 0.837301 0.708759 0.261967
Si Si7 0.691335 0.714990 0.120277
Si Si8 0.073302 0.208781 0.790566
O O1 0.876813 0.724227 0.613769
O O2 0.896178 0.722700 0.752008
O O3 0.999417 0.725814 0.746028
O O4 0.923371 0.000000 0.703811
O O5 0.250000 0.750000 0.500000
O O6 0.174640 0.726628 0.545285
O O7 0.169640 0.000000 0.470263
O O8 0.370692 0.500000 0.796703
O O9 0.275601 0.707483 0.697227
O O10 0.347453 0.777553 0.844520
O O11 0.330409 0.500000 0.035288
O O12 0.376022 0.220079 0.120469
O O13 0.250000 0.250000 0.000000
O O14 0.333991 0.227065 0.966433
O O15 0.719143 0.500000 0.634876
O O16 0.660887 0.271394 0.663930
O O17 0.834527 0.500000 0.261763
O O18 0.767351 0.770394 0.183215
O O19 0.895457 0.761320 0.256543
O O20 0.690967 0.500000 0.121057
O O21 0.070002 0.000000 0.797581
#
# Coordination Sequence:
#
# PCOD9172863 Si02
#       8
#     8   8   8   8   8   8   8   8
#     4   9  18  33  51  73 103 138 170 203 253 305
#     4  10  19  32  52  76 103 132 169 212 252 295
#     4   9  16  30  51  71  99 137 167 198 247 303
#     4  10  18  30  48  73 102 129 167 213 250 293
#     4  10  19  30  49  78 103 125 165 216 255 294
#     4  10  19  33  52  72 100 135 166 206 259 308
#     4   8  15  27  46  72  97 123 161 202 245 291
#     4  10  20  33  51  74 102 136 172 210 250 298
#
# _framework density 19.616154999999999
#
# number of rings (size 3 to 8) (size 9 to 14) (size 15 to 20)
#    0.000    2.500    2.500    1.500    0.000    0.500 
#    0.000    2.500    0.000    7.500    0.000    0.000 
#    0.000    4.250    0.000    0.000    0.000    0.000 
#
# Total GULP energy -178494.232981 kJ/mol
# GULP energy per Si atom -5577.944781 kJ/mol
# Density = 1.957151 g / cm^3
# Si number density = 19.616155 Si / 1000 Ang^3
#
#
#
# Elastic Constant Matrix: (Units=GPa)
#
#
# Indices 1 2 3 4 5 6 
#
# 1 171.3609 -6.1311 100.3409 0.0000 -23.6698 0.0000
# 2 -6.1311 37.6334 1.2714 0.0000 0.7645 0.0000
# 3 100.3409 1.2714 137.4896 0.0000 -22.8316 0.0000
# 4 0.0000 0.0000 0.0000 8.2158 0.0000 1.8208
# 5 -23.6698 0.7645 -22.8316 0.0000 34.2011 0.0000
# 6 0.0000 0.0000 0.0000 1.8208 0.0000 16.3190
#
#
#
# Elastic Compliance Matrix: (Units=1/GPa)
#
#
# Indices 1 2 3 4 5 6 
#
# 1 0.010496 0.001908 -0.007286 0.000000 0.002357 0.000000
# 2 0.001908 0.026949 -0.001712 0.000000 -0.000425 0.000000
# 3 -0.007286 -0.001712 0.013244 0.000000 0.003837 0.000000
# 4 0.000000 0.000000 0.000000 0.124803 0.000000 -0.013925
# 5 0.002357 -0.000425 0.003837 0.000000 0.033441 0.000000
# 6 0.000000 0.000000 0.000000 -0.013925 0.000000 0.062832
#
#
# Mechanical properties :
#
#
# Convention : Reuss Voigt Hill
#
# Bulk Modulus (GPa) = 27.39092 59.71626 43.55359
# Shear Modulus (GPa) = 16.77203 28.48071 22.62637
#
# Velocity S-wave (km/s) = 2.92723 3.81452 3.39994
# Velocity P-wave (km/s) = 5.04169 7.06464 6.13709
#
# Compressibility (1/GPa) = 0.03650845
#
# Stress axis : x y z
#
# Youngs Moduli (GPa) = 95.27436 37.10646 75.50706
#
# Poissons Ratio (x) = -0.07081 0.55016
# Poissons Ratio (y) = -0.18180 0.12930
# Poissons Ratio (z) = 0.69419 0.06354
#
# Static dielectric constant tensor:
#      x y z
#    x 1.680730 0.000000 -0.043500 
#    y 0.000000 1.737790 0.000000 
#    z -0.043500 0.000000 1.720390 
# 
# From -- ./inp_files/326964.got.cif
#   From: 2010.05.17/outbox.cif.g08.bks.cpg/sg12_164_cif.got.tgz:326964.got - 2010.06.03 13:09:07.
