data_PCOD9172807
_publ_section_title
;
Structure prediction by ZEFSAII (Michael W. Deem and Ramdas Pophale) SiO2 
 PCOD9172807
Probable space group: C 2/M
;
_chemical_formula_sum "Si O2"
_cell_formula_units_Z 40
_cell_length_a 14.738918
_cell_length_b 7.449098
_cell_length_c 18.771149
_cell_angle_alpha 90.000000
_cell_angle_beta 112.222657
_cell_angle_gamma 90.000000
_cell_volume 1907.832795
_symmetry_space_group_name_H-M "C 2/M"
_symmetry_group_IT_number 12
_symmetry_cell_setting 'monoclinic'
loop_
_space_group_symop_operation_xyz
x,y,z
-x,y,-z
-x,-y,-z
x,-y,z
1/2+x,1/2+y,z
1/2-x,1/2+y,-z
1/2-x,1/2-y,-z
1/2+x,1/2-y,z
loop_
_atom_site_type_symbol
_atom_site_label
_atom_site_fract_x
_atom_site_fract_y
_atom_site_fract_z
Si Si1 0.155862 0.209109 0.297539
Si Si2 0.143278 0.214005 0.999493
Si Si3 0.439692 0.720000 0.875458
Si Si4 0.585217 0.718979 0.428466
Si Si5 0.135020 0.783745 0.597630
O O1 0.104316 0.284717 0.212141
O O2 0.125314 0.286206 0.365271
O O3 0.273115 0.220472 0.329830
O O4 0.127484 0.000000 0.291745
O O5 0.123502 0.277916 0.074373
O O6 0.133194 0.000000 0.999474
O O7 0.250000 0.250000 0.000000
O O8 0.051701 0.276639 0.924074
O O9 0.437316 0.500000 0.873348
O O10 0.589820 0.500000 0.430391
O O11 0.471362 0.769344 0.404798
O O12 0.640739 0.778483 0.516817
O O13 0.136941 0.000000 0.598039
#
# Coordination Sequence:
#
# PCOD9172807 Si02
#       5
#     8   8   8   8   8
#     4  10  18  30  48  69  91 121 156 189 223 269
#     4   9  17  33  53  70  90 121 152 183 224 273
#     4   8  17  32  48  67  95 124 150 179 225 282
#     4   8  16  30  47  64  90 126 158 184 225 277
#     4   9  17  31  47  66  92 123 155 191 229 266
#
# _framework density 20.966199
#
# number of rings (size 3 to 8) (size 9 to 14) (size 15 to 20)
#    0.000    3.200    0.000    3.000    0.000    1.600 
#    0.000    9.000    0.000    0.000    0.000    0.000 
#    0.000    0.000    0.000    0.000    0.000    0.000 
#
# Total GULP energy -111567.741012 kJ/mol
# GULP energy per Si atom -5578.387051 kJ/mol
# Density = 2.091848 g / cm^3
# Si number density = 20.966199 Si / 1000 Ang^3
#
#
#
# Elastic Constant Matrix: (Units=GPa)
#
#
# Indices 1 2 3 4 5 6 
#
# 1 102.8270 -6.4163 60.9479 0.0000 12.9649 0.0000
# 2 -6.4163 59.8377 3.0987 0.0000 -3.9650 0.0000
# 3 60.9479 3.0987 158.4826 0.0000 15.4729 0.0000
# 4 0.0000 0.0000 0.0000 6.1417 0.0000 8.3696
# 5 12.9649 -3.9650 15.4729 0.0000 13.9470 0.0000
# 6 0.0000 0.0000 0.0000 8.3696 0.0000 19.0841
#
#
#
# Elastic Compliance Matrix: (Units=1/GPa)
#
#
# Indices 1 2 3 4 5 6 
#
# 1 0.013339 0.001190 -0.004458 0.000000 -0.007115 0.000000
# 2 0.001190 0.017255 -0.001307 0.000000 0.005250 0.000000
# 3 -0.004458 -0.001307 0.008615 0.000000 -0.005785 0.000000
# 4 0.000000 0.000000 0.000000 0.404682 0.000000 -0.177478
# 5 -0.007115 0.005250 -0.005785 0.000000 0.086224 0.000000
# 6 0.000000 0.000000 0.000000 -0.177478 0.000000 0.130235
#
#
# Mechanical properties :
#
#
# Convention : Reuss Voigt Hill
#
# Bulk Modulus (GPa) = 33.27065 48.48975 40.88020
# Shear Modulus (GPa) = 7.35812 25.40235 16.38023
#
# Velocity S-wave (km/s) = 1.87540 3.48456 2.79815
# Velocity P-wave (km/s) = 4.53791 6.27434 5.47540
#
# Compressibility (1/GPa) = 0.03005652
#
# Stress axis : x y z
#
# Youngs Moduli (GPa) = 74.96795 57.95408 116.08029
#
# Poissons Ratio (x) = -0.06895 0.51753
# Poissons Ratio (y) = -0.08919 0.15177
# Poissons Ratio (z) = 0.33424 0.07577
#
# Static dielectric constant tensor:
#      x y z
#    x 1.739790 0.000000 -0.011350 
#    y 0.000000 1.810550 0.000000 
#    z -0.011350 0.000000 1.741750 
# 
# From -- ./inp_files/202868.got.cif
#   From: 2010.05.17/outbox.cif.g08.bks.cpg/sg12_102_cif.got.tgz:202868.got - 2010.06.03 13:09:07.
