data_PCOD9172934
_publ_section_title
;
Structure prediction by ZEFSAII (Michael W. Deem and Ramdas Pophale) SiO2 
 PCOD9172934
Probable space group: C 2/M
;
_chemical_formula_sum "Si O2"
_cell_formula_units_Z 48
_cell_length_a 23.094786
_cell_length_b 8.736681
_cell_length_c 16.529194
_cell_angle_alpha 90.000000
_cell_angle_beta 59.311246
_cell_angle_gamma 90.000000
_cell_volume 2868.048845
_symmetry_space_group_name_H-M "C 2/M"
_symmetry_group_IT_number 12
_symmetry_cell_setting 'monoclinic'
loop_
_space_group_symop_operation_xyz
x,y,z
-x,y,-z
-x,-y,-z
x,-y,z
1/2+x,1/2+y,z
1/2-x,1/2+y,-z
1/2-x,1/2-y,-z
1/2+x,1/2-y,z
loop_
_atom_site_type_symbol
_atom_site_label
_atom_site_fract_x
_atom_site_fract_y
_atom_site_fract_z
Si Si1 0.229886 0.316263 0.316143
Si Si2 0.500455 0.684548 0.905076
Si Si3 0.628189 0.183719 0.721369
Si Si4 0.179501 0.684039 0.518419
Si Si5 0.648309 0.684449 0.040613
Si Si6 0.229297 0.182887 0.142550
O O1 0.233292 0.500000 0.310322
O O2 0.303665 0.253338 0.288681
O O3 0.178179 0.270045 0.425175
O O4 0.211726 0.252000 0.241660
O O5 0.506373 0.500000 0.896158
O O6 0.563191 0.756968 0.814271
O O7 0.428662 0.729701 0.918313
O O8 0.500000 0.726847 0.000000
O O9 0.627394 0.228155 0.626159
O O10 0.632281 0.000000 0.724216
O O11 0.182638 0.500000 0.516861
O O12 0.250000 0.750000 0.500000
O O13 0.652652 0.500000 0.029713
O O14 0.677609 0.726974 0.107728
O O15 0.698041 0.756908 0.938990
O O16 0.231007 0.000000 0.146706
#
# Coordination Sequence:
#
# PCOD9172934 Si02
#       6
#     8   8   8   8   8   8
#     4  10  18  30  49  71  96 126 158 190 233 284
#     4  10  20  33  49  69  95 127 158 186 226 285
#     4  10  19  31  48  72  99 123 153 195 238 277
#     4   8  16  29  45  67  94 122 152 190 234 279
#     4   9  19  34  49  68  97 129 157 189 234 284
#     4  10  19  31  49  72  96 122 157 199 235 271
#
# _framework density 16.736117
#
# number of rings (size 3 to 8) (size 9 to 14) (size 15 to 20)
#    0.000    2.500    0.000    2.500    0.000    4.333 
#    0.000    0.000    0.000    1.000    0.000    7.000 
#    0.000    0.000    0.000    0.000    0.000    0.000 
#
# Total GULP energy -133748.265947 kJ/mol
# GULP energy per Si atom -5572.844414 kJ/mol
# Density = 1.669802 g / cm^3
# Si number density = 16.736117 Si / 1000 Ang^3
#
#
#
# Elastic Constant Matrix: (Units=GPa)
#
#
# Indices 1 2 3 4 5 6 
#
# 1 53.8492 17.4585 44.6549 0.0000 -4.0757 0.0000
# 2 17.4585 21.9308 36.9733 0.0000 1.6977 0.0000
# 3 44.6549 36.9733 173.4234 0.0000 7.3184 0.0000
# 4 0.0000 0.0000 0.0000 12.9425 0.0000 3.2444
# 5 -4.0757 1.6977 7.3184 0.0000 23.3474 0.0000
# 6 0.0000 0.0000 0.0000 3.2444 0.0000 18.3686
#
#
#
# Elastic Compliance Matrix: (Units=1/GPa)
#
#
# Indices 1 2 3 4 5 6 
#
# 1 0.027561 -0.015645 -0.004066 0.000000 0.007223 0.000000
# 2 -0.015645 0.080068 -0.012851 0.000000 -0.004525 0.000000
# 3 -0.004066 -0.012851 0.009671 0.000000 -0.002807 0.000000
# 4 0.000000 0.000000 0.000000 0.080844 0.000000 -0.014279
# 5 0.007223 -0.004525 -0.002807 0.000000 0.045301 0.000000
# 6 0.000000 0.000000 0.000000 -0.014279 0.000000 0.056963
#
#
# Mechanical properties :
#
#
# Convention : Reuss Voigt Hill
#
# Bulk Modulus (GPa) = 19.16550 49.70853 34.43701
# Shear Modulus (GPa) = 13.05740 20.93948 16.99844
#
# Velocity S-wave (km/s) = 2.79622 3.54100 3.19042
# Velocity P-wave (km/s) = 4.67991 6.81793 5.84747
#
# Compressibility (1/GPa) = 0.05217710
#
# Stress axis : x y z
#
# Youngs Moduli (GPa) = 36.28291 12.48941 103.39691
#
# Poissons Ratio (x) = 0.19539 0.42043
# Poissons Ratio (y) = 0.56763 1.32874
# Poissons Ratio (z) = 0.14753 0.16050
#
# Static dielectric constant tensor:
#      x y z
#    x 1.536740 0.000000 0.021610 
#    y 0.000000 1.568170 0.000000 
#    z 0.021610 0.000000 1.593540 
# 
# From -- ./inp_files/229919.got.cif
#   From: 2010.05.17/outbox.cif.g08.bks.cpg/sg12_115_cif.got.tgz:229919.got - 2010.06.03 13:09:07.
