data_PCOD9172660
_publ_section_title
;
Structure prediction by ZEFSAII (Michael W. Deem and Ramdas Pophale) SiO2 
 PCOD9172660
Probable space group: C 2/M
;
_chemical_formula_sum "Si O2"
_cell_formula_units_Z 56
_cell_length_a 18.051407
_cell_length_b 27.990682
_cell_length_c 15.117075
_cell_angle_alpha 90.000000
_cell_angle_beta 157.426601
_cell_angle_gamma 90.000000
_cell_volume 2932.058950
_symmetry_space_group_name_H-M "C 2/M"
_symmetry_group_IT_number 12
_symmetry_cell_setting 'monoclinic'
loop_
_space_group_symop_operation_xyz
x,y,z
-x,y,-z
-x,-y,-z
x,-y,z
1/2+x,1/2+y,z
1/2-x,1/2+y,-z
1/2-x,1/2-y,-z
1/2+x,1/2-y,z
loop_
_atom_site_type_symbol
_atom_site_label
_atom_site_fract_x
_atom_site_fract_y
_atom_site_fract_z
Si Si1 0.784429 0.500000 0.129993
Si Si2 0.297113 0.329559 0.534350
Si Si3 0.137227 0.319566 0.917371
Si Si4 0.376927 0.397820 0.072900
Si Si5 0.028303 0.763436 0.657283
Si Si6 0.299107 0.701452 0.729005
Si Si7 0.281469 0.000000 0.342682
Si Si8 0.783363 0.400861 0.296674
O O1 0.684128 0.452724 0.982027
O O2 0.767376 0.500000 0.218797
O O3 0.016903 0.500000 0.381473
O O4 0.399585 0.301416 0.569335
O O5 0.333849 0.296831 0.662242
O O6 0.069253 0.334130 0.272388
O O7 0.408779 0.379477 0.670524
O O8 0.240576 0.363575 0.981596
O O9 0.096290 0.280304 0.795462
O O10 0.277377 0.294020 0.143317
O O11 0.336348 0.389887 0.923789
O O12 0.863767 0.737922 0.417135
O O13 0.215055 0.648208 0.649451
O O14 0.500000 0.707036 0.000000
O O15 0.208772 0.054456 0.273320
O O16 0.000000 0.412802 0.500000
#
# Coordination Sequence:
#
# PCOD9172660 Si02
#       8
#     4   8   8   8   8   8   4   8
#     4   9  16  28  41  62  89 119 155 184 237 260
#     4  10  19  33  47  62  86 116 154 194 229 270
#     4   9  17  31  50  62  78 114 161 182 229 274
#     4  10  18  30  46  64  87 120 152 197 223 259
#     4   9  19  32  47  62  85 114 149 195 232 277
#     4  11  20  29  43  66  90 111 151 202 234 264
#     4   9  16  26  42  55  85 129 152 188 229 269
#     4  11  17  29  41  61  86 119 159 191 231 259
#
# _framework density 19.099207
#
# number of rings (size 3 to 8) (size 9 to 14) (size 15 to 20)
#    0.000    2.143    4.286    3.429    0.000    0.000 
#    2.571    1.786    0.000    0.000    0.000    0.000 
#    0.000    0.000    0.000   10.286    0.000   40.857 
#
# Total GULP energy -156032.965646 kJ/mol
# GULP energy per Si atom -5572.605916 kJ/mol
# Density = 1.905574 g / cm^3
# Si number density = 19.099207 Si / 1000 Ang^3
#
#
#
# Elastic Constant Matrix: (Units=GPa)
#
#
# Indices 1 2 3 4 5 6 
#
# 1 14.8337 13.5317 18.4393 -0.0001 10.6391 -0.0001
# 2 13.5317 137.2922 68.2464 0.0001 5.0090 0.0000
# 3 18.4393 68.2464 143.8610 0.0000 26.8827 -0.0002
# 4 -0.0001 0.0001 0.0000 18.7907 -0.0001 2.1575
# 5 10.6391 5.0090 26.8827 -0.0001 20.8955 -0.0002
# 6 -0.0001 0.0000 -0.0002 2.1575 -0.0002 15.8147
#
#
#
# Elastic Compliance Matrix: (Units=1/GPa)
#
#
# Indices 1 2 3 4 5 6 
#
# 1 0.117234 -0.009614 0.000339 0.000000 -0.057822 0.000000
# 2 -0.009614 0.010676 -0.005620 0.000000 0.009566 0.000000
# 3 0.000339 -0.005620 0.012315 0.000000 -0.014669 0.000000
# 4 0.000000 0.000000 0.000000 0.054065 0.000000 -0.007376
# 5 -0.057822 0.009566 -0.014669 0.000000 0.093877 0.000001
# 6 0.000000 0.000000 0.000000 -0.007376 0.000001 0.064238
#
#
# Mechanical properties :
#
#
# Convention : Reuss Voigt Hill
#
# Bulk Modulus (GPa) = 9.05503 55.15797 32.10650
# Shear Modulus (GPa) = 11.93305 24.15149 18.04227
#
# Velocity S-wave (km/s) = 2.50230 3.55988 3.07687
# Velocity P-wave (km/s) = 3.61939 6.77048 5.42860
#
# Compressibility (1/GPa) = 0.11043584
#
# Stress axis : x y z
#
# Youngs Moduli (GPa) = 8.52997 93.66973 81.20347
#
# Poissons Ratio (x) = 0.90052 -0.02755
# Poissons Ratio (y) = 0.08201 0.45635
# Poissons Ratio (z) = -0.00289 0.52640
#
# Static dielectric constant tensor:
#      x y z
#    x 1.758120 0.000000 0.016740 
#    y 0.000000 1.713510 0.000000 
#    z 0.016740 0.000000 1.746390 
# 
# From -- ./inp_files/286652.got.cif
#   From: 2010.05.17/outbox.cif.g08.bks.cpg/sg12_144_cif.got.tgz:286652.got - 2010.06.03 13:09:07.
