data_PCOD9172181
_publ_section_title
;
Structure prediction by ZEFSAII (Michael W. Deem and Ramdas Pophale) SiO2 
 PCOD9172181
Probable space group: C 2/M
;
_chemical_formula_sum "Si O2"
_cell_formula_units_Z 48
_cell_length_a 28.929689
_cell_length_b 8.815657
_cell_length_c 12.281563
_cell_angle_alpha 90.000000
_cell_angle_beta 70.441589
_cell_angle_gamma 90.000000
_cell_volume 2951.491943
_symmetry_space_group_name_H-M "C 2/M"
_symmetry_group_IT_number 12
_symmetry_cell_setting 'monoclinic'
loop_
_space_group_symop_operation_xyz
x,y,z
-x,y,-z
-x,-y,-z
x,-y,z
1/2+x,1/2+y,z
1/2-x,1/2+y,-z
1/2-x,1/2-y,-z
1/2+x,1/2-y,z
loop_
_atom_site_type_symbol
_atom_site_label
_atom_site_fract_x
_atom_site_fract_y
_atom_site_fract_z
Si Si1 0.255296 0.180135 0.170356
Si Si2 0.585691 0.817451 0.250515
Si Si3 0.980137 0.674674 0.390885
Si Si4 0.328494 0.319786 0.946161
Si Si5 0.279871 0.181088 0.576685
Si Si6 0.615449 0.679974 0.461158
O O1 0.209353 0.205446 0.124680
O O2 0.244336 0.263477 0.291370
O O3 0.259708 0.000000 0.184278
O O4 0.302574 0.244843 0.070545
O O5 0.528009 0.778084 0.284939
O O6 0.620503 0.755571 0.128689
O O7 0.604738 0.745766 0.348873
O O8 0.588924 0.000000 0.256536
O O9 0.967222 0.500000 0.375755
O O10 0.931909 0.776492 0.429221
O O11 0.000000 0.676161 0.500000
O O12 0.333579 0.500000 0.956718
O O13 0.250000 0.250000 0.500000
O O14 0.335288 0.244053 0.533796
O O15 0.280186 0.000000 0.571420
O O16 0.621570 0.500000 0.448968
#
# Coordination Sequence:
#
# PCOD9172181 Si02
#       6
#     8   8   8   8   8   8
#     4  10  20  34  50  72 101 132 169 207 250 300
#     4  10  18  29  47  71 101 135 167 202 249 301
#     4   8  16  29  44  66  96 131 166 200 246 299
#     4  10  19  30  49  74 103 135 167 204 250 302
#     4  12  24  38  55  73  99 133 172 212 252 296
#     4  11  20  31  47  70  99 131 167 207 251 297
#
# _framework density 16.262961000000001
#
# number of rings (size 3 to 8) (size 9 to 14) (size 15 to 20)
#    0.000    1.833    1.667    5.500    0.000    5.000 
#    0.000    0.000    0.000    0.000    0.000    1.167 
#    0.000    9.333    0.000    0.000    0.000    0.000 
#
# Total GULP energy -133936.806227 kJ/mol
# GULP energy per Si atom -5580.700259 kJ/mol
# Density = 1.622595 g / cm^3
# Si number density = 16.262961 Si / 1000 Ang^3
#
#
#
# Elastic Constant Matrix: (Units=GPa)
#
#
# Indices 1 2 3 4 5 6 
#
# 1 100.2891 64.1521 67.5676 0.0000 -27.0530 0.0000
# 2 64.1521 121.7886 62.3230 0.0000 -12.9667 0.0000
# 3 67.5676 62.3230 74.9380 0.0000 -26.8196 0.0000
# 4 0.0000 0.0000 0.0000 27.3279 0.0000 -6.3352
# 5 -27.0530 -12.9667 -26.8196 0.0000 35.1310 0.0000
# 6 0.0000 0.0000 0.0000 -6.3352 0.0000 25.6762
#
#
#
# Elastic Compliance Matrix: (Units=1/GPa)
#
#
# Indices 1 2 3 4 5 6 
#
# 1 0.026438 -0.003579 -0.019328 0.000000 0.004282 0.000000
# 2 -0.003579 0.015513 -0.011849 0.000000 -0.006076 0.000000
# 3 -0.019328 -0.011849 0.046415 0.000000 0.016177 0.000000
# 4 0.000000 0.000000 0.000000 0.038813 0.000000 0.009576
# 5 0.004282 -0.006076 0.016177 0.000000 0.041869 0.000000
# 6 0.000000 0.000000 0.000000 0.009576 0.000000 0.041309
#
#
# Mechanical properties :
#
#
# Convention : Reuss Voigt Hill
#
# Bulk Modulus (GPa) = 53.04091 76.12235 64.58163
# Shear Modulus (GPa) = 17.47311 24.49190 20.98250
#
# Velocity S-wave (km/s) = 3.28138 3.88492 3.59583
# Velocity P-wave (km/s) = 6.85871 8.18733 7.55229
#
# Compressibility (1/GPa) = 0.01885337
#
# Stress axis : x y z
#
# Youngs Moduli (GPa) = 37.82447 64.46313 21.54472
#
# Poissons Ratio (x) = 0.23074 0.41642
# Poissons Ratio (y) = 0.13539 0.25527
# Poissons Ratio (z) = 0.73108 0.76379
#
# Static dielectric constant tensor:
#      x y z
#    x 1.545070 0.000000 -0.033550 
#    y 0.000000 1.538050 0.000000 
#    z -0.033550 0.000000 1.539460 
# 
# From -- ./inp_files/172134.got.cif
#   From: 2010.05.17/outbox.cif.g08.bks.cpg/sg12_87_cif.got.tgz:172134.got - 2010.06.03 13:09:07.
