data_PCOD9172280
_publ_section_title
;
Structure prediction by ZEFSAII (Michael W. Deem and Ramdas Pophale) SiO2 
 PCOD9172280
Probable space group: C 2/M
;
_chemical_formula_sum "Si O2"
_cell_formula_units_Z 48
_cell_length_a 19.280844
_cell_length_b 22.333600
_cell_length_c 10.121417
_cell_angle_alpha 90.000000
_cell_angle_beta 38.301890
_cell_angle_gamma 90.000000
_cell_volume 2701.351578
_symmetry_space_group_name_H-M "C 2/M"
_symmetry_group_IT_number 12
_symmetry_cell_setting 'monoclinic'
loop_
_space_group_symop_operation_xyz
x,y,z
-x,y,-z
-x,-y,-z
x,-y,z
1/2+x,1/2+y,z
1/2-x,1/2+y,-z
1/2-x,1/2-y,-z
1/2+x,1/2-y,z
loop_
_atom_site_type_symbol
_atom_site_label
_atom_site_fract_x
_atom_site_fract_y
_atom_site_fract_z
Si Si1 0.120536 0.357943 0.306039
Si Si2 0.655874 0.610010 0.180461
Si Si3 0.578001 0.431986 0.577800
Si Si4 0.384163 0.311671 0.341943
Si Si5 0.757031 0.220815 0.283069
Si Si6 0.403888 0.737655 0.821094
O O1 0.170338 0.331655 0.369933
O O2 0.000000 0.390502 0.500000
O O3 0.911805 0.298933 0.731353
O O4 0.224234 0.390171 0.073942
O O5 0.554472 0.576769 0.255809
O O6 0.647108 0.583890 0.340670
O O7 0.616444 0.679681 0.240001
O O8 0.599343 0.500000 0.584649
O O9 0.608779 0.381342 0.636037
O O10 0.290452 0.277589 0.568207
O O11 0.353607 0.303548 0.234951
O O12 0.492798 0.279086 0.239063
O O13 0.802330 0.241441 0.074657
#
# Coordination Sequence:
#
# PCOD9172280 Si02
#       6
#     8   8   8   8   8   8
#     4  11  19  30  49  75 108 141 174 205 258 321
#     4   9  18  29  50  76 103 132 170 222 258 297
#     4  10  19  34  56  77  98 130 178 227 264 303
#     4  10  19  31  49  76 109 135 170 206 267 314
#     4  10  19  31  47  74 111 142 162 209 260 323
#     4  10  18  29  48  72 107 139 167 204 258 318
#
# _framework density 17.768882999999999
#
# number of rings (size 3 to 8) (size 9 to 14) (size 15 to 20)
#    0.000    2.000    1.667    5.500    2.333    0.000 
#    0.000    0.000    0.000   24.000    0.000    1.167 
#    0.000    0.000    0.000    0.000    0.000    0.000 
#
# Total GULP energy -133713.300486 kJ/mol
# GULP energy per Si atom -5571.387520 kJ/mol
# Density = 1.772844 g / cm^3
# Si number density = 17.768883 Si / 1000 Ang^3
#
#
#
# Elastic Constant Matrix: (Units=GPa)
#
#
# Indices 1 2 3 4 5 6 
#
# 1 87.3132 22.0444 13.1962 0.0000 -10.3259 0.0000
# 2 22.0444 56.0354 22.8584 0.0000 -1.2772 0.0000
# 3 13.1962 22.8584 88.6737 0.0000 -11.9657 0.0000
# 4 0.0000 0.0000 0.0000 13.8513 0.0000 -4.1439
# 5 -10.3259 -1.2772 -11.9657 0.0000 24.6518 0.0000
# 6 0.0000 0.0000 0.0000 -4.1439 0.0000 8.6577
#
#
#
# Elastic Compliance Matrix: (Units=1/GPa)
#
#
# Indices 1 2 3 4 5 6 
#
# 1 0.013383 -0.005169 0.000066 0.000000 0.005370 0.000000
# 2 -0.005169 0.021996 -0.005393 0.000000 -0.003643 0.000000
# 3 0.000066 -0.005393 0.013508 0.000000 0.006305 0.000000
# 4 0.000000 0.000000 0.000000 0.084261 0.000000 0.040331
# 5 0.005370 -0.003643 0.006305 0.000000 0.045686 0.000000
# 6 0.000000 0.000000 0.000000 0.040331 0.000000 0.134809
#
#
# Mechanical properties :
#
#
# Convention : Reuss Voigt Hill
#
# Bulk Modulus (GPa) = 35.84842 38.69114 37.26978
# Shear Modulus (GPa) = 14.53764 21.02705 17.78235
#
# Velocity S-wave (km/s) = 2.86344 3.44374 3.16691
# Velocity P-wave (km/s) = 5.58131 6.13469 5.86453
#
# Compressibility (1/GPa) = 0.02789523
#
# Stress axis : x y z
#
# Youngs Moduli (GPa) = 74.71992 45.46237 74.02787
#
# Poissons Ratio (x) = 0.23501 -0.00485
# Poissons Ratio (y) = 0.38625 0.39920
# Poissons Ratio (z) = -0.00489 0.24516
#
# Static dielectric constant tensor:
#      x y z
#    x 1.643930 0.000000 -0.056550 
#    y 0.000000 1.594820 0.000000 
#    z -0.056550 0.000000 1.686030 
# 
# From -- ./inp_files/177689.got.cif
#   From: 2010.05.17/outbox.cif.g08.bks.cpg/sg12_89_cif.got.tgz:177689.got - 2010.06.03 13:09:07.
