data_PCOD9172716
_publ_section_title
;
Structure prediction by ZEFSAII (Michael W. Deem and Ramdas Pophale) SiO2 
 PCOD9172716
Probable space group: C 2/M
;
_chemical_formula_sum "Si O2"
_cell_formula_units_Z 64
_cell_length_a 24.618581
_cell_length_b 7.981402
_cell_length_c 17.576110
_cell_angle_alpha 90.000000
_cell_angle_beta 83.319700
_cell_angle_gamma 90.000000
_cell_volume 3430.096643
_symmetry_space_group_name_H-M "C 2/M"
_symmetry_group_IT_number 12
_symmetry_cell_setting 'monoclinic'
loop_
_space_group_symop_operation_xyz
x,y,z
-x,y,-z
-x,-y,-z
x,-y,z
1/2+x,1/2+y,z
1/2-x,1/2+y,-z
1/2-x,1/2-y,-z
1/2+x,1/2-y,z
loop_
_atom_site_type_symbol
_atom_site_label
_atom_site_fract_x
_atom_site_fract_y
_atom_site_fract_z
Si Si1 0.942058 0.703322 0.730137
Si Si2 0.031494 0.696981 0.826019
Si Si3 0.178050 0.705605 0.215131
Si Si4 0.126820 0.197094 0.909089
Si Si5 0.691151 0.802989 0.041601
Si Si6 0.980551 0.200916 0.422106
Si Si7 0.703725 0.295439 0.756539
Si Si8 0.608772 0.703571 0.672363
O O1 0.943979 0.500000 0.730229
O O2 0.879405 0.758758 0.739930
O O3 0.973524 0.759619 0.802470
O O4 0.975655 0.762145 0.651234
O O5 0.026843 0.500000 0.840924
O O6 0.065017 0.771395 0.891099
O O7 0.071027 0.731632 0.747472
O O8 0.177868 0.500000 0.215799
O O9 0.180687 0.766533 0.127384
O O10 0.233880 0.759926 0.246923
O O11 0.168673 0.261453 0.836390
O O12 0.135647 0.000000 0.911006
O O13 0.144712 0.266342 0.987233
O O14 0.694047 0.000000 0.051125
O O15 0.750000 0.750000 0.000000
O O16 0.921721 0.260671 0.399151
O O17 0.000000 0.269869 0.500000
O O18 0.976339 0.000000 0.430120
O O19 0.703667 0.500000 0.758679
O O20 0.669686 0.245207 0.687051
O O21 0.606937 0.500000 0.674459
#
# Coordination Sequence:
#
# PCOD9172716 Si02
#       8
#     8   8   8   8   8   8   8   8
#     4   9  18  32  50  70  94 123 158 192 230 283
#     4   9  16  27  44  67  90 116 151 196 240 277
#     4   9  17  30  47  67  92 124 157 194 237 286
#     4  10  18  30  47  67  90 121 160 201 240 281
#     4  11  20  31  47  68  95 124 159 203 246 285
#     4   9  17  30  49  73  99 124 151 188 236 285
#     4   8  13  24  44  66  86 113 154 194 227 267
#     4   8  14  25  44  68  91 118 152 190 230 276
#
# _framework density 18.658366999999998
#
# number of rings (size 3 to 8) (size 9 to 14) (size 15 to 20)
#    0.000    2.875    1.250    1.875    0.000    0.750 
#    0.000    1.875    0.000    4.500    0.000    0.000 
#    0.000    0.000    0.000    0.000    0.000    0.000 
#
# Total GULP energy -178173.979357 kJ/mol
# GULP energy per Si atom -5567.936855 kJ/mol
# Density = 1.861590 g / cm^3
# Si number density = 18.658367 Si / 1000 Ang^3
#
#
#
# Elastic Constant Matrix: (Units=GPa)
#
#
# Indices 1 2 3 4 5 6 
#
# 1 131.6981 -5.1211 50.8478 0.0000 29.8477 0.0000
# 2 -5.1211 8.1137 -3.8759 0.0000 0.2254 0.0000
# 3 50.8478 -3.8759 77.5010 0.0000 28.9795 0.0000
# 4 0.0000 0.0000 0.0000 13.9059 0.0000 2.3251
# 5 29.8477 0.2254 28.9795 0.0000 26.6239 0.0000
# 6 0.0000 0.0000 0.0000 2.3251 0.0000 15.0901
#
#
#
# Elastic Compliance Matrix: (Units=1/GPa)
#
#
# Indices 1 2 3 4 5 6 
#
# 1 0.011222 0.005403 -0.003999 0.000000 -0.008275 0.000000
# 2 0.005403 0.131763 0.009657 0.000000 -0.017685 0.000000
# 3 -0.003999 0.009657 0.024223 0.000000 -0.021965 0.000000
# 4 0.000000 0.000000 0.000000 0.073813 0.000000 -0.011373
# 5 -0.008275 -0.017685 -0.021965 0.000000 0.070895 0.000000
# 6 0.000000 0.000000 0.000000 -0.011373 0.000000 0.068021
#
#
# Mechanical properties :
#
#
# Convention : Reuss Voigt Hill
#
# Bulk Modulus (GPa) = 5.28174 33.44604 19.36389
# Shear Modulus (GPa) = 11.87863 22.82146 17.35005
#
# Velocity S-wave (km/s) = 2.52591 3.50111 3.05270
# Velocity P-wave (km/s) = 3.36806 5.85731 4.77765
#
# Compressibility (1/GPa) = 0.18933151
#
# Stress axis : x y z
#
# Youngs Moduli (GPa) = 89.10743 7.58939 41.28367
#
# Poissons Ratio (x) = -0.04101 0.16508
# Poissons Ratio (y) = -0.48145 -0.39870
# Poissons Ratio (z) = 0.35631 -0.07329
#
# Static dielectric constant tensor:
#      x y z
#    x 1.675930 0.000000 0.049480 
#    y 0.000000 1.660400 0.000000 
#    z 0.049480 0.000000 1.640790 
# 
# From -- ./inp_files/291565.got.cif
#   From: 2010.05.17/outbox.cif.g08.bks.cpg/sg12_146_cif.got.tgz:291565.got - 2010.06.03 13:09:07.
