data_PCOD9172264
_publ_section_title
;
Structure prediction by ZEFSAII (Michael W. Deem and Ramdas Pophale) SiO2 
 PCOD9172264
Probable space group: C 2/M
;
_chemical_formula_sum "Si O2"
_cell_formula_units_Z 56
_cell_length_a 24.797691
_cell_length_b 7.824081
_cell_length_c 19.470896
_cell_angle_alpha 90.000000
_cell_angle_beta 143.951527
_cell_angle_gamma 90.000000
_cell_volume 2223.076786
_symmetry_space_group_name_H-M "C 2/M"
_symmetry_group_IT_number 12
_symmetry_cell_setting 'monoclinic'
loop_
_space_group_symop_operation_xyz
x,y,z
-x,y,-z
-x,-y,-z
x,-y,z
1/2+x,1/2+y,z
1/2-x,1/2+y,-z
1/2-x,1/2-y,-z
1/2+x,1/2-y,z
loop_
_atom_site_type_symbol
_atom_site_label
_atom_site_fract_x
_atom_site_fract_y
_atom_site_fract_z
Si Si1 0.817712 0.304761 0.944669
Si Si2 0.295345 0.697132 0.296803
Si Si3 0.977462 0.303062 0.903165
Si Si4 0.860910 0.296254 0.503706
Si Si5 0.597976 0.301077 0.835301
Si Si6 0.943456 0.701554 0.350071
Si Si7 0.598502 0.801919 0.311965
O O1 0.783174 0.500000 0.918774
O O2 0.766591 0.222056 0.826937
O O3 0.922799 0.313880 0.028118
O O4 0.826851 0.220819 0.028326
O O5 0.269563 0.500000 0.274928
O O6 0.292043 0.766099 0.370311
O O7 0.396046 0.716167 0.366854
O O8 0.945328 0.500000 0.883360
O O9 0.912524 0.226199 0.776210
O O10 0.000000 0.220782 0.000000
O O11 0.869966 0.500000 0.521376
O O12 0.845842 0.226569 0.565397
O O13 0.958034 0.230468 0.573371
O O14 0.575477 0.500000 0.806681
O O15 0.619915 0.232263 0.782251
O O16 0.505349 0.204650 0.764175
O O17 0.951854 0.500000 0.372313
O O18 0.624860 0.000000 0.329057
#
# Coordination Sequence:
#
# PCOD9172264 Si02
#       7
#     8   8   8   8   8   8   8
#     4   9  19  34  47  66  98 127 152 188 238 287
#     4  11  22  32  45  66  93 126 161 199 237 273
#     4   8  13  26  53  80  94 112 150 194 229 272
#     4   9  18  32  48  65  90 126 162 194 231 273
#     4  10  18  29  48  71  93 121 158 196 233 277
#     4  10  20  34  50  67  91 124 161 201 239 272
#     4   8  15  29  48  71  98 124 151 189 235 276
#
# _framework density 25.190311999999999
#
# number of rings (size 3 to 8) (size 9 to 14) (size 15 to 20)
#    0.000    2.714    0.000    4.286    0.000    6.286 
#    0.000    0.000    0.000    7.714    0.000    0.000 
#    0.000    0.000    0.000    0.000    0.000    1.286 
#
# Total GULP energy -156206.052792 kJ/mol
# GULP energy per Si atom -5578.787600 kJ/mol
# Density = 2.513298 g / cm^3
# Si number density = 25.190312 Si / 1000 Ang^3
#
#
#
# Elastic Constant Matrix: (Units=GPa)
#
#
# Indices 1 2 3 4 5 6 
#
# 1 83.7941 -1.5751 51.4699 0.0000 -19.1931 0.0000
# 2 -1.5751 46.7946 12.9185 0.0000 -5.1955 0.0000
# 3 51.4699 12.9185 199.5531 0.0000 -74.9041 0.0000
# 4 0.0000 0.0000 0.0000 24.7552 0.0000 -4.6599
# 5 -19.1931 -5.1955 -74.9041 0.0000 59.5393 0.0000
# 6 0.0000 0.0000 0.0000 -4.6599 0.0000 -3.5289
#
#
#
# Elastic Compliance Matrix: (Units=1/GPa)
#
#
# Indices 1 2 3 4 5 6 
#
# 1 0.014287 0.001525 -0.003799 0.000000 -0.000041 0.000000
# 2 0.001525 0.021923 -0.001724 0.000000 0.000236 0.000000
# 3 -0.003799 -0.001724 0.010585 0.000000 0.011942 0.000000
# 4 0.000000 0.000000 0.000000 0.032354 0.000000 -0.042723
# 5 -0.000041 0.000236 0.011942 0.000000 0.031826 0.000000
# 6 0.000000 0.000000 0.000000 -0.042723 0.000000 -0.226961
#
#
# Mechanical properties :
#
#
# Convention : Reuss Voigt Hill
#
# Bulk Modulus (GPa) = 25.77372 50.64096 38.20734
# Shear Modulus (GPa) = -52.60044 33.97502 -9.31271
#
# Velocity S-wave (km/s) = -4.57455 3.67650 -1.92483
# Velocity P-wave (km/s) = 4.20098 6.17812 3.20319
#
# Compressibility (1/GPa) = 0.03879921
#
# Stress axis : x y z
#
# Youngs Moduli (GPa) = 69.99445 45.61325 94.47299
#
# Poissons Ratio (x) = -0.06957 0.35890
# Poissons Ratio (y) = -0.10675 0.16289
# Poissons Ratio (z) = 0.26591 0.07865
#
# Static dielectric constant tensor:
#      x y z
#    x 1.999630 0.000000 0.011480 
#    y 0.000000 1.924530 0.000000 
#    z 0.011480 0.000000 2.151880 
# 
# From -- ./inp_files/280964.got.cif
#   From: 2010.05.17/outbox.cif.g08.bks.cpg/sg12_141_cif.got.tgz:280964.got - 2010.06.03 13:09:07.
