data_PCOD9172461
_publ_section_title
;
Structure prediction by ZEFSAII (Michael W. Deem and Ramdas Pophale) SiO2 
 PCOD9172461
Probable space group: C 2/M
;
_chemical_formula_sum "Si O2"
_cell_formula_units_Z 48
_cell_length_a 12.535202
_cell_length_b 13.943352
_cell_length_c 14.173935
_cell_angle_alpha 90.000000
_cell_angle_beta 72.963093
_cell_angle_gamma 90.000000
_cell_volume 2368.643244
_symmetry_space_group_name_H-M "C 2/M"
_symmetry_group_IT_number 12
_symmetry_cell_setting 'monoclinic'
loop_
_space_group_symop_operation_xyz
x,y,z
-x,y,-z
-x,-y,-z
x,-y,z
1/2+x,1/2+y,z
1/2-x,1/2+y,-z
1/2-x,1/2-y,-z
1/2+x,1/2-y,z
loop_
_atom_site_type_symbol
_atom_site_label
_atom_site_fract_x
_atom_site_fract_y
_atom_site_fract_z
Si Si1 0.896391 0.389229 0.198465
Si Si2 0.585498 0.310802 0.558218
Si Si3 0.376530 0.388558 0.080482
Si Si4 0.816321 0.609109 0.427765
Si Si5 0.496992 0.701150 0.213752
Si Si6 0.726129 0.383957 0.079409
O O1 0.932232 0.500000 0.181839
O O2 0.817236 0.381780 0.312472
O O3 0.994697 0.315310 0.196259
O O4 0.832182 0.363322 0.118015
O O5 0.500000 0.336168 0.500000
O O6 0.697727 0.367732 0.505064
O O7 0.608642 0.196022 0.553394
O O8 0.535311 0.329428 0.673467
O O9 0.354844 0.500000 0.105552
O O10 0.396460 0.334790 0.172388
O O11 0.500000 0.382194 0.000000
O O12 0.286016 0.353428 0.027331
O O13 0.851823 0.500000 0.439280
O O14 0.615245 0.657188 0.156467
O O15 0.716386 0.500000 0.080546
#
# Coordination Sequence:
#
# PCOD9172461 Si02
#       6
#     8   8   8   8   8   8
#     4   9  18  32  49  69  94 125 157 186 224 277
#     4  10  20  32  48  71  94 120 158 195 228 272
#     4   8  15  28  46  70  96 119 148 189 233 274
#     4   9  19  34  48  67  97 125 151 190 234 273
#     4  10  18  29  50  71  93 122 155 193 231 269
#     4   9  17  31  51  72  94 121 153 189 230 277
#
# _framework density 20.264766000000002
#
# number of rings (size 3 to 8) (size 9 to 14) (size 15 to 20)
#    0.000    2.833    0.000    2.500    0.000    2.667 
#    0.000    0.000    0.000    6.500    0.000    0.000 
#    0.000    0.000    0.000    0.000    0.000    0.000 
#
# Total GULP energy -133781.695773 kJ/mol
# GULP energy per Si atom -5574.237324 kJ/mol
# Density = 2.021864 g / cm^3
# Si number density = 20.264766 Si / 1000 Ang^3
#
#
#
# Elastic Constant Matrix: (Units=GPa)
#
#
# Indices 1 2 3 4 5 6 
#
# 1 14.5646 -12.5273 8.7559 0.0000 8.4721 0.0000
# 2 -12.5273 30.9761 8.3203 0.0000 10.1895 0.0000
# 3 8.7559 8.3203 78.4621 0.0000 21.4379 0.0000
# 4 0.0000 0.0000 0.0000 25.8186 0.0000 7.3038
# 5 8.4721 10.1895 21.4379 0.0000 15.2015 0.0000
# 6 0.0000 0.0000 0.0000 7.3038 0.0000 13.7246
#
#
#
# Elastic Compliance Matrix: (Units=1/GPa)
#
#
# Indices 1 2 3 4 5 6 
#
# 1 -0.193378 -0.153847 -0.032096 0.000000 0.256160 0.000000
# 2 -0.153847 -0.079639 -0.020171 0.000000 0.167571 0.000000
# 3 -0.032096 -0.020171 0.016080 0.000000 0.008731 0.000000
# 4 0.000000 0.000000 0.000000 0.045596 0.000000 -0.024265
# 5 0.256160 0.167571 0.008731 0.000000 -0.201615 0.000000
# 6 0.000000 0.000000 0.000000 -0.024265 0.000000 0.085775
#
#
# Mechanical properties :
#
#
# Convention : Reuss Voigt Hill
#
# Bulk Modulus (GPa) = -1.49440 14.78897 6.64728
# Shear Modulus (GPa) = -36.22958 18.91251 -8.65853
#
# Velocity S-wave (km/s) = -4.23284 3.05826 -2.06929
# Velocity P-wave (km/s) = 4.96269 4.44796 1.55627
#
# Compressibility (1/GPa) = -0.66916497
#
# Stress axis : x y z
#
# Youngs Moduli (GPa) = -5.17121 -12.55665 62.18878
#
# Poissons Ratio (x) = -1.93181 1.99598
# Poissons Ratio (y) = -0.79558 1.25443
# Poissons Ratio (z) = -0.16597 -0.25328
#
# Static dielectric constant tensor:
#      x y z
#    x 1.692630 0.000000 0.020850 
#    y 0.000000 1.752810 0.000000 
#    z 0.020850 0.000000 1.724280 
# 
# From -- ./inp_files/142877.got.cif
#   From: 2010.05.17/outbox.cif.g08.bks.cpg/sg12_72_cif.got.tgz:142877.got - 2010.06.03 13:09:07.
