data_PCOD9172651
_publ_section_title
;
Structure prediction by ZEFSAII (Michael W. Deem and Ramdas Pophale) SiO2 
 PCOD9172651
Probable space group: C 2/M
;
_chemical_formula_sum "Si O2"
_cell_formula_units_Z 64
_cell_length_a 28.718555
_cell_length_b 8.934023
_cell_length_c 23.023619
_cell_angle_alpha 90.000000
_cell_angle_beta 46.791746
_cell_angle_gamma 90.000000
_cell_volume 4305.596408
_symmetry_space_group_name_H-M "C 2/M"
_symmetry_group_IT_number 12
_symmetry_cell_setting 'monoclinic'
loop_
_space_group_symop_operation_xyz
x,y,z
-x,y,-z
-x,-y,-z
x,-y,z
1/2+x,1/2+y,z
1/2-x,1/2+y,-z
1/2-x,1/2-y,-z
1/2+x,1/2-y,z
loop_
_atom_site_type_symbol
_atom_site_label
_atom_site_fract_x
_atom_site_fract_y
_atom_site_fract_z
Si Si1 0.876426 0.819130 0.235766
Si Si2 0.146723 0.679698 0.981444
Si Si3 0.723142 0.320784 0.081908
Si Si4 0.074977 0.820388 0.934279
Si Si5 0.151282 0.829065 0.562642
Si Si6 0.954796 0.321833 0.274784
Si Si7 0.245067 0.171895 0.595219
Si Si8 0.092279 0.819785 0.147349
O O1 0.897151 0.783592 0.152922
O O2 0.922463 0.742218 0.243443
O O3 0.803289 0.776029 0.313236
O O4 0.880884 0.000000 0.240219
O O5 0.140223 0.500000 0.991803
O O6 0.114918 0.755506 0.065476
O O7 0.222746 0.718661 0.917259
O O8 0.112311 0.738869 0.953666
O O9 0.724651 0.500000 0.075256
O O10 0.648443 0.279622 0.145609
O O11 0.750000 0.250000 0.000000
O O12 0.080354 0.000000 0.937915
O O13 0.000000 0.782082 0.000000
O O14 0.091709 0.729580 0.633301
O O15 0.199346 0.827046 0.577140
O O16 0.193243 0.767843 0.473606
O O17 0.131310 0.000000 0.570655
O O18 0.958177 0.500000 0.268822
O O19 0.024586 0.250714 0.220719
O O20 0.263869 0.000000 0.589665
O O21 0.087094 0.000000 0.147883
#
# Coordination Sequence:
#
# PCOD9172651 Si02
#       8
#     8   8   8   8   8   8   8   8
#     4   9  18  31  44  59  83 116 151 181 211 250
#     4  10  19  31  46  65  86 108 141 182 218 248
#     4   8  16  29  45  63  82 106 136 172 212 254
#     4  10  20  32  45  61  84 117 152 180 209 247
#     4   9  16  26  40  58  81 110 140 169 207 255
#     4  11  20  28  41  63  89 113 140 175 213 251
#     4   8  14  25  40  57  78 106 141 179 211 241
#     4  10  18  30  46  62  84 114 143 170 209 258
#
# _framework density 14.864376
#
# number of rings (size 3 to 8) (size 9 to 14) (size 15 to 20)
#    0.000    2.625    0.000    3.750    0.000    5.750 
#    0.000    0.000    0.000    0.000    0.000    0.000 
#    0.000    1.000    0.000   11.500    0.000    3.750 
#
# Total GULP energy -178198.626168 kJ/mol
# GULP energy per Si atom -5568.707068 kJ/mol
# Density = 1.483054 g / cm^3
# Si number density = 14.864376 Si / 1000 Ang^3
#
#
#
# Elastic Constant Matrix: (Units=GPa)
#
#
# Indices 1 2 3 4 5 6 
#
# 1 96.5826 42.1889 51.5353 0.0006 -18.5704 -0.0005
# 2 42.1889 56.2159 41.0158 -0.0022 -12.1634 0.0023
# 3 51.5353 41.0158 108.3235 0.0008 -17.2244 -0.0001
# 4 0.0006 -0.0022 0.0008 20.6087 -0.0007 0.1168
# 5 -18.5704 -12.1634 -17.2244 -0.0007 18.2459 0.0013
# 6 -0.0005 0.0023 -0.0001 0.1168 0.0013 4.4679
#
#
#
# Elastic Compliance Matrix: (Units=1/GPa)
#
#
# Indices 1 2 3 4 5 6 
#
# 1 0.017897 -0.008756 -0.003802 -0.000001 0.008789 0.000004
# 2 -0.008756 0.030168 -0.006444 0.000004 0.005117 -0.000019
# 3 -0.003802 -0.006444 0.014333 -0.000001 0.005366 0.000002
# 4 -0.000001 0.000004 -0.000001 0.048531 0.000003 -0.001269
# 5 0.008789 0.005117 0.005366 0.000003 0.072229 -0.000023
# 6 0.000004 -0.000019 0.000002 -0.001269 -0.000023 0.223854
#
#
# Mechanical properties :
#
#
# Convention : Reuss Voigt Hill
#
# Bulk Modulus (GPa) = 40.98999 58.95578 49.97289
# Shear Modulus (GPa) = 11.03397 17.08996 14.06197
#
# Velocity S-wave (km/s) = 2.72749 3.39444 3.07908
# Velocity P-wave (km/s) = 6.12820 7.42371 6.80685
#
# Compressibility (1/GPa) = 0.02439620
#
# Stress axis : x y z
#
# Youngs Moduli (GPa) = 55.87516 33.14755 69.76740
#
# Poissons Ratio (x) = 0.29024 0.26523
# Poissons Ratio (y) = 0.48923 0.44956
# Poissons Ratio (z) = 0.21242 0.21359
#
# Static dielectric constant tensor:
#      x y z
#    x 1.489080 0.000000 -0.023050 
#    y 0.000000 1.504040 0.000000 
#    z -0.023050 0.000000 1.495780 
# 
# From -- ./inp_files/326886.got.cif
#   From: 2010.05.17/outbox.cif.g08.bks.cpg/sg12_164_cif.got.tgz:326886.got - 2010.06.03 13:09:07.
