data_PCOD9172384
_publ_section_title
;
Structure prediction by ZEFSAII (Michael W. Deem and Ramdas Pophale) SiO2 
 PCOD9172384
Probable space group: C 2/M
;
_chemical_formula_sum "Si O2"
_cell_formula_units_Z 64
_cell_length_a 31.112292
_cell_length_b 8.301360
_cell_length_c 19.727138
_cell_angle_alpha 90.000000
_cell_angle_beta 130.398073
_cell_angle_gamma 90.000000
_cell_volume 3880.158997
_symmetry_space_group_name_H-M "C 2/M"
_symmetry_group_IT_number 12
_symmetry_cell_setting 'monoclinic'
loop_
_space_group_symop_operation_xyz
x,y,z
-x,y,-z
-x,-y,-z
x,-y,z
1/2+x,1/2+y,z
1/2-x,1/2+y,-z
1/2-x,1/2-y,-z
1/2+x,1/2-y,z
loop_
_atom_site_type_symbol
_atom_site_label
_atom_site_fract_x
_atom_site_fract_y
_atom_site_fract_z
Si Si1 0.417169 0.690660 0.383211
Si Si2 0.909704 0.305292 0.929778
Si Si3 0.681953 0.313775 0.066631
Si Si4 0.001473 0.696881 0.747084
Si Si5 0.977806 0.695908 0.871978
Si Si6 0.132432 0.310691 0.878049
Si Si7 0.030927 0.690393 0.431569
Si Si8 0.806668 0.189818 0.190930
O O1 0.423550 0.500000 0.376772
O O2 0.427794 0.724265 0.473173
O O3 0.467588 0.779696 0.395128
O O4 0.356742 0.742015 0.292778
O O5 0.905466 0.500000 0.926105
O O6 0.853239 0.232968 0.902771
O O7 0.929249 0.252816 0.874746
O O8 0.961946 0.261114 0.032858
O O9 0.672556 0.500000 0.041032
O O10 0.748012 0.279393 0.141388
O O11 0.657502 0.213482 0.978355
O O12 0.001365 0.500000 0.747096
O O13 0.067317 0.745102 0.810367
O O14 0.976129 0.751704 0.792849
O O15 0.969489 0.748527 0.646386
O O16 0.976524 0.500000 0.870049
O O17 0.133266 0.500000 0.861846
O O18 0.169507 0.220337 0.860131
O O19 0.042228 0.500000 0.444895
O O20 0.796748 0.000000 0.190277
#
# Coordination Sequence:
#
# PCOD9172384 Si02
#       8
#     8   8   8   8   8   8   8   8
#     4  10  20  33  48  68  95 126 161 203 244 284
#     4   9  16  30  52  72  93 127 165 201 238 281
#     4  12  24  35  48  69  99 132 168 204 244 286
#     4   9  16  27  48  76 100 127 160 196 233 283
#     4   8  14  27  50  75  96 123 162 199 237 285
#     4  11  20  34  52  70  99 132 168 203 234 280
#     4  10  18  29  49  73  98 127 160 195 239 289
#     4  11  23  37  51  68  94 130 172 207 243 287
#
# _framework density 16.494168999999999
#
# number of rings (size 3 to 8) (size 9 to 14) (size 15 to 20)
#    0.000    2.000    2.500    4.500    0.000    1.500 
#    0.000    1.250    0.000    0.000    0.000    0.875 
#    0.000    0.000    0.000    0.000    0.000    0.000 
#
# Total GULP energy -178550.394860 kJ/mol
# GULP energy per Si atom -5579.699839 kJ/mol
# Density = 1.645663 g / cm^3
# Si number density = 16.494169 Si / 1000 Ang^3
#
#
#
# Elastic Constant Matrix: (Units=GPa)
#
#
# Indices 1 2 3 4 5 6 
#
# 1 109.2509 -2.9542 41.0496 0.0000 -15.5248 0.0000
# 2 -2.9542 13.4268 -5.0571 0.0000 1.2623 0.0000
# 3 41.0496 -5.0571 54.4691 0.0000 -12.1718 0.0000
# 4 0.0000 0.0000 0.0000 16.4259 0.0000 0.3818
# 5 -15.5248 1.2623 -12.1718 0.0000 25.1129 0.0000
# 6 0.0000 0.0000 0.0000 0.3818 0.0000 17.6143
#
#
#
# Elastic Compliance Matrix: (Units=1/GPa)
#
#
# Indices 1 2 3 4 5 6 
#
# 1 0.013080 -0.000903 -0.009111 0.000000 0.003716 0.000000
# 2 -0.000903 0.077244 0.007693 0.000000 -0.000712 0.000000
# 3 -0.009111 0.007693 0.027582 0.000000 0.007349 0.000000
# 4 0.000000 0.000000 0.000000 0.060910 0.000000 -0.001320
# 5 0.003716 -0.000712 0.007349 0.000000 0.045715 0.000000
# 6 0.000000 0.000000 0.000000 -0.001320 0.000000 0.056801
#
#
# Mechanical properties :
#
#
# Convention : Reuss Voigt Hill
#
# Bulk Modulus (GPa) = 8.82897 27.02481 17.92689
# Shear Modulus (GPa) = 15.44503 21.43787 18.44145
#
# Velocity S-wave (km/s) = 3.06337 3.60908 3.34737
# Velocity P-wave (km/s) = 4.22809 5.81269 5.08252
#
# Compressibility (1/GPa) = 0.11326347
#
# Stress axis : x y z
#
# Youngs Moduli (GPa) = 76.45130 12.94602 36.25552
#
# Poissons Ratio (x) = 0.01169 0.33033
# Poissons Ratio (y) = 0.06903 -0.27891
# Poissons Ratio (z) = 0.69656 -0.09959
#
# Static dielectric constant tensor:
#      x y z
#    x 1.548990 0.000000 -0.021750 
#    y 0.000000 1.564990 0.000000 
#    z -0.021750 0.000000 1.552570 
# 
# From -- ./inp_files/326945.got.cif
#   From: 2010.05.17/outbox.cif.g08.bks.cpg/sg12_164_cif.got.tgz:326945.got - 2010.06.03 13:09:07.
