data_PCOD9172594
_publ_section_title
;
Structure prediction by ZEFSAII (Michael W. Deem and Ramdas Pophale) SiO2 
 PCOD9172594
Probable space group: C 2/M
;
_chemical_formula_sum "Si O2"
_cell_formula_units_Z 64
_cell_length_a 9.134424
_cell_length_b 28.235793
_cell_length_c 12.901854
_cell_angle_alpha 90.000000
_cell_angle_beta 78.604245
_cell_angle_gamma 90.000000
_cell_volume 3262.015332
_symmetry_space_group_name_H-M "C 2/M"
_symmetry_group_IT_number 12
_symmetry_cell_setting 'monoclinic'
loop_
_space_group_symop_operation_xyz
x,y,z
-x,y,-z
-x,-y,-z
x,-y,z
1/2+x,1/2+y,z
1/2-x,1/2+y,-z
1/2-x,1/2-y,-z
1/2+x,1/2-y,z
loop_
_atom_site_type_symbol
_atom_site_label
_atom_site_fract_x
_atom_site_fract_y
_atom_site_fract_z
Si Si1 0.162585 0.307887 0.511197
Si Si2 0.686244 0.227542 0.155095
Si Si3 0.284514 0.054003 0.606293
Si Si4 0.432949 0.362594 0.393066
Si Si5 0.602168 0.911355 0.623049
Si Si6 0.378906 0.773960 0.276925
Si Si7 0.660642 0.674023 0.030081
Si Si8 0.229367 0.867244 0.224025
O O1 0.300412 0.323855 0.420418
O O2 0.119578 0.358673 0.571907
O O3 0.207490 0.275358 0.602446
O O4 0.000000 0.289768 0.500000
O O5 0.555704 0.224822 0.257324
O O6 0.832655 0.233842 0.203580
O O7 0.658517 0.275277 0.091861
O O8 0.713098 0.183978 0.074587
O O9 0.146154 0.089465 0.634345
O O10 0.327294 0.056442 0.477520
O O11 0.428426 0.074309 0.648358
O O12 0.255256 0.000000 0.639674
O O13 0.500000 0.367759 0.500000
O O14 0.572751 0.353142 0.300144
O O15 0.693270 0.908636 0.718179
O O16 0.336905 0.822537 0.225347
O O17 0.699933 0.632609 0.105679
O O18 0.500000 0.666719 0.000000
#
# Coordination Sequence:
#
# PCOD9172594 Si02
#       8
#     8   8   8   8   8   8   8   8
#     4  10  18  33  53  72 101 153 187 213 257 315
#     4  10  20  36  56  74 102 131 168 240 295 333
#     4  10  18  29  53  81 115 153 174 202 252 305
#     4  11  18  34  53  76 117 147 179 216 247 308
#     4   9  15  32  47  74 111 141 181 213 239 305
#     4  10  20  35  55  74  99 138 182 220 291 324
#     4  10  20  36  57  79 102 132 177 232 300 326
#     4  10  21  33  55  77 103 150 179 221 270 313
#
# _framework density 19.619772999999999
#
# number of rings (size 3 to 8) (size 9 to 14) (size 15 to 20)
#    0.000    2.000    7.500    0.750    0.000    1.250 
#    0.000    0.625    0.000    0.000    0.000    0.000 
#    0.000    5.500    0.000    0.000    0.000    0.000 
#
# Total GULP energy -178295.376189 kJ/mol
# GULP energy per Si atom -5571.730506 kJ/mol
# Density = 1.957512 g / cm^3
# Si number density = 19.619773 Si / 1000 Ang^3
#
#
#
# Elastic Constant Matrix: (Units=GPa)
#
#
# Indices 1 2 3 4 5 6 
#
# 1 104.3782 19.9408 26.5212 0.0000 9.1841 0.0000
# 2 19.9408 63.5460 6.6345 0.0000 6.1540 0.0000
# 3 26.5212 6.6345 78.3089 0.0000 9.8521 0.0000
# 4 0.0000 0.0000 0.0000 14.9341 0.0000 1.3689
# 5 9.1841 6.1540 9.8521 0.0000 34.0748 0.0000
# 6 0.0000 0.0000 0.0000 1.3689 0.0000 6.1449
#
#
#
# Elastic Compliance Matrix: (Units=1/GPa)
#
#
# Indices 1 2 3 4 5 6 
#
# 1 0.011131 -0.003001 -0.003327 0.000000 -0.001496 0.000000
# 2 -0.003001 0.016906 -0.000139 0.000000 -0.002204 0.000000
# 3 -0.003327 -0.000139 0.014313 0.000000 -0.003217 0.000000
# 4 0.000000 0.000000 0.000000 0.068357 0.000000 -0.015228
# 5 -0.001496 -0.002204 -0.003217 0.000000 0.031079 0.000000
# 6 0.000000 0.000000 0.000000 -0.015228 0.000000 0.166129
#
#
# Mechanical properties :
#
#
# Convention : Reuss Voigt Hill
#
# Bulk Modulus (GPa) = 33.99394 39.15845 36.57619
# Shear Modulus (GPa) = 15.12157 23.90653 19.51405
#
# Velocity S-wave (km/s) = 2.77922 3.49448 3.15717
# Velocity P-wave (km/s) = 5.25953 6.02361 5.65449
#
# Compressibility (1/GPa) = 0.02941701
#
# Stress axis : x y z
#
# Youngs Moduli (GPa) = 89.84035 59.14991 69.86537
#
# Poissons Ratio (x) = 0.17749 0.23246
# Poissons Ratio (y) = 0.26958 0.00969
# Poissons Ratio (z) = 0.29892 0.00821
#
# Static dielectric constant tensor:
#      x y z
#    x 1.718510 0.000000 0.037840 
#    y 0.000000 1.702320 0.000000 
#    z 0.037840 0.000000 1.738930 
# 
# From -- ./inp_files/200586.got.cif
#   From: 2010.05.17/outbox.cif.g08.bks.cpg/sg12_101_cif.got.tgz:200586.got - 2010.06.03 13:09:07.
