data_PCOD9172685
_publ_section_title
;
Structure prediction by ZEFSAII (Michael W. Deem and Ramdas Pophale) SiO2 
 PCOD9172685
Probable space group: C 2/M
;
_chemical_formula_sum "Si O2"
_cell_formula_units_Z 56
_cell_length_a 14.305635
_cell_length_b 28.256984
_cell_length_c 13.772614
_cell_angle_alpha 90.000000
_cell_angle_beta 139.282447
_cell_angle_gamma 90.000000
_cell_volume 3631.759616
_symmetry_space_group_name_H-M "C 2/M"
_symmetry_group_IT_number 12
_symmetry_cell_setting 'monoclinic'
loop_
_space_group_symop_operation_xyz
x,y,z
-x,y,-z
-x,-y,-z
x,-y,z
1/2+x,1/2+y,z
1/2-x,1/2+y,-z
1/2-x,1/2-y,-z
1/2+x,1/2-y,z
loop_
_atom_site_type_symbol
_atom_site_label
_atom_site_fract_x
_atom_site_fract_y
_atom_site_fract_z
Si Si1 0.603888 0.090101 0.231201
Si Si2 0.287254 0.500000 0.413323
Si Si3 0.142701 0.190515 0.830700
Si Si4 0.116431 0.305656 0.312745
Si Si5 0.594446 0.746600 0.981575
Si Si6 0.416900 0.741084 0.533083
Si Si7 0.286956 0.090617 0.905447
Si Si8 0.394349 0.500000 0.273134
O O1 0.687744 0.046262 0.344675
O O2 0.628896 0.138545 0.309002
O O3 0.666819 0.095460 0.171379
O O4 0.433706 0.082410 0.080908
O O5 0.343623 0.500000 0.346082
O O6 0.432879 0.500000 0.591017
O O7 0.117158 0.204696 0.922527
O O8 0.209317 0.139112 0.872738
O O9 0.998666 0.199699 0.657153
O O10 0.253694 0.229585 0.875670
O O11 0.258428 0.278336 0.389619
O O12 0.089190 0.285995 0.399524
O O13 0.989055 0.287349 0.143898
O O14 0.500000 0.733964 0.000000
O O15 0.500000 0.750982 0.500000
O O16 0.178619 0.046686 0.828766
#
# Coordination Sequence:
#
# PCOD9172685 Si02
#       8
#     8   4   8   8   8   8   8   4
#     4  10  18  30  47  65  93 124 153 189 230 278
#     4   9  19  31  45  67  90 121 154 187 232 279
#     4  10  20  29  48  71  92 127 163 188 231 279
#     4  10  20  31  46  69  94 127 163 189 229 281
#     4  10  18  32  47  68  98 125 156 196 229 272
#     4  10  20  32  45  66  98 129 158 196 231 267
#     4  10  18  30  46  67  93 122 153 190 231 276
#     4   9  19  31  45  67  92 117 154 191 230 281
#
# _framework density 15.419522000000001
#
# number of rings (size 3 to 8) (size 9 to 14) (size 15 to 20)
#    0.000    2.143    1.429    3.000    2.000    1.714 
#    0.000    0.000    0.000    0.000    0.000    1.000 
#    0.000    0.000    0.000    0.000    0.000    0.000 
#
# Total GULP energy -156130.745020 kJ/mol
# GULP energy per Si atom -5576.098036 kJ/mol
# Density = 1.538443 g / cm^3
# Si number density = 15.419522 Si / 1000 Ang^3
#
#
#
# Elastic Constant Matrix: (Units=GPa)
#
#
# Indices 1 2 3 4 5 6 
#
# 1 81.4287 42.6638 14.9240 0.0000 -3.6116 0.0000
# 2 42.6638 120.8003 42.0339 0.0000 4.7369 0.0000
# 3 14.9240 42.0339 50.8576 0.0000 6.4726 0.0000
# 4 0.0000 0.0000 0.0000 15.6081 0.0000 6.6674
# 5 -3.6116 4.7369 6.4726 0.0000 15.4272 0.0000
# 6 0.0000 0.0000 0.0000 6.6674 0.0000 23.8819
#
#
#
# Elastic Compliance Matrix: (Units=1/GPa)
#
#
# Indices 1 2 3 4 5 6 
#
# 1 0.015518 -0.005429 -0.000783 0.000000 0.005628 0.000000
# 2 -0.005429 0.013523 -0.009395 0.000000 -0.001481 0.000000
# 3 -0.000783 -0.009395 0.028854 0.000000 -0.009405 0.000000
# 4 0.000000 0.000000 0.000000 0.072745 0.000000 -0.020309
# 5 0.005628 -0.001481 -0.009405 0.000000 0.070539 0.000000
# 6 0.000000 0.000000 0.000000 -0.020309 0.000000 0.047543
#
#
# Mechanical properties :
#
#
# Convention : Reuss Voigt Hill
#
# Bulk Modulus (GPa) = 37.47915 50.25890 43.86902
# Shear Modulus (GPa) = 17.31126 21.21443 19.26285
#
# Velocity S-wave (km/s) = 3.35428 3.71322 3.53831
# Velocity P-wave (km/s) = 6.27381 7.14487 6.72346
#
# Compressibility (1/GPa) = 0.02668150
#
# Stress axis : x y z
#
# Youngs Moduli (GPa) = 64.44027 73.95020 34.65679
#
# Poissons Ratio (x) = 0.40147 0.02714
# Poissons Ratio (y) = 0.34984 0.32560
# Poissons Ratio (z) = 0.05046 0.69475
#
# Static dielectric constant tensor:
#      x y z
#    x 1.504310 0.000000 0.012350 
#    y 0.000000 1.490940 0.000000 
#    z 0.012350 0.000000 1.523790 
# 
# From -- ./inp_files/65805.got.cif
#   From: 2010.05.17/outbox.cif.g08.bks.cpg/sg12_33_cif.got.tgz:65805.got - 2010.06.03 13:09:07.
