data_PCOD9172347
_publ_section_title
;
Structure prediction by ZEFSAII (Michael W. Deem and Ramdas Pophale) SiO2 
 PCOD9172347
Probable space group: C 2/M
;
_chemical_formula_sum "Si O2"
_cell_formula_units_Z 50
_cell_length_a 9.680036
_cell_length_b 28.590402
_cell_length_c 17.402939
_cell_angle_alpha 90.000000
_cell_angle_beta 27.185447
_cell_angle_gamma 90.000000
_cell_volume 2200.464554
_symmetry_space_group_name_H-M "C 2/M"
_symmetry_group_IT_number 12
_symmetry_cell_setting 'monoclinic'
loop_
_space_group_symop_operation_xyz
x,y,z
-x,y,-z
-x,-y,-z
x,-y,z
1/2+x,1/2+y,z
1/2-x,1/2+y,-z
1/2-x,1/2-y,-z
1/2+x,1/2-y,z
loop_
_atom_site_type_symbol
_atom_site_label
_atom_site_fract_x
_atom_site_fract_y
_atom_site_fract_z
Si Si1 0.040562 0.448229 0.805546
Si Si2 0.136860 0.888954 0.241570
Si Si3 0.506445 0.288975 0.717575
Si Si4 0.368283 0.201139 0.690848
Si Si5 0.928134 0.398607 0.362526
Si Si6 0.291069 0.550736 0.300033
Si Si7 0.500000 0.500000 0.000000
O O1 0.195181 0.500000 0.730262
O O2 0.101441 0.421450 0.854262
O O3 0.151824 0.414038 0.683022
O O4 0.701724 0.460298 0.947691
O O5 0.193468 0.834140 0.204468
O O6 0.865072 0.894537 0.438231
O O7 0.998947 0.909006 0.231094
O O8 0.364942 0.240953 0.757442
O O9 0.607167 0.291588 0.756603
O O10 0.819153 0.294103 0.513358
O O11 0.391702 0.149957 0.717023
O O12 0.135146 0.439361 0.296285
O O13 0.440623 0.500000 0.229165
O O14 0.000000 0.549704 0.500000
#
# Coordination Sequence:
#
# PCOD9172347 Si02
#       7
#     8   8   8   8   8   8   2
#     4  10  21  36  53  68  97 131 175 211 254 306
#     4  10  18  29  48  77 105 132 165 203 246 295
#     4   9  17  28  42  67 109 147 167 189 230 294
#     4   9  17  28  42  67 109 147 167 189 230 294
#     4  10  18  29  48  77 105 132 165 203 246 295
#     4   9  16  26  41  66 103 132 150 189 249 295
#     4   8  24  44  50  66  96 132 176 212 272 304
#
# _framework density 22.722476
#
# number of rings (size 3 to 8) (size 9 to 14) (size 15 to 20)
#    0.480    2.080    1.600    1.440    2.240    2.560 
#    0.000    0.000    0.000    1.920    0.000    1.120 
#    0.000    0.000    0.000    0.000    0.000    0.000 
#
# Total GULP energy -139295.459507 kJ/mol
# GULP energy per Si atom -5571.818380 kJ/mol
# Density = 2.267076 g / cm^3
# Si number density = 22.722476 Si / 1000 Ang^3
#
#
#
# Elastic Constant Matrix: (Units=GPa)
#
#
# Indices 1 2 3 4 5 6 
#
# 1 119.1824 40.4733 -0.1191 0.0000 -13.0788 0.0000
# 2 40.4733 132.2338 1.7475 0.0000 -10.7746 0.0000
# 3 -0.1191 1.7475 54.3229 0.0000 1.4272 0.0001
# 4 0.0000 0.0000 0.0000 -12.3120 0.0000 -6.2706
# 5 -13.0788 -10.7746 1.4272 0.0000 19.9782 0.0000
# 6 0.0000 0.0000 0.0001 -6.2706 0.0000 35.3486
#
#
#
# Elastic Compliance Matrix: (Units=1/GPa)
#
#
# Indices 1 2 3 4 5 6 
#
# 1 0.009825 -0.002597 -0.000027 0.000000 0.005033 0.000000
# 2 -0.002597 0.008604 -0.000360 0.000000 0.002966 0.000000
# 3 -0.000027 -0.000360 0.018460 0.000000 -0.001531 0.000000
# 4 0.000000 0.000000 0.000000 -0.074492 0.000000 -0.013214
# 5 0.005033 0.002966 -0.001531 0.000000 0.055059 0.000000
# 6 0.000000 0.000000 0.000000 -0.013214 0.000000 0.025946
#
#
# Mechanical properties :
#
#
# Convention : Reuss Voigt Hill
#
# Bulk Modulus (GPa) = 32.34144 43.32693 37.83418
# Shear Modulus (GPa) = 83.78608 26.17878 54.98243
#
# Velocity S-wave (km/s) = 6.07896 3.39796 4.92442
# Velocity P-wave (km/s) = 7.97093 5.87402 7.00142
#
# Compressibility (1/GPa) = 0.03092008
#
# Stress axis : x y z
#
# Youngs Moduli (GPa) = 101.78539 116.23130 54.17062
#
# Poissons Ratio (x) = 0.30180 0.00147
# Poissons Ratio (y) = 0.26429 0.01952
# Poissons Ratio (z) = 0.00276 0.04189
#
# Static dielectric constant tensor:
#      x y z
#    x 2.482500 0.000000 1.071940 
#    y 0.000000 1.798480 0.000000 
#    z 1.071940 0.000000 3.534940 
# 
# From -- ./inp_files/260014.got.cif
#   From: 2010.05.17/outbox.cif.g08.bks.cpg/sg12_131_cif.got.tgz:260014.got - 2010.06.03 13:09:07.
