data_PCOD9172865
_publ_section_title
;
Structure prediction by ZEFSAII (Michael W. Deem and Ramdas Pophale) SiO2 
 PCOD9172865
Probable space group: C 2/M
;
_chemical_formula_sum "Si O2"
_cell_formula_units_Z 44
_cell_length_a 13.427331
_cell_length_b 24.142804
_cell_length_c 6.630110
_cell_angle_alpha 90.000000
_cell_angle_beta 82.194432
_cell_angle_gamma 90.000000
_cell_volume 2129.391364
_symmetry_space_group_name_H-M "C 2/M"
_symmetry_group_IT_number 12
_symmetry_cell_setting 'monoclinic'
loop_
_space_group_symop_operation_xyz
x,y,z
-x,y,-z
-x,-y,-z
x,-y,z
1/2+x,1/2+y,z
1/2-x,1/2+y,-z
1/2-x,1/2-y,-z
1/2+x,1/2-y,z
loop_
_atom_site_type_symbol
_atom_site_label
_atom_site_fract_x
_atom_site_fract_y
_atom_site_fract_z
Si Si1 0.832553 0.625665 0.511998
Si Si2 0.402246 0.231905 0.929633
Si Si3 0.704824 0.661832 0.911800
Si Si4 0.764593 0.937590 0.837297
Si Si5 0.931471 0.438999 0.841360
Si Si6 0.000000 0.711633 0.500000
O O1 0.738470 0.645348 0.676738
O O2 0.787063 0.588168 0.348014
O O3 0.905296 0.592851 0.646598
O O4 0.908502 0.674912 0.427658
O O5 0.309034 0.189847 0.963648
O O6 0.437825 0.243121 0.690047
O O7 0.500000 0.206480 0.000000
O O8 0.372998 0.288205 0.050222
O O9 0.673032 0.610785 0.065083
O O10 0.806634 0.000000 0.790073
O O11 0.675487 0.944349 0.022373
O O12 0.974346 0.500000 0.782898
O O13 0.000000 0.414721 0.000000
#
# Coordination Sequence:
#
# PCOD9172865 Si02
#       6
#     8   8   8   8   8   4
#     4  10  18  30  48  73 103 139 172 207 257 312
#     4  10  20  37  57  78 106 139 173 219 270 314
#     4   9  21  36  53  80 109 136 175 219 263 315
#     4  10  19  31  49  72 103 140 175 213 255 306
#     4   9  17  27  40  64 100 138 174 208 242 294
#     4  10  20  30  51  78 101 132 174 214 256 316
#
# _framework density 20.663180000000001
#
# number of rings (size 3 to 8) (size 9 to 14) (size 15 to 20)
#    0.000    2.364    0.000    2.727    0.000    7.273 
#    0.000    9.091    0.000    1.636    0.000    1.909 
#    0.000    0.000    0.000    0.000    0.000    0.000 
#
# Total GULP energy -122517.645452 kJ/mol
# GULP energy per Si atom -5568.983884 kJ/mol
# Density = 2.061615 g / cm^3
# Si number density = 20.663180 Si / 1000 Ang^3
#
#
#
# Elastic Constant Matrix: (Units=GPa)
#
#
# Indices 1 2 3 4 5 6 
#
# 1 19.9400 7.0439 2.8514 0.0000 -7.5907 0.0000
# 2 7.0439 101.6477 31.0319 0.0000 -16.0235 0.0000
# 3 2.8514 31.0319 91.3368 0.0000 -17.7740 0.0000
# 4 0.0000 0.0000 0.0000 -58.8734 0.0000 25.4682
# 5 -7.5907 -16.0235 -17.7740 0.0000 15.7663 0.0000
# 6 0.0000 0.0000 0.0000 25.4682 0.0000 -2.4743
#
#
#
# Elastic Compliance Matrix: (Units=1/GPa)
#
#
# Indices 1 2 3 4 5 6 
#
# 1 0.063182 -0.000279 0.005107 0.000000 0.035893 0.000000
# 2 -0.000279 0.012049 -0.002214 0.000000 0.009615 0.000000
# 3 0.005107 -0.002214 0.014837 0.000000 0.016935 0.000000
# 4 0.000000 0.000000 0.000000 0.004920 0.000000 0.050637
# 5 0.035893 0.009615 0.016935 0.000000 0.109570 0.000000
# 6 0.000000 0.000000 0.000000 0.050637 0.000000 0.117055
#
#
# Mechanical properties :
#
#
# Convention : Reuss Voigt Hill
#
# Bulk Modulus (GPa) = 10.49366 32.75321 21.62343
# Shear Modulus (GPa) = 14.36161 2.35019 8.35590
#
# Velocity S-wave (km/s) = 2.63921 1.06764 2.01312
# Velocity P-wave (km/s) = 3.79166 4.17196 3.98635
#
# Compressibility (1/GPa) = 0.09529568
#
# Stress axis : x y z
#
# Youngs Moduli (GPa) = 15.82718 82.99563 67.40047
#
# Poissons Ratio (x) = 0.02319 -0.34422
# Poissons Ratio (y) = 0.00442 0.14921
# Poissons Ratio (z) = -0.08083 0.18374
#
# Static dielectric constant tensor:
#      x y z
#    x 1.713030 0.000000 0.012900 
#    y 0.000000 1.894480 0.000000 
#    z 0.012900 0.000000 1.785560 
# 
# From -- ./inp_files/12093.got.cif
#   From: 2010.05.17/outbox.cif.g08.bks.cpg/sg12_7_cif.got.tgz:12093.got - 2010.06.03 13:09:07.
