data_PCOD9172788
_publ_section_title
;
Structure prediction by ZEFSAII (Michael W. Deem and Ramdas Pophale) SiO2 
 PCOD9172788
Probable space group: C 2/M
;
_chemical_formula_sum "Si O2"
_cell_formula_units_Z 48
_cell_length_a 28.831144
_cell_length_b 7.620652
_cell_length_c 12.208692
_cell_angle_alpha 90.000000
_cell_angle_beta 70.175106
_cell_angle_gamma 90.000000
_cell_volume 2523.421241
_symmetry_space_group_name_H-M "C 2/M"
_symmetry_group_IT_number 12
_symmetry_cell_setting 'monoclinic'
loop_
_space_group_symop_operation_xyz
x,y,z
-x,y,-z
-x,-y,-z
x,-y,z
1/2+x,1/2+y,z
1/2-x,1/2+y,-z
1/2-x,1/2-y,-z
1/2+x,1/2-y,z
loop_
_atom_site_type_symbol
_atom_site_label
_atom_site_fract_x
_atom_site_fract_y
_atom_site_fract_z
Si Si1 0.608582 0.288239 0.756418
Si Si2 0.870285 0.800636 0.617039
Si Si3 0.947284 0.214685 0.991319
Si Si4 0.065551 0.211299 0.246939
Si Si5 0.543374 0.202973 0.605994
Si Si6 0.306943 0.288946 0.471528
O O1 0.610186 0.500000 0.757751
O O2 0.564031 0.236293 0.711453
O O3 0.658159 0.225419 0.656072
O O4 0.594875 0.229474 0.889123
O O5 0.889339 0.719723 0.715255
O O6 0.919667 0.805686 0.502536
O O7 0.829665 0.719871 0.568111
O O8 0.854228 0.000000 0.653697
O O9 0.938395 0.275820 0.874614
O O10 0.948099 0.000000 0.987449
O O11 0.000000 0.268316 0.000000
O O12 0.013751 0.250088 0.347863
O O13 0.070216 0.000000 0.239470
O O14 0.549123 0.000000 0.572784
O O15 0.312801 0.500000 0.470374
O O16 0.250000 0.250000 0.500000
#
# Coordination Sequence:
#
# PCOD9172788 Si02
#       6
#     8   8   8   8   8   8
#     4   9  17  32  50  70  95 123 160 197 227 271
#     4   9  19  33  48  67  91 121 159 195 232 279
#     4   9  15  26  49  73  92 121 162 196 220 260
#     4  10  18  30  48  67  92 128 160 190 227 270
#     4  11  20  28  42  67  99 130 158 190 229 274
#     4   9  18  32  51  71  90 115 151 198 243 282
#
# _framework density 19.021794
#
# number of rings (size 3 to 8) (size 9 to 14) (size 15 to 20)
#    0.000    2.500    1.667    3.000    0.000    5.333 
#    0.000    1.667    0.000    1.000    0.000    0.000 
#    0.000    0.000    0.000    0.000    0.000    0.667 
#
# Total GULP energy -133813.595070 kJ/mol
# GULP energy per Si atom -5575.566461 kJ/mol
# Density = 1.897850 g / cm^3
# Si number density = 19.021794 Si / 1000 Ang^3
#
#
#
# Elastic Constant Matrix: (Units=GPa)
#
#
# Indices 1 2 3 4 5 6 
#
# 1 148.4647 -0.8680 67.8842 0.0000 13.2532 0.0000
# 2 -0.8680 43.8909 4.7790 0.0000 0.8696 0.0000
# 3 67.8842 4.7790 85.1091 0.0000 22.7929 0.0000
# 4 0.0000 0.0000 0.0000 -10.2779 0.0000 -2.8104
# 5 13.2532 0.8696 22.7929 0.0000 26.8561 0.0000
# 6 0.0000 0.0000 0.0000 -2.8104 0.0000 15.8812
#
#
#
# Elastic Compliance Matrix: (Units=1/GPa)
#
#
# Indices 1 2 3 4 5 6 
#
# 1 0.010796 0.001183 -0.009370 0.000000 0.002586 0.000000
# 2 0.001183 0.023058 -0.002435 0.000000 0.000737 0.000000
# 3 -0.009370 -0.002435 0.023425 0.000000 -0.015178 0.000000
# 4 0.000000 0.000000 0.000000 -0.092806 0.000000 -0.016423
# 5 0.002586 0.000737 -0.015178 0.000000 0.048817 0.000000
# 6 0.000000 0.000000 0.000000 -0.016423 0.000000 0.060061
#
#
# Mechanical properties :
#
#
# Convention : Reuss Voigt Hill
#
# Bulk Modulus (GPa) = 27.75237 46.78391 37.26814
# Shear Modulus (GPa) = 46.90092 20.20318 33.55205
#
# Velocity S-wave (km/s) = 4.97091 3.26253 4.20441
# Velocity P-wave (km/s) = 6.89696 6.23221 6.57299
#
# Compressibility (1/GPa) = 0.03603296
#
# Stress axis : x y z
#
# Youngs Moduli (GPa) = 92.62643 43.36946 42.68964
#
# Poissons Ratio (x) = -0.05129 0.40001
# Poissons Ratio (y) = -0.10953 0.10396
# Poissons Ratio (z) = 0.86792 0.10561
#
# Static dielectric constant tensor:
#      x y z
#    x 1.651620 0.000000 0.035340 
#    y 0.000000 1.713600 0.000000 
#    z 0.035340 0.000000 1.691150 
# 
# From -- ./inp_files/179176.got.cif
#   From: 2010.05.17/outbox.cif.g08.bks.cpg/sg12_90_cif.got.tgz:179176.got - 2010.06.03 13:09:07.
