data_PCOD9172204
_publ_section_title
;
Structure prediction by ZEFSAII (Michael W. Deem and Ramdas Pophale) SiO2 
 PCOD9172204
Probable space group: C 2/M
;
_chemical_formula_sum "Si O2"
_cell_formula_units_Z 64
_cell_length_a 21.699958
_cell_length_b 23.866384
_cell_length_c 18.115641
_cell_angle_alpha 90.000000
_cell_angle_beta 21.888595
_cell_angle_gamma 90.000000
_cell_volume 3497.669100
_symmetry_space_group_name_H-M "C 2/M"
_symmetry_group_IT_number 12
_symmetry_cell_setting 'monoclinic'
loop_
_space_group_symop_operation_xyz
x,y,z
-x,y,-z
-x,-y,-z
x,-y,z
1/2+x,1/2+y,z
1/2-x,1/2+y,-z
1/2-x,1/2-y,-z
1/2+x,1/2-y,z
loop_
_atom_site_type_symbol
_atom_site_label
_atom_site_fract_x
_atom_site_fract_y
_atom_site_fract_z
Si Si1 0.097632 0.062523 0.534186
Si Si2 0.881839 0.124959 0.336945
Si Si3 0.669669 0.933582 0.855436
Si Si4 0.726557 0.092626 0.950576
Si Si5 0.599743 0.868914 0.322891
Si Si6 0.086095 0.066601 0.980870
Si Si7 0.925757 0.565039 0.387603
Si Si8 0.312681 0.307753 0.965142
O O1 0.138576 0.100109 0.558699
O O2 0.180544 0.081581 0.365858
O O3 0.900064 0.060609 0.749590
O O4 0.164655 0.000000 0.473542
O O5 0.703713 0.111960 0.498229
O O6 0.995081 0.181276 0.222740
O O7 0.995864 0.088043 0.155253
O O8 0.666388 0.899121 0.934286
O O9 0.685056 0.000000 0.857252
O O10 0.500000 0.926590 0.000000
O O11 0.776343 0.147074 0.941536
O O12 0.582024 0.064000 0.158397
O O13 0.500000 0.840659 0.500000
O O14 0.733595 0.907882 0.214002
O O15 0.492005 0.909943 0.390788
O O16 0.696551 0.825814 0.162677
O O17 0.089070 0.000000 0.978288
O O18 0.000000 0.084986 0.000000
O O19 0.862346 0.500000 0.464280
O O20 0.250000 0.250000 0.000000
#
# Coordination Sequence:
#
# PCOD9172204 Si02
#       8
#     8   8   8   8   8   8   8   8
#     4  10  18  29  47  72 106 145 180 216 267 333
#     4  10  20  33  52  77 106 139 181 223 267 327
#     4  10  19  30  47  74 110 145 174 213 269 333
#     4  10  20  33  51  74 102 139 184 226 270 329
#     4  10  21  35  53  80 110 142 181 225 276 332
#     4  10  19  31  50  77 112 151 183 214 260 328
#     4  11  20  31  52  83 119 150 174 211 270 344
#     4   9  21  42  61  74  97 139 187 238 283 315
#
# _framework density 18.297899999999998
#
# number of rings (size 3 to 8) (size 9 to 14) (size 15 to 20)
#    0.000    2.000    0.000    5.250    0.000    4.000 
#    0.000    5.000    0.000    4.500    0.000    0.000 
#    0.000    0.000    0.000    0.000    0.000    0.000 
#
# Total GULP energy -178221.969200 kJ/mol
# GULP energy per Si atom -5569.436538 kJ/mol
# Density = 1.825625 g / cm^3
# Si number density = 18.297900 Si / 1000 Ang^3
#
#
#
# Elastic Constant Matrix: (Units=GPa)
#
#
# Indices 1 2 3 4 5 6 
#
# 1 120.2284 26.9687 45.8750 0.0181 -1.8444 -0.0021
# 2 26.9687 59.6142 23.3680 -0.0131 -3.8960 -0.0238
# 3 45.8750 23.3680 97.5624 -0.0142 7.2641 -0.0103
# 4 0.0181 -0.0131 -0.0142 5.4848 -0.0145 -7.6518
# 5 -1.8444 -3.8960 7.2641 -0.0145 47.6431 0.0120
# 6 -0.0021 -0.0238 -0.0103 -7.6518 0.0120 15.5058
#
#
#
# Elastic Compliance Matrix: (Units=1/GPa)
#
#
# Indices 1 2 3 4 5 6 
#
# 1 0.010678 -0.003073 -0.004346 -0.000196 0.000825 -0.000104
# 2 -0.003073 0.019631 -0.003406 0.000288 0.002006 0.000168
# 3 -0.004346 -0.003406 0.013294 0.000131 -0.002474 0.000070
# 4 -0.000196 0.000288 0.000131 0.585225 0.000101 0.288798
# 5 0.000825 0.002006 -0.002474 0.000101 0.021563 0.000035
# 6 -0.000104 0.000168 0.000070 0.288798 0.000035 0.207008
#
#
# Mechanical properties :
#
#
# Convention : Reuss Voigt Hill
#
# Bulk Modulus (GPa) = 45.55519 52.20317 48.87918
# Shear Modulus (GPa) = 5.64101 25.80630 15.72365
#
# Velocity S-wave (km/s) = 1.75772 3.75953 2.93459
# Velocity P-wave (km/s) = 5.39165 6.88745 6.18493
#
# Compressibility (1/GPa) = 0.02195139
#
# Stress axis : x y z
#
# Youngs Moduli (GPa) = 93.65148 50.93931 75.22412
#
# Poissons Ratio (x) = 0.15654 0.32694
# Poissons Ratio (y) = 0.28780 0.25624
# Poissons Ratio (z) = 0.40703 0.17352
#
# Static dielectric constant tensor:
#      x y z
#    x 1.642270 -0.000010 -0.022920 
#    y -0.000010 1.614020 0.000050 
#    z -0.022920 0.000050 1.697260 
# 
# From -- ./inp_files/286437.got.cif
#   From: 2010.05.17/outbox.cif.g08.bks.cpg/sg12_144_cif.got.tgz:286437.got - 2010.06.03 13:09:07.
