data_PCOD9172289
_publ_section_title
;
Structure prediction by ZEFSAII (Michael W. Deem and Ramdas Pophale) SiO2 
 PCOD9172289
Probable space group: C 2/M
;
_chemical_formula_sum "Si O2"
_cell_formula_units_Z 48
_cell_length_a 28.487928
_cell_length_b 9.139948
_cell_length_c 11.600184
_cell_angle_alpha 90.000000
_cell_angle_beta 76.908407
_cell_angle_gamma 90.000000
_cell_volume 2941.931327
_symmetry_space_group_name_H-M "C 2/M"
_symmetry_group_IT_number 12
_symmetry_cell_setting 'monoclinic'
loop_
_space_group_symop_operation_xyz
x,y,z
-x,y,-z
-x,-y,-z
x,-y,z
1/2+x,1/2+y,z
1/2-x,1/2+y,-z
1/2-x,1/2-y,-z
1/2+x,1/2-y,z
loop_
_atom_site_type_symbol
_atom_site_label
_atom_site_fract_x
_atom_site_fract_y
_atom_site_fract_z
Si Si1 0.909667 0.674419 0.720411
Si Si2 0.175555 0.174155 0.094415
Si Si3 0.707052 0.176112 0.594111
Si Si4 0.279189 0.174528 0.146916
Si Si5 0.507536 0.331644 0.634723
Si Si6 0.104492 0.325299 0.543229
O O1 0.910617 0.500000 0.735392
O O2 0.870040 0.748102 0.823296
O O3 0.962562 0.742371 0.710005
O O4 0.895880 0.704343 0.593992
O O5 0.223409 0.203384 0.144878
O O6 0.168478 0.000000 0.093416
O O7 0.188330 0.238718 0.962175
O O8 0.750000 0.250000 0.500000
O O9 0.710691 0.214515 0.726896
O O10 0.655334 0.217767 0.570065
O O11 0.711532 0.000000 0.582373
O O12 0.287174 0.000000 0.128203
O O13 0.500000 0.329680 0.500000
O O14 0.506904 0.500000 0.672904
O O15 0.559147 0.256802 0.624356
O O16 0.098019 0.500000 0.560962
#
# Coordination Sequence:
#
# PCOD9172289 Si02
#       6
#     8   8   8   8   8   8
#     4  10  18  29  48  72  98 126 157 194 237 284
#     4  10  19  31  49  71  95 124 161 202 237 275
#     4  10  20  33  50  72  99 129 160 193 231 281
#     4   9  19  34  49  68  96 129 161 194 236 281
#     4   9  17  29  46  69  96 125 158 196 236 278
#     4   9  18  31  47  70  99 129 158 191 235 284
#
# _framework density 16.315812999999999
#
# number of rings (size 3 to 8) (size 9 to 14) (size 15 to 20)
#    0.000    2.500    0.000    2.500    0.000    4.667 
#    0.000    0.000    0.000    1.000    0.000    7.000 
#    0.000    0.000    0.000    0.000    0.000    0.000 
#
# Total GULP energy -133870.002953 kJ/mol
# GULP energy per Si atom -5577.916790 kJ/mol
# Density = 1.627868 g / cm^3
# Si number density = 16.315813 Si / 1000 Ang^3
#
#
#
# Elastic Constant Matrix: (Units=GPa)
#
#
# Indices 1 2 3 4 5 6 
#
# 1 147.3933 70.9250 90.0928 0.0000 -22.8955 0.0000
# 2 70.9250 70.6625 68.8073 0.0000 -22.3344 0.0000
# 3 90.0928 68.8073 110.9961 0.0000 -25.3426 0.0000
# 4 0.0000 0.0000 0.0000 28.2664 0.0000 -10.2578
# 5 -22.8955 -22.3344 -25.3426 0.0000 32.4930 0.0000
# 6 0.0000 0.0000 0.0000 -10.2578 0.0000 28.0459
#
#
#
# Elastic Compliance Matrix: (Units=1/GPa)
#
#
# Indices 1 2 3 4 5 6 
#
# 1 0.015131 -0.008321 -0.007293 0.000000 -0.000746 0.000000
# 2 -0.008321 0.042504 -0.017353 0.000000 0.009818 0.000000
# 3 -0.007293 -0.017353 0.026511 0.000000 0.003610 0.000000
# 4 0.000000 0.000000 0.000000 0.040792 0.000000 0.014920
# 5 -0.000746 0.009818 0.003610 0.000000 0.039814 0.000000
# 6 0.000000 0.000000 0.000000 0.014920 0.000000 0.041113
#
#
# Mechanical properties :
#
#
# Convention : Reuss Voigt Hill
#
# Bulk Modulus (GPa) = 54.91239 87.63356 71.27298
# Shear Modulus (GPa) = 17.99403 24.37618 21.18511
#
# Velocity S-wave (km/s) = 3.32453 3.86945 3.60730
# Velocity P-wave (km/s) = 6.96173 8.59017 7.81846
#
# Compressibility (1/GPa) = 0.01821083
#
# Stress axis : x y z
#
# Youngs Moduli (GPa) = 66.09126 23.52695 37.72035
#
# Poissons Ratio (x) = 0.19576 0.27511
# Poissons Ratio (y) = 0.54993 0.65457
# Poissons Ratio (z) = 0.48203 0.40827
#
# Static dielectric constant tensor:
#      x y z
#    x 1.533670 0.000000 0.007990 
#    y 0.000000 1.542280 0.000000 
#    z 0.007990 0.000000 1.517750 
# 
# From -- ./inp_files/172083.got.cif
#   From: 2010.05.17/outbox.cif.g08.bks.cpg/sg12_87_cif.got.tgz:172083.got - 2010.06.03 13:09:07.
