data_PCOD9172174
_publ_section_title
;
Structure prediction by ZEFSAII (Michael W. Deem and Ramdas Pophale) SiO2 
 PCOD9172174
Probable space group: C 2/M
;
_chemical_formula_sum "Si O2"
_cell_formula_units_Z 48
_cell_length_a 31.545935
_cell_length_b 9.360907
_cell_length_c 10.122457
_cell_angle_alpha 90.000000
_cell_angle_beta 103.650884
_cell_angle_gamma 90.000000
_cell_volume 2904.708959
_symmetry_space_group_name_H-M "C 2/M"
_symmetry_group_IT_number 12
_symmetry_cell_setting 'monoclinic'
loop_
_space_group_symop_operation_xyz
x,y,z
-x,y,-z
-x,-y,-z
x,-y,z
1/2+x,1/2+y,z
1/2-x,1/2+y,-z
1/2-x,1/2-y,-z
1/2+x,1/2-y,z
loop_
_atom_site_type_symbol
_atom_site_label
_atom_site_fract_x
_atom_site_fract_y
_atom_site_fract_z
Si Si1 0.279407 0.169521 0.628365
Si Si2 0.640210 0.831470 0.716137
Si Si3 0.727785 0.669906 0.862079
Si Si4 0.872923 0.332319 0.610067
Si Si5 0.541914 0.334273 0.354384
Si Si6 0.945754 0.167225 0.317701
O O1 0.250000 0.250000 0.500000
O O2 0.258317 0.188748 0.755882
O O3 0.329622 0.218220 0.653968
O O4 0.279143 0.000000 0.596931
O O5 0.681479 0.742877 0.796781
O O6 0.637206 0.815693 0.554232
O O7 0.595684 0.765185 0.741800
O O8 0.644345 0.000000 0.748084
O O9 0.722941 0.500000 0.882052
O O10 0.750000 0.750000 0.000000
O O11 0.879149 0.500000 0.639832
O O12 0.917701 0.251822 0.674315
O O13 0.544777 0.500000 0.318553
O O14 0.547939 0.327955 0.518276
O O15 0.492264 0.285432 0.291731
O O16 0.938191 0.000000 0.278797
#
# Coordination Sequence:
#
# PCOD9172174 Si02
#       6
#     8   8   8   8   8   8
#     4  10  20  34  52  74  99 131 167 205 250 297
#     4  10  18  29  47  70  97 128 164 204 246 294
#     4  11  23  37  53  72  99 134 170 209 251 295
#     4   9  17  28  44  69  99 126 158 201 244 290
#     4   8  14  24  39  62  93 128 161 195 237 287
#     4   8  14  25  40  61  93 128 162 197 237 288
#
# _framework density 16.524892000000001
#
# number of rings (size 3 to 8) (size 9 to 14) (size 15 to 20)
#    0.000    2.667    1.667    2.000    0.000    2.667 
#    0.000    3.333    0.000    0.000    0.000    1.167 
#    0.000    9.333    0.000    0.000    0.000    0.000 
#
# Total GULP energy -133704.044255 kJ/mol
# GULP energy per Si atom -5571.001844 kJ/mol
# Density = 1.648728 g / cm^3
# Si number density = 16.524892 Si / 1000 Ang^3
#
#
#
# Elastic Constant Matrix: (Units=GPa)
#
#
# Indices 1 2 3 4 5 6 
#
# 1 190.1842 89.4998 38.5720 0.0000 26.4618 0.0000
# 2 89.4998 90.9946 42.7481 0.0000 11.7949 0.0000
# 3 38.5720 42.7481 31.7769 0.0000 3.4160 0.0000
# 4 0.0000 0.0000 0.0000 17.5855 0.0000 7.2849
# 5 26.4618 11.7949 3.4160 0.0000 12.6860 0.0000
# 6 0.0000 0.0000 0.0000 7.2849 0.0000 33.4401
#
#
#
# Elastic Compliance Matrix: (Units=1/GPa)
#
#
# Indices 1 2 3 4 5 6 
#
# 1 0.012147 -0.010193 0.000692 0.000000 -0.016047 0.000000
# 2 -0.010193 0.042706 -0.044380 0.000000 -0.006495 0.000000
# 3 0.000692 -0.044380 0.088616 0.000000 0.015957 0.000000
# 4 0.000000 0.000000 0.000000 0.062506 0.000000 -0.013617
# 5 -0.016047 -0.006495 0.015957 0.000000 0.114043 0.000000
# 6 0.000000 0.000000 0.000000 -0.013617 0.000000 0.032871
#
#
# Mechanical properties :
#
#
# Convention : Reuss Voigt Hill
#
# Bulk Modulus (GPa) = 28.00459 72.73284 50.36872
# Shear Modulus (GPa) = 10.58083 22.21802 16.39943
#
# Velocity S-wave (km/s) = 2.53315 3.67075 3.15367
# Velocity P-wave (km/s) = 5.05366 7.87880 6.61872
#
# Compressibility (1/GPa) = 0.03570843
#
# Stress axis : x y z
#
# Youngs Moduli (GPa) = 82.32437 23.41600 11.28459
#
# Poissons Ratio (x) = 0.23867 -0.00781
# Poissons Ratio (y) = 0.83910 0.50081
# Poissons Ratio (z) = -0.05698 1.03920
#
# Static dielectric constant tensor:
#      x y z
#    x 1.578930 0.000000 0.000690 
#    y 0.000000 1.550480 0.000000 
#    z 0.000690 0.000000 1.528600 
# 
# From -- ./inp_files/108780.got.cif
#   From: 2010.05.17/outbox.cif.g08.bks.cpg/sg12_55_cif.got.tgz:108780.got - 2010.06.03 13:09:07.
