data_PCOD9172183
_publ_section_title
;
Structure prediction by ZEFSAII (Michael W. Deem and Ramdas Pophale) SiO2 
 PCOD9172183
Probable space group: C 2/M
;
_chemical_formula_sum "Si O2"
_cell_formula_units_Z 58
_cell_length_a 15.421266
_cell_length_b 7.561444
_cell_length_c 19.782209
_cell_angle_alpha 90.000000
_cell_angle_beta 97.126846
_cell_angle_gamma 90.000000
_cell_volume 2288.922716
_symmetry_space_group_name_H-M "C 2/M"
_symmetry_group_IT_number 12
_symmetry_cell_setting 'monoclinic'
loop_
_space_group_symop_operation_xyz
x,y,z
-x,y,-z
-x,-y,-z
x,-y,z
1/2+x,1/2+y,z
1/2-x,1/2+y,-z
1/2-x,1/2-y,-z
1/2+x,1/2-y,z
loop_
_atom_site_type_symbol
_atom_site_label
_atom_site_fract_x
_atom_site_fract_y
_atom_site_fract_z
Si Si1 0.676250 0.793825 0.868005
Si Si2 0.730224 0.216153 0.725185
Si Si3 0.072732 0.790053 0.293348
Si Si4 0.835780 0.297286 0.415956
Si Si5 0.651902 0.197020 0.072217
Si Si6 0.000000 0.500000 0.000000
Si Si7 0.137480 0.712291 0.437848
Si Si8 0.993265 0.702818 0.850362
O O1 0.706610 0.726970 0.797758
O O2 0.756664 0.791407 0.927050
O O3 0.584128 0.708787 0.876669
O O4 0.654072 0.000000 0.855050
O O5 0.828857 0.270196 0.716701
O O6 0.665469 0.280812 0.659445
O O7 0.729744 0.000000 0.722646
O O8 0.067460 0.751374 0.372604
O O9 0.012895 0.699234 0.231199
O O10 0.064903 0.000000 0.282722
O O11 0.865687 0.500000 0.412838
O O12 0.880939 0.223070 0.487652
O O13 0.731436 0.293530 0.425081
O O14 0.594457 0.283191 0.126989
O O15 0.682199 0.000000 0.096878
O O16 0.578933 0.154228 0.009883
O O17 0.149196 0.500000 0.441751
O O18 0.990553 0.500000 0.882374
#
# Coordination Sequence:
#
# PCOD9172183 Si02
#       8
#     8   8   8   8   8   2   8   8
#     4  10  19  33  56  85 113 140 178 228 271 311
#     4   8  14  26  45  70  98 133 171 220 275 318
#     4  10  18  29  47  71 102 139 181 226 277 329
#     4   8  14  24  38  60  93 133 178 225 274 331
#     4   9  19  38  60  80 112 147 179 208 262 322
#     4   8  20  40  66  76 116 154 178 200 268 316
#     4   9  15  23  38  62  95 132 178 228 276 327
#     4  10  20  33  54  82 112 140 178 229 269 315
#
# _framework density 25.339431999999999
#
# number of rings (size 3 to 8) (size 9 to 14) (size 15 to 20)
#    0.414    2.483    1.379    1.655    0.000    1.103 
#    0.000    1.034    0.000    0.828    0.000    5.793 
#    0.000    0.000    0.000    0.000    0.000    0.000 
#
# Total GULP energy -161477.947763 kJ/mol
# GULP energy per Si atom -5568.205095 kJ/mol
# Density = 2.528176 g / cm^3
# Si number density = 25.339432 Si / 1000 Ang^3
#
#
#
# Elastic Constant Matrix: (Units=GPa)
#
#
# Indices 1 2 3 4 5 6 
#
# 1 79.2157 4.9341 30.7338 0.0000 30.6713 0.0000
# 2 4.9341 78.7643 -3.3992 0.0000 -0.9456 0.0000
# 3 30.7338 -3.3992 158.4426 0.0000 10.6055 0.0000
# 4 0.0000 0.0000 0.0000 16.6333 0.0000 5.9451
# 5 30.6713 -0.9456 10.6055 0.0000 23.2723 0.0000
# 6 0.0000 0.0000 0.0000 5.9451 0.0000 2.8651
#
#
#
# Elastic Compliance Matrix: (Units=1/GPa)
#
#
# Indices 1 2 3 4 5 6 
#
# 1 0.027452 -0.002270 -0.003038 0.000000 -0.034887 0.000000
# 2 -0.002270 0.012899 0.000497 0.000000 0.003289 0.000000
# 3 -0.003038 0.000497 0.006851 0.000000 0.000903 0.000000
# 4 0.000000 0.000000 0.000000 0.232720 0.000000 -0.482903
# 5 -0.034887 0.003289 0.000903 0.000000 0.088671 0.000000
# 6 0.000000 0.000000 0.000000 -0.482903 0.000000 1.351074
#
#
# Mechanical properties :
#
#
# Convention : Reuss Voigt Hill
#
# Bulk Modulus (GPa) = 26.61016 42.32889 34.46953
# Shear Modulus (GPa) = 2.87057 27.49773 15.18415
#
# Velocity S-wave (km/s) = 1.06551 3.29777 2.45057
# Velocity P-wave (km/s) = 3.46959 5.58940 4.65185
#
# Compressibility (1/GPa) = 0.03757963
#
# Stress axis : x y z
#
# Youngs Moduli (GPa) = 36.42737 77.52405 145.96281
#
# Poissons Ratio (x) = 0.17595 0.44350
# Poissons Ratio (y) = 0.08268 -0.07252
# Poissons Ratio (z) = 0.11068 -0.03852
#
# Static dielectric constant tensor:
#      x y z
#    x 2.011050 0.000000 -0.032170 
#    y 0.000000 2.004650 0.000000 
#    z -0.032170 0.000000 1.893630 
# 
# From -- ./inp_files/338090.got.cif
#   From: 2010.05.17/outbox.cif.g08.bks.cpg/sg12_170_cif.got.tgz:338090.got - 2010.06.03 13:09:07.
