data_PCOD9172016
_publ_section_title
;
Structure prediction by ZEFSAII (Michael W. Deem and Ramdas Pophale) SiO2 
 PCOD9172016
Probable space group: C 2/M
;
_chemical_formula_sum "Si O2"
_cell_formula_units_Z 56
_cell_length_a 24.535117
_cell_length_b 8.460664
_cell_length_c 18.929186
_cell_angle_alpha 90.000000
_cell_angle_beta 52.311967
_cell_angle_gamma 90.000000
_cell_volume 3109.523248
_symmetry_space_group_name_H-M "C 2/M"
_symmetry_group_IT_number 12
_symmetry_cell_setting 'monoclinic'
loop_
_space_group_symop_operation_xyz
x,y,z
-x,y,-z
-x,-y,-z
x,-y,z
1/2+x,1/2+y,z
1/2-x,1/2+y,-z
1/2-x,1/2-y,-z
1/2+x,1/2-y,z
loop_
_atom_site_type_symbol
_atom_site_label
_atom_site_fract_x
_atom_site_fract_y
_atom_site_fract_z
Si Si1 0.752733 0.307062 0.665543
Si Si2 0.386244 0.691430 0.292940
Si Si3 0.034839 0.183528 0.187102
Si Si4 0.984395 0.182039 0.626839
Si Si5 0.662816 0.810885 0.266624
Si Si6 0.182800 0.189911 0.092796
Si Si7 0.129649 0.688664 0.535857
O O1 0.752380 0.500000 0.666039
O O2 0.675751 0.254303 0.707830
O O3 0.784513 0.256166 0.714785
O O4 0.805850 0.258074 0.562096
O O5 0.389249 0.500000 0.288064
O O6 0.463317 0.753158 0.214921
O O7 0.369009 0.737423 0.387206
O O8 0.025192 0.185368 0.279992
O O9 0.110905 0.251993 0.115249
O O10 0.037307 0.000000 0.162558
O O11 0.915367 0.261355 0.652441
O O12 0.057371 0.264542 0.556485
O O13 0.987671 0.000000 0.602265
O O14 0.681582 0.741544 0.175432
O O15 0.665124 0.000000 0.260253
O O16 0.180704 0.000000 0.092122
O O17 0.250000 0.250000 0.000000
O O18 0.131867 0.500000 0.541025
#
# Coordination Sequence:
#
# PCOD9172016 Si02
#       7
#     8   8   8   8   8   8   8
#     4   9  19  31  46  68  98 133 167 201 246 294
#     4   9  16  31  50  68  94 131 168 205 242 284
#     4   7  13  26  47  69  90 115 151 193 233 275
#     4   9  17  31  47  66  93 128 165 204 245 290
#     4  10  19  33  50  71  98 129 160 197 245 298
#     4  10  19  33  53  79 101 121 151 193 243 298
#     4  10  18  29  45  69  96 127 169 214 248 282
#
# _framework density 18.009191999999999
#
# number of rings (size 3 to 8) (size 9 to 14) (size 15 to 20)
#    0.000    2.857    0.000    3.857    0.000    0.571 
#    0.000    8.571    0.000    0.857    0.000    6.000 
#    0.000    0.000    0.000    0.000    0.000    0.000 
#
# Total GULP energy -156015.536646 kJ/mol
# GULP energy per Si atom -5571.983452 kJ/mol
# Density = 1.796820 g / cm^3
# Si number density = 18.009192 Si / 1000 Ang^3
#
#
#
# Elastic Constant Matrix: (Units=GPa)
#
#
# Indices 1 2 3 4 5 6 
#
# 1 170.6692 14.3213 51.1042 0.0000 -37.3702 0.0001
# 2 14.3213 22.2279 -13.2401 -0.0024 -5.8770 0.0002
# 3 51.1042 -13.2401 -3.7998 0.0006 -30.8149 -0.0001
# 4 0.0000 -0.0024 0.0006 18.4234 0.0002 -2.8513
# 5 -37.3702 -5.8770 -30.8149 0.0002 29.3891 -0.0001
# 6 0.0001 0.0002 -0.0001 -2.8513 -0.0001 18.2063
#
#
#
# Elastic Compliance Matrix: (Units=1/GPa)
#
#
# Indices 1 2 3 4 5 6 
#
# 1 0.007869 -0.000111 0.002657 0.000000 0.012770 0.000000
# 2 -0.000111 0.031770 -0.017107 0.000005 -0.011725 0.000000
# 3 0.002657 -0.017107 -0.017624 -0.000001 -0.018521 0.000000
# 4 0.000000 0.000005 -0.000001 0.055627 -0.000001 0.008712
# 5 0.012770 -0.011725 -0.018521 -0.000001 0.028500 0.000000
# 6 0.000000 0.000000 0.000000 0.008712 0.000000 0.056290
#
#
# Mechanical properties :
#
#
# Convention : Reuss Voigt Hill
#
# Bulk Modulus (GPa) = -140.72693 32.60758 -54.05968
# Shear Modulus (GPa) = 26.42928 22.33123 24.38025
#
# Velocity S-wave (km/s) = 3.83501 3.52517 3.68335
# Velocity P-wave (km/s) = 7.66170 5.89190 3.46317
#
# Compressibility (1/GPa) = -0.00710596
#
# Stress axis : x y z
#
# Youngs Moduli (GPa) = 127.07975 31.47619 -56.73989
#
# Poissons Ratio (x) = 0.00349 0.15078
# Poissons Ratio (y) = 0.01407 -0.97065
# Poissons Ratio (z) = -0.33769 0.53846
#
# Static dielectric constant tensor:
#      x y z
#    x 1.657500 0.000000 -0.031570 
#    y 0.000000 1.626230 0.000000 
#    z -0.031570 0.000000 1.603920 
# 
# From -- ./inp_files/323547.got.cif
#   From: 2010.05.17/outbox.cif.g08.bks.cpg/sg12_162_cif.got.tgz:323547.got - 2010.06.03 13:09:07.
