data_PCOD9172923
_publ_section_title
;
Structure prediction by ZEFSAII (Michael W. Deem and Ramdas Pophale) SiO2 
 PCOD9172923
Probable space group: C 2/M
;
_chemical_formula_sum "Si O2"
_cell_formula_units_Z 48
_cell_length_a 18.079469
_cell_length_b 8.283198
_cell_length_c 16.284206
_cell_angle_alpha 90.000000
_cell_angle_beta 124.163589
_cell_angle_gamma 90.000000
_cell_volume 2017.834564
_symmetry_space_group_name_H-M "C 2/M"
_symmetry_group_IT_number 12
_symmetry_cell_setting 'monoclinic'
loop_
_space_group_symop_operation_xyz
x,y,z
-x,y,-z
-x,-y,-z
x,-y,z
1/2+x,1/2+y,z
1/2-x,1/2+y,-z
1/2-x,1/2-y,-z
1/2+x,1/2-y,z
loop_
_atom_site_type_symbol
_atom_site_label
_atom_site_fract_x
_atom_site_fract_y
_atom_site_fract_z
Si Si1 0.151579 0.685242 0.957684
Si Si2 0.976064 0.000000 0.250795
Si Si3 0.284086 0.500000 0.204374
Si Si4 0.243437 0.675227 0.758745
Si Si5 0.702037 0.810544 0.552133
Si Si6 0.052164 0.670669 0.719199
Si Si7 0.947897 0.000000 0.051186
Si Si8 0.604821 0.500000 0.553976
O O1 0.154427 0.500000 0.990824
O O2 0.098898 0.671338 0.837882
O O3 0.104654 0.830658 0.976356
O O4 0.250000 0.750000 0.000000
O O5 0.002367 0.835794 0.312492
O O6 0.865361 0.000000 0.189409
O O7 0.002088 0.000000 0.172018
O O8 0.229450 0.334143 0.174887
O O9 0.339078 0.500000 0.325426
O O10 0.275651 0.500000 0.808263
O O11 0.261507 0.690760 0.673343
O O12 0.135165 0.673440 0.707430
O O13 0.750000 0.750000 0.500000
O O14 0.632402 0.668035 0.528598
O O15 0.674467 0.000000 0.527833
O O16 0.003959 0.500000 0.678523
O O17 0.000000 0.000000 0.000000
O O18 0.500000 0.500000 0.500000
#
# Coordination Sequence:
#
# PCOD9172923 Si02
#       8
#     8   4   4   8   8   8   4   4
#     4  10  18  30  49  70  95 126 156 190 235 281
#     4   8  14  26  44  64  86 115 152 191 228 267
#     4   8  14  26  44  64  86 115 152 191 228 267
#     4   8  14  24  40  64  89 112 149 196 229 260
#     4  10  18  30  49  70  95 126 156 190 235 281
#     4   8  14  24  40  64  89 112 149 196 229 260
#     4  10  20  32  48  72  97 123 156 195 234 279
#     4  10  20  32  48  72  97 123 156 195 234 279
#
# _framework density 23.787877999999999
#
# number of rings (size 3 to 8) (size 9 to 14) (size 15 to 20)
#    0.000    3.000    1.667    0.000    0.000    0.667 
#    0.000    0.000    0.000    2.000    0.000    0.000 
#    0.000    0.000    0.000    0.000    0.000    0.000 
#
# Total GULP energy -133929.256124 kJ/mol
# GULP energy per Si atom -5580.385672 kJ/mol
# Density = 2.373374 g / cm^3
# Si number density = 23.787878 Si / 1000 Ang^3
#
#
#
# Elastic Constant Matrix: (Units=GPa)
#
#
# Indices 1 2 3 4 5 6 
#
# 1 59.4328 44.9111 34.1313 0.0000 -32.9262 0.0000
# 2 44.9111 299.8560 44.7770 0.0000 -23.1511 0.0000
# 3 34.1313 44.7770 97.9556 0.0000 -23.4041 0.0000
# 4 0.0000 0.0000 0.0000 20.4371 0.0000 -24.4958
# 5 -32.9262 -23.1511 -23.4041 0.0000 43.8928 0.0000
# 6 0.0000 0.0000 0.0000 -24.4958 0.0000 14.0593
#
#
#
# Elastic Compliance Matrix: (Units=1/GPa)
#
#
# Indices 1 2 3 4 5 6 
#
# 1 0.033469 -0.002584 -0.005510 0.000000 0.020806 0.000000
# 2 -0.002584 0.003831 -0.000953 0.000000 -0.000425 0.000000
# 3 -0.005510 -0.000953 0.013129 0.000000 0.002365 0.000000
# 4 0.000000 0.000000 0.000000 -0.044959 0.000000 -0.078333
# 5 0.020806 -0.000425 0.002365 0.000000 0.039427 0.000000
# 6 0.000000 0.000000 0.000000 -0.078333 0.000000 -0.065354
#
#
# Mechanical properties :
#
#
# Convention : Reuss Voigt Hill
#
# Bulk Modulus (GPa) = 30.92410 78.32035 54.62222
# Shear Modulus (GPa) = 594.18108 37.90617 316.04362
#
# Velocity S-wave (km/s) = 15.82167 3.99621 11.53896
# Velocity P-wave (km/s) = 18.62244 7.36810 14.16129
#
# Compressibility (1/GPa) = 0.03233724
#
# Stress axis : x y z
#
# Youngs Moduli (GPa) = 29.87835 261.00531 76.16713
#
# Poissons Ratio (x) = 0.67436 0.41965
# Poissons Ratio (y) = 0.07720 0.07257
# Poissons Ratio (z) = 0.16462 0.24867
#
# Static dielectric constant tensor:
#      x y z
#    x 1.837470 0.000000 0.013130 
#    y 0.000000 1.982020 0.000000 
#    z 0.013130 0.000000 1.959610 
# 
# From -- ./inp_files/267770.got.cif
#   From: 2010.05.17/outbox.cif.g08.bks.cpg/sg12_134_cif.got.tgz:267770.got - 2010.06.03 13:09:07.
