data_PCOD9172400
_publ_section_title
;
Structure prediction by ZEFSAII (Michael W. Deem and Ramdas Pophale) SiO2 
 PCOD9172400
Probable space group: C 2/M
;
_chemical_formula_sum "Si O2"
_cell_formula_units_Z 48
_cell_length_a 19.430881
_cell_length_b 38.527340
_cell_length_c 7.983852
_cell_angle_alpha 90.000000
_cell_angle_beta 26.815708
_cell_angle_gamma 90.000000
_cell_volume 2696.300085
_symmetry_space_group_name_H-M "C 2/M"
_symmetry_group_IT_number 12
_symmetry_cell_setting 'monoclinic'
loop_
_space_group_symop_operation_xyz
x,y,z
-x,y,-z
-x,-y,-z
x,-y,z
1/2+x,1/2+y,z
1/2-x,1/2+y,-z
1/2-x,1/2-y,-z
1/2+x,1/2-y,z
loop_
_atom_site_type_symbol
_atom_site_label
_atom_site_fract_x
_atom_site_fract_y
_atom_site_fract_z
Si Si1 0.185712 0.960120 0.785235
Si Si2 0.826010 0.662831 0.811643
Si Si3 0.234376 0.273283 0.867044
Si Si4 0.814290 0.039932 0.594041
Si Si5 0.185068 0.087253 0.096580
Si Si6 0.070208 0.283236 0.672051
O O1 0.234030 0.950937 0.490695
O O2 0.232131 0.000000 0.718245
O O3 0.234946 0.934205 0.823878
O O4 0.000010 0.959936 0.190294
O O5 0.836185 0.685844 0.619906
O O6 0.000000 0.658659 0.500000
O O7 0.735413 0.687354 0.140946
O O8 0.750506 0.625813 0.953403
O O9 0.336480 0.252535 0.513481
O O10 0.250000 0.250000 0.000000
O O11 0.064944 0.274139 0.163077
O O12 0.765161 0.066141 0.845506
O O13 0.768536 0.000000 0.728142
O O14 0.000000 0.088533 0.500000
O O15 0.000000 0.294313 0.000000
#
# Coordination Sequence:
#
# PCOD9172400 Si02
#       6
#     8   8   8   8   8   8
#     4   8  14  26  45  71 100 126 163 210 253 291
#     4   9  20  36  48  68 103 139 161 190 251 308
#     4   9  18  34  55  73  97 131 164 203 245 299
#     4   8  14  26  46  71  99 129 161 209 257 292
#     4  10  18  29  49  75 100 131 169 204 247 298
#     4  10  19  34  56  79  98 124 170 212 247 294
#
# _framework density 17.802173
#
# number of rings (size 3 to 8) (size 9 to 14) (size 15 to 20)
#    0.000    3.000    0.000    3.500    0.000    4.667 
#    6.000    0.000    3.667    2.000    0.000    2.333 
#    0.000    0.000    0.000    0.000    0.000    0.000 
#
# Total GULP energy -133619.207449 kJ/mol
# GULP energy per Si atom -5567.466977 kJ/mol
# Density = 1.776165 g / cm^3
# Si number density = 17.802173 Si / 1000 Ang^3
#
#
#
# Elastic Constant Matrix: (Units=GPa)
#
#
# Indices 1 2 3 4 5 6 
#
# 1 77.4789 73.8868 27.1101 0.0000 21.3098 0.0000
# 2 73.8868 163.7991 45.6865 0.0000 26.1343 0.0000
# 3 27.1101 45.6865 33.2175 0.0000 22.0781 0.0000
# 4 0.0000 0.0000 0.0000 24.3204 0.0000 -7.6484
# 5 21.3098 26.1343 22.0781 0.0000 20.9139 0.0000
# 6 0.0000 0.0000 0.0000 -7.6484 0.0000 17.4671
#
#
#
# Elastic Compliance Matrix: (Units=1/GPa)
#
#
# Indices 1 2 3 4 5 6 
#
# 1 0.026147 -0.010351 0.006728 0.000000 -0.020810 0.000000
# 2 -0.010351 0.014292 -0.021280 0.000000 0.015151 0.000000
# 3 0.006728 -0.021280 0.136632 0.000000 -0.124502 0.000000
# 4 0.000000 0.000000 0.000000 0.047684 0.000000 0.020880
# 5 -0.020810 0.015151 -0.124502 0.000000 0.181518 0.000000
# 6 0.000000 0.000000 0.000000 0.020880 0.000000 0.066393
#
#
# Mechanical properties :
#
#
# Convention : Reuss Voigt Hill
#
# Bulk Modulus (GPa) = 7.85754 63.09581 35.47668
# Shear Modulus (GPa) = 8.85124 21.06109 14.95616
#
# Velocity S-wave (km/s) = 2.23222 3.44330 2.90165
# Velocity P-wave (km/s) = 3.32673 7.16436 5.58548
#
# Compressibility (1/GPa) = 0.12726630
#
# Stress axis : x y z
#
# Youngs Moduli (GPa) = 38.24513 69.96971 7.31895
#
# Poissons Ratio (x) = 0.72424 -0.04924
# Poissons Ratio (y) = 0.39587 0.15574
# Poissons Ratio (z) = -0.25732 1.48892
#
# Static dielectric constant tensor:
#      x y z
#    x 1.622700 0.000000 0.013210 
#    y 0.000000 1.591260 0.000000 
#    z 0.013210 0.000000 1.646640 
# 
# From -- ./inp_files/91376.got.cif
#   From: 2010.05.17/outbox.cif.g08.bks.cpg/sg12_46_cif.got.tgz:91376.got - 2010.06.03 13:09:07.
