data_PCOD9172111
_publ_section_title
;
Structure prediction by ZEFSAII (Michael W. Deem and Ramdas Pophale) SiO2 
 PCOD9172111
Probable space group: C 2/M
;
_chemical_formula_sum "Si O2"
_cell_formula_units_Z 56
_cell_length_a 31.258133
_cell_length_b 7.715855
_cell_length_c 12.333240
_cell_angle_alpha 90.000000
_cell_angle_beta 117.954589
_cell_angle_gamma 90.000000
_cell_volume 2627.495897
_symmetry_space_group_name_H-M "C 2/M"
_symmetry_group_IT_number 12
_symmetry_cell_setting 'monoclinic'
loop_
_space_group_symop_operation_xyz
x,y,z
-x,y,-z
-x,-y,-z
x,-y,z
1/2+x,1/2+y,z
1/2-x,1/2+y,-z
1/2-x,1/2-y,-z
1/2+x,1/2-y,z
loop_
_atom_site_type_symbol
_atom_site_label
_atom_site_fract_x
_atom_site_fract_y
_atom_site_fract_z
Si Si1 0.409780 0.292038 0.628310
Si Si2 0.891423 0.208328 0.022307
Si Si3 0.651607 0.288758 0.248121
Si Si4 0.306776 0.796806 0.086129
Si Si5 0.502943 0.712331 0.875712
Si Si6 0.152220 0.709093 0.637809
Si Si7 0.755576 0.707328 0.381222
O O1 0.410605 0.500000 0.636163
O O2 0.366756 0.226849 0.657187
O O3 0.458846 0.230720 0.745759
O O4 0.396061 0.251092 0.488062
O O5 0.844465 0.263215 0.033918
O O6 0.945587 0.266770 0.115202
O O7 0.891351 0.000000 0.026706
O O8 0.884863 0.259901 0.889300
O O9 0.653245 0.500000 0.255163
O O10 0.704531 0.229147 0.274293
O O11 0.334058 0.723823 0.226086
O O12 0.304342 0.000000 0.100570
O O13 0.250000 0.750000 0.000000
O O14 0.501595 0.500000 0.876479
O O15 0.500000 0.764529 0.000000
O O16 0.153000 0.500000 0.642458
O O17 0.196866 0.777839 0.618008
O O18 0.757554 0.500000 0.370653
O O19 0.750000 0.750000 0.500000
#
# Coordination Sequence:
#
# PCOD9172111 Si02
#       7
#     8   8   8   8   8   8   8
#     4  10  18  31  55  85 113 145 189 232 275 335
#     4  10  19  35  60  86 115 150 190 236 287 337
#     4   9  16  28  50  79 111 143 176 222 280 336
#     4  11  24  43  63  83 111 150 196 239 284 341
#     4   9  16  30  56  89 119 151 190 234 285 340
#     4  10  22  38  54  75 112 153 185 229 291 345
#     4  10  18  29  46  72 103 135 171 214 271 335
#
# _framework density 21.313068999999999
#
# number of rings (size 3 to 8) (size 9 to 14) (size 15 to 20)
#    0.000    2.143    2.857    1.286    0.000    3.429 
#    0.000    4.286    0.000    5.143    0.000    0.000 
#    0.000    0.000    0.000    0.000    0.000    0.000 
#
# Total GULP energy -156004.762135 kJ/mol
# GULP energy per Si atom -5571.598648 kJ/mol
# Density = 2.126456 g / cm^3
# Si number density = 21.313069 Si / 1000 Ang^3
#
#
#
# Elastic Constant Matrix: (Units=GPa)
#
#
# Indices 1 2 3 4 5 6 
#
# 1 91.3158 3.2863 53.5042 0.0000 19.4816 0.0000
# 2 3.2863 34.6302 8.6471 0.0000 5.4453 0.0000
# 3 53.5042 8.6471 153.5346 0.0000 18.3308 0.0000
# 4 0.0000 0.0000 0.0000 17.1973 0.0000 -1.9917
# 5 19.4816 5.4453 18.3308 0.0000 38.2071 0.0000
# 6 0.0000 0.0000 0.0000 -1.9917 0.0000 12.9518
#
#
#
# Elastic Compliance Matrix: (Units=1/GPa)
#
#
# Indices 1 2 3 4 5 6 
#
# 1 0.014737 0.000584 -0.004520 0.000000 -0.005429 0.000000
# 2 0.000584 0.029783 -0.001420 0.000000 -0.003861 0.000000
# 3 -0.004520 -0.001420 0.008347 0.000000 -0.001498 0.000000
# 4 0.000000 0.000000 0.000000 0.059203 0.000000 0.009104
# 5 -0.005429 -0.003861 -0.001498 0.000000 0.030210 0.000000
# 6 0.000000 0.000000 0.000000 0.009104 0.000000 0.078610
#
#
# Mechanical properties :
#
#
# Convention : Reuss Voigt Hill
#
# Bulk Modulus (GPa) = 23.72245 45.59508 34.65877
# Shear Modulus (GPa) = 20.35391 27.94077 24.14734
#
# Velocity S-wave (km/s) = 3.09365 3.62466 3.36963
# Velocity P-wave (km/s) = 4.89035 6.24155 5.60681
#
# Compressibility (1/GPa) = 0.04215415
#
# Stress axis : x y z
#
# Youngs Moduli (GPa) = 67.85784 33.57649 119.80104
#
# Poissons Ratio (x) = -0.01960 0.54153
# Poissons Ratio (y) = -0.03962 0.17010
# Poissons Ratio (z) = 0.30673 0.04767
#
# Static dielectric constant tensor:
#      x y z
#    x 1.802580 0.000000 0.031880 
#    y 0.000000 1.798340 0.000000 
#    z 0.031880 0.000000 1.844790 
# 
# From -- ./inp_files/187774.got.cif
#   From: 2010.05.17/outbox.cif.g08.bks.cpg/sg12_94_cif.got.tgz:187774.got - 2010.06.03 13:09:07.
