data_PCOD9172218
_publ_section_title
;
Structure prediction by ZEFSAII (Michael W. Deem and Ramdas Pophale) SiO2 
 PCOD9172218
Probable space group: C 2/M
;
_chemical_formula_sum "Si O2"
_cell_formula_units_Z 56
_cell_length_a 29.969447
_cell_length_b 11.489214
_cell_length_c 15.364207
_cell_angle_alpha 90.000000
_cell_angle_beta 30.792932
_cell_angle_gamma 90.000000
_cell_volume 2708.292905
_symmetry_space_group_name_H-M "C 2/M"
_symmetry_group_IT_number 12
_symmetry_cell_setting 'monoclinic'
loop_
_space_group_symop_operation_xyz
x,y,z
-x,y,-z
-x,-y,-z
x,-y,z
1/2+x,1/2+y,z
1/2-x,1/2+y,-z
1/2-x,1/2-y,-z
1/2+x,1/2-y,z
loop_
_atom_site_type_symbol
_atom_site_label
_atom_site_fract_x
_atom_site_fract_y
_atom_site_fract_z
Si Si1 0.531354 0.801330 0.036884
Si Si2 0.435298 0.368843 0.740613
Si Si3 0.134657 0.871354 0.333073
Si Si4 0.625321 0.366994 0.647071
Si Si5 0.337825 0.203258 0.574448
Si Si6 0.322412 0.374735 0.255419
Si Si7 0.966541 0.373309 0.774694
O O1 0.458454 0.703137 0.179061
O O2 0.538428 0.873339 0.112589
O O3 0.500000 0.860500 0.000000
O O4 0.619973 0.732976 0.870548
O O5 0.419845 0.500000 0.804764
O O6 0.536560 0.369484 0.538748
O O7 0.378472 0.358853 0.747956
O O8 0.424914 0.249925 0.812927
O O9 0.182655 0.765945 0.300195
O O10 0.171844 0.000000 0.288704
O O11 0.603514 0.500000 0.665362
O O12 0.654832 0.305723 0.509869
O O13 0.692489 0.363774 0.615602
O O14 0.262981 0.125295 0.659688
O O15 0.431122 0.140158 0.421636
O O16 0.368943 0.500000 0.167299
O O17 0.934481 0.500000 0.795340
#
# Coordination Sequence:
#
# PCOD9172218 Si02
#       7
#     8   8   8   8   8   8   8
#     4   9  19  34  51  69  92 128 172 210 242 283
#     4   8  15  29  50  73  97 129 167 205 243 286
#     4   8  14  27  47  72  99 126 162 206 245 287
#     4   9  17  30  49  71  95 128 171 214 247 282
#     4  10  18  29  47  73 103 132 160 197 251 306
#     4  10  19  31  46  68 100 133 168 208 249 293
#     4  10  20  33  50  75 105 132 161 201 251 303
#
# _framework density 20.677232
#
# number of rings (size 3 to 8) (size 9 to 14) (size 15 to 20)
#    0.000    2.857    0.000    2.571    0.000    6.000 
#    0.000    7.857    0.000    1.714    0.000    0.000 
#    0.000    0.000    0.000    0.000    0.000    0.000 
#
# Total GULP energy -155993.863551 kJ/mol
# GULP energy per Si atom -5571.209413 kJ/mol
# Density = 2.063017 g / cm^3
# Si number density = 20.677232 Si / 1000 Ang^3
#
#
#
# Elastic Constant Matrix: (Units=GPa)
#
#
# Indices 1 2 3 4 5 6 
#
# 1 73.7431 46.8367 6.1377 0.0000 10.9822 0.0000
# 2 46.8367 155.8972 12.8916 0.0000 18.8142 0.0000
# 3 6.1377 12.8916 11.3017 0.0000 7.6019 0.0000
# 4 0.0000 0.0000 0.0000 -29.6420 0.0000 -15.5831
# 5 10.9822 18.8142 7.6019 0.0000 16.1000 0.0000
# 6 0.0000 0.0000 0.0000 -15.5831 0.0000 -2.2440
#
#
#
# Elastic Compliance Matrix: (Units=1/GPa)
#
#
# Indices 1 2 3 4 5 6 
#
# 1 0.017356 -0.004412 0.000150 0.000000 -0.006754 0.000000
# 2 -0.004412 0.008707 -0.003980 0.000000 -0.005286 0.000000
# 3 0.000150 -0.003980 0.131714 0.000000 -0.057642 0.000000
# 4 0.000000 0.000000 0.000000 0.012727 0.000000 -0.088382
# 5 -0.006754 -0.005286 -0.057642 0.000000 0.100113 0.000000
# 6 0.000000 0.000000 0.000000 -0.088382 0.000000 0.168119
#
#
# Mechanical properties :
#
#
# Convention : Reuss Voigt Hill
#
# Bulk Modulus (GPa) = 7.07752 41.40822 24.24287
# Shear Modulus (GPa) = 9.95387 8.51453 9.23420
#
# Velocity S-wave (km/s) = 2.19645 2.03144 2.11555
# Velocity P-wave (km/s) = 3.14051 5.05686 4.20919
#
# Compressibility (1/GPa) = 0.14129237
#
# Stress axis : x y z
#
# Youngs Moduli (GPa) = 57.61710 114.85066 7.59223
#
# Poissons Ratio (x) = 0.50667 -0.00114
# Poissons Ratio (y) = 0.25418 0.03022
# Poissons Ratio (z) = -0.00863 0.45715
#
# Static dielectric constant tensor:
#      x y z
#    x 1.776790 0.000000 -0.004130 
#    y 0.000000 1.780640 0.000000 
#    z -0.004130 0.000000 1.730100 
# 
# From -- ./inp_files/245605.got.cif
#   From: 2010.05.17/outbox.cif.g08.bks.cpg/sg12_123_cif.got.tgz:245605.got - 2010.06.03 13:09:07.
