data_PCOD9172765
_publ_section_title
;
Structure prediction by ZEFSAII (Michael W. Deem and Ramdas Pophale) SiO2 
 PCOD9172765
Probable space group: C 2/M
;
_chemical_formula_sum "Si O2"
_cell_formula_units_Z 64
_cell_length_a 25.754225
_cell_length_b 8.661381
_cell_length_c 19.877628
_cell_angle_alpha 90.000000
_cell_angle_beta 62.866230
_cell_angle_gamma 90.000000
_cell_volume 3946.053247
_symmetry_space_group_name_H-M "C 2/M"
_symmetry_group_IT_number 12
_symmetry_cell_setting 'monoclinic'
loop_
_space_group_symop_operation_xyz
x,y,z
-x,y,-z
-x,-y,-z
x,-y,z
1/2+x,1/2+y,z
1/2-x,1/2+y,-z
1/2-x,1/2-y,-z
1/2+x,1/2-y,z
loop_
_atom_site_type_symbol
_atom_site_label
_atom_site_fract_x
_atom_site_fract_y
_atom_site_fract_z
Si Si1 0.112875 0.686229 0.909556
Si Si2 0.959890 0.814685 0.170626
Si Si3 0.298443 0.314714 0.920313
Si Si4 0.361069 0.687331 0.331428
Si Si5 0.809866 0.185255 0.496588
Si Si6 0.764984 0.315420 0.653192
Si Si7 0.748027 0.814022 0.806456
Si Si8 0.912839 0.684940 0.920434
O O1 0.107911 0.500000 0.906739
O O2 0.069877 0.763081 0.881610
O O3 0.179781 0.730101 0.854165
O O4 0.097981 0.728905 0.994985
O O5 0.916253 0.760410 0.255775
O O6 0.023820 0.743732 0.138235
O O7 0.963635 0.000000 0.170350
O O8 0.296681 0.500000 0.924165
O O9 0.281196 0.267108 0.854824
O O10 0.361136 0.255118 0.906638
O O11 0.250000 0.250000 0.000000
O O12 0.360975 0.500000 0.329344
O O13 0.357697 0.731073 0.412172
O O14 0.300342 0.736745 0.331742
O O15 0.750000 0.250000 0.500000
O O16 0.810305 0.250837 0.571454
O O17 0.807305 0.000000 0.500758
O O18 0.765980 0.500000 0.650054
O O19 0.773457 0.257195 0.723552
O O20 0.750073 0.000000 0.800466
O O21 0.910092 0.500000 0.918414
#
# Coordination Sequence:
#
# PCOD9172765 Si02
#       8
#     8   8   8   8   8   8   8   8
#     4  10  20  35  51  71 102 137 170 210 257 303
#     4  11  21  34  51  76 104 136 175 214 252 304
#     4  11  22  38  57  77 100 132 173 218 263 308
#     4   8  16  29  45  68 101 133 165 202 245 296
#     4   9  16  28  45  68  99 136 168 204 249 302
#     4  10  18  30  47  73 103 133 168 209 251 302
#     4  10  20  34  52  75 101 134 171 208 256 307
#     4  11  23  39  53  72 101 137 177 219 259 304
#
# _framework density 16.218737000000001
#
# number of rings (size 3 to 8) (size 9 to 14) (size 15 to 20)
#    0.000    2.000    2.500    3.000    0.000    3.500 
#    0.000    1.875    0.000    0.000    0.000    0.875 
#    0.000    7.000    0.000    0.000    0.000    0.000 
#
# Total GULP energy -178513.480135 kJ/mol
# GULP energy per Si atom -5578.546254 kJ/mol
# Density = 1.618182 g / cm^3
# Si number density = 16.218737 Si / 1000 Ang^3
#
#
#
# Elastic Constant Matrix: (Units=GPa)
#
#
# Indices 1 2 3 4 5 6 
#
# 1 107.7701 31.1644 64.9803 0.0000 6.3392 0.0000
# 2 31.1644 36.4271 34.2839 0.0000 7.5812 -0.0004
# 3 64.9803 34.2839 131.2051 0.0000 25.3031 0.0000
# 4 0.0000 0.0000 0.0000 26.0876 0.0000 1.0432
# 5 6.3392 7.5812 25.3031 0.0000 17.4667 0.0000
# 6 0.0000 -0.0004 0.0000 1.0432 0.0000 23.7048
#
#
#
# Elastic Compliance Matrix: (Units=1/GPa)
#
#
# Indices 1 2 3 4 5 6 
#
# 1 0.015457 -0.008273 -0.007083 0.000000 0.008242 0.000000
# 2 -0.008273 0.040932 -0.005205 0.000000 -0.007223 0.000001
# 3 -0.007083 -0.005205 0.016039 0.000000 -0.018405 0.000000
# 4 0.000000 0.000000 0.000000 0.038400 0.000000 -0.001690
# 5 0.008242 -0.007223 -0.018405 0.000000 0.084058 0.000000
# 6 0.000000 0.000001 0.000000 -0.001690 0.000000 0.042260
#
#
# Mechanical properties :
#
#
# Convention : Reuss Voigt Hill
#
# Bulk Modulus (GPa) = 31.94291 59.58439 45.76365
# Shear Modulus (GPa) = 17.31873 23.11674 20.21774
#
# Velocity S-wave (km/s) = 3.27130 3.77942 3.53451
# Velocity P-wave (km/s) = 5.83150 7.47417 6.70334
#
# Compressibility (1/GPa) = 0.03130586
#
# Stress axis : x y z
#
# Youngs Moduli (GPa) = 64.69423 24.43053 62.34752
#
# Poissons Ratio (x) = 0.20212 0.44161
# Poissons Ratio (y) = 0.53523 0.32454
# Poissons Ratio (z) = 0.45823 0.12717
#
# Static dielectric constant tensor:
#      x y z
#    x 1.514860 0.000000 0.008360 
#    y 0.000000 1.547280 0.000000 
#    z 0.008360 0.000000 1.568450 
# 
# From -- ./inp_files/323668.got.cif
#   From: 2010.05.17/outbox.cif.g08.bks.cpg/sg12_162_cif.got.tgz:323668.got - 2010.06.03 13:09:07.
