data_PCOD9172196
_publ_section_title
;
Structure prediction by ZEFSAII (Michael W. Deem and Ramdas Pophale) SiO2 
 PCOD9172196
Probable space group: C 2/M
;
_chemical_formula_sum "Si O2"
_cell_formula_units_Z 64
_cell_length_a 21.197616
_cell_length_b 7.513017
_cell_length_c 20.706965
_cell_angle_alpha 90.000000
_cell_angle_beta 77.422433
_cell_angle_gamma 90.000000
_cell_volume 3218.611748
_symmetry_space_group_name_H-M "C 2/M"
_symmetry_group_IT_number 12
_symmetry_cell_setting 'monoclinic'
loop_
_space_group_symop_operation_xyz
x,y,z
-x,y,-z
-x,-y,-z
x,-y,z
1/2+x,1/2+y,z
1/2-x,1/2+y,-z
1/2-x,1/2-y,-z
1/2+x,1/2-y,z
loop_
_atom_site_type_symbol
_atom_site_label
_atom_site_fract_x
_atom_site_fract_y
_atom_site_fract_z
Si Si1 0.775530 0.205336 0.316063
Si Si2 0.310831 0.287012 0.031103
Si Si3 0.081852 0.291275 0.670431
Si Si4 0.300530 0.213807 0.545888
Si Si5 0.058878 0.282271 0.531742
Si Si6 0.033687 0.214203 0.817123
Si Si7 0.950587 0.217646 0.953916
Si Si8 0.177557 0.782041 0.827410
O O1 0.848989 0.206692 0.327104
O O2 0.729025 0.285333 0.380599
O O3 0.781011 0.282838 0.242936
O O4 0.755795 0.000000 0.312635
O O5 0.317646 0.500000 0.034314
O O6 0.301976 0.221776 0.106408
O O7 0.250000 0.250000 0.000000
O O8 0.378516 0.220894 0.986515
O O9 0.095915 0.500000 0.660393
O O10 0.034674 0.268305 0.742064
O O11 0.055292 0.227175 0.607647
O O12 0.250000 0.250000 0.500000
O O13 0.371758 0.277037 0.511213
O O14 0.304504 0.000000 0.550585
O O15 0.058012 0.500000 0.531159
O O16 0.000000 0.222544 0.500000
O O17 0.103165 0.269812 0.830836
O O18 0.978406 0.276302 0.878455
O O19 0.032859 0.000000 0.817926
O O20 0.950304 0.000000 0.953466
O O21 0.000000 0.269358 0.000000
O O22 0.178823 0.000000 0.825500
#
# Coordination Sequence:
#
# PCOD9172196 Si02
#       8
#     8   8   8   8   8   8   8   8
#     4   9  17  29  49  74  95 120 161 207 241 275
#     4  10  19  32  50  72 101 131 162 198 243 293
#     4  10  18  29  47  72 100 127 156 194 247 295
#     4  10  18  30  50  74  98 124 162 205 241 282
#     4   9  18  32  48  68  98 134 164 192 235 293
#     4   9  16  29  51  75  95 118 160 210 244 276
#     4   9  15  28  53  77  92 121 171 211 233 272
#     4   8  14  27  47  70  93 120 157 199 237 278
#
# _framework density 19.884350000000001
#
# number of rings (size 3 to 8) (size 9 to 14) (size 15 to 20)
#    0.000    2.750    2.500    1.125    0.000    0.000 
#    0.000    4.375    0.000    7.125    0.000    0.000 
#    0.000    0.000    0.000    0.000    0.000    0.000 
#
# Total GULP energy -178480.394224 kJ/mol
# GULP energy per Si atom -5577.512319 kJ/mol
# Density = 1.983909 g / cm^3
# Si number density = 19.884350 Si / 1000 Ang^3
#
#
#
# Elastic Constant Matrix: (Units=GPa)
#
#
# Indices 1 2 3 4 5 6 
#
# 1 129.2793 -1.4568 107.1334 0.0000 -1.7650 0.0000
# 2 -1.4568 51.9130 4.3290 0.0000 -2.2633 0.0000
# 3 107.1334 4.3290 242.3605 0.0000 -6.7614 0.0000
# 4 0.0000 0.0000 0.0000 10.2272 0.0000 7.2739
# 5 -1.7650 -2.2633 -6.7614 0.0000 27.4738 0.0000
# 6 0.0000 0.0000 0.0000 7.2739 0.0000 11.0646
#
#
#
# Elastic Compliance Matrix: (Units=1/GPa)
#
#
# Indices 1 2 3 4 5 6 
#
# 1 0.012246 0.000776 -0.005441 0.000000 -0.000488 0.000000
# 2 0.000776 0.019404 -0.000648 0.000000 0.001489 0.000000
# 3 -0.005441 -0.000648 0.006577 0.000000 0.001216 0.000000
# 4 0.000000 0.000000 0.000000 0.183645 0.000000 -0.120729
# 5 -0.000488 0.001489 0.001216 0.000000 0.036789 0.000000
# 6 0.000000 0.000000 0.000000 -0.120729 0.000000 0.169746
#
#
# Mechanical properties :
#
#
# Convention : Reuss Voigt Hill
#
# Bulk Modulus (GPa) = 36.23087 71.50713 53.86900
# Shear Modulus (GPa) = 11.15495 30.65627 20.90561
#
# Velocity S-wave (km/s) = 2.37110 3.93075 3.24599
# Velocity P-wave (km/s) = 5.07508 7.52599 6.41861
#
# Compressibility (1/GPa) = 0.02760078
#
# Stress axis : x y z
#
# Youngs Moduli (GPa) = 81.65944 51.53650 152.05427
#
# Poissons Ratio (x) = -0.04000 0.82728
# Poissons Ratio (y) = -0.06337 0.09855
# Poissons Ratio (z) = 0.44429 0.03340
#
# Static dielectric constant tensor:
#      x y z
#    x 1.649600 0.000000 -0.018650 
#    y 0.000000 1.777580 0.000000 
#    z -0.018650 0.000000 1.732970 
# 
# From -- ./inp_files/319120.got.cif
#   From: 2010.05.17/outbox.cif.g08.bks.cpg/sg12_160_cif.got.tgz:319120.got - 2010.06.03 13:09:07.
