data_PCOD9172381
_publ_section_title
;
Structure prediction by ZEFSAII (Michael W. Deem and Ramdas Pophale) SiO2 
 PCOD9172381
Probable space group: C 2/M
;
_chemical_formula_sum "Si O2"
_cell_formula_units_Z 48
_cell_length_a 30.997632
_cell_length_b 7.553239
_cell_length_c 20.144023
_cell_angle_alpha 90.000000
_cell_angle_beta 149.226846
_cell_angle_gamma 90.000000
_cell_volume 2413.085634
_symmetry_space_group_name_H-M "C 2/M"
_symmetry_group_IT_number 12
_symmetry_cell_setting 'monoclinic'
loop_
_space_group_symop_operation_xyz
x,y,z
-x,y,-z
-x,-y,-z
x,-y,z
1/2+x,1/2+y,z
1/2-x,1/2+y,-z
1/2-x,1/2-y,-z
1/2+x,1/2-y,z
loop_
_atom_site_type_symbol
_atom_site_label
_atom_site_fract_x
_atom_site_fract_y
_atom_site_fract_z
Si Si1 0.348704 0.210705 0.127107
Si Si2 0.040131 0.292691 0.845678
Si Si3 0.531792 0.782587 0.114188
Si Si4 0.608849 0.284531 0.449886
Si Si5 0.778383 0.288189 0.612335
Si Si6 0.495262 0.291279 0.419457
O O1 0.391735 0.283009 0.116191
O O2 0.404834 0.274005 0.263574
O O3 0.359306 0.000000 0.140349
O O4 0.250000 0.250000 0.000000
O O5 0.060718 0.500000 0.880702
O O6 0.025771 0.220337 0.900376
O O7 0.951083 0.275722 0.689607
O O8 0.627737 0.721120 0.251258
O O9 0.531674 0.000000 0.116445
O O10 0.500000 0.730042 0.000000
O O11 0.607348 0.500000 0.447620
O O12 0.703856 0.224107 0.562112
O O13 0.564143 0.220390 0.458147
O O14 0.782034 0.500000 0.625181
O O15 0.750000 0.250000 0.500000
O O16 0.500000 0.216255 0.500000
O O17 0.513465 0.500000 0.449166
#
# Coordination Sequence:
#
# PCOD9172381 Si02
#       6
#     8   8   8   8   8   8
#     4  10  20  34  53  76 100 131 171 209 248 297
#     4   9  17  31  51  73  94 126 164 198 239 290
#     4   9  17  30  47  71 100 127 157 197 242 284
#     4   9  17  29  48  75  98 125 161 199 243 287
#     4  10  18  29  49  73  96 125 162 200 237 284
#     4   9  18  34  53  75 104 133 163 206 257 301
#
# _framework density 19.891545000000001
#
# number of rings (size 3 to 8) (size 9 to 14) (size 15 to 20)
#    0.000    2.667    1.667    0.500    0.000    1.000 
#    3.000    0.000    0.000    2.000    0.000    0.000 
#    0.000    0.000    0.000    0.000    0.000    0.000 
#
# Total GULP energy -133835.197501 kJ/mol
# GULP energy per Si atom -5576.466563 kJ/mol
# Density = 1.984627 g / cm^3
# Si number density = 19.891545 Si / 1000 Ang^3
#
#
#
# Elastic Constant Matrix: (Units=GPa)
#
#
# Indices 1 2 3 4 5 6 
#
# 1 175.5086 -3.1706 99.2613 0.0000 -15.6462 0.0000
# 2 -3.1706 43.2813 -13.5509 0.0000 -2.6827 0.0000
# 3 99.2613 -13.5509 119.9891 0.0000 -6.0889 0.0000
# 4 0.0000 0.0000 0.0000 19.0470 0.0000 -1.5797
# 5 -15.6462 -2.6827 -6.0889 0.0000 40.3712 0.0000
# 6 0.0000 0.0000 0.0000 -1.5797 0.0000 2.3146
#
#
#
# Elastic Compliance Matrix: (Units=1/GPa)
#
#
# Indices 1 2 3 4 5 6 
#
# 1 0.011192 -0.001929 -0.009334 0.000000 0.002801 0.000000
# 2 -0.001929 0.024448 0.004435 0.000000 0.001546 0.000000
# 3 -0.009334 0.004435 0.016514 0.000000 -0.000832 0.000000
# 4 0.000000 0.000000 0.000000 0.055652 0.000000 0.037983
# 5 0.002801 0.001546 -0.000832 0.000000 0.025833 0.000000
# 6 0.000000 0.000000 0.000000 0.037983 0.000000 0.457970
#
#
# Mechanical properties :
#
#
# Convention : Reuss Voigt Hill
#
# Bulk Modulus (GPa) = 25.97523 55.98429 40.97976
# Shear Modulus (GPa) = 8.08936 29.42917 18.75927
#
# Velocity S-wave (km/s) = 2.01880 3.85058 3.07429
# Velocity P-wave (km/s) = 4.30359 6.92641 5.76611
#
# Compressibility (1/GPa) = 0.03849822
#
# Stress axis : x y z
#
# Youngs Moduli (GPa) = 89.35311 40.90351 60.55376
#
# Poissons Ratio (x) = 0.07890 0.56520
# Poissons Ratio (y) = 0.17235 -0.26856
# Poissons Ratio (z) = 0.83401 -0.18141
#
# Static dielectric constant tensor:
#      x y z
#    x 1.746900 0.000000 0.013450 
#    y 0.000000 1.750050 0.000000 
#    z 0.013450 0.000000 1.660750 
# 
# From -- ./inp_files/280063.got.cif
#   From: 2010.05.17/outbox.cif.g08.bks.cpg/sg12_141_cif.got.tgz:280063.got - 2010.06.03 13:09:07.
