data_PCOD9172430
_publ_section_title
;
Structure prediction by ZEFSAII (Michael W. Deem and Ramdas Pophale) SiO2 
 PCOD9172430
Probable space group: C 2/M
;
_chemical_formula_sum "Si O2"
_cell_formula_units_Z 48
_cell_length_a 9.370998
_cell_length_b 17.929459
_cell_length_c 26.305277
_cell_angle_alpha 90.000000
_cell_angle_beta 33.710008
_cell_angle_gamma 90.000000
_cell_volume 2452.905762
_symmetry_space_group_name_H-M "C 2/M"
_symmetry_group_IT_number 12
_symmetry_cell_setting 'monoclinic'
loop_
_space_group_symop_operation_xyz
x,y,z
-x,y,-z
-x,-y,-z
x,-y,z
1/2+x,1/2+y,z
1/2-x,1/2+y,-z
1/2-x,1/2-y,-z
1/2+x,1/2-y,z
loop_
_atom_site_type_symbol
_atom_site_label
_atom_site_fract_x
_atom_site_fract_y
_atom_site_fract_z
Si Si1 0.642759 0.586877 0.738733
Si Si2 0.104456 0.588498 0.672375
Si Si3 0.480409 0.707696 0.584876
Si Si4 0.249005 0.805713 0.843128
Si Si5 0.516424 0.689384 0.692081
Si Si6 0.202125 0.192526 0.087939
O O1 0.598641 0.500000 0.760164
O O2 0.573698 0.611084 0.702087
O O3 0.462481 0.637119 0.827677
O O4 0.934632 0.603083 0.671537
O O5 0.127949 0.500000 0.672355
O O6 0.378564 0.630284 0.590592
O O7 0.925482 0.626485 0.769927
O O8 0.750000 0.750000 0.500000
O O9 0.439843 0.692404 0.656671
O O10 0.279783 0.765764 0.621307
O O11 0.321112 0.737903 0.783506
O O12 0.304581 0.773592 0.882308
O O13 0.946192 0.815159 0.921619
O O14 0.500000 0.170834 0.000000
#
# Coordination Sequence:
#
# PCOD9172430 Si02
#       6
#     8   8   8   8   8   8
#     4   9  19  35  54  77 106 142 183 220 257 311
#     4   9  18  35  56  76 103 141 180 215 258 316
#     4  11  21  34  55  82 107 131 168 217 268 315
#     4   9  17  31  50  72  98 135 180 216 254 307
#     4  10  19  34  54  75 102 138 177 214 256 313
#     4  10  18  29  49  77 108 139 175 223 268 304
#
# _framework density 19.568626999999999
#
# number of rings (size 3 to 8) (size 9 to 14) (size 15 to 20)
#    0.000    2.333    0.000    6.000    0.000    1.000 
#    0.000    0.833    0.000   14.500    0.000    0.000 
#    0.000    0.000    0.000    0.000    0.000    0.000 
#
# Total GULP energy -133678.950963 kJ/mol
# GULP energy per Si atom -5569.956290 kJ/mol
# Density = 1.952409 g / cm^3
# Si number density = 19.568627 Si / 1000 Ang^3
#
#
#
# Elastic Constant Matrix: (Units=GPa)
#
#
# Indices 1 2 3 4 5 6 
#
# 1 46.1980 23.0558 26.5350 0.0133 -10.4328 0.0114
# 2 23.0558 97.1598 23.7940 -0.0057 -12.9714 -0.0011
# 3 26.5350 23.7940 65.8498 0.0118 -30.0338 -0.0053
# 4 0.0133 -0.0057 0.0118 16.5513 -0.0074 -8.8486
# 5 -10.4328 -12.9714 -30.0338 -0.0074 36.2552 -0.0037
# 6 0.0114 -0.0011 -0.0053 -8.8486 -0.0037 23.4805
#
#
#
# Elastic Compliance Matrix: (Units=1/GPa)
#
#
# Indices 1 2 3 4 5 6 
#
# 1 0.030047 -0.004633 -0.011647 -0.000035 -0.002659 -0.000031
# 2 -0.004633 0.012031 -0.001809 0.000014 0.001473 0.000008
# 3 -0.011647 -0.001809 0.030071 0.000006 0.020912 0.000018
# 4 -0.000035 0.000014 0.000006 0.075662 0.000018 0.028513
# 5 -0.002659 0.001473 0.020912 0.000018 0.044667 0.000020
# 6 -0.000031 0.000008 0.000018 0.028513 0.000020 0.053334
#
#
# Mechanical properties :
#
#
# Convention : Reuss Voigt Hill
#
# Bulk Modulus (GPa) = 27.79893 39.55303 33.67598
# Shear Modulus (GPa) = 17.00799 24.31226 20.66012
#
# Velocity S-wave (km/s) = 2.95133 3.52861 3.25280
# Velocity P-wave (km/s) = 5.08434 6.07106 5.59948
#
# Compressibility (1/GPa) = 0.03597261
#
# Stress axis : x y z
#
# Youngs Moduli (GPa) = 33.28108 83.11661 33.25512
#
# Poissons Ratio (x) = 0.38507 0.38731
# Poissons Ratio (y) = 0.15419 0.06014
# Poissons Ratio (z) = 0.38761 0.15032
#
# Static dielectric constant tensor:
#      x y z
#    x 1.745340 0.000000 -0.013960 
#    y 0.000000 1.682690 -0.000010 
#    z -0.013960 -0.000010 1.754060 
# 
# From -- ./inp_files/300622.got.cif
#   From: 2010.05.17/outbox.cif.g08.bks.cpg/sg12_151_cif.got.tgz:300622.got - 2010.06.03 13:09:07.
