data_PCOD9172091
_publ_section_title
;
Structure prediction by ZEFSAII (Michael W. Deem and Ramdas Pophale) SiO2 
 PCOD9172091
Probable space group: C 2/M
;
_chemical_formula_sum "Si O2"
_cell_formula_units_Z 64
_cell_length_a 34.959032
_cell_length_b 13.560298
_cell_length_c 8.255124
_cell_angle_alpha 90.000000
_cell_angle_beta 95.365116
_cell_angle_gamma 90.000000
_cell_volume 3896.237689
_symmetry_space_group_name_H-M "C 2/M"
_symmetry_group_IT_number 12
_symmetry_cell_setting 'monoclinic'
loop_
_space_group_symop_operation_xyz
x,y,z
-x,y,-z
-x,-y,-z
x,-y,z
1/2+x,1/2+y,z
1/2-x,1/2+y,-z
1/2-x,1/2-y,-z
1/2+x,1/2-y,z
loop_
_atom_site_type_symbol
_atom_site_label
_atom_site_fract_x
_atom_site_fract_y
_atom_site_fract_z
Si Si1 0.584375 0.384774 0.724528
Si Si2 0.238489 0.118640 0.763581
Si Si3 0.579021 0.384949 0.336510
Si Si4 0.659474 0.619478 0.229639
Si Si5 0.497914 0.385773 0.192523
Si Si6 0.287456 0.881975 0.102244
Si Si7 0.739281 0.380046 0.405645
Si Si8 0.162655 0.795493 0.875206
O O1 0.588806 0.500000 0.780465
O O2 0.584011 0.383876 0.530544
O O3 0.543203 0.345424 0.768888
O O4 0.620284 0.323369 0.801955
O O5 0.252356 0.152030 0.590566
O O6 0.195063 0.153682 0.776740
O O7 0.238269 0.000000 0.762732
O O8 0.264063 0.146446 0.929826
O O9 0.577093 0.500000 0.281774
O O10 0.617688 0.344213 0.271049
O O11 0.537612 0.340781 0.273922
O O12 0.658741 0.500000 0.224572
O O13 0.694831 0.647793 0.358953
O O14 0.667975 0.659660 0.055602
O O15 0.496890 0.500000 0.251905
O O16 0.500000 0.386048 0.000000
O O17 0.263736 0.853667 0.255513
O O18 0.326393 0.819383 0.118749
O O19 0.292631 0.000000 0.104073
O O20 0.740418 0.500000 0.407691
#
# Coordination Sequence:
#
# PCOD9172091 Si02
#       8
#     8   8   8   8   8   8   8   8
#     4  10  19  30  45  69 100 129 160 194 229 279
#     4  10  19  33  52  72  95 123 157 197 242 291
#     4   9  17  29  44  67 100 135 159 184 226 277
#     4  10  18  29  46  70 100 125 155 195 232 281
#     4   9  16  27  44  65  94 133 164 184 218 273
#     4  10  22  39  50  65  93 124 166 209 245 287
#     4   9  18  33  51  69  94 128 158 195 241 281
#     4  12  21  31  48  71  93 126 163 198 245 281
#
# _framework density 16.426103000000001
#
# number of rings (size 3 to 8) (size 9 to 14) (size 15 to 20)
#    0.000    2.125    1.250    3.375    0.000    6.000 
#    2.250    0.000    0.000    0.000    0.000    0.000 
#    0.000    6.500    0.000    0.000    0.000    0.250 
#
# Total GULP energy -178455.059218 kJ/mol
# GULP energy per Si atom -5576.720601 kJ/mol
# Density = 1.638872 g / cm^3
# Si number density = 16.426103 Si / 1000 Ang^3
#
#
#
# Elastic Constant Matrix: (Units=GPa)
#
#
# Indices 1 2 3 4 5 6 
#
# 1 117.3255 36.5941 43.9786 0.0000 0.4659 0.0000
# 2 36.5941 42.4392 22.2916 0.0000 5.9958 0.0000
# 3 43.9786 22.2916 96.3001 0.0000 -0.6222 0.0000
# 4 0.0000 0.0000 0.0000 13.0112 0.0000 -0.3196
# 5 0.4659 5.9958 -0.6222 0.0000 23.9466 0.0000
# 6 0.0000 0.0000 0.0000 -0.3196 0.0000 18.7576
#
#
#
# Elastic Compliance Matrix: (Units=1/GPa)
#
#
# Indices 1 2 3 4 5 6 
#
# 1 0.012827 -0.009420 -0.003664 0.000000 0.002014 0.000000
# 2 -0.009420 0.034926 -0.003839 0.000000 -0.008661 0.000000
# 3 -0.003664 -0.003839 0.012955 0.000000 0.001369 0.000000
# 4 0.000000 0.000000 0.000000 0.076889 0.000000 0.001310
# 5 0.002014 -0.008661 0.001369 0.000000 0.043925 0.000000
# 6 0.000000 0.000000 0.000000 0.001310 0.000000 0.053334
#
#
# Mechanical properties :
#
#
# Convention : Reuss Voigt Hill
#
# Bulk Modulus (GPa) = 37.22760 51.31036 44.26898
# Shear Modulus (GPa) = 18.00789 21.35642 19.68216
#
# Velocity S-wave (km/s) = 3.31463 3.60967 3.46529
# Velocity P-wave (km/s) = 6.11244 6.97695 6.55896
#
# Compressibility (1/GPa) = 0.02686179
#
# Stress axis : x y z
#
# Youngs Moduli (GPa) = 77.96042 28.63208 77.19019
#
# Poissons Ratio (x) = 0.26972 0.28285
# Poissons Ratio (y) = 0.73440 0.29630
# Poissons Ratio (z) = 0.28567 0.10991
#
# Static dielectric constant tensor:
#      x y z
#    x 1.562280 0.000000 -0.000070 
#    y 0.000000 1.555250 0.000000 
#    z -0.000070 0.000000 1.580480 
# 
# From -- ./inp_files/111181.got.cif
#   From: 2010.05.17/outbox.cif.g08.bks.cpg/sg12_56_cif.got.tgz:111181.got - 2010.06.03 13:09:07.
