data_PCOD9172566
_publ_section_title
;
Structure prediction by ZEFSAII (Michael W. Deem and Ramdas Pophale) SiO2 
 PCOD9172566
Probable space group: C 2/M
;
_chemical_formula_sum "Si O2"
_cell_formula_units_Z 44
_cell_length_a 20.155528
_cell_length_b 23.155763
_cell_length_c 9.030675
_cell_angle_alpha 90.000000
_cell_angle_beta 148.118306
_cell_angle_gamma 90.000000
_cell_volume 2226.100677
_symmetry_space_group_name_H-M "C 2/M"
_symmetry_group_IT_number 12
_symmetry_cell_setting 'monoclinic'
loop_
_space_group_symop_operation_xyz
x,y,z
-x,y,-z
-x,-y,-z
x,-y,z
1/2+x,1/2+y,z
1/2-x,1/2+y,-z
1/2-x,1/2-y,-z
1/2+x,1/2-y,z
loop_
_atom_site_type_symbol
_atom_site_label
_atom_site_fract_x
_atom_site_fract_y
_atom_site_fract_z
Si Si1 0.217067 0.567446 0.656797
Si Si2 0.186335 0.649650 0.873810
Si Si3 0.060911 0.142732 0.475326
Si Si4 0.674338 0.567083 0.447304
Si Si5 0.500000 0.749290 0.500000
Si Si6 0.071088 0.434890 0.882083
O O1 0.237963 0.500000 0.739011
O O2 0.229554 0.611484 0.815927
O O3 0.306126 0.581477 0.687370
O O4 0.070513 0.571058 0.327556
O O5 0.117557 0.708648 0.702961
O O6 0.092402 0.610854 0.793769
O O7 0.302336 0.659456 0.203134
O O8 0.081938 0.106967 0.367766
O O9 0.000000 0.108437 0.500000
O O10 0.988181 0.203995 0.340446
O O11 0.635789 0.500000 0.386288
O O12 0.813938 0.571314 0.785641
O O13 0.081549 0.500000 0.840278
#
# Coordination Sequence:
#
# PCOD9172566 Si02
#       6
#     8   8   8   8   4   8
#     4  10  18  29  51  84 111 129 160 211 267 310
#     4  11  18  33  56  78 105 132 169 214 258 297
#     4   9  22  37  55  72 100 137 183 210 243 303
#     4   9  18  33  52  76 107 138 166 206 259 310
#     4  10  20  36  56  76  96 136 176 224 244 294
#     4   9  16  28  50  80 109 136 164 201 258 320
#
# _framework density 19.765502000000001
#
# number of rings (size 3 to 8) (size 9 to 14) (size 15 to 20)
#    0.545    1.818    1.818    1.636    0.000    4.727 
#    0.000    1.818    0.000    4.364    0.000    0.000 
#    0.000    0.000    0.000    0.000    0.000    0.000 
#
# Total GULP energy -122577.711595 kJ/mol
# GULP energy per Si atom -5571.714163 kJ/mol
# Density = 1.972052 g / cm^3
# Si number density = 19.765502 Si / 1000 Ang^3
#
#
#
# Elastic Constant Matrix: (Units=GPa)
#
#
# Indices 1 2 3 4 5 6 
#
# 1 146.0812 89.3821 -0.7554 0.0000 -7.6087 0.0000
# 2 89.3821 113.9939 12.3390 0.0000 -8.0335 0.0000
# 3 -0.7554 12.3390 40.0127 0.0000 -0.2386 0.0000
# 4 0.0000 0.0000 0.0000 1.0447 0.0000 4.7253
# 5 -7.6087 -8.0335 -0.2386 0.0000 16.6711 0.0000
# 6 0.0000 0.0000 0.0000 4.7253 0.0000 -16.0177
#
#
#
# Elastic Compliance Matrix: (Units=1/GPa)
#
#
# Indices 1 2 3 4 5 6 
#
# 1 0.013679 -0.011055 0.003673 0.000000 0.000968 0.000000
# 2 -0.011055 0.018334 -0.005840 0.000000 0.003706 0.000000
# 3 0.003673 -0.005840 0.026858 0.000000 -0.000753 0.000000
# 4 0.000000 0.000000 0.000000 0.410053 0.000000 0.120969
# 5 0.000968 0.003706 -0.000753 0.000000 0.062201 0.000000
# 6 0.000000 0.000000 0.000000 0.120969 0.000000 -0.026744
#
#
# Mechanical properties :
#
#
# Convention : Reuss Voigt Hill
#
# Bulk Modulus (GPa) = 30.83899 55.77990 43.30945
# Shear Modulus (GPa) = 9.23131 13.61443 11.42287
#
# Velocity S-wave (km/s) = 2.16346 2.62734 2.40660
# Velocity P-wave (km/s) = 4.67729 6.12258 5.44808
#
# Compressibility (1/GPa) = 0.03242648
#
# Stress axis : x y z
#
# Youngs Moduli (GPa) = 73.10352 54.54335 37.23290
#
# Poissons Ratio (x) = 0.60299 -0.13676
# Poissons Ratio (y) = 0.80817 0.21745
# Poissons Ratio (z) = -0.26852 0.31855
#
# Static dielectric constant tensor:
#      x y z
#    x 1.713310 0.000000 0.042130 
#    y 0.000000 1.680250 0.000000 
#    z 0.042130 0.000000 1.750210 
# 
# From -- ./inp_files/79205.got.cif
#   From: 2010.05.17/outbox.cif.g08.bks.cpg/sg12_40_cif.got.tgz:79205.got - 2010.06.03 13:09:07.
