data_PCOD9172673
_publ_section_title
;
Structure prediction by ZEFSAII (Michael W. Deem and Ramdas Pophale) SiO2 
 PCOD9172673
Probable space group: C 2/M
;
_chemical_formula_sum "Si O2"
_cell_formula_units_Z 48
_cell_length_a 28.258936
_cell_length_b 9.075383
_cell_length_c 12.521242
_cell_angle_alpha 90.000000
_cell_angle_beta 108.465107
_cell_angle_gamma 90.000000
_cell_volume 3045.882649
_symmetry_space_group_name_H-M "C 2/M"
_symmetry_group_IT_number 12
_symmetry_cell_setting 'monoclinic'
loop_
_space_group_symop_operation_xyz
x,y,z
-x,y,-z
-x,-y,-z
x,-y,z
1/2+x,1/2+y,z
1/2-x,1/2+y,-z
1/2-x,1/2-y,-z
1/2+x,1/2-y,z
loop_
_atom_site_type_symbol
_atom_site_label
_atom_site_fract_x
_atom_site_fract_y
_atom_site_fract_z
Si Si1 0.671650 0.677365 0.428711
Si Si2 0.754347 0.176641 0.338366
Si Si3 0.478299 0.169275 0.105780
Si Si4 0.723643 0.823318 0.081924
Si Si5 0.073773 0.825818 0.247821
Si Si6 0.117235 0.826396 0.039096
O O1 0.673122 0.500000 0.417511
O O2 0.708830 0.746897 0.368163
O O3 0.695488 0.715073 0.560478
O O4 0.615112 0.722858 0.363306
O O5 0.752226 0.215445 0.212681
O O6 0.747735 0.000000 0.341867
O O7 0.522257 0.237725 0.208335
O O8 0.467880 0.000000 0.125965
O O9 0.500000 0.171811 0.000000
O O10 0.428112 0.264570 0.064586
O O11 0.667647 0.762229 0.054364
O O12 0.723031 0.000000 0.070977
O O13 0.750000 0.750000 0.000000
O O14 0.100063 0.807736 0.150370
O O15 0.063389 0.000000 0.252836
O O16 0.124889 0.000000 0.026208
#
# Coordination Sequence:
#
# PCOD9172673 Si02
#       6
#     8   8   8   8   8   8
#     4   9  16  28  46  68  94 123 151 184 230 279
#     4   9  18  30  45  66  92 121 155 192 229 273
#     4   9  17  27  41  63  92 123 153 186 225 272
#     4  11  22  34  48  67  92 125 163 198 232 270
#     4   9  16  26  43  67  94 123 151 181 225 279
#     4  10  18  30  46  65  91 122 155 192 232 274
#
# _framework density 15.758978000000001
#
# number of rings (size 3 to 8) (size 9 to 14) (size 15 to 20)
#    0.000    2.500    1.667    1.500    0.000    4.000 
#    0.000    0.000    0.000    0.000    0.000    1.167 
#    0.000    9.333    0.000    0.000    0.000    0.000 
#
# Total GULP energy -133737.214859 kJ/mol
# GULP energy per Si atom -5572.383952 kJ/mol
# Density = 1.572311 g / cm^3
# Si number density = 15.758978 Si / 1000 Ang^3
#
#
#
# Elastic Constant Matrix: (Units=GPa)
#
#
# Indices 1 2 3 4 5 6 
#
# 1 54.4800 34.9441 56.2001 0.0000 25.0268 0.0000
# 2 34.9441 54.2766 44.5228 0.0000 9.2214 0.0000
# 3 56.2001 44.5228 113.1002 0.0000 27.1969 0.0000
# 4 0.0000 0.0000 0.0000 17.8170 0.0000 4.7949
# 5 25.0268 9.2214 27.1969 0.0000 33.1399 0.0000
# 6 0.0000 0.0000 0.0000 4.7949 0.0000 27.9638
#
#
#
# Elastic Compliance Matrix: (Units=1/GPa)
#
#
# Indices 1 2 3 4 5 6 
#
# 1 0.060140 -0.022082 -0.014636 0.000000 -0.027261 0.000000
# 2 -0.022082 0.035380 -0.005728 0.000000 0.011532 0.000000
# 3 -0.014636 -0.005728 0.019097 0.000000 -0.003026 0.000000
# 4 0.000000 0.000000 0.000000 0.058842 0.000000 -0.010089
# 5 -0.027261 0.011532 -0.003026 0.000000 0.050037 0.000000
# 6 0.000000 0.000000 0.000000 -0.010089 0.000000 0.037490
#
#
# Mechanical properties :
#
#
# Convention : Reuss Voigt Hill
#
# Bulk Modulus (GPa) = 33.64114 54.79896 44.22005
# Shear Modulus (GPa) = 14.05343 21.53014 17.79179
#
# Velocity S-wave (km/s) = 2.98950 3.70024 3.36370
# Velocity P-wave (km/s) = 5.77146 7.28728 6.57321
#
# Compressibility (1/GPa) = 0.02972551
#
# Stress axis : x y z
#
# Youngs Moduli (GPa) = 16.62798 28.26431 52.36478
#
# Poissons Ratio (x) = 0.62412 0.76639
# Poissons Ratio (y) = 0.36717 0.29996
# Poissons Ratio (z) = 0.24336 0.16191
#
# Static dielectric constant tensor:
#      x y z
#    x 1.500050 0.000000 0.033390 
#    y 0.000000 1.524290 0.000000 
#    z 0.033390 0.000000 1.538770 
# 
# From -- ./inp_files/172397.got.cif
#   From: 2010.05.17/outbox.cif.g08.bks.cpg/sg12_87_cif.got.tgz:172397.got - 2010.06.03 13:09:07.
