data_PCOD9172438
_publ_section_title
;
Structure prediction by ZEFSAII (Michael W. Deem and Ramdas Pophale) SiO2 
 PCOD9172438
Probable space group: C 2/M
;
_chemical_formula_sum "Si O2"
_cell_formula_units_Z 56
_cell_length_a 23.394873
_cell_length_b 14.119628
_cell_length_c 15.966232
_cell_angle_alpha 90.000000
_cell_angle_beta 151.737526
_cell_angle_gamma 90.000000
_cell_volume 2497.335296
_symmetry_space_group_name_H-M "C 2/M"
_symmetry_group_IT_number 12
_symmetry_cell_setting 'monoclinic'
loop_
_space_group_symop_operation_xyz
x,y,z
-x,y,-z
-x,-y,-z
x,-y,z
1/2+x,1/2+y,z
1/2-x,1/2+y,-z
1/2-x,1/2-y,-z
1/2+x,1/2-y,z
loop_
_atom_site_type_symbol
_atom_site_label
_atom_site_fract_x
_atom_site_fract_y
_atom_site_fract_z
Si Si1 0.798588 0.898089 0.362854
Si Si2 0.031561 0.644637 0.335443
Si Si3 0.710306 0.850913 0.910528
Si Si4 0.681907 0.195927 0.688850
Si Si5 0.080762 0.392222 0.214560
Si Si6 0.035449 0.814225 0.955754
Si Si7 0.018398 0.133612 0.759749
O O1 0.818920 0.809343 0.328205
O O2 0.695735 0.878372 0.301236
O O3 0.923064 0.907355 0.573514
O O4 0.769673 0.000000 0.285264
O O5 0.111605 0.644065 0.522874
O O6 0.099940 0.611068 0.340063
O O7 0.896969 0.602958 0.174277
O O8 0.997954 0.754306 0.277440
O O9 0.648268 0.832043 0.739766
O O10 0.750000 0.750000 0.000000
O O11 0.842763 0.896810 0.072531
O O12 0.822658 0.173645 0.867633
O O13 0.035051 0.500000 0.138326
O O14 0.997912 0.298817 0.092894
O O15 0.980384 0.872366 0.807721
O O16 0.000000 0.849330 0.000000
#
# Coordination Sequence:
#
# PCOD9172438 Si02
#       7
#     8   8   8   8   8   8   8
#     4  10  20  34  52  79 116 146 173 215 271 327
#     4   9  18  32  55  75 102 137 184 224 261 307
#     4   9  17  34  54  76 101 132 176 230 271 311
#     4  10  19  31  54  83 103 135 179 227 270 313
#     4  10  21  34  50  77 115 151 176 210 268 328
#     4  10  18  29  49  78 108 137 176 218 263 309
#     4   8  18  31  51  74 101 139 178 219 262 313
#
# _framework density 22.4239
#
# number of rings (size 3 to 8) (size 9 to 14) (size 15 to 20)
#    0.000    2.571    1.429    1.286    2.000    2.571 
#    0.000    0.714    0.000   21.000    0.000    0.000 
#    0.000    0.000    0.000    0.000    0.000    0.000 
#
# Total GULP energy -155961.620727 kJ/mol
# GULP energy per Si atom -5570.057883 kJ/mol
# Density = 2.237286 g / cm^3
# Si number density = 22.423900 Si / 1000 Ang^3
#
#
#
# Elastic Constant Matrix: (Units=GPa)
#
#
# Indices 1 2 3 4 5 6 
#
# 1 41.1716 -4.1283 1.9752 0.0000 -5.0951 0.0000
# 2 -4.1283 58.9497 -7.7296 0.0000 12.3827 0.0000
# 3 1.9752 -7.7296 67.5576 0.0000 -5.9364 0.0000
# 4 0.0000 0.0000 0.0000 -14.1518 0.0000 -15.5777
# 5 -5.0951 12.3827 -5.9364 0.0000 35.6127 0.0000
# 6 0.0000 0.0000 0.0000 -15.5777 0.0000 -39.9095
#
#
#
# Elastic Compliance Matrix: (Units=1/GPa)
#
#
# Indices 1 2 3 4 5 6 
#
# 1 0.024796 0.001035 -0.000331 0.000000 0.003132 0.000000
# 2 0.001035 0.018506 0.001558 0.000000 -0.006027 0.000000
# 3 -0.000331 0.001558 0.015160 0.000000 0.001938 0.000000
# 4 0.000000 0.000000 0.000000 -0.123894 0.000000 0.048359
# 5 0.003132 -0.006027 0.001938 0.000000 0.030947 0.000000
# 6 0.000000 0.000000 0.000000 0.048359 0.000000 -0.043932
#
#
# Mechanical properties :
#
#
# Convention : Reuss Voigt Hill
#
# Bulk Modulus (GPa) = 15.87673 16.43483 16.15578
# Shear Modulus (GPa) = -80.71789 8.14772 -36.28508
#
# Velocity S-wave (km/s) = -6.00621 1.90824 -4.02698
# Velocity P-wave (km/s) = 6.40341 3.49289 3.79496
#
# Compressibility (1/GPa) = 0.06298527
#
# Stress axis : x y z
#
# Youngs Moduli (GPa) = 40.32923 54.03560 65.96134
#
# Poissons Ratio (x) = -0.05593 0.02185
# Poissons Ratio (y) = -0.04174 -0.10274
# Poissons Ratio (z) = 0.01336 -0.08416
#
# Static dielectric constant tensor:
#      x y z
#    x 1.928220 0.000000 -0.009150 
#    y 0.000000 1.911690 0.000000 
#    z -0.009150 0.000000 1.821840 
# 
# From -- ./inp_files/290355.got.cif
#   From: 2010.05.17/outbox.cif.g08.bks.cpg/sg12_146_cif.got.tgz:290355.got - 2010.06.03 13:09:07.
