data_PCOD9172932
_publ_section_title
;
Structure prediction by ZEFSAII (Michael W. Deem and Ramdas Pophale) SiO2 
 PCOD9172932
Probable space group: C 2/M
;
_chemical_formula_sum "Si O2"
_cell_formula_units_Z 64
_cell_length_a 29.415180
_cell_length_b 7.415652
_cell_length_c 14.827503
_cell_angle_alpha 90.000000
_cell_angle_beta 88.997292
_cell_angle_gamma 90.000000
_cell_volume 3233.868552
_symmetry_space_group_name_H-M "C 2/M"
_symmetry_group_IT_number 12
_symmetry_cell_setting 'monoclinic'
loop_
_space_group_symop_operation_xyz
x,y,z
-x,y,-z
-x,-y,-z
x,-y,z
1/2+x,1/2+y,z
1/2-x,1/2+y,-z
1/2-x,1/2-y,-z
1/2+x,1/2-y,z
loop_
_atom_site_type_symbol
_atom_site_label
_atom_site_fract_x
_atom_site_fract_y
_atom_site_fract_z
Si Si1 0.550972 0.212754 0.511443
Si Si2 0.589430 0.290854 0.042811
Si Si3 0.666925 0.780137 0.186753
Si Si4 0.137515 0.778617 0.862387
Si Si5 0.739243 0.284755 0.895773
Si Si6 0.069046 0.217117 0.717840
Si Si7 0.473646 0.280684 0.801231
Si Si8 0.396171 0.209261 0.657527
O O1 0.500000 0.288084 0.500000
O O2 0.565836 0.230240 0.613928
O O3 0.586630 0.288579 0.437428
O O4 0.547671 0.000000 0.490071
O O5 0.578159 0.500000 0.026000
O O6 0.632760 0.280123 0.108538
O O7 0.547557 0.216411 0.103145
O O8 0.606286 0.215853 0.947234
O O9 0.717761 0.718518 0.163273
O O10 0.645322 0.715634 0.281732
O O11 0.665836 0.000000 0.185652
O O12 0.189223 0.716188 0.872831
O O13 0.113500 0.724443 0.770612
O O14 0.138216 0.000000 0.866243
O O15 0.737901 0.500000 0.883458
O O16 0.750000 0.250000 0.000000
O O17 0.023947 0.278420 0.772944
O O18 0.068141 0.000000 0.719855
O O19 0.472766 0.500000 0.802597
O O20 0.439292 0.221040 0.723567
O O21 0.384530 0.000000 0.642378
#
# Coordination Sequence:
#
# PCOD9172932 Si02
#       8
#     8   8   8   8   8   8   8   8
#     4  10  19  32  50  69  89 119 155 192 236 277
#     4   9  16  28  45  65  93 125 153 183 222 267
#     4   9  17  28  46  71  93 116 150 190 227 269
#     4   9  18  31  46  66  95 128 155 185 227 272
#     4  10  18  30  49  71  94 121 155 190 227 268
#     4  10  20  32  46  67  95 125 157 190 226 271
#     4   9  17  27  43  68  93 120 154 187 219 264
#     4   9  17  30  47  67  92 118 147 187 234 277
#
# _framework density 19.79054
#
# number of rings (size 3 to 8) (size 9 to 14) (size 15 to 20)
#    0.000    2.625    2.500    0.000    0.000    1.250 
#    0.000    3.750    0.000    0.750    0.000    4.375 
#    0.000    0.000    0.000    0.000    0.000    0.000 
#
# Total GULP energy -178508.608523 kJ/mol
# GULP energy per Si atom -5578.394016 kJ/mol
# Density = 1.974550 g / cm^3
# Si number density = 19.790540 Si / 1000 Ang^3
#
#
#
# Elastic Constant Matrix: (Units=GPa)
#
#
# Indices 1 2 3 4 5 6 
#
# 1 116.6124 -7.5955 81.7754 0.0000 -19.5565 0.0000
# 2 -7.5955 63.7166 -6.2961 0.0000 -6.8039 0.0000
# 3 81.7754 -6.2961 146.2012 0.0000 -18.6299 0.0000
# 4 0.0000 0.0000 0.0000 17.8540 0.0000 6.0370
# 5 -19.5565 -6.8039 -18.6299 0.0000 28.9873 0.0000
# 6 0.0000 0.0000 0.0000 6.0370 0.0000 3.6963
#
#
#
# Elastic Compliance Matrix: (Units=1/GPa)
#
#
# Indices 1 2 3 4 5 6 
#
# 1 0.014924 0.001628 -0.007565 0.000000 0.005589 0.000000
# 2 0.001628 0.016498 0.000472 0.000000 0.005274 0.000000
# 3 -0.007565 0.000472 0.011388 0.000000 0.002326 0.000000
# 4 0.000000 0.000000 0.000000 0.125096 0.000000 -0.204318
# 5 0.005589 0.005274 0.002326 0.000000 0.041001 0.000000
# 6 0.000000 0.000000 0.000000 -0.204318 0.000000 0.604252
#
#
# Mechanical properties :
#
#
# Convention : Reuss Voigt Hill
#
# Bulk Modulus (GPa) = 31.36744 51.36641 41.36693
# Shear Modulus (GPa) = 5.99006 27.35061 16.67033
#
# Velocity S-wave (km/s) = 1.74164 3.72156 2.90546
# Velocity P-wave (km/s) = 4.46414 6.66919 5.67480
#
# Compressibility (1/GPa) = 0.03188019
#
# Stress axis : x y z
#
# Youngs Moduli (GPa) = 67.00681 60.61183 87.81141
#
# Poissons Ratio (x) = -0.09869 0.66431
# Poissons Ratio (y) = -0.10910 -0.04143
# Poissons Ratio (z) = 0.50692 -0.02860
#
# Static dielectric constant tensor:
#      x y z
#    x 1.695650 0.000000 -0.039530 
#    y 0.000000 1.748490 0.000000 
#    z -0.039530 0.000000 1.688660 
# 
# From -- ./inp_files/248448.got.cif
#   From: 2010.05.17/outbox.cif.g08.bks.cpg/sg12_125_cif.got.tgz:248448.got - 2010.06.03 13:09:07.
