data_PCOD9172319
_publ_section_title
;
Structure prediction by ZEFSAII (Michael W. Deem and Ramdas Pophale) SiO2 
 PCOD9172319
Probable space group: C 2/M
;
_chemical_formula_sum "Si O2"
_cell_formula_units_Z 56
_cell_length_a 26.087522
_cell_length_b 7.577060
_cell_length_c 13.695766
_cell_angle_alpha 90.000000
_cell_angle_beta 69.036802
_cell_angle_gamma 90.000000
_cell_volume 2528.008892
_symmetry_space_group_name_H-M "C 2/M"
_symmetry_group_IT_number 12
_symmetry_cell_setting 'monoclinic'
loop_
_space_group_symop_operation_xyz
x,y,z
-x,y,-z
-x,-y,-z
x,-y,z
1/2+x,1/2+y,z
1/2-x,1/2+y,-z
1/2-x,1/2-y,-z
1/2+x,1/2-y,z
loop_
_atom_site_type_symbol
_atom_site_label
_atom_site_fract_x
_atom_site_fract_y
_atom_site_fract_z
Si Si1 0.459959 0.701400 0.606770
Si Si2 0.308413 0.289826 0.411391
Si Si3 0.787404 0.298704 0.818774
Si Si4 0.657435 0.702308 0.413250
Si Si5 0.600148 0.794625 0.161286
Si Si6 0.824476 0.781859 0.179996
Si Si7 0.560268 0.297611 0.979594
O O1 0.500000 0.786057 0.500000
O O2 0.479540 0.500000 0.612195
O O3 0.402215 0.696019 0.591234
O O4 0.443925 0.782953 0.721037
O O5 0.315921 0.500000 0.396318
O O6 0.250000 0.250000 0.500000
O O7 0.346614 0.226332 0.474156
O O8 0.314486 0.221356 0.298128
O O9 0.782323 0.500000 0.856443
O O10 0.805568 0.299967 0.691874
O O11 0.840339 0.222259 0.840671
O O12 0.725915 0.221675 0.855698
O O13 0.678564 0.500000 0.402884
O O14 0.575341 0.703992 0.083517
O O15 0.608141 0.000000 0.132433
O O16 0.822996 0.000000 0.177233
O O17 0.884866 0.721644 0.107286
O O18 0.556949 0.500000 0.945889
O O19 0.500000 0.218203 0.000000
#
# Coordination Sequence:
#
# PCOD9172319 Si02
#       7
#     8   8   8   8   8   8   8
#     4   9  18  33  54  80 108 140 181 223 262 312
#     4  10  18  29  48  74 106 139 169 208 261 315
#     4   9  17  32  53  77 106 139 172 209 267 330
#     4   9  17  28  46  76 109 137 169 215 261 305
#     4  10  21  36  56  80 109 143 176 220 277 327
#     4   9  18  33  54  79 107 141 181 224 267 318
#     4  10  22  40  60  79 102 140 189 231 270 319
#
# _framework density 22.151821000000002
#
# number of rings (size 3 to 8) (size 9 to 14) (size 15 to 20)
#    0.000    2.571    1.429    0.429    0.000    2.857 
#    0.000    5.714    0.000    1.714    0.000    0.000 
#    0.000    0.000    0.000    0.000    0.000    0.000 
#
# Total GULP energy -155986.035689 kJ/mol
# GULP energy per Si atom -5570.929846 kJ/mol
# Density = 2.210140 g / cm^3
# Si number density = 22.151821 Si / 1000 Ang^3
#
#
#
# Elastic Constant Matrix: (Units=GPa)
#
#
# Indices 1 2 3 4 5 6 
#
# 1 125.6080 3.8033 68.3123 0.0000 -9.8620 0.0000
# 2 3.8033 51.6052 -8.7326 0.0000 -1.5391 0.0000
# 3 68.3123 -8.7326 103.2721 0.0000 -5.8962 0.0000
# 4 0.0000 0.0000 0.0000 8.3440 0.0000 -5.5445
# 5 -9.8620 -1.5391 -5.8962 0.0000 39.2769 0.0000
# 6 0.0000 0.0000 0.0000 -5.5445 0.0000 -6.2557
#
#
#
# Elastic Compliance Matrix: (Units=1/GPa)
#
#
# Indices 1 2 3 4 5 6 
#
# 1 0.012851 -0.002346 -0.008594 0.000000 0.001845 0.000000
# 2 -0.002346 0.020129 0.003294 0.000000 0.000694 0.000000
# 3 -0.008594 0.003294 0.015665 0.000000 0.000323 0.000000
# 4 0.000000 0.000000 0.000000 0.075425 0.000000 -0.066850
# 5 0.001845 0.000694 0.000323 0.000000 0.025999 0.000000
# 6 0.000000 0.000000 0.000000 -0.066850 0.000000 -0.100604
#
#
# Mechanical properties :
#
#
# Convention : Reuss Voigt Hill
#
# Bulk Modulus (GPa) = 29.98328 45.25016 37.61672
# Shear Modulus (GPa) = 65.89827 22.74652 44.32239
#
# Velocity S-wave (km/s) = 5.46013 3.20792 4.47793
# Velocity P-wave (km/s) = 7.30174 5.84745 6.61468
#
# Compressibility (1/GPa) = 0.03335192
#
# Stress axis : x y z
#
# Youngs Moduli (GPa) = 77.81595 49.67989 63.83817
#
# Poissons Ratio (x) = 0.11656 0.54860
# Poissons Ratio (y) = 0.18258 -0.21027
# Poissons Ratio (z) = 0.66872 -0.16363
#
# Static dielectric constant tensor:
#      x y z
#    x 1.882240 0.000000 0.014790 
#    y 0.000000 1.903680 0.000000 
#    z 0.014790 0.000000 1.833660 
# 
# From -- ./inp_files/237330.got.cif
#   From: 2010.05.17/outbox.cif.g08.bks.cpg/sg12_119_cif.got.tgz:237330.got - 2010.06.03 13:09:07.
