data_PCOD9172231
_publ_section_title
;
Structure prediction by ZEFSAII (Michael W. Deem and Ramdas Pophale) SiO2 
 PCOD9172231
Probable space group: C 2/M
;
_chemical_formula_sum "Si O2"
_cell_formula_units_Z 48
_cell_length_a 23.444174
_cell_length_b 8.471640
_cell_length_c 14.545462
_cell_angle_alpha 90.000000
_cell_angle_beta 102.062575
_cell_angle_gamma 90.000000
_cell_volume 2825.096284
_symmetry_space_group_name_H-M "C 2/M"
_symmetry_group_IT_number 12
_symmetry_cell_setting 'monoclinic'
loop_
_space_group_symop_operation_xyz
x,y,z
-x,y,-z
-x,-y,-z
x,-y,z
1/2+x,1/2+y,z
1/2-x,1/2+y,-z
1/2-x,1/2-y,-z
1/2+x,1/2-y,z
loop_
_atom_site_type_symbol
_atom_site_label
_atom_site_fract_x
_atom_site_fract_y
_atom_site_fract_z
Si Si1 0.951721 0.190632 0.854790
Si Si2 0.797244 0.189180 0.088558
Si Si3 0.688547 0.190193 0.519129
Si Si4 0.735746 0.810478 0.722058
Si Si5 0.141345 0.689169 0.316800
Si Si6 0.080027 0.192179 0.950725
O O1 0.914556 0.255214 0.758268
O O2 0.019381 0.241071 0.882697
O O3 0.950371 0.000000 0.851148
O O4 0.923269 0.239264 0.943097
O O5 0.780960 0.244025 0.184937
O O6 0.861376 0.246510 0.078941
O O7 0.797409 0.000000 0.085982
O O8 0.750000 0.250000 0.000000
O O9 0.750000 0.250000 0.500000
O O10 0.690447 0.241389 0.626091
O O11 0.642913 0.240205 0.425028
O O12 0.688440 0.000000 0.520317
O O13 0.800201 0.755718 0.712171
O O14 0.736164 0.000000 0.726773
O O15 0.144724 0.500000 0.315006
O O16 0.080091 0.000000 0.950383
#
# Coordination Sequence:
#
# PCOD9172231 Si02
#       6
#     8   8   8   8   8   8
#     4   9  16  31  52  70  89 121 158 192 230 280
#     4  11  21  33  49  72  99 127 156 191 232 280
#     4   8  16  29  45  65  93 123 154 191 235 279
#     4  10  19  32  48  68  95 130 162 191 229 279
#     4  10  18  29  47  74  99 120 151 197 243 282
#     4   8  17  32  49  67  92 124 157 188 228 279
#
# _framework density 16.990570999999999
#
# number of rings (size 3 to 8) (size 9 to 14) (size 15 to 20)
#    0.000    2.667    0.000    3.500    0.000    2.667 
#    0.000    4.167    0.000    1.000    0.000    7.000 
#    0.000    0.000    0.000    0.000    0.000    0.000 
#
# Total GULP energy -133702.221241 kJ/mol
# GULP energy per Si atom -5570.925885 kJ/mol
# Density = 1.695190 g / cm^3
# Si number density = 16.990571 Si / 1000 Ang^3
#
#
#
# Elastic Constant Matrix: (Units=GPa)
#
#
# Indices 1 2 3 4 5 6 
#
# 1 85.0670 19.2863 75.6282 0.0000 1.9747 0.0000
# 2 19.2863 27.5615 30.8822 0.0000 0.9964 0.0000
# 3 75.6282 30.8822 198.8104 0.0000 13.6087 0.0000
# 4 0.0000 0.0000 0.0000 25.2256 0.0000 3.6748
# 5 1.9747 0.9964 13.6087 0.0000 25.8814 0.0000
# 6 0.0000 0.0000 0.0000 3.6748 0.0000 18.2612
#
#
#
# Elastic Compliance Matrix: (Units=1/GPa)
#
#
# Indices 1 2 3 4 5 6 
#
# 1 0.018699 -0.006088 -0.006313 0.000000 0.002127 0.000000
# 2 -0.006088 0.046007 -0.004918 0.000000 0.001279 0.000000
# 3 -0.006313 -0.004918 0.008454 0.000000 -0.003774 0.000000
# 4 0.000000 0.000000 0.000000 0.040839 0.000000 -0.008218
# 5 0.002127 0.001279 -0.003774 0.000000 0.040411 0.000000
# 6 0.000000 0.000000 0.000000 -0.008218 0.000000 0.056415
#
#
# Mechanical properties :
#
#
# Convention : Reuss Voigt Hill
#
# Bulk Modulus (GPa) = 25.95962 62.55917 44.25939
# Shear Modulus (GPa) = 19.35709 26.24979 22.80344
#
# Velocity S-wave (km/s) = 3.37899 3.93486 3.66747
# Velocity P-wave (km/s) = 5.52589 7.58578 6.63625
#
# Compressibility (1/GPa) = 0.03852137
#
# Stress axis : x y z
#
# Youngs Moduli (GPa) = 53.47914 21.73578 118.29089
#
# Poissons Ratio (x) = 0.13232 0.74678
# Poissons Ratio (y) = 0.32557 0.58178
# Poissons Ratio (z) = 0.33762 0.10690
#
# Static dielectric constant tensor:
#      x y z
#    x 1.550070 0.000000 0.010820 
#    y 0.000000 1.590970 0.000000 
#    z 0.010820 0.000000 1.604500 
# 
# From -- ./inp_files/172393.got.cif
#   From: 2010.05.17/outbox.cif.g08.bks.cpg/sg12_87_cif.got.tgz:172393.got - 2010.06.03 13:09:07.
