data_PCOD9172994
_publ_section_title
;
Structure prediction by ZEFSAII (Michael W. Deem and Ramdas Pophale) SiO2 
 PCOD9172994
Probable space group: C 2/M
;
_chemical_formula_sum "Si O2"
_cell_formula_units_Z 56
_cell_length_a 32.026942
_cell_length_b 7.460725
_cell_length_c 34.776383
_cell_angle_alpha 90.000000
_cell_angle_beta 161.623702
_cell_angle_gamma 90.000000
_cell_volume 2619.660062
_symmetry_space_group_name_H-M "C 2/M"
_symmetry_group_IT_number 12
_symmetry_cell_setting 'monoclinic'
loop_
_space_group_symop_operation_xyz
x,y,z
-x,y,-z
-x,-y,-z
x,-y,z
1/2+x,1/2+y,z
1/2-x,1/2+y,-z
1/2-x,1/2-y,-z
1/2+x,1/2-y,z
loop_
_atom_site_type_symbol
_atom_site_label
_atom_site_fract_x
_atom_site_fract_y
_atom_site_fract_z
Si Si1 0.924183 0.782083 0.394301
Si Si2 0.409809 0.707522 0.095785
Si Si3 0.881971 0.280774 0.868840
Si Si4 0.859521 0.780385 0.477913
Si Si5 0.633366 0.285487 0.428415
Si Si6 0.897551 0.217539 0.170379
Si Si7 0.383932 0.204138 0.784893
O O1 0.770715 0.725905 0.257001
O O2 0.000000 0.724792 0.500000
O O3 0.009961 0.729643 0.432002
O O4 0.923702 0.000000 0.395256
O O5 0.448038 0.500000 0.128103
O O6 0.441810 0.778786 0.166462
O O7 0.488005 0.797774 0.129913
O O8 0.252297 0.723379 0.953983
O O9 0.883860 0.500000 0.872701
O O10 0.910096 0.220282 0.849731
O O11 0.000000 0.219521 0.000000
O O12 0.849196 0.717846 0.512934
O O13 0.734887 0.716051 0.343908
O O14 0.856116 0.000000 0.476182
O O15 0.622743 0.500000 0.422006
O O16 0.750000 0.250000 0.500000
O O17 0.498390 0.219840 0.290758
O O18 0.896578 0.000000 0.168518
O O19 0.340254 0.000000 0.754383
#
# Coordination Sequence:
#
# PCOD9172994 Si02
#       7
#     8   8   8   8   8   8   8
#     4   9  14  25  43  64  96 130 160 202 251 296
#     4  10  20  33  51  72  96 131 170 204 249 305
#     4   9  17  27  43  71 102 129 161 207 258 300
#     4   9  17  28  47  74 100 133 169 203 249 303
#     4  10  20  33  50  74 104 133 166 207 251 297
#     4   9  19  35  51  70  98 132 168 210 253 293
#     4  10  18  30  49  74 102 129 163 204 250 302
#
# _framework density 21.376821
#
# number of rings (size 3 to 8) (size 9 to 14) (size 15 to 20)
#    0.000    2.571    1.429    1.286    0.000    2.286 
#    0.000    4.286    0.000    0.429    0.000    3.000 
#    0.000    0.000    0.000    0.000    0.000    0.000 
#
# Total GULP energy -156287.901315 kJ/mol
# GULP energy per Si atom -5581.710761 kJ/mol
# Density = 2.132817 g / cm^3
# Si number density = 21.376821 Si / 1000 Ang^3
#
#
#
# Elastic Constant Matrix: (Units=GPa)
#
#
# Indices 1 2 3 4 5 6 
#
# 1 208.9616 3.8202 115.9739 -0.0014 -14.7551 0.0027
# 2 3.8202 61.8257 3.5912 0.0695 -6.3385 -0.0364
# 3 115.9739 3.5912 153.2738 0.0042 -29.2652 -0.0026
# 4 -0.0014 0.0695 0.0042 -2.3854 0.0013 0.6256
# 5 -14.7551 -6.3385 -29.2652 0.0013 38.9721 -0.0007
# 6 0.0027 -0.0364 -0.0026 0.6256 -0.0007 6.5033
#
#
#
# Elastic Compliance Matrix: (Units=1/GPa)
#
#
# Indices 1 2 3 4 5 6 
#
# 1 0.008369 -0.000324 -0.006689 -0.000029 -0.001907 -0.000005
# 2 -0.000324 0.016464 0.000405 0.000494 0.002859 0.000045
# 3 -0.006689 0.000405 0.012964 0.000044 0.007268 0.000007
# 4 -0.000029 0.000494 0.000044 -0.408894 0.000117 0.039336
# 5 -0.001907 0.002859 0.007268 0.000117 0.030860 0.000012
# 6 -0.000005 0.000045 0.000007 0.039336 0.000012 0.149985
#
#
# Mechanical properties :
#
#
# Convention : Reuss Voigt Hill
#
# Bulk Modulus (GPa) = 40.68153 74.53685 57.60919
# Shear Modulus (GPa) = -29.61349 28.66305 -0.47522
#
# Velocity S-wave (km/s) = -3.72601 3.66573 -0.47201
# Velocity P-wave (km/s) = 0.74907 7.27053 5.16825
#
# Compressibility (1/GPa) = 0.02458118
#
# Stress axis : x y z
#
# Youngs Moduli (GPa) = 119.48412 60.74001 77.13759
#
# Poissons Ratio (x) = 0.01969 0.51598
# Poissons Ratio (y) = 0.03872 -0.03127
# Poissons Ratio (z) = 0.79925 -0.02463
#
# Static dielectric constant tensor:
#      x y z
#    x 1.753950 0.000000 -0.013650 
#    y 0.000000 1.840400 0.000000 
#    z -0.013650 0.000000 1.743000 
# 
# From -- ./inp_files/383876.got.cif
#   From: 2010.05.17/outbox.cif.g08.bks.cpg/sg12_192_cif.got.tgz:383876.got - 2010.06.03 13:09:07.
