data_PCOD9172824
_publ_section_title
;
Structure prediction by ZEFSAII (Michael W. Deem and Ramdas Pophale) SiO2 
 PCOD9172824
Probable space group: C 2/M
;
_chemical_formula_sum "Si O2"
_cell_formula_units_Z 64
_cell_length_a 24.101094
_cell_length_b 7.529686
_cell_length_c 22.527372
_cell_angle_alpha 90.000000
_cell_angle_beta 57.651901
_cell_angle_gamma 90.000000
_cell_volume 3453.700852
_symmetry_space_group_name_H-M "C 2/M"
_symmetry_group_IT_number 12
_symmetry_cell_setting 'monoclinic'
loop_
_space_group_symop_operation_xyz
x,y,z
-x,y,-z
-x,-y,-z
x,-y,z
1/2+x,1/2+y,z
1/2-x,1/2+y,-z
1/2-x,1/2-y,-z
1/2+x,1/2-y,z
loop_
_atom_site_type_symbol
_atom_site_label
_atom_site_fract_x
_atom_site_fract_y
_atom_site_fract_z
Si Si1 0.292367 0.288978 0.916431
Si Si2 0.429517 0.781450 0.272535
Si Si3 0.231273 0.288087 0.426570
Si Si4 0.939290 0.708965 0.865405
Si Si5 0.064674 0.717233 0.997877
Si Si6 0.801579 0.712901 0.271291
Si Si7 0.139309 0.298166 0.574935
Si Si8 0.798115 0.282429 0.138635
O O1 0.294893 0.500000 0.910314
O O2 0.366936 0.225993 0.879907
O O3 0.255330 0.221308 0.878901
O O4 0.250000 0.250000 0.000000
O O5 0.499764 0.721463 0.207843
O O6 0.370160 0.725842 0.262379
O O7 0.412467 0.718310 0.349086
O O8 0.427815 0.000000 0.275504
O O9 0.235217 0.500000 0.434589
O O10 0.243237 0.256215 0.350523
O O11 0.165552 0.222197 0.497506
O O12 0.293831 0.202194 0.423735
O O13 0.953249 0.500000 0.863759
O O14 0.936930 0.781700 0.933594
O O15 0.065475 0.500000 0.998248
O O16 0.130815 0.771259 0.926880
O O17 0.000000 0.772588 0.000000
O O18 0.806654 0.500000 0.265312
O O19 0.790712 0.777827 0.210716
O O20 0.118045 0.500000 0.575203
O O21 0.796454 0.500000 0.139875
#
# Coordination Sequence:
#
# PCOD9172824 Si02
#       8
#     8   8   8   8   8   8   8   8
#     4  11  21  35  51  67  87 115 152 192 230 269
#     4   8  14  25  44  68  91 115 146 182 219 261
#     4   9  15  23  38  62  92 122 149 180 219 264
#     4  10  18  30  48  70  91 114 148 189 228 264
#     4   9  15  24  43  69  90 110 143 182 216 258
#     4   9  16  28  45  65  90 119 150 186 223 264
#     4   8  14  25  40  60  89 124 155 180 211 258
#     4   9  17  29  45  65  86 112 149 187 222 260
#
# _framework density 18.530847999999999
#
# number of rings (size 3 to 8) (size 9 to 14) (size 15 to 20)
#    0.000    2.875    1.250    2.250    0.000    3.500 
#    0.000    3.750    0.000    0.375    0.000    0.875 
#    0.000    7.000    0.000    0.000    0.000    0.000 
#
# Total GULP energy -178298.187532 kJ/mol
# GULP energy per Si atom -5571.818360 kJ/mol
# Density = 1.848867 g / cm^3
# Si number density = 18.530848 Si / 1000 Ang^3
#
#
#
# Elastic Constant Matrix: (Units=GPa)
#
#
# Indices 1 2 3 4 5 6 
#
# 1 104.0489 -6.1228 87.1414 0.0013 3.1012 -0.0004
# 2 -6.1228 46.2659 -0.2916 -0.0076 -0.5522 0.0032
# 3 87.1414 -0.2916 220.8769 0.0015 13.8689 -0.0001
# 4 0.0013 -0.0076 0.0015 13.2630 -0.0019 -0.5377
# 5 3.1012 -0.5522 13.8689 -0.0019 5.1594 0.0029
# 6 -0.0004 0.0032 -0.0001 -0.5377 0.0029 12.9546
#
#
#
# Elastic Compliance Matrix: (Units=1/GPa)
#
#
# Indices 1 2 3 4 5 6 
#
# 1 0.014815 0.002021 -0.006372 0.000002 0.008440 -0.000002
# 2 0.002021 0.021921 -0.001010 0.000013 0.003846 -0.000006
# 3 -0.006372 -0.001010 0.008188 -0.000003 -0.018289 0.000004
# 4 0.000002 0.000013 -0.000003 0.075525 0.000036 0.003135
# 5 0.008440 0.003846 -0.018289 0.000036 0.238323 -0.000053
# 6 -0.000002 -0.000006 0.000004 0.003135 -0.000053 0.077323
#
#
# Mechanical properties :
#
#
# Convention : Reuss Voigt Hill
#
# Bulk Modulus (GPa) = 29.23747 59.18285 44.21016
# Shear Modulus (GPa) = 10.91182 25.63970 18.27576
#
# Velocity S-wave (km/s) = 2.42925 3.72374 3.14384
# Velocity P-wave (km/s) = 4.86624 7.10599 6.08997
#
# Compressibility (1/GPa) = 0.03420269
#
# Stress axis : x y z
#
# Youngs Moduli (GPa) = 67.49936 45.61792 122.12336
#
# Poissons Ratio (x) = -0.09220 0.77819
# Poissons Ratio (y) = -0.13643 0.12334
# Poissons Ratio (z) = 0.43012 0.04607
#
# Static dielectric constant tensor:
#      x y z
#    x 1.589010 0.000000 0.023320 
#    y 0.000000 1.732000 0.000000 
#    z 0.023320 0.000000 1.680050 
# 
# From -- ./inp_files/323680.got.cif
#   From: 2010.05.17/outbox.cif.g08.bks.cpg/sg12_162_cif.got.tgz:323680.got - 2010.06.03 13:09:07.
