data_PCOD9172620
_publ_section_title
;
Structure prediction by ZEFSAII (Michael W. Deem and Ramdas Pophale) SiO2 
 PCOD9172620
Probable space group: C 2/M
;
_chemical_formula_sum "Si O2"
_cell_formula_units_Z 56
_cell_length_a 30.220810
_cell_length_b 8.317790
_cell_length_c 13.822194
_cell_angle_alpha 90.000000
_cell_angle_beta 103.406525
_cell_angle_gamma 90.000000
_cell_volume 3379.808107
_symmetry_space_group_name_H-M "C 2/M"
_symmetry_group_IT_number 12
_symmetry_cell_setting 'monoclinic'
loop_
_space_group_symop_operation_xyz
x,y,z
-x,y,-z
-x,-y,-z
x,-y,z
1/2+x,1/2+y,z
1/2-x,1/2+y,-z
1/2-x,1/2-y,-z
1/2+x,1/2-y,z
loop_
_atom_site_type_symbol
_atom_site_label
_atom_site_fract_x
_atom_site_fract_y
_atom_site_fract_z
Si Si1 0.553700 0.694899 0.137291
Si Si2 0.769446 0.193071 0.611562
Si Si3 0.548559 0.692247 0.911589
Si Si4 0.717818 0.803844 0.779163
Si Si5 0.137319 0.688188 0.859710
Si Si6 0.193741 0.189006 0.066846
Si Si7 0.647365 0.811474 0.234933
O O1 0.556512 0.500000 0.142444
O O2 0.502582 0.745405 0.140159
O O3 0.594612 0.767859 0.219366
O O4 0.559295 0.746595 0.027207
O O5 0.750000 0.250000 0.500000
O O6 0.736565 0.245342 0.683978
O O7 0.819087 0.263551 0.661339
O O8 0.772140 0.000000 0.615157
O O9 0.546813 0.500000 0.916550
O O10 0.588665 0.737945 0.859808
O O11 0.668167 0.747478 0.787037
O O12 0.755759 0.754854 0.877796
O O13 0.717743 0.000000 0.780402
O O14 0.130340 0.500000 0.841345
O O15 0.169002 0.716000 0.969802
O O16 0.165183 0.212183 0.151040
O O17 0.194414 0.000000 0.042173
O O18 0.652353 0.000000 0.217047
#
# Coordination Sequence:
#
# PCOD9172620 Si02
#       7
#     8   8   8   8   8   8   8
#     4   9  17  31  47  64  92 130 167 199 237 281
#     4  10  20  37  56  74  97 124 155 196 241 288
#     4   9  18  30  45  64  92 132 168 198 236 278
#     4   8  18  32  46  65  93 126 156 190 236 284
#     4  11  19  28  43  67  95 126 162 197 232 275
#     4  10  18  30  44  61  92 132 165 194 230 274
#     4  11  20  30  48  74  98 124 160 200 240 285
#
# _framework density 16.568987
#
# number of rings (size 3 to 8) (size 9 to 14) (size 15 to 20)
#    0.000    2.286    1.429    4.714    0.000    0.571 
#    0.000    9.286    0.000    0.000    0.000    1.000 
#    0.000    8.000    0.000    0.000    0.000    0.000 
#
# Total GULP energy -156121.365187 kJ/mol
# GULP energy per Si atom -5575.763042 kJ/mol
# Density = 1.653128 g / cm^3
# Si number density = 16.568987 Si / 1000 Ang^3
#
#
#
# Elastic Constant Matrix: (Units=GPa)
#
#
# Indices 1 2 3 4 5 6 
#
# 1 149.6570 15.6876 47.1909 0.0000 14.9736 0.0000
# 2 15.6876 24.5611 3.4818 0.0000 4.1236 0.0000
# 3 47.1909 3.4818 68.8807 0.0000 12.3712 0.0000
# 4 0.0000 0.0000 0.0000 18.8162 0.0000 3.9037
# 5 14.9736 4.1236 12.3712 0.0000 16.1952 0.0000
# 6 0.0000 0.0000 0.0000 3.9037 0.0000 18.6020
#
#
#
# Elastic Compliance Matrix: (Units=1/GPa)
#
#
# Indices 1 2 3 4 5 6 
#
# 1 0.009216 -0.004577 -0.005519 0.000000 -0.003140 0.000000
# 2 -0.004577 0.044809 0.002503 0.000000 -0.009090 0.000000
# 3 -0.005519 0.002503 0.020132 0.000000 -0.010914 0.000000
# 4 0.000000 0.000000 0.000000 0.055565 0.000000 -0.011660
# 5 -0.003140 -0.009090 -0.010914 0.000000 0.075301 0.000000
# 6 0.000000 0.000000 0.000000 -0.011660 0.000000 0.056205
#
#
# Mechanical properties :
#
#
# Convention : Reuss Voigt Hill
#
# Bulk Modulus (GPa) = 16.95691 41.75770 29.35731
# Shear Modulus (GPa) = 16.88784 22.50524 19.69654
#
# Velocity S-wave (km/s) = 3.19602 3.68948 3.45158
# Velocity P-wave (km/s) = 4.88628 6.58837 5.80011
#
# Compressibility (1/GPa) = 0.05897300
#
# Stress axis : x y z
#
# Youngs Moduli (GPa) = 108.50596 22.31673 49.67112
#
# Poissons Ratio (x) = 0.10214 0.27412
# Poissons Ratio (y) = 0.49663 -0.12434
# Poissons Ratio (z) = 0.59882 -0.05586
#
# Static dielectric constant tensor:
#      x y z
#    x 1.609790 0.000000 -0.002610 
#    y 0.000000 1.573220 0.000000 
#    z -0.002610 0.000000 1.532120 
# 
# From -- ./inp_files/247916.got.cif
#   From: 2010.05.17/outbox.cif.g08.bks.cpg/sg12_124_cif.got.tgz:247916.got - 2010.06.03 13:09:07.
