data_PCOD9172540
_publ_section_title
;
Structure prediction by ZEFSAII (Michael W. Deem and Ramdas Pophale) SiO2 
 PCOD9172540
Probable space group: C 2/M
;
_chemical_formula_sum "Si O2"
_cell_formula_units_Z 64
_cell_length_a 21.243936
_cell_length_b 21.539625
_cell_length_c 18.778684
_cell_angle_alpha 90.000000
_cell_angle_beta 152.634675
_cell_angle_gamma 90.000000
_cell_volume 3949.819572
_symmetry_space_group_name_H-M "C 2/M"
_symmetry_group_IT_number 12
_symmetry_cell_setting 'monoclinic'
loop_
_space_group_symop_operation_xyz
x,y,z
-x,y,-z
-x,-y,-z
x,-y,z
1/2+x,1/2+y,z
1/2-x,1/2+y,-z
1/2-x,1/2-y,-z
1/2+x,1/2-y,z
loop_
_atom_site_type_symbol
_atom_site_label
_atom_site_fract_x
_atom_site_fract_y
_atom_site_fract_z
Si Si1 0.894799 0.831389 0.114629
Si Si2 0.029997 0.930197 0.353178
Si Si3 0.722428 0.073751 0.297643
Si Si4 0.905683 0.266405 0.337777
Si Si5 0.079274 0.690780 0.800856
Si Si6 0.529379 0.850384 0.899719
Si Si7 0.172736 0.876250 0.745971
Si Si8 0.081294 0.213239 0.011682
O O1 0.976197 0.880485 0.242864
O O2 0.912083 0.761916 0.163080
O O3 0.941636 0.829582 0.080011
O O4 0.730786 0.839374 0.952066
O O5 0.927908 0.924299 0.317919
O O6 0.178806 0.917007 0.535300
O O7 0.026551 0.000000 0.321159
O O8 0.578426 0.105765 0.169936
O O9 0.791125 0.106105 0.298273
O O10 0.709154 0.000000 0.271382
O O11 0.960586 0.300826 0.321808
O O12 0.897343 0.191663 0.318745
O O13 0.000000 0.279853 0.500000
O O14 0.745544 0.283659 0.188117
O O15 0.000641 0.656598 0.786140
O O16 0.530905 0.782192 0.937633
O O17 0.684001 0.873724 0.067685
O O18 0.000000 0.194543 0.000000
#
# Coordination Sequence:
#
# PCOD9172540 Si02
#       8
#     8   8   8   8   8   8   8   8
#     4   9  16  33  52  71  98 129 165 208 246 293
#     4  11  21  34  50  72 100 133 174 210 244 287
#     4  11  24  35  45  72 110 139 169 209 246 287
#     4  10  18  29  51  77 106 126 160 206 253 295
#     4   9  16  32  53  73  97 133 166 203 251 297
#     4  10  19  34  51  70 103 135 171 204 246 295
#     4  11  19  32  54  70  97 139 174 203 238 288
#     4   9  18  32  51  74 100 129 162 203 253 305
#
# _framework density 16.203271999999998
#
# number of rings (size 3 to 8) (size 9 to 14) (size 15 to 20)
#    0.000    2.000    2.500    4.875    0.000    2.500 
#    2.250    1.250    0.000    0.375    0.000    0.000 
#    0.000    3.000    0.000    0.000    0.000    0.000 
#
# Total GULP energy -178369.961125 kJ/mol
# GULP energy per Si atom -5574.061285 kJ/mol
# Density = 1.616639 g / cm^3
# Si number density = 16.203272 Si / 1000 Ang^3
#
#
#
# Elastic Constant Matrix: (Units=GPa)
#
#
# Indices 1 2 3 4 5 6 
#
# 1 94.7958 11.0154 24.3446 0.0003 -20.3162 0.0000
# 2 11.0154 35.6455 24.0770 0.0000 -7.6163 0.0000
# 3 24.3446 24.0770 64.7871 0.0006 -21.4709 0.0001
# 4 0.0003 0.0000 0.0006 20.7708 0.0004 -0.5036
# 5 -20.3162 -7.6163 -21.4709 0.0004 22.0990 0.0001
# 6 0.0000 0.0000 0.0001 -0.5036 0.0001 12.6842
#
#
#
# Elastic Compliance Matrix: (Units=1/GPa)
#
#
# Indices 1 2 3 4 5 6 
#
# 1 0.013255 -0.001125 -0.000963 0.000000 0.010863 0.000000
# 2 -0.001125 0.037564 -0.014144 0.000000 -0.001829 0.000000
# 3 -0.000963 -0.014144 0.028236 -0.000001 0.021674 0.000000
# 4 0.000000 0.000000 -0.000001 0.048191 -0.000002 0.001913
# 5 0.010863 -0.001829 0.021674 -0.000002 0.075665 -0.000001
# 6 0.000000 0.000000 0.000000 0.001913 -0.000001 0.078914
#
#
# Mechanical properties :
#
#
# Convention : Reuss Voigt Hill
#
# Bulk Modulus (GPa) = 21.46264 34.90025 28.18145
# Shear Modulus (GPa) = 15.15985 20.16355 17.66170
#
# Velocity S-wave (km/s) = 3.06208 3.53145 3.30511
# Velocity P-wave (km/s) = 5.07705 6.18174 5.65643
#
# Compressibility (1/GPa) = 0.04659260
#
# Stress axis : x y z
#
# Youngs Moduli (GPa) = 75.44345 26.62105 35.41565
#
# Poissons Ratio (x) = 0.02994 0.03410
# Poissons Ratio (y) = 0.08486 0.50091
# Poissons Ratio (z) = 0.07264 0.37652
#
# Static dielectric constant tensor:
#      x y z
#    x 1.563030 0.000000 -0.011830 
#    y 0.000000 1.523690 0.000000 
#    z -0.011830 0.000000 1.554650 
# 
# From -- ./inp_files/90369.got.cif
#   From: 2010.05.17/outbox.cif.g08.bks.cpg/sg12_46_cif.got.tgz:90369.got - 2010.06.03 13:09:07.
