data_PCOD9172553
_publ_section_title
;
Structure prediction by ZEFSAII (Michael W. Deem and Ramdas Pophale) SiO2 
 PCOD9172553
Probable space group: C 2/M
;
_chemical_formula_sum "Si O2"
_cell_formula_units_Z 56
_cell_length_a 31.343158
_cell_length_b 7.831746
_cell_length_c 11.984391
_cell_angle_alpha 90.000000
_cell_angle_beta 64.130463
_cell_angle_gamma 90.000000
_cell_volume 2647.027328
_symmetry_space_group_name_H-M "C 2/M"
_symmetry_group_IT_number 12
_symmetry_cell_setting 'monoclinic'
loop_
_space_group_symop_operation_xyz
x,y,z
-x,y,-z
-x,-y,-z
x,-y,z
1/2+x,1/2+y,z
1/2-x,1/2+y,-z
1/2-x,1/2-y,-z
1/2+x,1/2-y,z
loop_
_atom_site_type_symbol
_atom_site_label
_atom_site_fract_x
_atom_site_fract_y
_atom_site_fract_z
Si Si1 0.581851 0.206347 0.168570
Si Si2 0.989576 0.291250 0.136974
Si Si3 0.555001 0.791710 0.440694
Si Si4 0.776773 0.198151 0.792002
Si Si5 0.815139 0.201904 0.984370
Si Si6 0.704333 0.801605 0.481506
Si Si7 0.899728 0.709795 0.377121
O O1 0.533260 0.261741 0.165471
O O2 0.580434 0.264937 0.298597
O O3 0.629870 0.266774 0.056023
O O4 0.582278 0.000000 0.167026
O O5 0.989236 0.500000 0.138246
O O6 0.938993 0.235512 0.242828
O O7 0.000000 0.235024 0.000000
O O8 0.500000 0.738832 0.500000
O O9 0.581068 0.737702 0.523061
O O10 0.554864 0.000000 0.440917
O O11 0.803035 0.269443 0.872839
O O12 0.788433 0.276875 0.659354
O O13 0.789374 0.000000 0.768587
O O14 0.721329 0.216330 0.887114
O O15 0.805252 0.000000 0.995726
O O16 0.750000 0.750000 0.500000
O O17 0.653724 0.724623 0.575981
O O18 0.699279 0.000000 0.508107
O O19 0.899702 0.500000 0.376119
#
# Coordination Sequence:
#
# PCOD9172553 Si02
#       7
#     8   8   8   8   8   8   8
#     4  10  18  29  51  80 107 141 183 226 274 330
#     4   9  17  29  46  73 108 141 178 225 271 319
#     4   9  14  24  46  76 106 133 174 231 278 315
#     4  10  21  39  60  82 110 145 190 240 288 340
#     4  10  21  36  57  84 116 148 180 229 292 354
#     4  11  23  38  58  83 115 154 197 241 287 340
#     4   9  17  30  48  74 106 142 183 232 281 324
#
# _framework density 21.155806999999999
#
# number of rings (size 3 to 8) (size 9 to 14) (size 15 to 20)
#    0.000    2.286    1.429    2.143    0.000    4.000 
#    0.000    2.857    0.000    2.571    0.000    0.000 
#    0.000    0.000    0.000    0.000    0.000    0.000 
#
# Total GULP energy -156344.667780 kJ/mol
# GULP energy per Si atom -5583.738135 kJ/mol
# Density = 2.110766 g / cm^3
# Si number density = 21.155807 Si / 1000 Ang^3
#
#
#
# Elastic Constant Matrix: (Units=GPa)
#
#
# Indices 1 2 3 4 5 6 
#
# 1 132.9493 8.2626 79.1527 0.0000 -30.5914 0.0000
# 2 8.2626 23.4139 -4.9133 0.0000 3.8968 0.0000
# 3 79.1527 -4.9133 128.7926 0.0000 -14.9880 0.0000
# 4 0.0000 0.0000 0.0000 11.6690 0.0000 -2.3766
# 5 -30.5914 3.8968 -14.9880 0.0000 35.2711 0.0000
# 6 0.0000 0.0000 0.0000 -2.3766 0.0000 11.1377
#
#
#
# Elastic Compliance Matrix: (Units=1/GPa)
#
#
# Indices 1 2 3 4 5 6 
#
# 1 0.015917 -0.009317 -0.008849 0.000000 0.011075 0.000000
# 2 -0.009317 0.049128 0.006342 0.000000 -0.010814 0.000000
# 3 -0.008849 0.006342 0.013119 0.000000 -0.002801 0.000000
# 4 0.000000 0.000000 0.000000 0.089591 0.000000 0.019117
# 5 0.011075 -0.010814 -0.002801 0.000000 0.037962 0.000000
# 6 0.000000 0.000000 0.000000 0.019117 0.000000 0.093865
#
#
# Mechanical properties :
#
#
# Convention : Reuss Voigt Hill
#
# Bulk Modulus (GPa) = 18.34339 50.01775 34.18057
# Shear Modulus (GPa) = 14.64549 25.12579 19.88564
#
# Velocity S-wave (km/s) = 2.63395 3.44998 3.06920
# Velocity P-wave (km/s) = 4.23553 6.28997 5.36206
#
# Compressibility (1/GPa) = 0.05451555
#
# Stress axis : x y z
#
# Youngs Moduli (GPa) = 62.82469 20.35491 76.22647
#
# Poissons Ratio (x) = 0.18965 0.67453
# Poissons Ratio (y) = 0.58535 -0.48342
# Poissons Ratio (z) = 0.55594 -0.12909
#
# Static dielectric constant tensor:
#      x y z
#    x 1.816750 0.000000 -0.027240 
#    y 0.000000 1.778500 0.000000 
#    z -0.027240 0.000000 1.746120 
# 
# From -- ./inp_files/187216.got.cif
#   From: 2010.05.17/outbox.cif.g08.bks.cpg/sg12_94_cif.got.tgz:187216.got - 2010.06.03 13:09:07.
