data_PCOD9172484
_publ_section_title
;
Structure prediction by ZEFSAII (Michael W. Deem and Ramdas Pophale) SiO2 
 PCOD9172484
Probable space group: C 2/M
;
_chemical_formula_sum "Si O2"
_cell_formula_units_Z 56
_cell_length_a 19.990534
_cell_length_b 7.562709
_cell_length_c 22.590415
_cell_angle_alpha 90.000000
_cell_angle_beta 54.770260
_cell_angle_gamma 90.000000
_cell_volume 2789.754331
_symmetry_space_group_name_H-M "C 2/M"
_symmetry_group_IT_number 12
_symmetry_cell_setting 'monoclinic'
loop_
_space_group_symop_operation_xyz
x,y,z
-x,y,-z
-x,-y,-z
x,-y,z
1/2+x,1/2+y,z
1/2-x,1/2+y,-z
1/2-x,1/2-y,-z
1/2+x,1/2-y,z
loop_
_atom_site_type_symbol
_atom_site_label
_atom_site_fract_x
_atom_site_fract_y
_atom_site_fract_z
Si Si1 0.447509 0.797953 0.681890
Si Si2 0.382547 0.213393 0.445006
Si Si3 0.308208 0.210070 0.915538
Si Si4 0.240507 0.211615 0.599348
Si Si5 0.845147 0.783779 0.238632
Si Si6 0.229230 0.716818 0.196855
Si Si7 0.985523 0.795026 0.794837
O O1 0.524921 0.717719 0.608071
O O2 0.356157 0.721305 0.729619
O O3 0.473364 0.799028 0.738054
O O4 0.438830 0.000000 0.665285
O O5 0.325002 0.279498 0.527676
O O6 0.331434 0.252172 0.411343
O O7 0.387602 0.000000 0.446688
O O8 0.272163 0.273475 0.870809
O O9 0.400137 0.283416 0.873183
O O10 0.316985 0.000000 0.906698
O O11 0.250000 0.250000 0.000000
O O12 0.212552 0.275325 0.677613
O O13 0.248530 0.000000 0.599528
O O14 0.805808 0.726450 0.197038
O O15 0.937121 0.727984 0.207686
O O16 0.845292 0.000000 0.237842
O O17 0.227270 0.500000 0.197884
O O18 0.001492 0.000000 0.771658
#
# Coordination Sequence:
#
# PCOD9172484 Si02
#       7
#     8   8   8   8   8   8   8
#     4   9  16  28  45  66  93 127 165 203 239 281
#     4   9  16  25  40  64  93 123 161 204 245 279
#     4  10  20  36  57  77  98 123 152 188 229 277
#     4   9  16  26  41  64  92 124 160 202 242 277
#     4   9  16  28  46  70  97 125 160 198 235 280
#     4   8  16  30  48  69  95 125 155 191 236 282
#     4  10  18  29  50  75  96 123 159 195 230 274
#
# _framework density 20.073450999999999
#
# number of rings (size 3 to 8) (size 9 to 14) (size 15 to 20)
#    0.000    2.857    1.429    1.714    0.000    0.000 
#    0.000    1.429    0.000   21.429    0.000    0.000 
#    0.000    9.143    0.000    0.000    0.000    0.000 
#
# Total GULP energy -156104.711732 kJ/mol
# GULP energy per Si atom -5575.168276 kJ/mol
# Density = 2.002776 g / cm^3
# Si number density = 20.073451 Si / 1000 Ang^3
#
#
#
# Elastic Constant Matrix: (Units=GPa)
#
#
# Indices 1 2 3 4 5 6 
#
# 1 114.5590 -4.5987 43.2539 -0.0003 -0.1867 0.0006
# 2 -4.5987 50.9337 -5.5473 -0.0007 2.7469 -0.0002
# 3 43.2539 -5.5473 102.4620 -0.0001 -9.0402 0.0002
# 4 -0.0003 -0.0007 -0.0001 9.7194 0.0001 -1.5819
# 5 -0.1867 2.7469 -9.0402 0.0001 19.2496 -0.0001
# 6 0.0006 -0.0002 0.0002 -1.5819 -0.0001 11.2743
#
#
#
# Elastic Compliance Matrix: (Units=1/GPa)
#
#
# Indices 1 2 3 4 5 6 
#
# 1 0.010478 0.000562 -0.004581 0.000000 -0.002130 0.000000
# 2 0.000562 0.019888 0.000615 0.000001 -0.002544 0.000000
# 3 -0.004581 0.000615 0.012221 0.000000 0.005607 0.000000
# 4 0.000000 0.000001 0.000000 0.105292 -0.000001 0.014773
# 5 -0.002130 -0.002544 0.005607 -0.000001 0.054925 0.000000
# 6 0.000000 0.000000 0.000000 0.014773 0.000000 0.090770
#
#
# Mechanical properties :
#
#
# Convention : Reuss Voigt Hill
#
# Bulk Modulus (GPa) = 27.94832 37.13007 32.53919
# Shear Modulus (GPa) = 16.00982 23.70510 19.85746
#
# Velocity S-wave (km/s) = 2.82718 3.44018 3.14863
# Velocity P-wave (km/s) = 4.96090 5.85807 5.42805
#
# Compressibility (1/GPa) = 0.03578032
#
# Stress axis : x y z
#
# Youngs Moduli (GPa) = 95.44077 50.28090 81.82349
#
# Poissons Ratio (x) = -0.02826 0.37480
# Poissons Ratio (y) = -0.05364 -0.05033
# Poissons Ratio (z) = 0.43718 -0.03093
#
# Static dielectric constant tensor:
#      x y z
#    x 1.700950 0.000000 -0.023380 
#    y 0.000000 1.766440 0.000000 
#    z -0.023380 0.000000 1.715490 
# 
# From -- ./inp_files/313276.got.cif
#   From: 2010.05.17/outbox.cif.g08.bks.cpg/sg12_157_cif.got.tgz:313276.got - 2010.06.03 13:09:07.
