data_PCOD9172504
_publ_section_title
;
Structure prediction by ZEFSAII (Michael W. Deem and Ramdas Pophale) SiO2 
 PCOD9172504
Probable space group: C 2/M
;
_chemical_formula_sum "Si O2"
_cell_formula_units_Z 48
_cell_length_a 15.463551
_cell_length_b 15.749220
_cell_length_c 17.036160
_cell_angle_alpha 90.000000
_cell_angle_beta 148.659409
_cell_angle_gamma 90.000000
_cell_volume 2157.978691
_symmetry_space_group_name_H-M "C 2/M"
_symmetry_group_IT_number 12
_symmetry_cell_setting 'monoclinic'
loop_
_space_group_symop_operation_xyz
x,y,z
-x,y,-z
-x,-y,-z
x,-y,z
1/2+x,1/2+y,z
1/2-x,1/2+y,-z
1/2-x,1/2-y,-z
1/2+x,1/2-y,z
loop_
_atom_site_type_symbol
_atom_site_label
_atom_site_fract_x
_atom_site_fract_y
_atom_site_fract_z
Si Si1 0.371173 0.875638 0.832935
Si Si2 0.650017 0.904581 0.551521
Si Si3 0.353795 0.319332 0.833560
Si Si4 0.390375 0.091496 0.107520
Si Si5 0.038125 0.283287 0.701102
Si Si6 0.894784 0.904806 0.248251
O O1 0.401374 0.775327 0.844399
O O2 0.433192 0.913302 0.800367
O O3 0.195690 0.896731 0.736368
O O4 0.500000 0.903934 0.000000
O O5 0.500000 0.903471 0.500000
O O6 0.808377 0.877080 0.725023
O O7 0.609153 0.836303 0.453350
O O8 0.661605 0.000000 0.529610
O O9 0.193522 0.299721 0.762960
O O10 0.500000 0.355955 0.000000
O O11 0.402575 0.170819 0.174082
O O12 0.360355 0.000000 0.124822
O O13 0.247960 0.101325 0.930390
O O14 0.004558 0.182926 0.681945
O O15 0.968045 0.000000 0.298856
#
# Coordination Sequence:
#
# PCOD9172504 Si02
#       6
#     8   8   8   8   8   8
#     4   8  15  29  49  73 101 134 173 215 257 303
#     4   9  18  33  52  74 104 142 178 210 254 315
#     4   9  18  33  54  78 103 136 176 215 258 308
#     4  10  18  29  50  78 107 140 178 217 258 308
#     4  10  19  32  52  77 107 139 174 218 264 310
#     4   9  17  29  48  75 105 139 178 218 259 304
#
# _framework density 22.243037000000001
#
# number of rings (size 3 to 8) (size 9 to 14) (size 15 to 20)
#    0.000    2.833    0.000    2.500    0.000    3.000 
#    0.000    0.833    0.000   14.500    0.000    0.000 
#    0.000    0.000    0.000    0.000    0.000    0.167 
#
# Total GULP energy -133834.467172 kJ/mol
# GULP energy per Si atom -5576.436132 kJ/mol
# Density = 2.219241 g / cm^3
# Si number density = 22.243037 Si / 1000 Ang^3
#
#
#
# Elastic Constant Matrix: (Units=GPa)
#
#
# Indices 1 2 3 4 5 6 
#
# 1 25.2352 27.9292 -7.7870 -0.0006 -5.0092 -0.0014
# 2 27.9292 204.2128 55.8756 -0.0007 -17.6799 -0.0008
# 3 -7.7870 55.8756 79.4356 -0.0023 -3.9712 -0.0016
# 4 -0.0006 -0.0007 -0.0023 13.7946 -0.0026 -3.0376
# 5 -5.0092 -17.6799 -3.9712 -0.0026 12.5769 -0.0021
# 6 -0.0014 -0.0008 -0.0016 -3.0376 -0.0021 12.9529
#
#
#
# Elastic Compliance Matrix: (Units=1/GPa)
#
#
# Indices 1 2 3 4 5 6 
#
# 1 0.058174 -0.010651 0.013822 0.000009 0.012562 0.000012
# 2 -0.010651 0.008752 -0.006907 0.000000 0.005881 -0.000001
# 3 0.013822 -0.006907 0.018890 0.000005 0.001761 0.000005
# 4 0.000009 0.000000 0.000005 0.076440 0.000023 0.017926
# 5 0.012562 0.005881 0.001761 0.000023 0.093337 0.000022
# 6 0.000012 -0.000001 0.000005 0.017926 0.000022 0.081407
#
#
# Mechanical properties :
#
#
# Convention : Reuss Voigt Hill
#
# Bulk Modulus (GPa) = 12.76381 51.21326 31.98854
# Shear Modulus (GPa) = 13.49221 23.38925 18.44073
#
# Velocity S-wave (km/s) = 2.46556 3.24625 2.88246
# Velocity P-wave (km/s) = 3.72238 6.09305 5.04883
#
# Compressibility (1/GPa) = 0.07834650
#
# Stress axis : x y z
#
# Youngs Moduli (GPa) = 17.18992 114.25506 52.93817
#
# Poissons Ratio (x) = 1.21688 -0.73173
# Poissons Ratio (y) = 0.18308 0.36562
# Poissons Ratio (z) = -0.23761 0.78911
#
# Static dielectric constant tensor:
#      x y z
#    x 1.843880 0.000000 0.030930 
#    y 0.000000 1.862500 0.000000 
#    z 0.030930 0.000000 1.806270 
# 
# From -- ./inp_files/278216.got.cif
#   From: 2010.05.17/outbox.cif.g08.bks.cpg/sg12_140_cif.got.tgz:278216.got - 2010.06.03 13:09:07.
