data_PCOD9172008
_publ_section_title
;
Structure prediction by ZEFSAII (Michael W. Deem and Ramdas Pophale) SiO2 
 PCOD9172008
Probable space group: C 2/M
;
_chemical_formula_sum "Si O2"
_cell_formula_units_Z 56
_cell_length_a 16.560642
_cell_length_b 23.852202
_cell_length_c 8.277205
_cell_angle_alpha 90.000000
_cell_angle_beta 63.875048
_cell_angle_gamma 90.000000
_cell_volume 2935.528664
_symmetry_space_group_name_H-M "C 2/M"
_symmetry_group_IT_number 12
_symmetry_cell_setting 'monoclinic'
loop_
_space_group_symop_operation_xyz
x,y,z
-x,y,-z
-x,-y,-z
x,-y,z
1/2+x,1/2+y,z
1/2-x,1/2+y,-z
1/2-x,1/2-y,-z
1/2+x,1/2-y,z
loop_
_atom_site_type_symbol
_atom_site_label
_atom_site_fract_x
_atom_site_fract_y
_atom_site_fract_z
Si Si1 0.092025 0.236762 0.554431
Si Si2 0.819692 0.665088 0.670942
Si Si3 0.774547 0.646526 0.054704
Si Si4 0.274630 0.371962 0.561222
Si Si5 0.564662 0.666027 0.164640
Si Si6 0.850735 0.245584 0.145356
Si Si7 0.042434 0.064390 0.642998
O O1 0.100495 0.290245 0.429386
O O2 0.169909 0.187961 0.466580
O O3 0.115429 0.263225 0.709672
O O4 0.998508 0.203449 0.663220
O O5 0.791898 0.631733 0.533461
O O6 0.738271 0.709136 0.758674
O O7 0.814753 0.630235 0.843275
O O8 0.776507 0.614787 0.225682
O O9 0.666844 0.655075 0.130986
O O10 0.827130 0.703817 0.048881
O O11 0.354772 0.415448 0.456443
O O12 0.513170 0.607401 0.197673
O O13 0.581132 0.702506 0.993382
O O14 0.000000 0.070283 0.500000
O O15 0.034582 0.000000 0.699219
#
# Coordination Sequence:
#
# PCOD9172008 Si02
#       7
#     8   8   8   8   8   8   8
#     4  10  18  29  45  68  95 124 165 207 243 300
#     4  10  18  29  48  67  93 120 165 204 244 302
#     4  11  19  31  48  70  93 130 171 205 249 306
#     4  10  18  32  49  66  93 126 163 209 248 289
#     4  10  20  28  48  70  99 134 171 212 251 289
#     4  10  18  31  45  67  97 128 168 204 248 303
#     4  10  20  33  51  72  95 134 184 220 252 291
#
# _framework density 19.076630999999999
#
# number of rings (size 3 to 8) (size 9 to 14) (size 15 to 20)
#    0.000    1.857    4.286    3.000    0.000    1.143 
#    0.000    0.000    0.000   28.286    0.000    0.000 
#    0.000    0.000    0.000    7.714    0.286   71.286 
#
# Total GULP energy -155949.577103 kJ/mol
# GULP energy per Si atom -5569.627754 kJ/mol
# Density = 1.903321 g / cm^3
# Si number density = 19.076631 Si / 1000 Ang^3
#
#
#
# Elastic Constant Matrix: (Units=GPa)
#
#
# Indices 1 2 3 4 5 6 
#
# 1 34.9156 28.1723 27.3824 0.0000 -0.6823 0.0000
# 2 28.1723 70.2271 33.8555 0.0000 -15.6980 0.0000
# 3 27.3824 33.8555 113.3532 0.0000 7.0022 0.0000
# 4 0.0000 0.0000 0.0000 6.2864 0.0000 -12.0500
# 5 -0.6823 -15.6980 7.0022 0.0000 26.5611 0.0000
# 6 0.0000 0.0000 0.0000 -12.0500 0.0000 6.9184
#
#
#
# Elastic Compliance Matrix: (Units=1/GPa)
#
#
# Indices 1 2 3 4 5 6 
#
# 1 0.047507 -0.018188 -0.005546 0.000000 -0.008067 0.000000
# 2 -0.018188 0.027795 -0.004975 0.000000 0.017271 0.000000
# 3 -0.005546 -0.004975 0.012034 0.000000 -0.006255 0.000000
# 4 0.000000 0.000000 0.000000 -0.068021 0.000000 -0.118473
# 5 -0.008067 0.017271 -0.006255 0.000000 0.049298 0.000000
# 6 0.000000 0.000000 0.000000 -0.118473 0.000000 -0.061806
#
#
# Mechanical properties :
#
#
# Convention : Reuss Voigt Hill
#
# Bulk Modulus (GPa) = 33.42330 44.14626 38.78478
# Shear Modulus (GPa) = 67.38825 16.55889 41.97357
#
# Velocity S-wave (km/s) = 5.94993 2.94941 4.69578
# Velocity P-wave (km/s) = 8.04741 5.89835 7.05519
#
# Compressibility (1/GPa) = 0.02991925
#
# Stress axis : x y z
#
# Youngs Moduli (GPa) = 21.04947 35.97801 83.09856
#
# Poissons Ratio (x) = 0.65436 0.46084
# Poissons Ratio (y) = 0.38284 0.41341
# Poissons Ratio (z) = 0.11673 0.17899
#
# Static dielectric constant tensor:
#      x y z
#    x 1.804780 0.000000 0.093930 
#    y 0.000000 1.624090 0.000000 
#    z 0.093930 0.000000 1.894050 
# 
# From -- ./inp_files/78708.got.cif
#   From: 2010.05.17/outbox.cif.g08.bks.cpg/sg12_40_cif.got.tgz:78708.got - 2010.06.03 13:09:07.
