data_PCOD9172869
_publ_section_title
;
Structure prediction by ZEFSAII (Michael W. Deem and Ramdas Pophale) SiO2 
 PCOD9172869
Probable space group: C 2/M
;
_chemical_formula_sum "Si O2"
_cell_formula_units_Z 44
_cell_length_a 26.243426
_cell_length_b 10.759575
_cell_length_c 12.211169
_cell_angle_alpha 90.000000
_cell_angle_beta 146.292177
_cell_angle_gamma 90.000000
_cell_volume 1913.520050
_symmetry_space_group_name_H-M "C 2/M"
_symmetry_group_IT_number 12
_symmetry_cell_setting 'monoclinic'
loop_
_space_group_symop_operation_xyz
x,y,z
-x,y,-z
-x,-y,-z
x,-y,z
1/2+x,1/2+y,z
1/2-x,1/2+y,-z
1/2-x,1/2-y,-z
1/2+x,1/2-y,z
loop_
_atom_site_type_symbol
_atom_site_label
_atom_site_fract_x
_atom_site_fract_y
_atom_site_fract_z
Si Si1 0.779251 0.229031 0.320156
Si Si2 0.106540 0.500000 0.705294
Si Si3 0.719279 0.000000 0.336451
Si Si4 0.051173 0.000000 0.974285
Si Si5 0.650426 0.732793 0.769631
Si Si6 0.429651 0.729999 0.143366
Si Si7 0.929842 0.500000 0.118666
Si Si8 0.773558 0.500000 0.400985
O O1 0.773742 0.125957 0.404653
O O2 0.839870 0.168604 0.329931
O O3 0.803001 0.367234 0.403531
O O4 0.675121 0.245884 0.085981
O O5 0.135657 0.373640 0.706566
O O6 0.131516 0.500000 0.878821
O O7 0.000000 0.500000 0.500000
O O8 0.693844 0.000000 0.416366
O O9 0.630852 0.000000 0.098567
O O10 0.161375 0.000000 0.194045
O O11 0.031733 0.878936 0.863542
O O12 0.000000 0.000000 0.000000
O O13 0.582128 0.698687 0.747270
O O14 0.750000 0.750000 0.000000
O O15 0.477261 0.865060 0.213836
#
# Coordination Sequence:
#
# PCOD9172869 Si02
#       8
#     8   4   4   4   8   8   4   4
#     4   9  17  29  50  78 104 132 174 230 288 337
#     4  10  19  33  54  83 118 150 181 236 305 363
#     4  10  18  30  48  73 106 139 175 232 285 326
#     4  10  20  34  49  70 105 153 193 221 270 346
#     4   9  17  31  54  83 109 139 183 236 292 356
#     4   8  16  30  52  76 102 133 175 230 282 333
#     4   8  16  33  53  74  99 135 175 221 286 340
#     4  10  19  32  49  74 104 141 187 236 280 333
#
# _framework density 22.994271000000001
#
# number of rings (size 3 to 8) (size 9 to 14) (size 15 to 20)
#    0.000    2.909    0.000    2.182    0.000    2.909 
#    0.000    4.091    0.000    8.727    0.000   14.000 
#    0.000    0.000    0.000    0.000    0.000    0.000 
#
# Total GULP energy -122539.020504 kJ/mol
# GULP energy per Si atom -5569.955477 kJ/mol
# Density = 2.294194 g / cm^3
# Si number density = 22.994271 Si / 1000 Ang^3
#
#
#
# Elastic Constant Matrix: (Units=GPa)
#
#
# Indices 1 2 3 4 5 6 
#
# 1 147.6625 74.1773 38.0492 0.0000 -39.5266 0.0000
# 2 74.1773 149.0291 13.8273 0.0000 -17.5114 0.0000
# 3 38.0492 13.8273 58.6438 0.0000 -19.4918 0.0000
# 4 0.0000 0.0000 0.0000 30.1962 0.0000 -28.1598
# 5 -39.5266 -17.5114 -19.4918 0.0000 42.1196 0.0000
# 6 0.0000 0.0000 0.0000 -28.1598 0.0000 38.6537
#
#
#
# Elastic Compliance Matrix: (Units=1/GPa)
#
#
# Indices 1 2 3 4 5 6 
#
# 1 0.012361 -0.004859 -0.004361 0.000000 0.007562 0.000000
# 2 -0.004859 0.008998 0.000897 0.000000 -0.000404 0.000000
# 3 -0.004361 0.000897 0.021785 0.000000 0.006362 0.000000
# 4 0.000000 0.000000 0.000000 0.103290 0.000000 0.075248
# 5 0.007562 -0.000404 0.006362 0.000000 0.033614 0.000000
# 6 0.000000 0.000000 0.000000 0.075248 0.000000 0.080690
#
#
# Mechanical properties :
#
#
# Convention : Reuss Voigt Hill
#
# Bulk Modulus (GPa) = 37.74048 67.49364 52.61706
# Shear Modulus (GPa) = 17.46922 37.47935 27.47428
#
# Velocity S-wave (km/s) = 2.75929 4.04164 3.46038
# Velocity P-wave (km/s) = 5.15754 7.15513 6.23683
#
# Compressibility (1/GPa) = 0.02649675
#
# Stress axis : x y z
#
# Youngs Moduli (GPa) = 80.89838 111.13432 45.90395
#
# Poissons Ratio (x) = 0.54005 0.20019
# Poissons Ratio (y) = 0.39312 -0.04117
# Poissons Ratio (z) = 0.35280 -0.09968
#
# Static dielectric constant tensor:
#      x y z
#    x 1.875510 0.000000 -0.002990 
#    y 0.000000 1.873750 0.000000 
#    z -0.002990 0.000000 1.897070 
# 
# From -- ./inp_files/175451.got.cif
#   From: 2010.05.17/outbox.cif.g08.bks.cpg/sg12_88_cif.got.tgz:175451.got - 2010.06.03 13:09:07.
