data_PCOD9172878
_publ_section_title
;
Structure prediction by ZEFSAII (Michael W. Deem and Ramdas Pophale) SiO2 
 PCOD9172878
Probable space group: C 2/M
;
_chemical_formula_sum "Si O2"
_cell_formula_units_Z 56
_cell_length_a 8.546034
_cell_length_b 25.436983
_cell_length_c 18.882189
_cell_angle_alpha 90.000000
_cell_angle_beta 119.476100
_cell_angle_gamma 90.000000
_cell_volume 3573.401185
_symmetry_space_group_name_H-M "C 2/M"
_symmetry_group_IT_number 12
_symmetry_cell_setting 'monoclinic'
loop_
_space_group_symop_operation_xyz
x,y,z
-x,y,-z
-x,-y,-z
x,-y,z
1/2+x,1/2+y,z
1/2-x,1/2+y,-z
1/2-x,1/2-y,-z
1/2+x,1/2-y,z
loop_
_atom_site_type_symbol
_atom_site_label
_atom_site_fract_x
_atom_site_fract_y
_atom_site_fract_z
Si Si1 0.685578 0.726936 0.060013
Si Si2 0.316982 0.562421 0.414372
Si Si3 0.137964 0.856936 0.691842
Si Si4 0.183156 0.808409 0.303787
Si Si5 0.949133 0.359212 0.570289
Si Si6 0.422126 0.215493 0.826908
Si Si7 0.317037 0.720323 0.429243
O O1 0.631327 0.771824 0.104271
O O2 0.866960 0.702305 0.132007
O O3 0.500000 0.696716 0.000000
O O4 0.750000 0.750000 0.000000
O O5 0.500000 0.574010 0.500000
O O6 0.293860 0.500000 0.407502
O O7 0.339329 0.587136 0.340840
O O8 0.148333 0.591213 0.414529
O O9 0.307172 0.832063 0.770230
O O10 0.123891 0.818517 0.620717
O O11 0.969164 0.849174 0.706045
O O12 0.377239 0.837141 0.347666
O O13 0.126611 0.770510 0.225546
O O14 0.197022 0.765354 0.369199
O O15 0.796280 0.314500 0.542249
O O16 0.000000 0.369384 0.500000
O O17 0.500000 0.742422 0.500000
#
# Coordination Sequence:
#
# PCOD9172878 Si02
#       7
#     8   8   8   8   8   8   8
#     4   9  18  31  47  70 105 146 167 181 215 277
#     4  10  22  39  53  64  87 126 171 219 264 298
#     4  10  19  31  48  68  93 128 164 198 243 287
#     4  11  20  28  44  70  99 128 157 194 239 278
#     4  11  21  31  46  68  91 123 167 207 243 288
#     4  10  18  30  48  74 106 138 159 192 229 277
#     4  10  19  29  41  62  98 130 157 186 229 288
#
# _framework density 15.671345000000001
#
# number of rings (size 3 to 8) (size 9 to 14) (size 15 to 20)
#    0.000    1.857    1.429    5.571    4.000    2.000 
#    0.000    1.429    0.000    0.000    0.000    0.000 
#    0.000    5.714    0.000    0.571    0.000    0.000 
#
# Total GULP energy -155976.566401 kJ/mol
# GULP energy per Si atom -5570.591657 kJ/mol
# Density = 1.563568 g / cm^3
# Si number density = 15.671345 Si / 1000 Ang^3
#
#
#
# Elastic Constant Matrix: (Units=GPa)
#
#
# Indices 1 2 3 4 5 6 
#
# 1 98.4389 35.7789 40.0336 0.0000 12.5303 0.0000
# 2 35.7789 75.8508 25.8393 0.0000 4.7124 0.0000
# 3 40.0336 25.8393 79.0772 0.0000 9.7949 0.0000
# 4 0.0000 0.0000 0.0000 5.6893 0.0000 0.8693
# 5 12.5303 4.7124 9.7949 0.0000 33.9465 0.0000
# 6 0.0000 0.0000 0.0000 0.8693 0.0000 7.6233
#
#
#
# Elastic Compliance Matrix: (Units=1/GPa)
#
#
# Indices 1 2 3 4 5 6 
#
# 1 0.014492 -0.004810 -0.005377 0.000000 -0.003130 0.000000
# 2 -0.004810 0.016447 -0.002983 0.000000 0.000353 0.000000
# 3 -0.005377 -0.002983 0.016641 0.000000 -0.002402 0.000000
# 4 0.000000 0.000000 0.000000 0.178886 0.000000 -0.020399
# 5 -0.003130 0.000353 -0.002402 0.000000 0.031258 0.000000
# 6 0.000000 0.000000 0.000000 -0.020399 0.000000 0.133502
#
#
# Mechanical properties :
#
#
# Convention : Reuss Voigt Hill
#
# Bulk Modulus (GPa) = 47.08246 50.74115 48.91181
# Shear Modulus (GPa) = 11.77454 19.56617 15.67036
#
# Velocity S-wave (km/s) = 2.74404 3.53729 3.16561
# Velocity P-wave (km/s) = 6.33629 7.00941 6.68133
#
# Compressibility (1/GPa) = 0.02123933
#
# Stress axis : x y z
#
# Youngs Moduli (GPa) = 69.00342 60.80249 60.09416
#
# Poissons Ratio (x) = 0.29243 0.32315
# Poissons Ratio (y) = 0.33188 0.17926
# Poissons Ratio (z) = 0.37106 0.18137
#
# Static dielectric constant tensor:
#      x y z
#    x 1.571850 0.000000 0.015450 
#    y 0.000000 1.498300 0.000000 
#    z 0.015450 0.000000 1.575780 
# 
# From -- ./inp_files/302572.got.cif
#   From: 2010.05.17/outbox.cif.g08.bks.cpg/sg12_152_cif.got.tgz:302572.got - 2010.06.03 13:09:07.
