data_PCOD9172841
_publ_section_title
;
Structure prediction by ZEFSAII (Michael W. Deem and Ramdas Pophale) SiO2 
 PCOD9172841
Probable space group: C 2/M
;
_chemical_formula_sum "Si O2"
_cell_formula_units_Z 48
_cell_length_a 30.726635
_cell_length_b 7.977110
_cell_length_c 12.394037
_cell_angle_alpha 90.000000
_cell_angle_beta 119.341845
_cell_angle_gamma 90.000000
_cell_volume 2648.172124
_symmetry_space_group_name_H-M "C 2/M"
_symmetry_group_IT_number 12
_symmetry_cell_setting 'monoclinic'
loop_
_space_group_symop_operation_xyz
x,y,z
-x,y,-z
-x,-y,-z
x,-y,z
1/2+x,1/2+y,z
1/2-x,1/2+y,-z
1/2-x,1/2-y,-z
1/2+x,1/2-y,z
loop_
_atom_site_type_symbol
_atom_site_label
_atom_site_fract_x
_atom_site_fract_y
_atom_site_fract_z
Si Si1 0.038057 0.702120 0.208468
Si Si2 0.390608 0.693253 0.515265
Si Si3 0.192795 0.700015 0.419223
Si Si4 0.948216 0.695897 0.387283
Si Si5 0.122551 0.704267 0.144246
Si Si6 0.573504 0.204431 0.877299
O O1 0.040822 0.500000 0.220961
O O2 0.064586 0.775745 0.345853
O O3 0.072147 0.748990 0.148602
O O4 0.980343 0.746886 0.136845
O O5 0.387789 0.500000 0.482428
O O6 0.341159 0.741877 0.521525
O O7 0.405657 0.790930 0.425996
O O8 0.189359 0.500000 0.412972
O O9 0.250000 0.750000 0.500000
O O10 0.167278 0.763138 0.276501
O O11 0.959410 0.500000 0.379494
O O12 0.929684 0.765920 0.249883
O O13 0.000000 0.768676 0.500000
O O14 0.125193 0.500000 0.144758
O O15 0.115693 0.762954 0.012931
O O16 0.577328 0.000000 0.879115
#
# Coordination Sequence:
#
# PCOD9172841 Si02
#       6
#     8   8   8   8   8   8
#     4   9  15  27  46  69  98 131 168 204 240 288
#     4  11  21  32  48  72 103 135 171 207 245 289
#     4  10  20  36  58  79  99 122 159 207 259 305
#     4  10  18  30  48  71 101 138 176 207 238 282
#     4   8  15  26  46  75  99 123 159 204 248 297
#     4   9  15  25  45  71 100 133 167 201 240 289
#
# _framework density 18.125710000000002
#
# number of rings (size 3 to 8) (size 9 to 14) (size 15 to 20)
#    0.000    2.500    1.667    3.500    0.000    2.333 
#    0.000    0.000    0.000   15.000    0.000    0.000 
#    0.000    0.000    0.000    0.000    0.000    0.000 
#
# Total GULP energy -133721.496924 kJ/mol
# GULP energy per Si atom -5571.729038 kJ/mol
# Density = 1.808445 g / cm^3
# Si number density = 18.125710 Si / 1000 Ang^3
#
#
#
# Elastic Constant Matrix: (Units=GPa)
#
#
# Indices 1 2 3 4 5 6 
#
# 1 67.2281 -6.3916 61.4308 0.0000 9.5890 0.0000
# 2 -6.3916 11.5384 2.8540 0.0000 0.6910 0.0000
# 3 61.4308 2.8540 159.0459 0.0000 -10.8898 0.0000
# 4 0.0000 0.0000 0.0000 -2.9459 0.0000 8.8155
# 5 9.5890 0.6910 -10.8898 0.0000 17.5666 0.0000
# 6 0.0000 0.0000 0.0000 8.8155 0.0000 11.7994
#
#
#
# Elastic Compliance Matrix: (Units=1/GPa)
#
#
# Indices 1 2 3 4 5 6 
#
# 1 0.038052 0.027344 -0.017424 0.000000 -0.032648 0.000000
# 2 0.027344 0.107057 -0.014404 0.000000 -0.028067 0.000000
# 3 -0.017424 -0.014404 0.014585 0.000000 0.019119 0.000000
# 4 0.000000 0.000000 0.000000 -0.104910 0.000000 0.078379
# 5 -0.032648 -0.028067 0.019119 0.000000 0.087704 0.000000
# 6 0.000000 0.000000 0.000000 0.078379 0.000000 0.026192
#
#
# Mechanical properties :
#
#
# Convention : Reuss Voigt Hill
#
# Bulk Modulus (GPa) = 6.63456 39.28875 22.96166
# Shear Modulus (GPa) = 21.94025 17.27863 19.60944
#
# Velocity S-wave (km/s) = 3.48293 3.09085 3.29273
# Velocity P-wave (km/s) = 4.45450 5.87031 5.21072
#
# Compressibility (1/GPa) = 0.15072585
#
# Stress axis : x y z
#
# Youngs Moduli (GPa) = 26.27962 9.34081 68.56436
#
# Poissons Ratio (x) = -0.25541 1.19464
# Poissons Ratio (y) = -0.71858 0.98761
# Poissons Ratio (z) = 0.45789 0.13455
#
# Static dielectric constant tensor:
#      x y z
#    x 1.561930 0.000000 -0.017400 
#    y 0.000000 1.653900 0.000000 
#    z -0.017400 0.000000 1.664700 
# 
# From -- ./inp_files/172387.got.cif
#   From: 2010.05.17/outbox.cif.g08.bks.cpg/sg12_87_cif.got.tgz:172387.got - 2010.06.03 13:09:07.
