data_PCOD9172357
_publ_section_title
;
Structure prediction by ZEFSAII (Michael W. Deem and Ramdas Pophale) SiO2 
 PCOD9172357
Probable space group: C 2/M
;
_chemical_formula_sum "Si O2"
_cell_formula_units_Z 64
_cell_length_a 21.018510
_cell_length_b 8.845672
_cell_length_c 25.869486
_cell_angle_alpha 90.000000
_cell_angle_beta 50.129219
_cell_angle_gamma 90.000000
_cell_volume 3691.428925
_symmetry_space_group_name_H-M "C 2/M"
_symmetry_group_IT_number 12
_symmetry_cell_setting 'monoclinic'
loop_
_space_group_symop_operation_xyz
x,y,z
-x,y,-z
-x,-y,-z
x,-y,z
1/2+x,1/2+y,z
1/2-x,1/2+y,-z
1/2-x,1/2-y,-z
1/2+x,1/2-y,z
loop_
_atom_site_type_symbol
_atom_site_label
_atom_site_fract_x
_atom_site_fract_y
_atom_site_fract_z
Si Si1 0.822015 0.817746 0.998579
Si Si2 0.323242 0.818733 0.644512
Si Si3 0.918578 0.824695 0.505522
Si Si4 0.928902 0.182120 0.767158
Si Si5 0.485378 0.683716 0.851112
Si Si6 0.233543 0.318507 0.865235
Si Si7 0.666761 0.683178 0.793768
Si Si8 0.980259 0.680349 0.634369
O O1 0.809185 0.754604 0.062573
O O2 0.816529 0.000000 0.001261
O O3 0.750000 0.750000 0.000000
O O4 0.910221 0.772680 0.927942
O O5 0.345861 0.745574 0.577967
O O6 0.235379 0.776825 0.714886
O O7 0.395416 0.775463 0.647987
O O8 0.326911 0.000000 0.636993
O O9 0.000000 0.812800 0.500000
O O10 0.944274 0.739856 0.439939
O O11 0.903305 0.000000 0.502944
O O12 0.965200 0.233476 0.803270
O O13 0.831367 0.221866 0.815402
O O14 0.974947 0.250939 0.693965
O O15 0.934547 0.000000 0.761716
O O16 0.485952 0.500000 0.849707
O O17 0.575185 0.731637 0.824304
O O18 0.227336 0.500000 0.871016
O O19 0.193799 0.256348 0.833529
O O20 0.668147 0.500000 0.798513
O O21 0.982574 0.500000 0.635671
#
# Coordination Sequence:
#
# PCOD9172357 Si02
#       8
#     8   8   8   8   8   8   8   8
#     4  11  21  37  59  83 109 142 183 226 274 323
#     4   9  17  29  48  75 105 136 172 218 267 313
#     4   9  17  28  45  72 105 142 175 209 262 319
#     4  10  19  34  54  77 106 141 181 220 265 320
#     4   9  20  38  58  79 106 143 183 221 268 329
#     4  11  22  36  56  82 111 143 180 225 272 320
#     4  10  20  37  58  80 108 144 184 221 267 326
#     4  10  18  29  48  78 108 134 173 224 269 309
#
# _framework density 17.337458999999999
#
# number of rings (size 3 to 8) (size 9 to 14) (size 15 to 20)
#    0.000    2.125    2.500    1.500    0.000    3.500 
#    0.000    4.375    0.000    0.750    0.000    0.000 
#    0.000    0.000    0.000    0.000    0.000    0.000 
#
# Total GULP energy -178558.269507 kJ/mol
# GULP energy per Si atom -5579.945922 kJ/mol
# Density = 1.729800 g / cm^3
# Si number density = 17.337459 Si / 1000 Ang^3
#
#
#
# Elastic Constant Matrix: (Units=GPa)
#
#
# Indices 1 2 3 4 5 6 
#
# 1 115.7165 34.7860 82.8485 0.0000 -0.1689 0.0003
# 2 34.7860 34.2335 54.1814 0.0000 3.6508 0.0007
# 3 82.8485 54.1814 193.4533 0.0000 9.1542 0.0000
# 4 0.0000 0.0000 0.0000 33.9273 0.0000 6.3529
# 5 -0.1689 3.6508 9.1542 0.0000 23.6308 0.0000
# 6 0.0003 0.0007 0.0000 6.3529 0.0000 19.3790
#
#
#
# Elastic Compliance Matrix: (Units=1/GPa)
#
#
# Indices 1 2 3 4 5 6 
#
# 1 0.013846 -0.008577 -0.003662 0.000000 0.002843 0.000000
# 2 -0.008577 0.057923 -0.012350 0.000000 -0.004226 -0.000002
# 3 -0.003662 -0.012350 0.010296 0.000000 -0.002107 0.000001
# 4 0.000000 0.000000 0.000000 0.031402 0.000000 -0.010294
# 5 0.002843 -0.004226 -0.002107 0.000000 0.043807 0.000000
# 6 0.000000 -0.000002 0.000001 -0.010294 0.000000 0.054977
#
#
# Mechanical properties :
#
#
# Convention : Reuss Voigt Hill
#
# Bulk Modulus (GPa) = 30.40626 76.33725 53.37176
# Shear Modulus (GPa) = 18.35594 26.82657 22.59126
#
# Velocity S-wave (km/s) = 3.25737 3.93786 3.61367
# Velocity P-wave (km/s) = 5.63234 8.04994 6.94711
#
# Compressibility (1/GPa) = 0.03288796
#
# Stress axis : x y z
#
# Youngs Moduli (GPa) = 72.22194 17.26439 97.12403
#
# Poissons Ratio (x) = 0.14807 0.35569
# Poissons Ratio (y) = 0.61942 1.19945
# Poissons Ratio (z) = 0.26449 0.21321
#
# Static dielectric constant tensor:
#      x y z
#    x 1.571340 0.000000 -0.007330 
#    y 0.000000 1.583530 0.000000 
#    z -0.007330 0.000000 1.578720 
# 
# From -- ./inp_files/345945.got.cif
#   From: 2010.05.17/outbox.cif.g08.bks.cpg/sg12_173_cif.got.tgz:345945.got - 2010.06.03 13:09:07.
