data_PCOD9172306
_publ_section_title
;
Structure prediction by ZEFSAII (Michael W. Deem and Ramdas Pophale) SiO2 
 PCOD9172306
Probable space group: C 2/M
;
_chemical_formula_sum "Si O2"
_cell_formula_units_Z 48
_cell_length_a 24.458650
_cell_length_b 16.882323
_cell_length_c 5.449888
_cell_angle_alpha 90.000000
_cell_angle_beta 69.857956
_cell_angle_gamma 90.000000
_cell_volume 2112.733367
_symmetry_space_group_name_H-M "C 2/M"
_symmetry_group_IT_number 12
_symmetry_cell_setting 'monoclinic'
loop_
_space_group_symop_operation_xyz
x,y,z
-x,y,-z
-x,-y,-z
x,-y,z
1/2+x,1/2+y,z
1/2-x,1/2+y,-z
1/2-x,1/2-y,-z
1/2+x,1/2-y,z
loop_
_atom_site_type_symbol
_atom_site_label
_atom_site_fract_x
_atom_site_fract_y
_atom_site_fract_z
Si Si1 0.570306 0.088429 0.382302
Si Si2 0.287667 0.817387 0.671039
Si Si3 0.930447 0.677777 0.115231
Si Si4 0.833408 0.864759 0.641375
Si Si5 0.145357 0.169096 0.887786
Si Si6 0.795098 0.410655 0.153496
O O1 0.500000 0.084329 0.500000
O O2 0.583807 0.147073 0.588282
O O3 0.592751 0.000000 0.400452
O O4 0.582462 0.114952 0.082966
O O5 0.312682 0.728564 0.652204
O O6 0.216211 0.814140 0.792958
O O7 0.303179 0.860081 0.390395
O O8 0.309069 0.867147 0.873956
O O9 0.893822 0.754235 0.095733
O O10 0.000000 0.693090 0.000000
O O11 0.862801 0.883565 0.339662
O O12 0.775055 0.913999 0.755580
O O13 0.869903 0.869431 0.830526
O O14 0.816921 0.500000 0.143237
#
# Coordination Sequence:
#
# PCOD9172306 Si02
#       6
#     8   8   8   8   8   8
#     4   9  17  30  47  64  86 120 157 192 231 272
#     4  10  19  33  51  69  93 126 157 185 230 281
#     4  10  19  30  47  69  90 114 150 196 234 268
#     4  10  19  33  52  69  91 126 159 185 228 282
#     4  10  18  30  49  67  89 118 152 188 226 269
#     4  10  18  29  48  73  96 119 155 195 225 263
#
# _framework density 22.719384999999999
#
# number of rings (size 3 to 8) (size 9 to 14) (size 15 to 20)
#    0.000    2.167    0.000    7.000    0.000    2.000 
#    0.000    0.000    0.000   34.000    0.000    0.000 
#    0.000   64.000    0.000    0.000    0.000    0.000 
#
# Total GULP energy -134174.153175 kJ/mol
# GULP energy per Si atom -5590.589716 kJ/mol
# Density = 2.266767 g / cm^3
# Si number density = 22.719385 Si / 1000 Ang^3
#
#
#
# Elastic Constant Matrix: (Units=GPa)
#
#
# Indices 1 2 3 4 5 6 
#
# 1 100.1312 27.5663 32.3984 0.0000 20.4845 0.0000
# 2 27.5663 55.6260 31.7895 0.0000 1.4584 0.0000
# 3 32.3984 31.7895 198.6871 0.0000 36.3513 0.0000
# 4 0.0000 0.0000 0.0000 15.9800 0.0000 -0.4327
# 5 20.4845 1.4584 36.3513 0.0000 37.0777 0.0000
# 6 0.0000 0.0000 0.0000 -0.4327 0.0000 20.5746
#
#
#
# Elastic Compliance Matrix: (Units=1/GPa)
#
#
# Indices 1 2 3 4 5 6 
#
# 1 0.013177 -0.006459 0.000207 0.000000 -0.007229 0.000000
# 2 -0.006459 0.023200 -0.003832 0.000000 0.006413 0.000000
# 3 0.000207 -0.003832 0.006831 0.000000 -0.006661 0.000000
# 4 0.000000 0.000000 0.000000 0.062614 0.000000 0.001317
# 5 -0.007229 0.006413 -0.006661 0.000000 0.037243 0.000000
# 6 0.000000 0.000000 0.000000 0.001317 0.000000 0.048631
#
#
# Mechanical properties :
#
#
# Convention : Reuss Voigt Hill
#
# Bulk Modulus (GPa) = 43.40162 59.77252 51.58707
# Shear Modulus (GPa) = 22.77459 32.23912 27.50686
#
# Velocity S-wave (km/s) = 3.16955 3.77107 3.48332
# Velocity P-wave (km/s) = 5.70435 6.73256 6.23967
#
# Compressibility (1/GPa) = 0.02304062
#
# Stress axis : x y z
#
# Youngs Moduli (GPa) = 75.89057 43.10382 146.39114
#
# Poissons Ratio (x) = 0.27841 -0.03036
# Poissons Ratio (y) = 0.49017 0.56097
# Poissons Ratio (z) = -0.01574 0.16517
#
# Static dielectric constant tensor:
#      x y z
#    x 1.901230 0.000000 -0.032160 
#    y 0.000000 1.820390 0.000000 
#    z -0.032160 0.000000 1.963660 
# 
# From -- ./inp_files/31725.got.cif
#   From: 2010.05.17/outbox.cif.g08.bks.cpg/sg12_16_cif.got.tgz:31725.got - 2010.06.03 13:09:07.
