data_PCOD9172027
_publ_section_title
;
Structure prediction by ZEFSAII (Michael W. Deem and Ramdas Pophale) SiO2 
 PCOD9172027
Probable space group: C 2/M
;
_chemical_formula_sum "Si O2"
_cell_formula_units_Z 64
_cell_length_a 22.621098
_cell_length_b 12.664972
_cell_length_c 22.634670
_cell_angle_alpha 90.000000
_cell_angle_beta 144.813184
_cell_angle_gamma 90.000000
_cell_volume 3736.790103
_symmetry_space_group_name_H-M "C 2/M"
_symmetry_group_IT_number 12
_symmetry_cell_setting 'monoclinic'
loop_
_space_group_symop_operation_xyz
x,y,z
-x,y,-z
-x,-y,-z
x,-y,z
1/2+x,1/2+y,z
1/2-x,1/2+y,-z
1/2-x,1/2-y,-z
1/2+x,1/2-y,z
loop_
_atom_site_type_symbol
_atom_site_label
_atom_site_fract_x
_atom_site_fract_y
_atom_site_fract_z
Si Si1 0.653677 0.879038 0.832826
Si Si2 0.989533 0.621277 0.180371
Si Si3 0.142605 0.622193 0.564272
Si Si4 0.501285 0.384207 0.930958
Si Si5 0.585972 0.818099 0.649081
Si Si6 0.673686 0.216203 0.038349
Si Si7 0.271210 0.625207 0.237526
Si Si8 0.332090 0.245539 0.738146
O O1 0.550444 0.860138 0.785981
O O2 0.632648 0.869014 0.745922
O O3 0.733317 0.785413 0.911991
O O4 0.687866 0.000000 0.873910
O O5 0.019509 0.500000 0.198270
O O6 0.084336 0.690886 0.235661
O O7 0.888381 0.643097 0.057641
O O8 0.158325 0.500000 0.560188
O O9 0.128270 0.628602 0.623855
O O10 0.236434 0.700226 0.627514
O O11 0.035764 0.665414 0.451120
O O12 0.520801 0.500000 0.921542
O O13 0.393688 0.338880 0.821116
O O14 0.500000 0.390670 0.000000
O O15 0.590096 0.303386 0.987839
O O16 0.625946 0.697175 0.679448
O O17 0.711604 0.155400 0.128105
O O18 0.288037 0.500000 0.254177
O O19 0.207810 0.666333 0.243045
#
# Coordination Sequence:
#
# PCOD9172027 Si02
#       8
#     8   8   8   8   8   8   8   8
#     4  10  19  33  52  74  98 130 165 207 249 291
#     4  10  21  34  49  68  99 138 174 203 237 282
#     4  10  18  33  56  80 102 125 152 201 258 305
#     4  10  18  29  45  72 104 130 157 200 253 300
#     4   9  19  33  53  79 101 123 160 202 252 301
#     4  10  19  32  49  73  98 131 169 208 243 294
#     4  10  19  32  50  72 100 131 165 202 246 288
#     4  10  20  33  47  73 100 133 167 201 240 295
#
# _framework density 17.126999999999999
#
# number of rings (size 3 to 8) (size 9 to 14) (size 15 to 20)
#    0.000    2.125    1.250    3.375    0.000    0.000 
#    0.000    8.125    0.000   10.500    0.000    0.000 
#    0.000    0.000    0.000    0.000    0.000    0.000 
#
# Total GULP energy -178361.235515 kJ/mol
# GULP energy per Si atom -5573.788610 kJ/mol
# Density = 1.708802 g / cm^3
# Si number density = 17.127000 Si / 1000 Ang^3
#
#
#
# Elastic Constant Matrix: (Units=GPa)
#
#
# Indices 1 2 3 4 5 6 
#
# 1 42.3516 12.8169 4.3985 0.0000 10.9171 0.0000
# 2 12.8169 94.5340 12.6752 0.0000 11.0241 0.0000
# 3 4.3985 12.6752 43.0340 0.0000 16.6478 0.0000
# 4 0.0000 0.0000 0.0000 17.1473 0.0000 -0.4061
# 5 10.9171 11.0241 16.6478 0.0000 22.3034 0.0000
# 6 0.0000 0.0000 0.0000 -0.4061 0.0000 18.3040
#
#
#
# Elastic Compliance Matrix: (Units=1/GPa)
#
#
# Indices 1 2 3 4 5 6 
#
# 1 0.027909 -0.002514 0.003785 0.000000 -0.015243 0.000000
# 2 -0.002514 0.011534 -0.001984 0.000000 -0.002990 0.000000
# 3 0.003785 -0.001984 0.033423 0.000000 -0.025820 0.000000
# 4 0.000000 0.000000 0.000000 0.058349 0.000000 0.001295
# 5 -0.015243 -0.002990 -0.025820 0.000000 0.073048 0.000000
# 6 0.000000 0.000000 0.000000 0.001295 0.000000 0.054662
#
#
# Mechanical properties :
#
#
# Convention : Reuss Voigt Hill
#
# Bulk Modulus (GPa) = 13.99762 26.63344 20.31553
# Shear Modulus (GPa) = 17.59554 21.55288 19.57421
#
# Velocity S-wave (km/s) = 3.20872 3.55126 3.38433
# Velocity P-wave (km/s) = 4.68171 5.69207 5.21143
#
# Compressibility (1/GPa) = 0.07144071
#
# Stress axis : x y z
#
# Youngs Moduli (GPa) = 35.83095 86.70296 29.91919
#
# Poissons Ratio (x) = 0.21795 -0.11324
# Poissons Ratio (y) = 0.09007 0.05935
# Poissons Ratio (z) = -0.13561 0.17198
#
# Static dielectric constant tensor:
#      x y z
#    x 1.580930 0.000000 0.007360 
#    y 0.000000 1.583530 0.000000 
#    z 0.007360 0.000000 1.591030 
# 
# From -- ./inp_files/321311.got.cif
#   From: 2010.05.17/outbox.cif.g08.bks.cpg/sg12_161_cif.got.tgz:321311.got - 2010.06.03 13:09:07.
