data_PCOD9172582
_publ_section_title
;
Structure prediction by ZEFSAII (Michael W. Deem and Ramdas Pophale) SiO2 
 PCOD9172582
Probable space group: C 2/M
;
_chemical_formula_sum "Si O2"
_cell_formula_units_Z 40
_cell_length_a 14.877263
_cell_length_b 11.582504
_cell_length_c 12.142068
_cell_angle_alpha 90.000000
_cell_angle_beta 72.331565
_cell_angle_gamma 90.000000
_cell_volume 1993.577165
_symmetry_space_group_name_H-M "C 2/M"
_symmetry_group_IT_number 12
_symmetry_cell_setting 'monoclinic'
loop_
_space_group_symop_operation_xyz
x,y,z
-x,y,-z
-x,-y,-z
x,-y,z
1/2+x,1/2+y,z
1/2-x,1/2+y,-z
1/2-x,1/2-y,-z
1/2+x,1/2-y,z
loop_
_atom_site_type_symbol
_atom_site_label
_atom_site_fract_x
_atom_site_fract_y
_atom_site_fract_z
Si Si1 0.985602 0.692580 0.325951
Si Si2 0.155933 0.865918 0.715197
Si Si3 0.923276 0.624865 0.929817
Si Si4 0.858514 0.633997 0.570781
Si Si5 0.886958 0.130699 0.017989
O O1 0.021754 0.625751 0.205992
O O2 0.074378 0.706355 0.373507
O O3 0.936428 0.804985 0.295675
O O4 0.905362 0.636736 0.433240
O O5 0.251825 0.824450 0.621875
O O6 0.161866 0.852973 0.844832
O O7 0.147515 0.000000 0.694416
O O8 0.871696 0.500000 0.957405
O O9 0.870898 0.749458 0.957487
O O10 0.000000 0.626151 0.000000
O O11 0.862167 0.500000 0.607938
O O12 0.863718 0.000000 0.984408
O O13 0.000000 0.127016 0.000000
#
# Coordination Sequence:
#
# PCOD9172582 Si02
#       5
#     8   8   8   8   8
#     4  11  19  36  59  80 113 150 183 233 288 338
#     4  10  20  36  59  83 109 147 194 235 276 338
#     4  10  18  29  52  83 111 144 184 230 288 336
#     4  10  22  37  56  85 111 145 193 231 279 344
#     4   9  16  31  54  78 106 147 191 225 273 342
#
# _framework density 20.064436000000001
#
# number of rings (size 3 to 8) (size 9 to 14) (size 15 to 20)
#    0.000    2.000    4.000    3.000    0.000    0.000 
#    0.000    3.000    0.000    4.800    0.000    0.000 
#    0.000    0.000    0.000    0.000    0.000    0.000 
#
# Total GULP energy -111386.627990 kJ/mol
# GULP energy per Si atom -5569.331399 kJ/mol
# Density = 2.001877 g / cm^3
# Si number density = 20.064436 Si / 1000 Ang^3
#
#
#
# Elastic Constant Matrix: (Units=GPa)
#
#
# Indices 1 2 3 4 5 6 
#
# 1 37.5251 39.6082 9.2027 0.0000 -2.3730 0.0000
# 2 39.6082 155.9660 36.9280 0.0000 -5.1998 0.0000
# 3 9.2027 36.9280 93.9323 0.0000 7.7574 0.0000
# 4 0.0000 0.0000 0.0000 22.2538 0.0000 -7.0604
# 5 -2.3730 -5.1998 7.7574 0.0000 15.3459 0.0000
# 6 0.0000 0.0000 0.0000 -7.0604 0.0000 5.3920
#
#
#
# Elastic Compliance Matrix: (Units=1/GPa)
#
#
# Indices 1 2 3 4 5 6 
#
# 1 0.036508 -0.009134 -0.000205 0.000000 0.002654 0.000000
# 2 -0.009134 0.009594 -0.003161 0.000000 0.003436 0.000000
# 3 -0.000205 -0.003161 0.012522 0.000000 -0.007433 0.000000
# 4 0.000000 0.000000 0.000000 0.076872 0.000000 0.100658
# 5 0.002654 0.003436 -0.007433 0.000000 0.070496 0.000000
# 6 0.000000 0.000000 0.000000 0.100658 0.000000 0.317265
#
#
# Mechanical properties :
#
#
# Convention : Reuss Voigt Hill
#
# Bulk Modulus (GPa) = 29.73971 50.98903 40.36437
# Shear Modulus (GPa) = 8.93709 22.04395 15.49052
#
# Velocity S-wave (km/s) = 2.11279 3.31820 2.78157
# Velocity P-wave (km/s) = 4.56137 6.33627 5.52062
#
# Compressibility (1/GPa) = 0.03362508
#
# Stress axis : x y z
#
# Youngs Moduli (GPa) = 27.39089 104.22844 79.85653
#
# Poissons Ratio (x) = 0.95207 0.01636
# Poissons Ratio (y) = 0.25020 0.25240
# Poissons Ratio (z) = 0.00561 0.32944
#
# Static dielectric constant tensor:
#      x y z
#    x 1.693040 0.000000 -0.020820 
#    y 0.000000 1.766400 0.000000 
#    z -0.020820 0.000000 1.725120 
# 
# From -- ./inp_files/140800.got.cif
#   From: 2010.05.17/outbox.cif.g08.bks.cpg/sg12_71_cif.got.tgz:140800.got - 2010.06.03 13:09:07.
