data_PCOD9172244
_publ_section_title
;
Structure prediction by ZEFSAII (Michael W. Deem and Ramdas Pophale) SiO2 
 PCOD9172244
Probable space group: C 2/M
;
_chemical_formula_sum "Si O2"
_cell_formula_units_Z 56
_cell_length_a 20.337312
_cell_length_b 7.636055
_cell_length_c 18.525630
_cell_angle_alpha 90.000000
_cell_angle_beta 115.567762
_cell_angle_gamma 90.000000
_cell_volume 2595.245658
_symmetry_space_group_name_H-M "C 2/M"
_symmetry_group_IT_number 12
_symmetry_cell_setting 'monoclinic'
loop_
_space_group_symop_operation_xyz
x,y,z
-x,y,-z
-x,-y,-z
x,-y,z
1/2+x,1/2+y,z
1/2-x,1/2+y,-z
1/2-x,1/2-y,-z
1/2+x,1/2-y,z
loop_
_atom_site_type_symbol
_atom_site_label
_atom_site_fract_x
_atom_site_fract_y
_atom_site_fract_z
Si Si1 0.380337 0.199649 0.087864
Si Si2 0.663120 0.297116 0.085238
Si Si3 0.814568 0.288895 0.364317
Si Si4 0.820348 0.714993 0.209036
Si Si5 0.664374 0.789943 0.470791
Si Si6 0.960000 0.799423 0.873806
Si Si7 0.356829 0.790422 0.695453
O O1 0.366512 0.271684 0.161411
O O2 0.465371 0.205552 0.109507
O O3 0.354086 0.000000 0.075672
O O4 0.338898 0.287816 0.001725
O O5 0.661711 0.500000 0.106836
O O6 0.737641 0.225297 0.153209
O O7 0.589391 0.221888 0.085170
O O8 0.820634 0.500000 0.368127
O O9 0.842224 0.226226 0.299547
O O10 0.851878 0.223404 0.456134
O O11 0.728238 0.246799 0.328405
O O12 0.821645 0.500000 0.211248
O O13 0.750000 0.750000 0.500000
O O14 0.627585 0.727341 0.379222
O O15 0.655217 0.000000 0.466999
O O16 0.907571 0.793948 0.779475
O O17 0.980971 0.000000 0.901278
O O18 0.367504 0.000000 0.703713
#
# Coordination Sequence:
#
# PCOD9172244 Si02
#       7
#     8   8   8   8   8   8   8
#     4  11  23  36  52  77 106 133 166 215 264 299
#     4  10  20  37  57  75  97 132 177 213 248 305
#     4   9  15  30  52  74 102 139 173 199 243 306
#     4   9  18  34  55  77 103 136 172 208 248 300
#     4   8  15  25  44  73 104 132 162 204 249 295
#     4  11  22  37  56  74  99 139 177 208 249 309
#     4  10  18  29  47  78 109 130 163 214 260 292
#
# _framework density 21.577916999999999
#
# number of rings (size 3 to 8) (size 9 to 14) (size 15 to 20)
#    0.000    2.286    1.429    2.143    0.000    3.429 
#    0.000    2.143    0.000    0.857    0.000    6.000 
#    0.000    0.000    0.000    0.000    0.000    0.000 
#
# Total GULP energy -156204.761395 kJ/mol
# GULP energy per Si atom -5578.741478 kJ/mol
# Density = 2.152880 g / cm^3
# Si number density = 21.577917 Si / 1000 Ang^3
#
#
#
# Elastic Constant Matrix: (Units=GPa)
#
#
# Indices 1 2 3 4 5 6 
#
# 1 67.1384 1.3404 30.9320 0.0000 -34.8333 0.0000
# 2 1.3404 46.6552 1.0823 0.0000 -5.5858 0.0000
# 3 30.9320 1.0823 150.2782 0.0000 -50.8121 0.0000
# 4 0.0000 0.0000 0.0000 7.5966 0.0000 1.2012
# 5 -34.8333 -5.5858 -50.8121 0.0000 36.0406 0.0000
# 6 0.0000 0.0000 0.0000 1.2012 0.0000 10.7332
#
#
#
# Elastic Compliance Matrix: (Units=1/GPa)
#
#
# Indices 1 2 3 4 5 6 
#
# 1 0.035003 0.004358 0.008467 0.000000 0.046444 0.000000
# 2 0.004358 0.022665 0.002965 0.000000 0.011906 0.000000
# 3 0.008467 0.002965 0.014930 0.000000 0.029692 0.000000
# 4 0.000000 0.000000 0.000000 0.134009 0.000000 -0.014998
# 5 0.046444 0.011906 0.029692 0.000000 0.116341 0.000000
# 6 0.000000 0.000000 0.000000 -0.014998 0.000000 0.094847
#
#
# Mechanical properties :
#
#
# Convention : Reuss Voigt Hill
#
# Bulk Modulus (GPa) = 9.59878 36.75347 23.17612
# Shear Modulus (GPa) = 11.87818 26.25522 19.06670
#
# Velocity S-wave (km/s) = 2.34877 3.49200 2.97580
# Velocity P-wave (km/s) = 3.43711 5.77309 4.75091
#
# Compressibility (1/GPa) = 0.10417993
#
# Stress axis : x y z
#
# Youngs Moduli (GPa) = 28.56918 44.12039 66.98123
#
# Poissons Ratio (x) = -0.19229 -0.56716
# Poissons Ratio (y) = -0.12452 -0.19862
# Poissons Ratio (z) = -0.24191 -0.13083
#
# Static dielectric constant tensor:
#      x y z
#    x 1.777950 0.000000 -0.053330 
#    y 0.000000 1.798600 0.000000 
#    z -0.053330 0.000000 1.819010 
# 
# From -- ./inp_files/275488.got.cif
#   From: 2010.05.17/outbox.cif.g08.bks.cpg/sg12_138_cif.got.tgz:275488.got - 2010.06.03 13:09:07.
