data_PCOD9172709
_publ_section_title
;
Structure prediction by ZEFSAII (Michael W. Deem and Ramdas Pophale) SiO2 
 PCOD9172709
Probable space group: C 2/M
;
_chemical_formula_sum "Si O2"
_cell_formula_units_Z 48
_cell_length_a 13.491719
_cell_length_b 29.574623
_cell_length_c 7.168898
_cell_angle_alpha 90.000000
_cell_angle_beta 49.117990
_cell_angle_gamma 90.000000
_cell_volume 2162.691629
_symmetry_space_group_name_H-M "C 2/M"
_symmetry_group_IT_number 12
_symmetry_cell_setting 'monoclinic'
loop_
_space_group_symop_operation_xyz
x,y,z
-x,y,-z
-x,-y,-z
x,-y,z
1/2+x,1/2+y,z
1/2-x,1/2+y,-z
1/2-x,1/2-y,-z
1/2+x,1/2-y,z
loop_
_atom_site_type_symbol
_atom_site_label
_atom_site_fract_x
_atom_site_fract_y
_atom_site_fract_z
Si Si1 0.726963 0.696031 0.501949
Si Si2 0.970056 0.144202 0.762988
Si Si3 0.920795 0.550416 0.900110
Si Si4 0.225718 0.698118 0.994044
Si Si5 0.521393 0.145276 0.746787
Si Si6 0.612109 0.549767 0.202753
O O1 0.750000 0.750000 0.500000
O O2 0.586359 0.673321 0.708879
O O3 0.750715 0.689935 0.252906
O O4 0.836346 0.665211 0.464051
O O5 0.836677 0.170568 0.960386
O O6 0.938269 0.092384 0.853914
O O7 0.000000 0.143304 0.500000
O O8 0.937453 0.500000 0.796318
O O9 0.985386 0.594633 0.729111
O O10 0.760948 0.558312 0.101569
O O11 0.000000 0.548230 0.000000
O O12 0.250000 0.750000 0.000000
O O13 0.082134 0.680200 0.209722
O O14 0.500000 0.145084 0.000000
O O15 0.500000 0.546684 0.500000
O O16 0.617835 0.500000 0.104356
#
# Coordination Sequence:
#
# PCOD9172709 Si02
#       6
#     8   8   8   8   8   8
#     4  10  20  32  45  63  91 121 152 182 225 266
#     4   9  17  28  42  62  87 119 146 182 224 266
#     4   9  16  25  39  61  89 119 149 181 222 274
#     4  10  18  30  47  65  87 115 154 188 219 262
#     4   9  17  28  42  62  87 119 146 182 224 266
#     4   9  16  25  39  61  89 119 149 181 222 274
#
# _framework density 22.194565999999998
#
# number of rings (size 3 to 8) (size 9 to 14) (size 15 to 20)
#    0.000    2.667    1.667    1.000    7.000    0.000 
#    0.000    0.000    0.000    0.000    0.000    0.000 
#    0.000    8.000    0.000    0.000    0.000    0.000 
#
# Total GULP energy -133744.969275 kJ/mol
# GULP energy per Si atom -5572.707053 kJ/mol
# Density = 2.214405 g / cm^3
# Si number density = 22.194566 Si / 1000 Ang^3
#
#
#
# Elastic Constant Matrix: (Units=GPa)
#
#
# Indices 1 2 3 4 5 6 
#
# 1 115.6014 61.0845 62.4506 0.0000 -34.2218 0.0000
# 2 61.0845 230.1149 38.6859 0.0000 -48.0288 0.0000
# 3 62.4506 38.6859 74.9808 0.0000 -25.3148 0.0000
# 4 0.0000 0.0000 0.0000 -137.6752 0.0000 -162.0275
# 5 -34.2218 -48.0288 -25.3148 0.0000 47.9753 0.0000
# 6 0.0000 0.0000 0.0000 -162.0275 0.0000 -98.2175
#
#
#
# Elastic Compliance Matrix: (Units=1/GPa)
#
#
# Indices 1 2 3 4 5 6 
#
# 1 0.017374 -0.001669 -0.012155 0.000000 0.004309 0.000000
# 2 -0.001669 0.005743 -0.000041 0.000000 0.004537 0.000000
# 3 -0.012155 -0.000041 0.024993 0.000000 0.004477 0.000000
# 4 0.000000 0.000000 0.000000 0.007715 0.000000 -0.012727
# 5 0.004309 0.004537 0.004477 0.000000 0.030821 0.000000
# 6 0.000000 0.000000 0.000000 -0.012727 0.000000 0.010814
#
#
# Mechanical properties :
#
#
# Convention : Reuss Voigt Hill
#
# Bulk Modulus (GPa) = 49.06880 82.79322 65.93101
# Shear Modulus (GPa) = 37.88344 -20.35175 8.76584
#
# Velocity S-wave (km/s) = 4.13592 -3.03144 1.98950
# Velocity P-wave (km/s) = 6.70554 5.01314 5.92013
#
# Compressibility (1/GPa) = 0.02037955
#
# Stress axis : x y z
#
# Youngs Moduli (GPa) = 57.55592 174.13979 40.01141
#
# Poissons Ratio (x) = 0.29070 0.48634
# Poissons Ratio (y) = 0.09608 0.00163
# Poissons Ratio (z) = 0.69959 0.00710
#
# Static dielectric constant tensor:
#      x y z
#    x 1.502280 0.000000 0.359520 
#    y 0.000000 1.820310 0.000000 
#    z 0.359520 0.000000 1.639300 
# 
# From -- ./inp_files/68071.got.cif
#   From: 2010.05.17/outbox.cif.g08.bks.cpg/sg12_35_cif.got.tgz:68071.got - 2010.06.03 13:09:07.
