data_PCOD9172499
_publ_section_title
;
Structure prediction by ZEFSAII (Michael W. Deem and Ramdas Pophale) SiO2 
 PCOD9172499
Probable space group: C 2/M
;
_chemical_formula_sum "Si O2"
_cell_formula_units_Z 56
_cell_length_a 28.363163
_cell_length_b 9.457641
_cell_length_c 10.317317
_cell_angle_alpha 90.000000
_cell_angle_beta 116.194281
_cell_angle_gamma 90.000000
_cell_volume 2483.379581
_symmetry_space_group_name_H-M "C 2/M"
_symmetry_group_IT_number 12
_symmetry_cell_setting 'monoclinic'
loop_
_space_group_symop_operation_xyz
x,y,z
-x,y,-z
-x,-y,-z
x,-y,z
1/2+x,1/2+y,z
1/2-x,1/2+y,-z
1/2-x,1/2-y,-z
1/2+x,1/2-y,z
loop_
_atom_site_type_symbol
_atom_site_label
_atom_site_fract_x
_atom_site_fract_y
_atom_site_fract_z
Si Si1 0.783926 0.832823 0.146854
Si Si2 0.366834 0.336547 0.044701
Si Si3 0.797688 0.330140 0.750575
Si Si4 0.924797 0.157614 0.461749
Si Si5 0.860699 0.168330 0.630265
Si Si6 0.974338 0.756653 0.282565
Si Si7 0.457221 0.155807 0.842982
O O1 0.841806 0.810945 0.158407
O O2 0.759673 0.795544 0.257283
O O3 0.773953 0.000000 0.123623
O O4 0.750000 0.750000 0.000000
O O5 0.355330 0.500000 0.994826
O O6 0.428925 0.315281 0.133973
O O7 0.338518 0.232170 0.908652
O O8 0.802326 0.500000 0.742799
O O9 0.812353 0.250991 0.635661
O O10 0.876943 0.192003 0.499635
O O11 0.942662 0.271010 0.376668
O O12 0.977572 0.145015 0.613414
O O13 0.916250 0.000000 0.394006
O O14 0.911095 0.232807 0.767061
O O15 0.855395 0.000000 0.640859
O O16 0.008061 0.645046 0.245010
O O17 0.435723 0.000000 0.849933
O O18 0.500000 0.198811 0.000000
#
# Coordination Sequence:
#
# PCOD9172499 Si02
#       7
#     8   8   8   8   8   8   8
#     4   8  16  29  45  69  98 127 158 192 236 289
#     4  10  18  29  50  77  99 124 163 202 235 284
#     4  10  19  32  49  70 102 134 155 191 249 298
#     4   9  18  33  49  69  97 127 161 202 245 281
#     4  10  20  33  51  71  91 123 168 206 236 281
#     4  10  18  30  51  73  96 127 162 199 238 279
#     4  10  21  35  49  70 103 133 156 190 240 294
#
# _framework density 22.549914999999999
#
# number of rings (size 3 to 8) (size 9 to 14) (size 15 to 20)
#    0.000    2.429    0.000    3.429    0.000    3.714 
#    0.000    6.429    0.000    0.857    0.000    0.000 
#    0.000    0.000    0.000    0.000    0.000    2.000 
#
# Total GULP energy -155942.269636 kJ/mol
# GULP energy per Si atom -5569.366773 kJ/mol
# Density = 2.249859 g / cm^3
# Si number density = 22.549915 Si / 1000 Ang^3
#
#
#
# Elastic Constant Matrix: (Units=GPa)
#
#
# Indices 1 2 3 4 5 6 
#
# 1 156.6644 46.6959 31.7712 0.0000 -32.9013 0.0000
# 2 46.6959 60.7273 8.7357 0.0000 -11.8676 0.0000
# 3 31.7712 8.7357 40.1658 0.0000 -10.6543 0.0000
# 4 0.0000 0.0000 0.0000 62.2452 0.0000 50.3413
# 5 -32.9013 -11.8676 -10.6543 0.0000 51.6957 0.0000
# 6 0.0000 0.0000 0.0000 50.3413 0.0000 90.5514
#
#
#
# Elastic Compliance Matrix: (Units=1/GPa)
#
#
# Indices 1 2 3 4 5 6 
#
# 1 0.010228 -0.006285 -0.005691 0.000000 0.003894 0.000000
# 2 -0.006285 0.021418 0.000589 0.000000 0.001038 0.000000
# 3 -0.005691 0.000589 0.029984 0.000000 0.002693 0.000000
# 4 0.000000 0.000000 0.000000 0.029190 0.000000 -0.016228
# 5 0.003894 0.001038 0.002693 0.000000 0.022616 0.000000
# 6 0.000000 0.000000 0.000000 -0.016228 0.000000 0.020065
#
#
# Mechanical properties :
#
#
# Convention : Reuss Voigt Hill
#
# Bulk Modulus (GPa) = 25.73572 47.99593 36.86583
# Shear Modulus (GPa) = 29.54579 52.25544 40.90062
#
# Velocity S-wave (km/s) = 3.62365 4.81908 4.26347
# Velocity P-wave (km/s) = 5.38009 7.23154 6.37340
#
# Compressibility (1/GPa) = 0.03885649
#
# Stress axis : x y z
#
# Youngs Moduli (GPa) = 97.76714 46.68893 33.35063
#
# Poissons Ratio (x) = 0.29346 0.18979
# Poissons Ratio (y) = 0.61451 -0.01964
# Poissons Ratio (z) = 0.55637 -0.02749
#
# Static dielectric constant tensor:
#      x y z
#    x 1.902670 0.000000 -0.034330 
#    y 0.000000 1.772350 0.000000 
#    z -0.034330 0.000000 1.926940 
# 
# From -- ./inp_files/186819.got.cif
#   From: 2010.05.17/outbox.cif.g08.bks.cpg/sg12_94_cif.got.tgz:186819.got - 2010.06.03 13:09:07.
