data_PCOD9172525
_publ_section_title
;
Structure prediction by ZEFSAII (Michael W. Deem and Ramdas Pophale) SiO2 
 PCOD9172525
Probable space group: C 2/M
;
_chemical_formula_sum "Si O2"
_cell_formula_units_Z 64
_cell_length_a 20.663435
_cell_length_b 8.905691
_cell_length_c 20.576424
_cell_angle_alpha 90.000000
_cell_angle_beta 106.438662
_cell_angle_gamma 90.000000
_cell_volume 3631.737535
_symmetry_space_group_name_H-M "C 2/M"
_symmetry_group_IT_number 12
_symmetry_cell_setting 'monoclinic'
loop_
_space_group_symop_operation_xyz
x,y,z
-x,y,-z
-x,-y,-z
x,-y,z
1/2+x,1/2+y,z
1/2-x,1/2+y,-z
1/2-x,1/2-y,-z
1/2+x,1/2-y,z
loop_
_atom_site_type_symbol
_atom_site_label
_atom_site_fract_x
_atom_site_fract_y
_atom_site_fract_z
Si Si1 0.669497 0.321112 0.645952
Si Si2 0.420961 0.826562 0.998856
Si Si3 0.962244 0.822037 0.136808
Si Si4 0.559690 0.678960 0.722509
Si Si5 0.108226 0.319112 0.150537
Si Si6 0.580890 0.821795 0.358789
Si Si7 0.421743 0.820840 0.490362
Si Si8 0.313849 0.678806 0.710813
O O1 0.680502 0.500000 0.646468
O O2 0.623697 0.286283 0.696075
O O3 0.626828 0.267408 0.571699
O O4 0.740289 0.237249 0.670724
O O5 0.382946 0.775570 0.922801
O O6 0.403986 0.000000 0.007574
O O7 0.500000 0.822891 0.000000
O O8 0.417432 0.731896 0.063410
O O9 0.931280 0.789140 0.198558
O O10 0.034696 0.739988 0.152179
O O11 0.973984 0.000000 0.135171
O O12 0.546009 0.500000 0.712180
O O13 0.494582 0.767946 0.678928
O O14 0.108091 0.500000 0.153632
O O15 0.162741 0.250749 0.214345
O O16 0.594181 0.793190 0.438648
O O17 0.632543 0.735316 0.327379
O O18 0.586591 0.000000 0.348562
O O19 0.500000 0.779890 0.500000
O O20 0.415504 0.000000 0.476197
O O21 0.315696 0.500000 0.715618
#
# Coordination Sequence:
#
# PCOD9172525 Si02
#       8
#     8   8   8   8   8   8   8   8
#     4  11  24  41  61  84 114 153 193 231 284 343
#     4   8  16  29  46  74 111 147 184 229 278 330
#     4  10  18  29  50  82 115 146 184 233 281 327
#     4  10  21  36  56  85 117 148 188 236 280 331
#     4  10  19  33  53  78 111 150 189 229 281 338
#     4  11  22  37  62  87 113 150 188 229 283 341
#     4  10  21  39  61  88 117 146 186 235 283 332
#     4  12  25  40  58  83 117 150 190 240 286 336
#
# _framework density 17.622418
#
# number of rings (size 3 to 8) (size 9 to 14) (size 15 to 20)
#    0.000    1.750    2.500    3.375    0.000    5.500 
#    0.000    0.000    0.000    0.750    0.000    0.000 
#    0.000    0.000    0.000    0.000    0.000    0.000 
#
# Total GULP energy -178665.054424 kJ/mol
# GULP energy per Si atom -5583.282951 kJ/mol
# Density = 1.758231 g / cm^3
# Si number density = 17.622418 Si / 1000 Ang^3
#
#
#
# Elastic Constant Matrix: (Units=GPa)
#
#
# Indices 1 2 3 4 5 6 
#
# 1 44.4762 29.2092 22.4725 0.0000 6.9518 0.0000
# 2 29.2092 67.6311 45.9964 0.0000 -3.1861 0.0000
# 3 22.4725 45.9964 104.0947 0.0000 -2.0239 0.0000
# 4 0.0000 0.0000 0.0000 33.5620 0.0000 1.1887
# 5 6.9518 -3.1861 -2.0239 0.0000 21.5784 0.0000
# 6 0.0000 0.0000 0.0000 1.1887 0.0000 19.9676
#
#
#
# Elastic Compliance Matrix: (Units=1/GPa)
#
#
# Indices 1 2 3 4 5 6 
#
# 1 0.035045 -0.014941 -0.001228 0.000000 -0.013611 0.000000
# 2 -0.014941 0.027619 -0.008821 0.000000 0.008064 0.000000
# 3 -0.001228 -0.008821 0.013777 0.000000 0.000385 0.000000
# 4 0.000000 0.000000 0.000000 0.029859 0.000000 -0.001778
# 5 -0.013611 0.008064 0.000385 0.000000 0.051955 0.000000
# 6 0.000000 0.000000 0.000000 -0.001778 0.000000 0.050187
#
#
# Mechanical properties :
#
#
# Convention : Reuss Voigt Hill
#
# Bulk Modulus (GPa) = 37.79505 45.72869 41.76187
# Shear Modulus (GPa) = 18.70964 22.92318 20.81641
#
# Velocity S-wave (km/s) = 3.26190 3.61057 3.44065
# Velocity P-wave (km/s) = 5.97331 6.58689 6.28759
#
# Compressibility (1/GPa) = 0.02645849
#
# Stress axis : x y z
#
# Youngs Moduli (GPa) = 28.53508 36.20757 72.58389
#
# Poissons Ratio (x) = 0.54099 0.08914
# Poissons Ratio (y) = 0.42635 0.64029
# Poissons Ratio (z) = 0.03504 0.31940
#
# Static dielectric constant tensor:
#      x y z
#    x 1.568370 0.000000 -0.014730 
#    y 0.000000 1.590420 0.000000 
#    z -0.014730 0.000000 1.612550 
# 
# From -- ./inp_files/320098.got.cif
#   From: 2010.05.17/outbox.cif.g08.bks.cpg/sg12_161_cif.got.tgz:320098.got - 2010.06.03 13:09:07.
