data_PCOD9172011
_publ_section_title
;
Structure prediction by ZEFSAII (Michael W. Deem and Ramdas Pophale) SiO2 
 PCOD9172011
Probable space group: C 2/M
;
_chemical_formula_sum "Si O2"
_cell_formula_units_Z 52
_cell_length_a 22.804002
_cell_length_b 9.712795
_cell_length_c 26.362368
_cell_angle_alpha 90.000000
_cell_angle_beta 33.098439
_cell_angle_gamma 90.000000
_cell_volume 3188.565158
_symmetry_space_group_name_H-M "C 2/M"
_symmetry_group_IT_number 12
_symmetry_cell_setting 'monoclinic'
loop_
_space_group_symop_operation_xyz
x,y,z
-x,y,-z
-x,-y,-z
x,-y,z
1/2+x,1/2+y,z
1/2-x,1/2+y,-z
1/2-x,1/2-y,-z
1/2+x,1/2-y,z
loop_
_atom_site_type_symbol
_atom_site_label
_atom_site_fract_x
_atom_site_fract_y
_atom_site_fract_z
Si Si1 0.178974 0.659960 0.013682
Si Si2 0.564510 0.341527 0.507080
Si Si3 0.266446 0.847752 0.142901
Si Si4 0.500000 0.747607 0.000000
Si Si5 0.113074 0.658879 0.317445
Si Si6 0.481692 0.656330 0.127466
Si Si7 0.763178 0.343457 0.664390
O O1 0.170053 0.500000 0.035654
O O2 0.229972 0.662231 0.920362
O O3 0.250000 0.750000 0.000000
O O4 0.063971 0.733285 0.090173
O O5 0.500000 0.341955 0.500000
O O6 0.576139 0.500000 0.514579
O O7 0.492732 0.250121 0.596840
O O8 0.676695 0.265945 0.414337
O O9 0.389429 0.830887 0.072648
O O10 0.191923 0.731202 0.220548
O O11 0.227789 0.000000 0.186311
O O12 0.485480 0.666274 0.063302
O O13 0.089560 0.500000 0.321977
O O14 0.176718 0.659736 0.324874
O O15 0.512445 0.500000 0.119413
O O16 0.361500 0.682995 0.234118
O O17 0.775312 0.500000 0.635784
#
# Coordination Sequence:
#
# PCOD9172011 Si02
#       7
#     8   8   8   4   8   8   8
#     4  10  22  38  53  71  95 128 168 209 250 289
#     4   9  17  28  42  63  92 131 166 199 238 281
#     4  10  20  32  48  71  99 129 162 202 246 290
#     4  10  18  30  46  72 100 132 162 196 240 292
#     4  10  18  29  45  68  97 131 165 198 238 289
#     4  10  19  31  50  73 100 131 164 201 242 290
#     4   9  17  29  43  67  98 131 164 197 236 285
#
# _framework density 16.308275999999999
#
# number of rings (size 3 to 8) (size 9 to 14) (size 15 to 20)
#    0.000    2.308    1.538    1.846    0.000    6.769 
#    0.000    0.000    0.000    0.000    0.000    1.077 
#    0.000    0.000    0.000    0.000    0.000    0.000 
#
# Total GULP energy -144911.999514 kJ/mol
# GULP energy per Si atom -5573.538443 kJ/mol
# Density = 1.627116 g / cm^3
# Si number density = 16.308276 Si / 1000 Ang^3
#
#
#
# Elastic Constant Matrix: (Units=GPa)
#
#
# Indices 1 2 3 4 5 6 
#
# 1 49.6624 39.4510 17.1501 0.0000 -8.7424 0.0000
# 2 39.4510 171.7627 87.2747 0.0001 -6.9469 0.0000
# 3 17.1501 87.2747 107.6370 0.0000 -5.2321 0.0000
# 4 0.0000 0.0001 0.0000 28.9144 0.0000 3.5416
# 5 -8.7424 -6.9469 -5.2321 0.0000 9.3615 0.0000
# 6 0.0000 0.0000 0.0000 3.5416 0.0000 8.9584
#
#
#
# Elastic Compliance Matrix: (Units=1/GPa)
#
#
# Indices 1 2 3 4 5 6 
#
# 1 0.028826 -0.006674 0.001939 0.000000 0.023050 0.000000
# 2 -0.006674 0.011526 -0.008397 0.000000 -0.002373 0.000000
# 3 0.001939 -0.008397 0.016010 0.000000 0.004527 0.000000
# 4 0.000000 0.000000 0.000000 0.036345 0.000000 -0.014369
# 5 0.023050 -0.002373 0.004527 0.000000 0.129116 0.000000
# 6 0.000000 0.000000 0.000000 -0.014369 0.000000 0.117308
#
#
# Mechanical properties :
#
#
# Convention : Reuss Voigt Hill
#
# Bulk Modulus (GPa) = 33.22563 68.53484 50.88024
# Shear Modulus (GPa) = 13.31819 21.79261 17.55540
#
# Velocity S-wave (km/s) = 2.86081 3.65950 3.28452
# Velocity P-wave (km/s) = 5.59732 7.74414 6.75654
#
# Compressibility (1/GPa) = 0.03009725
#
# Stress axis : x y z
#
# Youngs Moduli (GPa) = 34.69147 86.76369 62.45968
#
# Poissons Ratio (x) = 0.57902 -0.12109
# Poissons Ratio (y) = 0.23151 0.52449
# Poissons Ratio (z) = -0.06726 0.72857
#
# Static dielectric constant tensor:
#      x y z
#    x 1.513550 0.000000 0.003070 
#    y 0.000000 1.564140 0.000000 
#    z 0.003070 0.000000 1.538610 
# 
# From -- ./inp_files/236744.got.cif
#   From: 2010.05.17/outbox.cif.g08.bks.cpg/sg12_119_cif.got.tgz:236744.got - 2010.06.03 13:09:07.
