data_PCOD9172543
_publ_section_title
;
Structure prediction by ZEFSAII (Michael W. Deem and Ramdas Pophale) SiO2 
 PCOD9172543
Probable space group: C 2/M
;
_chemical_formula_sum "Si O2"
_cell_formula_units_Z 64
_cell_length_a 32.314169
_cell_length_b 8.643536
_cell_length_c 15.129794
_cell_angle_alpha 90.000000
_cell_angle_beta 61.895828
_cell_angle_gamma 90.000000
_cell_volume 3727.619839
_symmetry_space_group_name_H-M "C 2/M"
_symmetry_group_IT_number 12
_symmetry_cell_setting 'monoclinic'
loop_
_space_group_symop_operation_xyz
x,y,z
-x,y,-z
-x,-y,-z
x,-y,z
1/2+x,1/2+y,z
1/2-x,1/2+y,-z
1/2-x,1/2-y,-z
1/2+x,1/2-y,z
loop_
_atom_site_type_symbol
_atom_site_label
_atom_site_fract_x
_atom_site_fract_y
_atom_site_fract_z
Si Si1 0.614445 0.815272 0.854025
Si Si2 0.924763 0.312449 0.726328
Si Si3 0.574037 0.812732 0.075995
Si Si4 0.467084 0.813676 0.370420
Si Si5 0.800511 0.185104 0.552707
Si Si6 0.969769 0.183727 0.175094
Si Si7 0.383187 0.186662 0.587444
Si Si8 0.302994 0.314883 0.348344
O O1 0.566863 0.762607 0.853565
O O2 0.657900 0.743052 0.758408
O O3 0.618215 0.000000 0.845670
O O4 0.609048 0.769051 0.962167
O O5 0.922626 0.500000 0.727151
O O6 0.912196 0.262937 0.838580
O O7 0.893048 0.257519 0.677253
O O8 0.979611 0.272489 0.656538
O O9 0.522572 0.744665 0.108429
O O10 0.569721 0.000000 0.080724
O O11 0.456454 0.731070 0.288643
O O12 0.428961 0.775256 0.482508
O O13 0.466148 0.000000 0.357083
O O14 0.837918 0.245879 0.585071
O O15 0.748408 0.249265 0.621283
O O16 0.814262 0.233789 0.438444
O O17 0.799256 0.000000 0.556180
O O18 0.968071 0.000000 0.166038
O O19 0.379165 0.000000 0.592426
O O20 0.301315 0.500000 0.348352
#
# Coordination Sequence:
#
# PCOD9172543 Si02
#       8
#     8   8   8   8   8   8   8   8
#     4  11  21  33  52  75  99 130 166 203 247 297
#     4   8  15  30  50  72  98 130 170 209 242 283
#     4   9  19  35  52  70  97 134 171 206 245 289
#     4   9  17  30  48  71 101 135 169 204 244 292
#     4  10  21  36  53  75 104 132 158 194 243 297
#     4  11  21  31  46  71 103 136 169 206 245 287
#     4  10  18  29  51  77  99 129 168 206 244 290
#     4  10  21  37  56  77 101 128 159 198 244 293
#
# _framework density 17.169132999999999
#
# number of rings (size 3 to 8) (size 9 to 14) (size 15 to 20)
#    0.000    2.250    0.000    4.500    0.000    8.000 
#    0.000    2.500    0.000    4.500    0.000    0.000 
#    0.000    0.000    0.000    0.000    0.000    0.000 
#
# Total GULP energy -178589.971953 kJ/mol
# GULP energy per Si atom -5580.936624 kJ/mol
# Density = 1.713006 g / cm^3
# Si number density = 17.169133 Si / 1000 Ang^3
#
#
#
# Elastic Constant Matrix: (Units=GPa)
#
#
# Indices 1 2 3 4 5 6 
#
# 1 118.9860 21.9424 76.1766 0.0000 22.4112 0.0000
# 2 21.9424 19.9511 26.5057 0.0000 2.8992 0.0000
# 3 76.1766 26.5057 132.9255 0.0000 5.0109 0.0000
# 4 0.0000 0.0000 0.0000 17.1861 0.0000 -6.7092
# 5 22.4112 2.8992 5.0109 0.0000 15.8341 0.0000
# 6 0.0000 0.0000 0.0000 -6.7092 0.0000 22.5038
#
#
#
# Elastic Compliance Matrix: (Units=1/GPa)
#
#
# Indices 1 2 3 4 5 6 
#
# 1 0.020162 -0.006117 -0.009413 0.000000 -0.024437 0.000000
# 2 -0.006117 0.071132 -0.010641 0.000000 -0.000999 0.000000
# 3 -0.009413 -0.010641 0.014638 0.000000 0.010639 0.000000
# 4 0.000000 0.000000 0.000000 0.065851 0.000000 0.019632
# 5 -0.024437 -0.000999 0.010639 0.000000 0.094559 0.000000
# 6 0.000000 0.000000 0.000000 0.019632 0.000000 0.050290
#
#
# Mechanical properties :
#
#
# Convention : Reuss Voigt Hill
#
# Bulk Modulus (GPa) = 18.66031 57.90131 38.28081
# Shear Modulus (GPa) = 12.92536 20.92067 16.92301
#
# Velocity S-wave (km/s) = 2.74674 3.49450 3.14294
# Velocity P-wave (km/s) = 4.57729 7.07667 5.95948
#
# Compressibility (1/GPa) = 0.05358969
#
# Stress axis : x y z
#
# Youngs Moduli (GPa) = 49.59888 14.05843 68.31425
#
# Poissons Ratio (x) = 0.08600 0.64306
# Poissons Ratio (y) = 0.30340 0.72690
# Poissons Ratio (z) = 0.46689 0.14959
#
# Static dielectric constant tensor:
#      x y z
#    x 1.556550 0.000000 0.023230 
#    y 0.000000 1.580600 0.000000 
#    z 0.023230 0.000000 1.596450 
# 
# From -- ./inp_files/248957.got.cif
#   From: 2010.05.17/outbox.cif.g08.bks.cpg/sg12_125_cif.got.tgz:248957.got - 2010.06.03 13:09:07.
