data_PCOD9172530
_publ_section_title
;
Structure prediction by ZEFSAII (Michael W. Deem and Ramdas Pophale) SiO2 
 PCOD9172530
Probable space group: C 2/M
;
_chemical_formula_sum "Si O2"
_cell_formula_units_Z 60
_cell_length_a 23.445800
_cell_length_b 26.553383
_cell_length_c 14.484711
_cell_angle_alpha 90.000000
_cell_angle_beta 160.698505
_cell_angle_gamma 90.000000
_cell_volume 2980.694621
_symmetry_space_group_name_H-M "C 2/M"
_symmetry_group_IT_number 12
_symmetry_cell_setting 'monoclinic'
loop_
_space_group_symop_operation_xyz
x,y,z
-x,y,-z
-x,-y,-z
x,-y,z
1/2+x,1/2+y,z
1/2-x,1/2+y,-z
1/2-x,1/2-y,-z
1/2+x,1/2-y,z
loop_
_atom_site_type_symbol
_atom_site_label
_atom_site_fract_x
_atom_site_fract_y
_atom_site_fract_z
Si Si1 0.333578 0.442966 0.839669
Si Si2 0.316584 0.893745 0.217651
Si Si3 0.830363 0.703405 0.677577
Si Si4 0.315295 0.059673 0.016418
Si Si5 0.951701 0.848690 0.624549
Si Si6 0.000000 0.134062 0.500000
Si Si7 0.129406 0.396906 0.375416
Si Si8 0.181214 0.944468 0.492442
O O1 0.304899 0.500000 0.761155
O O2 0.206355 0.428518 0.728057
O O3 0.291516 0.404877 0.692816
O O4 0.518136 0.442161 0.172382
O O5 0.500000 0.865848 0.500000
O O6 0.324914 0.929276 0.140854
O O7 0.148473 0.857906 0.958725
O O8 0.750000 0.750000 0.500000
O O9 0.673497 0.683974 0.503202
O O10 0.879671 0.659345 0.679222
O O11 0.000000 0.713565 0.000000
O O12 0.473299 0.081388 0.197175
O O13 0.294203 0.000000 0.968257
O O14 0.158352 0.096183 0.752227
O O15 0.967588 0.833926 0.542494
O O16 0.861917 0.903783 0.496211
O O17 0.159933 0.429707 0.329752
O O18 0.195486 0.000000 0.552703
#
# Coordination Sequence:
#
# PCOD9172530 Si02
#       8
#     8   8   8   8   8   4   8   8
#     4  10  18  29  50  83 127 173 214 253 296 353
#     4  10  19  32  52  87 131 176 213 255 289 346
#     4  11  26  49  74  97 119 153 201 268 337 397
#     4  11  21  32  52  85 126 176 218 251 293 354
#     4   9  21  39  63  90 124 165 208 254 311 366
#     4  10  21  38  58  82 124 168 212 248 287 364
#     4  11  21  34  57  86 118 155 202 254 319 372
#     4   9  18  31  49  83 128 170 212 258 301 350
#
# _framework density 20.129538
#
# number of rings (size 3 to 8) (size 9 to 14) (size 15 to 20)
#    0.000    1.867    1.333    3.000    0.000    8.533 
#    0.000    0.000    0.000   15.200    1.733    0.000 
#    0.000    0.000    0.000    0.000    0.000    0.000 
#
# Total GULP energy -167298.101771 kJ/mol
# GULP energy per Si atom -5576.603392 kJ/mol
# Density = 2.008372 g / cm^3
# Si number density = 20.129538 Si / 1000 Ang^3
#
#
#
# Elastic Constant Matrix: (Units=GPa)
#
#
# Indices 1 2 3 4 5 6 
#
# 1 110.0761 25.0141 26.6178 0.0000 11.7663 0.0000
# 2 25.0141 75.5214 22.2198 0.0000 -4.5098 0.0000
# 3 26.6178 22.2198 28.8351 0.0000 14.6223 0.0000
# 4 0.0000 0.0000 0.0000 12.2540 0.0000 0.2790
# 5 11.7663 -4.5098 14.6223 0.0000 40.6420 0.0000
# 6 0.0000 0.0000 0.0000 0.2790 0.0000 8.3763
#
#
#
# Elastic Compliance Matrix: (Units=1/GPa)
#
#
# Indices 1 2 3 4 5 6 
#
# 1 0.011744 -0.000849 -0.010293 0.000000 0.000209 0.000000
# 2 -0.000849 0.019705 -0.019123 0.000000 0.009312 0.000000
# 3 -0.010293 -0.019123 0.071533 0.000000 -0.024878 0.000000
# 4 0.000000 0.000000 0.000000 0.081668 0.000000 -0.002720
# 5 0.000209 0.009312 -0.024878 0.000000 0.034529 0.000000
# 6 0.000000 0.000000 0.000000 -0.002720 0.000000 0.119475
#
#
# Mechanical properties :
#
#
# Convention : Reuss Voigt Hill
#
# Bulk Modulus (GPa) = 23.55565 40.23735 31.89650
# Shear Modulus (GPa) = 12.09676 21.62651 16.86164
#
# Velocity S-wave (km/s) = 2.45408 3.28131 2.89737
# Velocity P-wave (km/s) = 4.44493 5.86418 5.20317
#
# Compressibility (1/GPa) = 0.04245266
#
# Stress axis : x y z
#
# Youngs Moduli (GPa) = 85.14869 50.74881 13.97960
#
# Poissons Ratio (x) = 0.04309 0.14389
# Poissons Ratio (y) = 0.07230 0.26733
# Poissons Ratio (z) = 0.87641 0.97046
#
# Static dielectric constant tensor:
#      x y z
#    x 1.733040 0.000000 0.017770 
#    y 0.000000 1.671710 0.000000 
#    z 0.017770 0.000000 1.864460 
# 
# From -- ./inp_files/242362.got.cif
#   From: 2010.05.17/outbox.cif.g08.bks.cpg/sg12_122_cif.got.tgz:242362.got - 2010.06.03 13:09:07.
