data_PCOD9172506
_publ_section_title
;
Structure prediction by ZEFSAII (Michael W. Deem and Ramdas Pophale) SiO2 
 PCOD9172506
Probable space group: C 2/M
;
_chemical_formula_sum "Si O2"
_cell_formula_units_Z 64
_cell_length_a 20.355340
_cell_length_b 7.672902
_cell_length_c 20.624879
_cell_angle_alpha 90.000000
_cell_angle_beta 52.278320
_cell_angle_gamma 90.000000
_cell_volume 2548.012521
_symmetry_space_group_name_H-M "C 2/M"
_symmetry_group_IT_number 12
_symmetry_cell_setting 'monoclinic'
loop_
_space_group_symop_operation_xyz
x,y,z
-x,y,-z
-x,-y,-z
x,-y,z
1/2+x,1/2+y,z
1/2-x,1/2+y,-z
1/2-x,1/2-y,-z
1/2+x,1/2-y,z
loop_
_atom_site_type_symbol
_atom_site_label
_atom_site_fract_x
_atom_site_fract_y
_atom_site_fract_z
Si Si1 0.668160 0.702292 0.361357
Si Si2 0.046850 0.795662 0.243405
Si Si3 0.657208 0.215362 0.701890
Si Si4 0.346012 0.205380 0.439160
Si Si5 0.497420 0.707723 0.416841
Si Si6 0.824968 0.293547 0.005801
Si Si7 0.280915 0.793169 0.813806
Si Si8 0.995789 0.694192 0.138168
O O1 0.661750 0.500000 0.384412
O O2 0.748019 0.780060 0.348921
O O3 0.573102 0.776456 0.416045
O O4 0.701595 0.708249 0.266396
O O5 0.021638 0.730618 0.329866
O O6 0.145712 0.777649 0.184999
O O7 0.015322 0.684375 0.203108
O O8 0.026667 0.000000 0.248321
O O9 0.627715 0.274155 0.648049
O O10 0.596954 0.273511 0.797359
O O11 0.658726 0.000000 0.702758
O O12 0.250000 0.250000 0.500000
O O13 0.398742 0.266945 0.469279
O O14 0.355623 0.000000 0.432041
O O15 0.508711 0.500000 0.413769
O O16 0.834891 0.500000 0.992711
O O17 0.799066 0.248330 0.094894
O O18 0.750000 0.250000 0.000000
O O19 0.918754 0.219377 0.938003
O O20 0.288404 0.000000 0.800933
O O21 0.986864 0.500000 0.114821
#
# Coordination Sequence:
#
# PCOD9172506 Si02
#       8
#     8   8   8   8   8   8   8   8
#     4   9  19  38  62  84 110 147 194 240 283 335
#     4  10  18  29  50  78 108 141 181 231 282 330
#     4   9  19  38  62  86 111 146 190 235 282 339
#     4  11  22  37  61  90 121 152 182 226 278 334
#     4   9  18  33  55  85 113 143 184 230 279 333
#     4  11  21  31  48  77 112 148 190 244 299 344
#     4  11  21  33  50  75 110 148 190 237 287 343
#     4  10  19  32  52  79 107 140 187 238 288 337
#
# _framework density 25.117614
#
# number of rings (size 3 to 8) (size 9 to 14) (size 15 to 20)
#    0.000    2.000    2.500    3.000    0.000    2.500 
#    0.000    3.125    0.000    7.500    0.000    0.000 
#    0.000    0.000    0.000    0.000    0.000    0.000 
#
# Total GULP energy -178459.881287 kJ/mol
# GULP energy per Si atom -5576.871290 kJ/mol
# Density = 2.506045 g / cm^3
# Si number density = 25.117614 Si / 1000 Ang^3
#
#
#
# Elastic Constant Matrix: (Units=GPa)
#
#
# Indices 1 2 3 4 5 6 
#
# 1 146.5310 -4.0821 41.3312 -0.0004 -30.7656 -0.0001
# 2 -4.0821 84.3047 2.2931 -0.0009 -8.9794 -0.0005
# 3 41.3312 2.2931 123.3366 0.0002 -37.5356 -0.0002
# 4 -0.0004 -0.0009 0.0002 16.6464 0.0003 -1.4123
# 5 -30.7656 -8.9794 -37.5356 0.0003 45.2803 -0.0003
# 6 -0.0001 -0.0005 -0.0002 -1.4123 -0.0003 16.3612
#
#
#
# Elastic Compliance Matrix: (Units=1/GPa)
#
#
# Indices 1 2 3 4 5 6 
#
# 1 0.008206 0.000928 -0.001357 0.000000 0.004635 0.000000
# 2 0.000928 0.012265 0.000526 0.000001 0.003499 0.000001
# 3 -0.001357 0.000526 0.011106 0.000000 0.008389 0.000000
# 4 0.000000 0.000001 0.000000 0.060516 0.000000 0.005224
# 5 0.004635 0.003499 0.008389 0.000000 0.032882 0.000001
# 6 0.000000 0.000001 0.000000 0.005224 0.000001 0.061571
#
#
# Mechanical properties :
#
#
# Convention : Reuss Voigt Hill
#
# Bulk Modulus (GPa) = 31.47519 48.13963 39.80741
# Shear Modulus (GPa) = 25.38815 36.63291 31.01053
#
# Velocity S-wave (km/s) = 3.18271 3.82312 3.51752
# Velocity P-wave (km/s) = 5.10534 6.22058 5.69035
#
# Compressibility (1/GPa) = 0.03177106
#
# Stress axis : x y z
#
# Youngs Moduli (GPa) = 121.85934 81.53281 90.04379
#
# Poissons Ratio (x) = -0.07566 0.12215
# Poissons Ratio (y) = -0.11308 -0.04734
# Poissons Ratio (z) = 0.16531 -0.04286
#
# Static dielectric constant tensor:
#      x y z
#    x 2.071180 0.000000 -0.111150 
#    y 0.000000 1.849400 0.000000 
#    z -0.111150 0.000000 2.142550 
# 
# From -- ./inp_files/346089.got.cif
#   From: 2010.05.17/outbox.cif.g08.bks.cpg/sg12_174_cif.got.tgz:346089.got - 2010.06.03 13:09:07.
