data_PCOD9172545
_publ_section_title
;
Structure prediction by ZEFSAII (Michael W. Deem and Ramdas Pophale) SiO2 
 PCOD9172545
Probable space group: C 2/M
;
_chemical_formula_sum "Si O2"
_cell_formula_units_Z 64
_cell_length_a 21.421455
_cell_length_b 17.299891
_cell_length_c 27.355600
_cell_angle_alpha 90.000000
_cell_angle_beta 19.710131
_cell_angle_gamma 90.000000
_cell_volume 3419.051420
_symmetry_space_group_name_H-M "C 2/M"
_symmetry_group_IT_number 12
_symmetry_cell_setting 'monoclinic'
loop_
_space_group_symop_operation_xyz
x,y,z
-x,y,-z
-x,-y,-z
x,-y,z
1/2+x,1/2+y,z
1/2-x,1/2+y,-z
1/2-x,1/2-y,-z
1/2+x,1/2-y,z
loop_
_atom_site_type_symbol
_atom_site_label
_atom_site_fract_x
_atom_site_fract_y
_atom_site_fract_z
Si Si1 0.911030 0.913270 0.210563
Si Si2 0.222726 0.092339 0.911671
Si Si3 0.586108 0.908468 0.329590
Si Si4 0.181454 0.709089 0.345319
Si Si5 0.593954 0.907033 0.692205
Si Si6 0.988045 0.697186 0.162423
Si Si7 0.595558 0.663227 0.157067
Si Si8 0.804805 0.091892 0.439586
O O1 0.739094 0.857211 0.342317
O O2 0.048102 0.907049 0.155106
O O3 0.849419 0.000000 0.248981
O O4 0.028994 0.882745 0.077216
O O5 0.268955 0.105146 0.821557
O O6 0.395287 0.120672 0.816716
O O7 0.219748 0.000000 0.920399
O O8 0.633407 0.842899 0.333924
O O9 0.381674 0.900930 0.456095
O O10 0.603228 0.000000 0.332283
O O11 0.350614 0.768593 0.223169
O O12 0.000000 0.749294 0.500000
O O13 0.609646 0.868817 0.733328
O O14 0.743746 0.887508 0.539913
O O15 0.589504 0.000000 0.698472
O O16 0.032394 0.763900 0.170365
O O17 0.186468 0.671349 0.995137
O O18 0.465771 0.645565 0.298965
O O19 0.854193 0.000000 0.401934
#
# Coordination Sequence:
#
# PCOD9172545 Si02
#       8
#     8   8   8   8   8   8   8   8
#     4  10  18  29  51  78 106 140 175 216 263 309
#     4   8  15  28  49  77 104 133 171 214 259 311
#     4   9  17  31  50  75 110 148 179 206 246 307
#     4  11  23  35  47  66 104 149 184 214 248 302
#     4   9  17  33  56  81 105 132 172 225 279 324
#     4  10  21  34  51  72 105 145 183 217 260 320
#     4  10  19  31  48  77 110 141 174 220 265 310
#     4   9  18  32  56  88 113 133 168 216 270 326
#
# _framework density 18.718641999999999
#
# number of rings (size 3 to 8) (size 9 to 14) (size 15 to 20)
#    0.000    2.500    1.250    3.750    0.000    3.500 
#    0.000    1.875    2.750    0.375    0.000    0.000 
#    0.000    2.000    0.000    0.000    0.000    0.000 
#
# Total GULP energy -178255.127072 kJ/mol
# GULP energy per Si atom -5570.472721 kJ/mol
# Density = 1.867604 g / cm^3
# Si number density = 18.718642 Si / 1000 Ang^3
#
#
#
# Elastic Constant Matrix: (Units=GPa)
#
#
# Indices 1 2 3 4 5 6 
#
# 1 47.7567 20.3094 26.1463 -0.0128 2.0444 0.0097
# 2 20.3094 34.2339 27.5879 -0.0471 2.3040 -0.0283
# 3 26.1463 27.5879 104.8719 -0.0272 6.3685 -0.0754
# 4 -0.0128 -0.0471 -0.0272 27.1650 0.0503 3.1988
# 5 2.0444 2.3040 6.3685 0.0503 20.9965 -0.0368
# 6 0.0097 -0.0283 -0.0754 3.1988 -0.0368 4.4602
#
#
#
# Elastic Compliance Matrix: (Units=1/GPa)
#
#
# Indices 1 2 3 4 5 6 
#
# 1 0.028944 -0.014406 -0.003414 0.000012 -0.000202 -0.000222
# 2 -0.014406 0.044266 -0.007990 0.000048 -0.001031 0.000134
# 3 -0.003414 -0.007990 0.012648 -0.000017 -0.002627 0.000161
# 4 0.000012 0.000048 -0.000017 0.040208 -0.000148 -0.028838
# 5 -0.000202 -0.001031 -0.002627 -0.000148 0.048558 0.000456
# 6 -0.000222 0.000134 0.000161 -0.028838 0.000456 0.244895
#
#
# Mechanical properties :
#
#
# Convention : Reuss Voigt Hill
#
# Bulk Modulus (GPa) = 29.20852 37.21664 33.21258
# Shear Modulus (GPa) = 10.36156 18.04560 14.20358
#
# Velocity S-wave (km/s) = 2.35530 3.10827 2.75761
# Velocity P-wave (km/s) = 4.79942 5.72775 5.28401
#
# Compressibility (1/GPa) = 0.03423659
#
# Stress axis : x y z
#
# Youngs Moduli (GPa) = 34.54947 22.59065 79.06200
#
# Poissons Ratio (x) = 0.32545 0.26995
# Poissons Ratio (y) = 0.49773 0.63173
# Poissons Ratio (z) = 0.11796 0.18051
#
# Static dielectric constant tensor:
#      x y z
#    x 1.682840 -0.000020 0.012720 
#    y -0.000020 1.671180 0.000060 
#    z 0.012720 0.000060 1.699860 
# 
# From -- ./inp_files/366799.got.cif
#   From: 2010.05.17/outbox.cif.g08.bks.cpg/sg12_184_cif.got.tgz:366799.got - 2010.06.03 13:09:07.
