data_PCOD9172884
_publ_section_title
;
Structure prediction by ZEFSAII (Michael W. Deem and Ramdas Pophale) SiO2 
 PCOD9172884
Probable space group: C 2/M
;
_chemical_formula_sum "Si O2"
_cell_formula_units_Z 48
_cell_length_a 9.202552
_cell_length_b 25.102712
_cell_length_c 13.151408
_cell_angle_alpha 90.000000
_cell_angle_beta 73.151200
_cell_angle_gamma 90.000000
_cell_volume 2907.677451
_symmetry_space_group_name_H-M "C 2/M"
_symmetry_group_IT_number 12
_symmetry_cell_setting 'monoclinic'
loop_
_space_group_symop_operation_xyz
x,y,z
-x,y,-z
-x,-y,-z
x,-y,z
1/2+x,1/2+y,z
1/2-x,1/2+y,-z
1/2-x,1/2-y,-z
1/2+x,1/2-y,z
loop_
_atom_site_type_symbol
_atom_site_label
_atom_site_fract_x
_atom_site_fract_y
_atom_site_fract_z
Si Si1 0.941057 0.285159 0.725920
Si Si2 0.689387 0.855709 0.571676
Si Si3 0.216104 0.866037 0.680369
Si Si4 0.617375 0.339924 0.272251
Si Si5 0.443062 0.141058 0.125715
Si Si6 0.531104 0.937057 0.283781
O O1 0.786930 0.315243 0.724854
O O2 0.919701 0.222676 0.727156
O O3 0.072446 0.307596 0.623148
O O4 0.991815 0.308184 0.824858
O O5 0.741982 0.856845 0.446033
O O6 0.825910 0.851516 0.624460
O O7 0.593395 0.908687 0.618275
O O8 0.308248 0.916007 0.706342
O O9 0.036256 0.869929 0.725150
O O10 0.761308 0.354854 0.173593
O O11 0.499646 0.090671 0.181091
O O12 0.500000 0.139450 0.000000
O O13 0.519305 0.000000 0.283913
#
# Coordination Sequence:
#
# PCOD9172884 Si02
#       6
#     8   8   8   8   8   8
#     4   9  18  31  47  72 104 136 164 190 232 290
#     4   9  19  30  47  74 104 137 164 188 230 292
#     4  10  18  30  48  75 103 129 165 200 233 280
#     4  10  19  31  48  73 104 131 161 202 236 277
#     4   9  20  37  53  71  95 127 167 205 249 300
#     4   9  19  36  54  71  94 127 165 203 247 298
#
# _framework density 16.508019999999998
#
# number of rings (size 3 to 8) (size 9 to 14) (size 15 to 20)
#    0.000    3.333    0.000    4.500    0.000    6.333 
#    0.000    6.667    0.000    6.000    0.000    0.000 
#    0.000    0.000    0.000    0.000    0.000    0.000 
#
# Total GULP energy -133770.440260 kJ/mol
# GULP energy per Si atom -5573.768344 kJ/mol
# Density = 1.647045 g / cm^3
# Si number density = 16.508020 Si / 1000 Ang^3
#
#
#
# Elastic Constant Matrix: (Units=GPa)
#
#
# Indices 1 2 3 4 5 6 
#
# 1 156.8496 54.7975 56.3681 0.0000 2.3172 0.0000
# 2 54.7975 136.0544 34.5558 0.0000 4.2717 0.0000
# 3 56.3681 34.5558 118.4610 0.0000 -10.1403 0.0000
# 4 0.0000 0.0000 0.0000 -0.0330 0.0000 1.7773
# 5 2.3172 4.2717 -10.1403 0.0000 11.6985 0.0000
# 6 0.0000 0.0000 0.0000 1.7773 0.0000 4.3450
#
#
#
# Elastic Compliance Matrix: (Units=1/GPa)
#
#
# Indices 1 2 3 4 5 6 
#
# 1 0.008620 -0.002390 -0.003755 0.000000 -0.004089 0.000000
# 2 -0.002390 0.008917 -0.001839 0.000000 -0.004376 0.000000
# 3 -0.003755 -0.001839 0.011758 0.000000 0.011607 0.000000
# 4 0.000000 0.000000 0.000000 -1.315761 0.000000 0.538223
# 5 -0.004089 -0.004376 0.011607 0.000000 0.097950 0.000000
# 6 0.000000 0.000000 0.000000 0.538223 0.000000 0.009987
#
#
# Mechanical properties :
#
#
# Convention : Reuss Voigt Hill
#
# Bulk Modulus (GPa) = 75.02452 78.08975 76.55713
# Shear Modulus (GPa) = -4.31734 20.91167 8.29716
#
# Velocity S-wave (km/s) = -1.61894 3.56302 2.24434
# Velocity P-wave (km/s) = 6.48470 8.02082 7.29332
#
# Compressibility (1/GPa) = 0.01332898
#
# Stress axis : x y z
#
# Youngs Moduli (GPa) = 116.00596 112.14650 85.04749
#
# Poissons Ratio (x) = 0.26801 0.31933
# Poissons Ratio (y) = 0.27724 0.15636
# Poissons Ratio (z) = 0.43557 0.20619
#
# Static dielectric constant tensor:
#      x y z
#    x 1.584510 0.000000 0.004480 
#    y 0.000000 1.534010 0.000000 
#    z 0.004480 0.000000 1.539980 
# 
# From -- ./inp_files/123016.got.cif
#   From: 2010.05.17/outbox.cif.g08.bks.cpg/sg12_62_cif.got.tgz:123016.got - 2010.06.03 13:09:07.
