data_PCOD9172418
_publ_section_title
;
Structure prediction by ZEFSAII (Michael W. Deem and Ramdas Pophale) SiO2 
 PCOD9172418
Probable space group: C 2/M
;
_chemical_formula_sum "Si O2"
_cell_formula_units_Z 56
_cell_length_a 28.518039
_cell_length_b 13.931368
_cell_length_c 12.915420
_cell_angle_alpha 90.000000
_cell_angle_beta 38.330281
_cell_angle_gamma 90.000000
_cell_volume 3182.360010
_symmetry_space_group_name_H-M "C 2/M"
_symmetry_group_IT_number 12
_symmetry_cell_setting 'monoclinic'
loop_
_space_group_symop_operation_xyz
x,y,z
-x,y,-z
-x,-y,-z
x,-y,z
1/2+x,1/2+y,z
1/2-x,1/2+y,-z
1/2-x,1/2-y,-z
1/2+x,1/2-y,z
loop_
_atom_site_type_symbol
_atom_site_label
_atom_site_fract_x
_atom_site_fract_y
_atom_site_fract_z
Si Si1 0.157754 0.237624 0.034629
Si Si2 0.009231 0.886271 0.300044
Si Si3 0.235593 0.390205 0.032040
Si Si4 0.056621 0.884453 0.813981
Si Si5 0.649614 0.609528 0.357240
Si Si6 0.263295 0.777822 0.302352
Si Si7 0.269056 0.386140 0.444663
O O1 0.081746 0.179804 0.187011
O O2 0.228731 0.166274 0.933773
O O3 0.171037 0.326653 0.089303
O O4 0.168506 0.270790 0.897770
O O5 0.974044 0.864621 0.247443
O O6 0.938956 0.869145 0.498887
O O7 0.029840 0.000000 0.269249
O O8 0.214858 0.500000 0.088696
O O9 0.304026 0.389762 0.829297
O O10 0.143347 0.857443 0.683695
O O11 0.056366 0.000000 0.822766
O O12 0.000000 0.846273 0.000000
O O13 0.653817 0.500000 0.392833
O O14 0.693182 0.679386 0.359194
O O15 0.247109 0.675080 0.382226
O O16 0.276220 0.849082 0.376638
O O17 0.263836 0.500000 0.440358
#
# Coordination Sequence:
#
# PCOD9172418 Si02
#       7
#     8   8   8   8   8   8   8
#     4  10  20  32  49  78 102 129 168 206 248 297
#     4  10  18  29  49  76 105 130 156 203 258 301
#     4   9  19  35  53  73 101 133 166 204 249 299
#     4   9  16  26  42  68 101 130 154 191 247 298
#     4   9  17  32  53  76 103 133 163 202 255 304
#     4  10  19  31  49  72 102 138 169 202 240 293
#     4  10  19  31  48  72 101 135 172 202 241 295
#
# _framework density 17.597003000000001
#
# number of rings (size 3 to 8) (size 9 to 14) (size 15 to 20)
#    0.000    2.429    1.429    1.714    0.000    3.429 
#    0.000    2.143    0.000    0.857    0.000   10.000 
#    0.000    0.000    0.000    0.000    0.000    0.000 
#
# Total GULP energy -156100.242043 kJ/mol
# GULP energy per Si atom -5575.008644 kJ/mol
# Density = 1.755695 g / cm^3
# Si number density = 17.597003 Si / 1000 Ang^3
#
#
#
# Elastic Constant Matrix: (Units=GPa)
#
#
# Indices 1 2 3 4 5 6 
#
# 1 48.9678 28.8763 15.4914 0.0000 -5.9786 0.0000
# 2 28.8763 96.7474 17.2435 0.0000 -15.4377 0.0000
# 3 15.4914 17.2435 58.8607 0.0000 -13.9101 0.0000
# 4 0.0000 0.0000 0.0000 22.5339 0.0000 -8.8830
# 5 -5.9786 -15.4377 -13.9101 0.0000 18.7054 0.0000
# 6 0.0000 0.0000 0.0000 -8.8830 0.0000 20.0343
#
#
#
# Elastic Compliance Matrix: (Units=1/GPa)
#
#
# Indices 1 2 3 4 5 6 
#
# 1 0.026044 -0.007074 -0.005089 0.000000 -0.001298 0.000000
# 2 -0.007074 0.013923 -0.000044 0.000000 0.009197 0.000000
# 3 -0.005089 -0.000044 0.021775 0.000000 0.014530 0.000000
# 4 0.000000 0.000000 0.000000 0.053777 0.000000 0.023844
# 5 -0.001298 0.009197 0.014530 0.000000 0.071442 0.000000
# 6 0.000000 0.000000 0.000000 0.023844 0.000000 0.060487
#
#
# Mechanical properties :
#
#
# Convention : Reuss Voigt Hill
#
# Bulk Modulus (GPa) = 26.78805 36.42203 31.60504
# Shear Modulus (GPa) = 17.58680 21.78569 19.68625
#
# Velocity S-wave (km/s) = 3.16479 3.52239 3.34837
# Velocity P-wave (km/s) = 5.34889 6.10621 5.74005
#
# Compressibility (1/GPa) = 0.03733008
#
# Stress axis : x y z
#
# Youngs Moduli (GPa) = 38.39603 71.82445 45.92364
#
# Poissons Ratio (x) = 0.50806 0.23371
# Poissons Ratio (y) = 0.27160 0.00200
# Poissons Ratio (z) = 0.19540 0.00313
#
# Static dielectric constant tensor:
#      x y z
#    x 1.616090 0.000000 0.025700 
#    y 0.000000 1.605000 0.000000 
#    z 0.025700 0.000000 1.634050 
# 
# From -- ./inp_files/224361.got.cif
#   From: 2010.05.17/outbox.cif.g08.bks.cpg/sg12_113_cif.got.tgz:224361.got - 2010.06.03 13:09:07.
