data_PCOD9172599
_publ_section_title
;
Structure prediction by ZEFSAII (Michael W. Deem and Ramdas Pophale) SiO2 
 PCOD9172599
Probable space group: C 2/M
;
_chemical_formula_sum "Si O2"
_cell_formula_units_Z 52
_cell_length_a 12.363179
_cell_length_b 24.625499
_cell_length_c 12.202147
_cell_angle_alpha 90.000000
_cell_angle_beta 135.338507
_cell_angle_gamma 90.000000
_cell_volume 2611.291733
_symmetry_space_group_name_H-M "C 2/M"
_symmetry_group_IT_number 12
_symmetry_cell_setting 'monoclinic'
loop_
_space_group_symop_operation_xyz
x,y,z
-x,y,-z
-x,-y,-z
x,-y,z
1/2+x,1/2+y,z
1/2-x,1/2+y,-z
1/2-x,1/2-y,-z
1/2+x,1/2-y,z
loop_
_atom_site_type_symbol
_atom_site_label
_atom_site_fract_x
_atom_site_fract_y
_atom_site_fract_z
Si Si1 0.137383 0.803379 0.188924
Si Si2 0.658364 0.125409 0.808458
Si Si3 0.338586 0.603443 0.327955
Si Si4 0.112424 0.500000 0.791193
Si Si5 0.428387 0.178222 0.824159
Si Si6 0.455852 0.386883 0.174907
Si Si7 0.875567 0.500000 0.814901
Si Si8 0.539065 0.500000 0.898757
O O1 0.292240 0.829644 0.247738
O O2 0.117646 0.741582 0.213322
O O3 0.085792 0.843129 0.247987
O O4 0.000000 0.807508 0.000000
O O5 0.542697 0.153216 0.813902
O O6 0.612777 0.062555 0.740098
O O7 0.819889 0.117036 0.987986
O O8 0.500000 0.592478 0.500000
O O9 0.233129 0.648276 0.306773
O O10 0.376339 0.620796 0.232581
O O11 0.232229 0.551250 0.250469
O O12 0.968887 0.500000 0.769278
O O13 0.274872 0.500000 0.974381
O O14 0.500000 0.168381 0.000000
O O15 0.522930 0.446763 0.204905
O O16 0.000000 0.500000 0.000000
O O17 0.500000 0.500000 0.000000
#
# Coordination Sequence:
#
# PCOD9172599 Si02
#       8
#     8   8   8   4   8   8   4   4
#     4   9  21  32  58  90 118 154 201 264 313 355
#     4  10  18  34  57  91 119 147 203 259 314 360
#     4  12  25  39  57  87 127 163 196 244 305 370
#     4  10  18  29  54  85 118 148 181 239 294 369
#     4  11  21  36  59  87 118 158 201 258 306 361
#     4  10  19  35  55  86 122 158 197 248 308 365
#     4  12  21  38  62  93 115 152 198 245 309 349
#     4  10  18  31  57  94 125 147 186 249 314 357
#
# _framework density 19.913516000000001
#
# number of rings (size 3 to 8) (size 9 to 14) (size 15 to 20)
#    0.000    1.538    3.077    5.308    2.154    1.846 
#    0.000    0.769    0.000    0.000    0.000    2.154 
#    0.000    0.000    0.000    0.000    0.000    0.000 
#
# Total GULP energy -144793.312764 kJ/mol
# GULP energy per Si atom -5568.973568 kJ/mol
# Density = 1.986819 g / cm^3
# Si number density = 19.913516 Si / 1000 Ang^3
#
#
#
# Elastic Constant Matrix: (Units=GPa)
#
#
# Indices 1 2 3 4 5 6 
#
# 1 133.2735 82.1829 2.1316 0.0000 16.8343 0.0000
# 2 82.1829 181.4854 20.9429 0.0000 15.7598 0.0000
# 3 2.1316 20.9429 18.6800 0.0000 26.2516 0.0000
# 4 0.0000 0.0000 0.0000 27.3444 0.0000 -13.8372
# 5 16.8343 15.7598 26.2516 0.0000 14.4489 0.0000
# 6 0.0000 0.0000 0.0000 -13.8372 0.0000 33.2899
#
#
#
# Elastic Compliance Matrix: (Units=1/GPa)
#
#
# Indices 1 2 3 4 5 6 
#
# 1 0.009013 -0.003867 -0.007814 0.000000 0.007913 0.000000
# 2 -0.003867 0.007671 0.001759 0.000000 -0.007057 0.000000
# 3 -0.007814 0.001759 -0.027268 0.000000 0.056727 0.000000
# 4 0.000000 0.000000 0.000000 0.046312 0.000000 0.019250
# 5 0.007913 -0.007057 0.056727 0.000000 -0.035378 0.000000
# 6 0.000000 0.000000 0.000000 0.019250 0.000000 0.038040
#
#
# Mechanical properties :
#
#
# Convention : Reuss Voigt Hill
#
# Bulk Modulus (GPa) = -32.86522 60.43930 13.78704
# Shear Modulus (GPa) = 103.96617 30.22873 67.09745
#
# Velocity S-wave (km/s) = 7.23341 3.90038 5.81099
# Velocity P-wave (km/s) = 7.29542 7.12044 7.20846
#
# Compressibility (1/GPa) = -0.03042730
#
# Stress axis : x y z
#
# Youngs Moduli (GPa) = 110.94603 130.35956 -36.67337
#
# Poissons Ratio (x) = 0.50411 -0.28656
# Poissons Ratio (y) = 0.42903 0.06451
# Poissons Ratio (z) = 0.86693 -0.22930
#
# Static dielectric constant tensor:
#      x y z
#    x 1.705130 0.000000 -0.081120 
#    y 0.000000 1.142690 0.000000 
#    z -0.081120 0.000000 1.751680 
# 
# From -- ./inp_files/52578.got.cif
#   From: 2010.05.17/outbox.cif.g08.bks.cpg/sg12_27_cif.got.tgz:52578.got - 2010.06.03 13:09:07.
