data_PCOD9172308
_publ_section_title
;
Structure prediction by ZEFSAII (Michael W. Deem and Ramdas Pophale) SiO2 
 PCOD9172308
Probable space group: C 2/M
;
_chemical_formula_sum "Si O2"
_cell_formula_units_Z 64
_cell_length_a 20.390125
_cell_length_b 9.384551
_cell_length_c 22.042919
_cell_angle_alpha 90.000000
_cell_angle_beta 110.754544
_cell_angle_gamma 90.000000
_cell_volume 3944.244697
_symmetry_space_group_name_H-M "C 2/M"
_symmetry_group_IT_number 12
_symmetry_cell_setting 'monoclinic'
loop_
_space_group_symop_operation_xyz
x,y,z
-x,y,-z
-x,-y,-z
x,-y,z
1/2+x,1/2+y,z
1/2-x,1/2+y,-z
1/2-x,1/2-y,-z
1/2+x,1/2-y,z
loop_
_atom_site_type_symbol
_atom_site_label
_atom_site_fract_x
_atom_site_fract_y
_atom_site_fract_z
Si Si1 0.224329 0.827524 0.052044
Si Si2 0.420795 0.829988 0.456298
Si Si3 0.378740 0.663119 0.802846
Si Si4 0.218476 0.663531 0.800125
Si Si5 0.671668 0.329958 0.670875
Si Si6 0.427793 0.673743 0.945767
Si Si7 0.178743 0.669789 0.462382
Si Si8 0.329997 0.830853 0.676310
O O1 0.272725 0.792500 0.126728
O O2 0.143986 0.786342 0.043024
O O3 0.226028 0.000000 0.045909
O O4 0.250000 0.750000 0.000000
O O5 0.500000 0.792577 0.500000
O O6 0.387220 0.744276 0.389569
O O7 0.374818 0.802354 0.501155
O O8 0.417849 0.000000 0.442032
O O9 0.398899 0.500000 0.796912
O O10 0.298731 0.661676 0.801798
O O11 0.422797 0.720716 0.874061
O O12 0.376808 0.752899 0.741371
O O13 0.192751 0.500000 0.788777
O O14 0.176681 0.763134 0.739928
O O15 0.662708 0.500000 0.670256
O O16 0.747762 0.300408 0.664177
O O17 0.427279 0.500000 0.944054
O O18 0.500000 0.720484 0.000000
O O19 0.191806 0.500000 0.464344
O O20 0.250000 0.750000 0.500000
O O21 0.153784 0.712709 0.387112
O O22 0.338995 0.000000 0.685269
#
# Coordination Sequence:
#
# PCOD9172308 Si02
#       8
#     8   8   8   8   8   8   8   8
#     4   9  17  29  48  73  98 126 158 197 239 279
#     4  10  21  35  51  70  94 130 166 190 227 288
#     4   8  14  25  44  69  91 117 156 193 227 271
#     4   8  15  28  45  67  94 123 159 196 232 280
#     4  10  18  29  48  73  96 120 154 199 246 280
#     4   8  14  27  48  71  94 124 160 195 230 274
#     4  10  19  32  50  72  96 121 156 197 236 279
#     4   9  17  28  44  69  97 119 145 191 245 279
#
# _framework density 16.226172999999999
#
# number of rings (size 3 to 8) (size 9 to 14) (size 15 to 20)
#    0.000    3.000    1.250    1.875    0.000    1.750 
#    0.000    1.875    2.750    1.500    0.000    0.000 
#    0.000    0.000    0.000    0.000    0.000    0.000 
#
# Total GULP energy -178172.783084 kJ/mol
# GULP energy per Si atom -5567.899471 kJ/mol
# Density = 1.618924 g / cm^3
# Si number density = 16.226173 Si / 1000 Ang^3
#
#
#
# Elastic Constant Matrix: (Units=GPa)
#
#
# Indices 1 2 3 4 5 6 
#
# 1 56.4923 33.7341 62.3201 0.0000 4.0497 0.0000
# 2 33.7341 37.7344 68.0153 0.0000 1.3610 0.0000
# 3 62.3201 68.0153 192.1943 0.0000 -0.0701 0.0000
# 4 0.0000 0.0000 0.0000 30.8119 0.0000 -5.0810
# 5 4.0497 1.3610 -0.0701 0.0000 25.4128 0.0000
# 6 0.0000 0.0000 0.0000 -5.0810 0.0000 12.1763
#
#
#
# Elastic Compliance Matrix: (Units=1/GPa)
#
#
# Indices 1 2 3 4 5 6 
#
# 1 0.038504 -0.032465 -0.000998 0.000000 -0.004400 0.000000
# 2 -0.032465 0.100962 -0.025202 0.000000 -0.000303 0.000000
# 3 -0.000998 -0.025202 0.014446 0.000000 0.001549 0.000000
# 4 0.000000 0.000000 0.000000 0.034853 0.000000 0.014544
# 5 -0.004400 -0.000303 0.001549 0.000000 0.040072 0.000000
# 6 0.000000 0.000000 0.000000 0.014544 0.000000 0.088196
#
#
# Mechanical properties :
#
#
# Convention : Reuss Voigt Hill
#
# Bulk Modulus (GPa) = 27.33613 68.28446 47.81029
# Shear Modulus (GPa) = 11.19679 21.83697 16.51688
#
# Velocity S-wave (km/s) = 2.62972 3.67248 3.19394
# Velocity P-wave (km/s) = 5.10922 7.75610 6.56739
#
# Compressibility (1/GPa) = 0.03658162
#
# Stress axis : x y z
#
# Youngs Moduli (GPa) = 25.97139 9.90473 69.22334
#
# Poissons Ratio (x) = 0.32156 0.06907
# Poissons Ratio (y) = 0.84316 1.74459
# Poissons Ratio (z) = 0.02591 0.24962
#
# Static dielectric constant tensor:
#      x y z
#    x 1.535140 0.000000 -0.009410 
#    y 0.000000 1.541720 0.000000 
#    z -0.009410 0.000000 1.559650 
# 
# From -- ./inp_files/320076.got.cif
#   From: 2010.05.17/outbox.cif.g08.bks.cpg/sg12_161_cif.got.tgz:320076.got - 2010.06.03 13:09:07.
