data_PCOD9172083
_publ_section_title
;
Structure prediction by ZEFSAII (Michael W. Deem and Ramdas Pophale) SiO2 
 PCOD9172083
Probable space group: C 2/M
;
_chemical_formula_sum "Si O2"
_cell_formula_units_Z 64
_cell_length_a 24.351645
_cell_length_b 9.070818
_cell_length_c 17.355375
_cell_angle_alpha 90.000000
_cell_angle_beta 95.441231
_cell_angle_gamma 90.000000
_cell_volume 3816.342988
_symmetry_space_group_name_H-M "C 2/M"
_symmetry_group_IT_number 12
_symmetry_cell_setting 'monoclinic'
loop_
_space_group_symop_operation_xyz
x,y,z
-x,y,-z
-x,-y,-z
x,-y,z
1/2+x,1/2+y,z
1/2-x,1/2+y,-z
1/2-x,1/2-y,-z
1/2+x,1/2-y,z
loop_
_atom_site_type_symbol
_atom_site_label
_atom_site_fract_x
_atom_site_fract_y
_atom_site_fract_z
Si Si1 0.437887 0.675550 0.460864
Si Si2 0.264644 0.679038 0.920954
Si Si3 0.068512 0.678687 0.706976
Si Si4 0.872863 0.675927 0.588421
Si Si5 0.637350 0.669682 0.168965
Si Si6 0.689377 0.179085 0.767183
Si Si7 0.950149 0.324143 0.746052
Si Si8 0.717685 0.329160 0.329876
O O1 0.500000 0.703000 0.500000
O O2 0.430067 0.500000 0.454331
O O3 0.432559 0.751844 0.377674
O O4 0.394926 0.745189 0.515288
O O5 0.264046 0.500000 0.925365
O O6 0.324960 0.723746 0.896512
O O7 0.220762 0.724510 0.849061
O O8 0.250000 0.750000 0.000000
O O9 0.067257 0.500000 0.700156
O O10 0.125816 0.721936 0.754591
O O11 0.013111 0.725095 0.744213
O O12 0.871752 0.500000 0.578317
O O13 0.916627 0.711694 0.662913
O O14 0.814018 0.735220 0.610511
O O15 0.622731 0.500000 0.153081
O O16 0.583630 0.756915 0.187734
O O17 0.678461 0.672418 0.248558
O O18 0.724134 0.226876 0.696202
O O19 0.692319 0.000000 0.765913
O O20 0.949349 0.500000 0.753161
O O21 0.722663 0.500000 0.355365
#
# Coordination Sequence:
#
# PCOD9172083 Si02
#       8
#     8   8   8   8   8   8   8   8
#     4  11  22  33  46  67  95 127 164 204 243 287
#     4   9  17  31  52  79 102 125 156 192 234 281
#     4  10  19  33  51  70  95 128 161 200 245 288
#     4  10  18  29  46  69  94 121 157 205 250 284
#     4   8  15  27  45  68  96 124 154 190 231 278
#     4   8  16  32  53  73  97 128 161 193 236 291
#     4   9  17  27  44  70  95 119 156 200 240 278
#     4   8  14  28  48  68  90 121 158 197 238 284
#
# _framework density 16.769981000000001
#
# number of rings (size 3 to 8) (size 9 to 14) (size 15 to 20)
#    0.000    2.875    1.250    2.250    0.000    2.000 
#    0.000    3.750    0.000    0.750    0.000    5.250 
#    0.000    0.000    0.000    0.000    0.000    0.000 
#
# Total GULP energy -178271.641024 kJ/mol
# GULP energy per Si atom -5570.988782 kJ/mol
# Density = 1.673181 g / cm^3
# Si number density = 16.769981 Si / 1000 Ang^3
#
#
#
# Elastic Constant Matrix: (Units=GPa)
#
#
# Indices 1 2 3 4 5 6 
#
# 1 140.5450 34.6150 65.0994 0.0000 -30.1132 0.0000
# 2 34.6150 20.1113 28.5500 0.0000 -10.7613 0.0000
# 3 65.0994 28.5500 85.5991 0.0000 -31.3107 0.0000
# 4 0.0000 0.0000 0.0000 24.7467 0.0000 -9.8834
# 5 -30.1132 -10.7613 -31.3107 0.0000 30.2303 0.0000
# 6 0.0000 0.0000 0.0000 -9.8834 0.0000 20.1329
#
#
#
# Elastic Compliance Matrix: (Units=1/GPa)
#
#
# Indices 1 2 3 4 5 6 
#
# 1 0.013614 -0.016460 -0.003295 0.000000 0.004290 0.000000
# 2 -0.016460 0.114385 -0.026945 0.000000 -0.003585 0.000000
# 3 -0.003295 -0.026945 0.029729 0.000000 0.017918 0.000000
# 4 0.000000 0.000000 0.000000 0.050264 0.000000 0.024675
# 5 0.004290 -0.003585 0.017918 0.000000 0.054634 0.000000
# 6 0.000000 0.000000 0.000000 0.024675 0.000000 0.061783
#
#
# Mechanical properties :
#
#
# Convention : Reuss Voigt Hill
#
# Bulk Modulus (GPa) = 15.54480 55.86493 35.70486
# Shear Modulus (GPa) = 11.38297 22.88804 17.13550
#
# Velocity S-wave (km/s) = 2.60815 3.69836 3.20002
# Velocity P-wave (km/s) = 4.28479 7.18484 5.91529
#
# Compressibility (1/GPa) = 0.06433021
#
# Stress axis : x y z
#
# Youngs Moduli (GPa) = 73.45172 8.74238 33.63700
#
# Poissons Ratio (x) = 0.14390 0.11084
# Poissons Ratio (y) = 1.20900 0.90633
# Poissons Ratio (z) = 0.24203 0.23556
#
# Static dielectric constant tensor:
#      x y z
#    x 1.593320 0.000000 -0.004230 
#    y 0.000000 1.559000 0.000000 
#    z -0.004230 0.000000 1.542960 
# 
# From -- ./inp_files/238649.got.cif
#   From: 2010.05.17/outbox.cif.g08.bks.cpg/sg12_120_cif.got.tgz:238649.got - 2010.06.03 13:09:07.
