data_PCOD9172870
_publ_section_title
;
Structure prediction by ZEFSAII (Michael W. Deem and Ramdas Pophale) SiO2 
 PCOD9172870
Probable space group: C 2/M
;
_chemical_formula_sum "Si O2"
_cell_formula_units_Z 64
_cell_length_a 31.777830
_cell_length_b 7.837416
_cell_length_c 23.031106
_cell_angle_alpha 90.000000
_cell_angle_beta 149.310298
_cell_angle_gamma 90.000000
_cell_volume 2927.606456
_symmetry_space_group_name_H-M "C 2/M"
_symmetry_group_IT_number 12
_symmetry_cell_setting 'monoclinic'
loop_
_space_group_symop_operation_xyz
x,y,z
-x,y,-z
-x,-y,-z
x,-y,z
1/2+x,1/2+y,z
1/2-x,1/2+y,-z
1/2-x,1/2-y,-z
1/2+x,1/2-y,z
loop_
_atom_site_type_symbol
_atom_site_label
_atom_site_fract_x
_atom_site_fract_y
_atom_site_fract_z
Si Si1 0.815755 0.704404 0.627675
Si Si2 0.500689 0.789259 0.183372
Si Si3 0.243899 0.191965 0.058119
Si Si4 0.009235 0.303076 0.322155
Si Si5 0.077849 0.304339 0.669962
Si Si6 0.157798 0.691052 0.062459
Si Si7 0.676617 0.800013 0.679936
Si Si8 0.815816 0.198155 0.442303
O O1 0.824116 0.500000 0.638908
O O2 0.750000 0.750000 0.500000
O O3 0.907351 0.769740 0.723734
O O4 0.771003 0.758361 0.634250
O O5 0.481250 0.731929 0.226653
O O6 0.433296 0.735379 0.055510
O O7 0.498853 0.000000 0.182155
O O8 0.335037 0.189387 0.193137
O O9 0.210527 0.000000 0.022608
O O10 0.250000 0.250000 0.000000
O O11 0.190226 0.312596 0.034654
O O12 0.980489 0.500000 0.290100
O O13 0.108002 0.297793 0.439377
O O14 0.980913 0.224224 0.350448
O O15 0.049096 0.500000 0.624902
O O16 0.106580 0.230993 0.641641
O O17 0.152405 0.500000 0.080279
O O18 0.232021 0.783375 0.183790
O O19 0.678642 0.715651 0.619953
O O20 0.659203 0.000000 0.651715
O O21 0.826593 0.000000 0.471194
#
# Coordination Sequence:
#
# PCOD9172870 Si02
#       8
#     8   8   8   8   8   8   8   8
#     4  10  20  37  59  84 112 141 179 223 275 337
#     4   9  18  33  57  85 112 144 178 218 279 346
#     4  10  18  30  48  73 107 147 190 229 272 324
#     4  10  18  33  57  81 108 143 185 225 269 328
#     4   8  17  32  51  75 102 140 187 228 263 317
#     4  10  19  34  56  81 109 142 182 230 280 329
#     4  10  21  39  58  77 108 150 193 227 267 328
#     4  11  23  37  55  82 112 142 181 231 279 325
#
# _framework density 21.860862000000001
#
# number of rings (size 3 to 8) (size 9 to 14) (size 15 to 20)
#    0.000    2.250    1.250    3.000    0.000    3.000 
#    0.000   10.625    0.000    3.750    0.000    0.000 
#    0.000    0.000    0.000    0.000    0.000    0.000 
#
# Total GULP energy -178476.872947 kJ/mol
# GULP energy per Si atom -5577.402280 kJ/mol
# Density = 2.181111 g / cm^3
# Si number density = 21.860862 Si / 1000 Ang^3
#
#
#
# Elastic Constant Matrix: (Units=GPa)
#
#
# Indices 1 2 3 4 5 6 
#
# 1 93.9866 5.0895 14.8997 0.0000 8.7152 0.0000
# 2 5.0895 37.4746 -2.6708 0.0000 3.5885 0.0000
# 3 14.8997 -2.6708 81.3234 0.0000 16.3520 0.0000
# 4 0.0000 0.0000 0.0000 15.7823 0.0000 3.0528
# 5 8.7152 3.5885 16.3520 0.0000 34.8484 0.0000
# 6 0.0000 0.0000 0.0000 3.0528 0.0000 12.9838
#
#
#
# Elastic Compliance Matrix: (Units=1/GPa)
#
#
# Indices 1 2 3 4 5 6 
#
# 1 0.011162 -0.001464 -0.001725 0.000000 -0.001831 0.000000
# 2 -0.001464 0.027331 0.001831 0.000000 -0.003307 0.000000
# 3 -0.001725 0.001831 0.013939 0.000000 -0.006298 0.000000
# 4 0.000000 0.000000 0.000000 0.066381 0.000000 -0.015608
# 5 -0.001831 -0.003307 -0.006298 0.000000 0.032449 0.000000
# 6 0.000000 0.000000 0.000000 -0.015608 0.000000 0.080689
#
#
# Mechanical properties :
#
#
# Convention : Reuss Voigt Hill
#
# Bulk Modulus (GPa) = 20.11394 27.49125 23.80259
# Shear Modulus (GPa) = 19.90136 25.75397 22.82767
#
# Velocity S-wave (km/s) = 3.02050 3.43605 3.23495
# Velocity P-wave (km/s) = 4.62444 5.32398 4.98649
#
# Compressibility (1/GPa) = 0.04971677
#
# Stress axis : x y z
#
# Youngs Moduli (GPa) = 89.58684 36.58885 71.74082
#
# Poissons Ratio (x) = 0.05355 0.12375
# Poissons Ratio (y) = 0.13111 -0.13134
# Poissons Ratio (z) = 0.15453 -0.06699
#
# Static dielectric constant tensor:
#      x y z
#    x 1.841420 0.000000 0.019190 
#    y 0.000000 1.818880 0.000000 
#    z 0.019190 0.000000 1.823630 
# 
# From -- ./inp_files/353578.got.cif
#   From: 2010.05.17/outbox.cif.g08.bks.cpg/sg12_177_cif.got.tgz:353578.got - 2010.06.03 13:09:07.
