data_PCOD9172135
_publ_section_title
;
Structure prediction by ZEFSAII (Michael W. Deem and Ramdas Pophale) SiO2 
 PCOD9172135
Probable space group: C 2/M
;
_chemical_formula_sum "Si O2"
_cell_formula_units_Z 64
_cell_length_a 25.911776
_cell_length_b 7.532340
_cell_length_c 18.426336
_cell_angle_alpha 90.000000
_cell_angle_beta 104.708375
_cell_angle_gamma 90.000000
_cell_volume 3478.533037
_symmetry_space_group_name_H-M "C 2/M"
_symmetry_group_IT_number 12
_symmetry_cell_setting 'monoclinic'
loop_
_space_group_symop_operation_xyz
x,y,z
-x,y,-z
-x,-y,-z
x,-y,z
1/2+x,1/2+y,z
1/2-x,1/2+y,-z
1/2-x,1/2-y,-z
1/2+x,1/2-y,z
loop_
_atom_site_type_symbol
_atom_site_label
_atom_site_fract_x
_atom_site_fract_y
_atom_site_fract_z
Si Si1 0.518886 0.792232 0.929552
Si Si2 0.091095 0.784896 0.175889
Si Si3 0.665370 0.292246 0.329190
Si Si4 0.286129 0.782334 0.343661
Si Si5 0.677792 0.714372 0.087637
Si Si6 0.294369 0.217399 0.184269
Si Si7 0.312326 0.210121 0.506262
Si Si8 0.631396 0.791395 0.917177
O O1 0.468607 0.779254 0.858582
O O2 0.573410 0.714674 0.916785
O O3 0.530650 0.000000 0.947866
O O4 0.500000 0.713636 0.000000
O O5 0.119679 0.722114 0.259954
O O6 0.129569 0.728397 0.123128
O O7 0.088874 0.000000 0.174528
O O8 0.669139 0.500000 0.312753
O O9 0.724563 0.220845 0.332040
O O10 0.656531 0.277943 0.412222
O O11 0.305007 0.728458 0.270907
O O12 0.319474 0.723737 0.426367
O O13 0.285570 0.000000 0.345525
O O14 0.677727 0.500000 0.087876
O O15 0.734836 0.772639 0.139056
O O16 0.667109 0.774551 0.002114
O O17 0.337127 0.281738 0.140788
O O18 0.293970 0.000000 0.183153
O O19 0.250000 0.250000 0.500000
O O20 0.319822 0.000000 0.508754
O O21 0.623823 0.000000 0.898762
#
# Coordination Sequence:
#
# PCOD9172135 Si02
#       8
#     8   8   8   8   8   8   8   8
#     4  10  20  33  45  61  90 120 148 188 231 264
#     4  10  19  30  48  69  86 116 154 185 223 267
#     4   9  16  28  44  64  91 115 143 181 222 265
#     4   8  13  24  42  63  88 115 141 174 212 257
#     4  10  18  29  47  67  88 114 148 187 223 261
#     4   9  16  28  46  66  88 117 151 182 216 263
#     4   9  16  25  41  64  91 121 147 173 214 263
#     4  10  20  32  46  63  86 120 154 183 223 265
#
# _framework density 18.398561000000001
#
# number of rings (size 3 to 8) (size 9 to 14) (size 15 to 20)
#    0.000    2.625    2.500    1.500    0.000    1.250 
#    0.000    0.000    0.000    3.750    0.000    0.875 
#    0.000    7.000    0.000    0.000    0.000    0.000 
#
# Total GULP energy -178391.786514 kJ/mol
# GULP energy per Si atom -5574.743329 kJ/mol
# Density = 1.835668 g / cm^3
# Si number density = 18.398561 Si / 1000 Ang^3
#
#
#
# Elastic Constant Matrix: (Units=GPa)
#
#
# Indices 1 2 3 4 5 6 
#
# 1 62.6189 -1.4624 46.5555 0.0000 -15.4050 0.0000
# 2 -1.4624 39.9660 -14.9237 0.0000 -3.7662 0.0000
# 3 46.5555 -14.9237 154.5113 0.0000 -7.5438 0.0000
# 4 0.0000 0.0000 0.0000 17.3415 0.0000 8.0070
# 5 -15.4050 -3.7662 -7.5438 0.0000 22.2708 0.0000
# 6 0.0000 0.0000 0.0000 8.0070 0.0000 -6.6898
#
#
#
# Elastic Compliance Matrix: (Units=1/GPa)
#
#
# Indices 1 2 3 4 5 6 
#
# 1 0.024561 -0.000222 -0.006705 0.000000 0.014680 0.000000
# 2 -0.000222 0.026596 0.002896 0.000000 0.005325 0.000000
# 3 -0.006705 0.002896 0.008714 0.000000 -0.001197 0.000000
# 4 0.000000 0.000000 0.000000 0.037140 0.000000 0.044453
# 5 0.014680 0.005325 -0.001197 0.000000 0.055552 0.000000
# 6 0.000000 0.000000 0.000000 0.044453 0.000000 -0.096276
#
#
# Mechanical properties :
#
#
# Convention : Reuss Voigt Hill
#
# Bulk Modulus (GPa) = 19.30178 35.27054 27.28616
# Shear Modulus (GPa) = 61.26052 21.71296 41.48674
#
# Velocity S-wave (km/s) = 5.77656 3.43905 4.75372
# Velocity P-wave (km/s) = 7.41655 5.91450 6.70770
#
# Compressibility (1/GPa) = 0.05180868
#
# Stress axis : x y z
#
# Youngs Moduli (GPa) = 40.71484 37.59933 114.76363
#
# Poissons Ratio (x) = 0.00833 0.76950
# Poissons Ratio (y) = 0.00902 -0.33231
# Poissons Ratio (z) = 0.27300 -0.10887
#
# Static dielectric constant tensor:
#      x y z
#    x 1.609770 0.000000 -0.007330 
#    y 0.000000 1.685820 0.000000 
#    z -0.007330 0.000000 1.663600 
# 
# From -- ./inp_files/287647.got.cif
#   From: 2010.05.17/outbox.cif.g08.bks.cpg/sg12_144_cif.got.tgz:287647.got - 2010.06.03 13:09:07.
