data_PCOD9172169
_publ_section_title
;
Structure prediction by ZEFSAII (Michael W. Deem and Ramdas Pophale) SiO2 
 PCOD9172169
Probable space group: C 2/M
;
_chemical_formula_sum "Si O2"
_cell_formula_units_Z 56
_cell_length_a 31.196603
_cell_length_b 7.449347
_cell_length_c 12.861338
_cell_angle_alpha 90.000000
_cell_angle_beta 103.619065
_cell_angle_gamma 90.000000
_cell_volume 2904.862071
_symmetry_space_group_name_H-M "C 2/M"
_symmetry_group_IT_number 12
_symmetry_cell_setting 'monoclinic'
loop_
_space_group_symop_operation_xyz
x,y,z
-x,y,-z
-x,-y,-z
x,-y,z
1/2+x,1/2+y,z
1/2-x,1/2+y,-z
1/2-x,1/2-y,-z
1/2+x,1/2-y,z
loop_
_atom_site_type_symbol
_atom_site_label
_atom_site_fract_x
_atom_site_fract_y
_atom_site_fract_z
Si Si1 0.941839 0.217696 0.145953
Si Si2 0.541526 0.283646 0.248904
Si Si3 0.602698 0.280182 0.096109
Si Si4 0.452192 0.212387 0.507190
Si Si5 0.802739 0.787834 0.913009
Si Si6 0.204589 0.282316 0.847649
Si Si7 0.118719 0.708264 0.691603
O O1 0.910745 0.283039 0.220974
O O2 0.991958 0.277766 0.193626
O O3 0.941139 0.000000 0.148721
O O4 0.923133 0.272866 0.023415
O O5 0.540687 0.500000 0.243219
O O6 0.576363 0.221054 0.182853
O O7 0.553028 0.233766 0.373061
O O8 0.603242 0.500000 0.096695
O O9 0.653174 0.216988 0.115731
O O10 0.500000 0.286619 0.500000
O O11 0.411674 0.287836 0.416751
O O12 0.453537 0.000000 0.483416
O O13 0.754361 0.716215 0.855926
O O14 0.801542 0.000000 0.890971
O O15 0.807172 0.765259 0.040028
O O16 0.205019 0.500000 0.843954
O O17 0.166357 0.214733 0.749537
O O18 0.126848 0.500000 0.669457
#
# Coordination Sequence:
#
# PCOD9172169 Si02
#       7
#     8   8   8   8   8   8   8
#     4  10  18  29  47  70  95 122 151 184 227 275
#     4  10  20  32  48  69  93 122 158 193 224 268
#     4   9  17  30  47  69  97 125 149 181 230 279
#     4  10  20  34  49  64  89 125 159 193 231 268
#     4   9  16  28  47  69  94 121 148 181 227 277
#     4   9  17  28  45  70  94 118 150 187 226 270
#     4  10  19  31  47  67  95 123 151 189 231 270
#
# _framework density 19.278025
#
# number of rings (size 3 to 8) (size 9 to 14) (size 15 to 20)
#    0.000    2.429    2.857    0.429    0.000    2.571 
#    0.000    1.429    0.000    2.571    0.000    0.000 
#    0.000    0.000    0.000    0.000    0.000    0.000 
#
# Total GULP energy -156257.752305 kJ/mol
# GULP energy per Si atom -5580.634011 kJ/mol
# Density = 1.923415 g / cm^3
# Si number density = 19.278025 Si / 1000 Ang^3
#
#
#
# Elastic Constant Matrix: (Units=GPa)
#
#
# Indices 1 2 3 4 5 6 
#
# 1 149.9433 -2.9492 91.1617 0.0000 38.2878 0.0000
# 2 -2.9492 55.1966 -10.2276 0.0000 6.7433 0.0000
# 3 91.1617 -10.2276 130.1267 0.0000 18.7456 0.0000
# 4 0.0000 0.0000 0.0000 20.1373 0.0000 -4.8009
# 5 38.2878 6.7433 18.7456 0.0000 30.4887 0.0000
# 6 0.0000 0.0000 0.0000 -4.8009 0.0000 6.2194
#
#
#
# Elastic Compliance Matrix: (Units=1/GPa)
#
#
# Indices 1 2 3 4 5 6 
#
# 1 0.015846 0.000983 -0.008916 0.000000 -0.014635 0.000000
# 2 0.000983 0.019305 0.001779 0.000000 -0.006598 0.000000
# 3 -0.008916 0.001779 0.013731 0.000000 0.002361 0.000000
# 4 0.000000 0.000000 0.000000 0.060859 0.000000 0.046978
# 5 -0.014635 -0.006598 0.002361 0.000000 0.051186 0.000000
# 6 0.000000 0.000000 0.000000 0.046978 0.000000 0.197050
#
#
# Mechanical properties :
#
#
# Convention : Reuss Voigt Hill
#
# Bulk Modulus (GPa) = 27.34125 54.58182 40.96153
# Shear Modulus (GPa) = 13.07274 28.52120 20.79697
#
# Velocity S-wave (km/s) = 2.60689 3.85056 3.28806
# Velocity P-wave (km/s) = 4.82437 6.93855 5.97570
#
# Compressibility (1/GPa) = 0.03657477
#
# Stress axis : x y z
#
# Youngs Moduli (GPa) = 63.10733 51.79918 72.83046
#
# Poissons Ratio (x) = -0.05090 0.64933
# Poissons Ratio (y) = -0.06201 -0.12960
# Poissons Ratio (z) = 0.56264 -0.09217
#
# Static dielectric constant tensor:
#      x y z
#    x 1.689820 0.000000 0.037480 
#    y 0.000000 1.755160 0.000000 
#    z 0.037480 0.000000 1.632890 
# 
# From -- ./inp_files/181624.got.cif
#   From: 2010.05.17/outbox.cif.g08.bks.cpg/sg12_91_cif.got.tgz:181624.got - 2010.06.03 13:09:07.
