data_PCOD9172458
_publ_section_title
;
Structure prediction by ZEFSAII (Michael W. Deem and Ramdas Pophale) SiO2 
 PCOD9172458
Probable space group: C 2/M
;
_chemical_formula_sum "Si O2"
_cell_formula_units_Z 64
_cell_length_a 24.552003
_cell_length_b 19.034151
_cell_length_c 8.151288
_cell_angle_alpha 90.000000
_cell_angle_beta 72.588292
_cell_angle_gamma 90.000000
_cell_volume 3634.767386
_symmetry_space_group_name_H-M "C 2/M"
_symmetry_group_IT_number 12
_symmetry_cell_setting 'monoclinic'
loop_
_space_group_symop_operation_xyz
x,y,z
-x,y,-z
-x,-y,-z
x,-y,z
1/2+x,1/2+y,z
1/2-x,1/2+y,-z
1/2-x,1/2-y,-z
1/2+x,1/2-y,z
loop_
_atom_site_type_symbol
_atom_site_label
_atom_site_fract_x
_atom_site_fract_y
_atom_site_fract_z
Si Si1 0.206519 0.581252 0.703084
Si Si2 0.659955 0.778560 0.655051
Si Si3 0.943183 0.187533 0.119911
Si Si4 0.951926 0.915607 0.408247
Si Si5 0.828510 0.080475 0.476188
Si Si6 0.240153 0.868315 0.026531
Si Si7 0.775481 0.264286 0.735874
Si Si8 0.366243 0.577623 0.060853
O O1 0.195674 0.500000 0.669841
O O2 0.160053 0.638327 0.692391
O O3 0.265835 0.609731 0.565803
O O4 0.220462 0.589466 0.882966
O O5 0.602285 0.739838 0.758089
O O6 0.711915 0.746394 0.717280
O O7 0.679109 0.765913 0.450977
O O8 0.962563 0.129449 0.236251
O O9 0.910026 0.141692 0.012455
O O10 0.000000 0.222541 0.000000
O O11 0.886274 0.894756 0.513404
O O12 0.000000 0.902599 0.500000
O O13 0.950813 0.000000 0.376089
O O14 0.842778 0.082069 0.270128
O O15 0.821704 0.000000 0.535828
O O16 0.216367 0.800645 0.147561
O O17 0.273893 0.835466 0.842842
O O18 0.186993 0.912538 0.010203
O O19 0.391973 0.500000 0.014892
#
# Coordination Sequence:
#
# PCOD9172458 Si02
#       8
#     8   8   8   8   8   8   8   8
#     4  10  20  32  53  84 110 135 169 219 275 328
#     4  10  20  37  57  73 105 143 178 218 267 324
#     4  11  23  37  53  74 101 140 188 228 259 313
#     4   9  19  35  51  72 105 146 188 223 255 294
#     4   8  16  30  49  73 105 141 178 214 257 312
#     4  10  18  29  49  84 113 136 170 220 264 313
#     4   9  19  33  54  79 105 142 176 211 267 320
#     4  10  19  32  50  73 107 149 185 219 256 299
#
# _framework density 17.607728999999999
#
# number of rings (size 3 to 8) (size 9 to 14) (size 15 to 20)
#    0.000    2.375    1.250    2.250    8.750    2.000 
#    0.000    1.875    0.000    0.375    0.000    0.000 
#    0.000    1.500    0.000    0.000    0.000    0.000 
#
# Total GULP energy -178445.757616 kJ/mol
# GULP energy per Si atom -5576.429925 kJ/mol
# Density = 1.756765 g / cm^3
# Si number density = 17.607729 Si / 1000 Ang^3
#
#
#
# Elastic Constant Matrix: (Units=GPa)
#
#
# Indices 1 2 3 4 5 6 
#
# 1 70.4240 35.1742 36.6622 0.0000 -10.7099 0.0000
# 2 35.1742 88.0869 19.8778 0.0000 -7.5468 0.0000
# 3 36.6622 19.8778 57.4189 0.0000 -9.1297 0.0000
# 4 0.0000 0.0000 0.0000 18.1942 0.0000 5.1751
# 5 -10.7099 -7.5468 -9.1297 0.0000 29.8170 0.0000
# 6 0.0000 0.0000 0.0000 5.1751 0.0000 21.8475
#
#
#
# Elastic Compliance Matrix: (Units=1/GPa)
#
#
# Indices 1 2 3 4 5 6 
#
# 1 0.024806 -0.006693 -0.013008 0.000000 0.003233 0.000000
# 2 -0.006693 0.014224 -0.000484 0.000000 0.001048 0.000000
# 3 -0.013008 -0.000484 0.026412 0.000000 0.003293 0.000000
# 4 0.000000 0.000000 0.000000 0.058933 0.000000 -0.013960
# 5 0.003233 0.001048 0.003293 0.000000 0.035973 0.000000
# 6 0.000000 0.000000 0.000000 -0.013960 0.000000 0.049078
#
#
# Mechanical properties :
#
#
# Convention : Reuss Voigt Hill
#
# Bulk Modulus (GPa) = 39.88349 44.37312 42.12831
# Shear Modulus (GPa) = 19.36832 22.25279 20.81055
#
# Velocity S-wave (km/s) = 3.32021 3.55886 3.44161
# Velocity P-wave (km/s) = 6.11544 6.49176 6.30641
#
# Compressibility (1/GPa) = 0.02507303
#
# Stress axis : x y z
#
# Youngs Moduli (GPa) = 40.31286 70.30350 37.86101
#
# Poissons Ratio (x) = 0.47054 0.49248
# Poissons Ratio (y) = 0.26981 0.01833
# Poissons Ratio (z) = 0.52437 0.03403
#
# Static dielectric constant tensor:
#      x y z
#    x 1.603650 0.000000 -0.006830 
#    y 0.000000 1.644130 0.000000 
#    z -0.006830 0.000000 1.655850 
# 
# From -- ./inp_files/98605.got.cif
#   From: 2010.05.17/outbox.cif.g08.bks.cpg/sg12_50_cif.got.tgz:98605.got - 2010.06.03 13:09:07.
