data_PCOD9172292
_publ_section_title
;
Structure prediction by ZEFSAII (Michael W. Deem and Ramdas Pophale) SiO2 
 PCOD9172292
Probable space group: C 2/M
;
_chemical_formula_sum "Si O2"
_cell_formula_units_Z 64
_cell_length_a 23.714273
_cell_length_b 17.773021
_cell_length_c 9.794461
_cell_angle_alpha 90.000000
_cell_angle_beta 79.865017
_cell_angle_gamma 90.000000
_cell_volume 4063.697922
_symmetry_space_group_name_H-M "C 2/M"
_symmetry_group_IT_number 12
_symmetry_cell_setting 'monoclinic'
loop_
_space_group_symop_operation_xyz
x,y,z
-x,y,-z
-x,-y,-z
x,-y,z
1/2+x,1/2+y,z
1/2-x,1/2+y,-z
1/2-x,1/2-y,-z
1/2+x,1/2-y,z
loop_
_atom_site_type_symbol
_atom_site_label
_atom_site_fract_x
_atom_site_fract_y
_atom_site_fract_z
Si Si1 0.541939 0.413581 0.099417
Si Si2 0.193199 0.739821 0.849748
Si Si3 0.740337 0.087752 0.782343
Si Si4 0.685123 0.773170 0.350491
Si Si5 0.039205 0.086242 0.604223
Si Si6 0.653703 0.326160 0.624329
Si Si7 0.265666 0.913879 0.545573
Si Si8 0.345750 0.676346 0.864156
O O1 0.558500 0.500000 0.055586
O O2 0.502105 0.416506 0.248803
O O3 0.597985 0.365259 0.106308
O O4 0.500000 0.383480 0.000000
O O5 0.195694 0.649368 0.860677
O O6 0.253956 0.758383 0.750444
O O7 0.148667 0.773989 0.759955
O O8 0.184872 0.782425 0.995456
O O9 0.736320 0.094392 0.618836
O O10 0.802251 0.116230 0.812035
O O11 0.731520 0.000000 0.821026
O O12 0.677258 0.724099 0.489738
O O13 0.689126 0.858119 0.402235
O O14 0.641898 0.739913 0.256318
O O15 0.095006 0.134604 0.609223
O O16 0.000000 0.117049 0.500000
O O17 0.056386 0.000000 0.561403
O O18 0.702832 0.388929 0.624902
O O19 0.277225 0.000000 0.572719
#
# Coordination Sequence:
#
# PCOD9172292 Si02
#       8
#     8   8   8   8   8   8   8   8
#     4  10  21  37  50  68  99 134 171 207 240 276
#     4  10  19  32  46  71  97 128 165 199 238 291
#     4  10  18  30  48  72  99 128 164 194 234 296
#     4  10  18  32  47  70  99 126 164 200 241 289
#     4  10  21  32  46  71  98 125 167 213 240 271
#     4  11  17  32  49  67  97 133 165 194 246 287
#     4  10  18  29  48  72  99 131 162 193 238 294
#     4  11  20  32  51  70  96 136 168 197 244 288
#
# _framework density 15.749202
#
# number of rings (size 3 to 8) (size 9 to 14) (size 15 to 20)
#    0.000    1.750    3.750    4.500    0.000    0.000 
#    0.000    8.750    0.000    0.000    0.000    0.000 
#    0.000   20.000    0.000    0.000    0.000    0.000 
#
# Total GULP energy -178261.619532 kJ/mol
# GULP energy per Si atom -5570.675610 kJ/mol
# Density = 1.571336 g / cm^3
# Si number density = 15.749202 Si / 1000 Ang^3
#
#
#
# Elastic Constant Matrix: (Units=GPa)
#
#
# Indices 1 2 3 4 5 6 
#
# 1 73.3532 46.7487 12.8055 0.0000 21.8273 0.0000
# 2 46.7487 130.8330 31.8387 0.0000 12.1972 0.0000
# 3 12.8055 31.8387 69.6089 0.0000 17.2798 0.0000
# 4 0.0000 0.0000 0.0000 26.0979 0.0000 2.1724
# 5 21.8273 12.1972 17.2798 0.0000 25.8166 0.0000
# 6 0.0000 0.0000 0.0000 2.1724 0.0000 30.8141
#
#
#
# Elastic Compliance Matrix: (Units=1/GPa)
#
#
# Indices 1 2 3 4 5 6 
#
# 1 0.023326 -0.007513 0.003789 0.000000 -0.018708 0.000000
# 2 -0.007513 0.011084 -0.004755 0.000000 0.004297 0.000000
# 3 0.003789 -0.004755 0.019286 0.000000 -0.013866 0.000000
# 4 0.000000 0.000000 0.000000 0.038543 0.000000 -0.002717
# 5 -0.018708 0.004297 -0.013866 0.000000 0.061803 0.000000
# 6 0.000000 0.000000 0.000000 -0.002717 0.000000 0.032644
#
#
# Mechanical properties :
#
#
# Convention : Reuss Voigt Hill
#
# Bulk Modulus (GPa) = 27.21832 50.73120 38.97476
# Shear Modulus (GPa) = 23.16005 28.70587 25.93296
#
# Velocity S-wave (km/s) = 3.83894 4.27393 4.06226
# Velocity P-wave (km/s) = 6.08028 7.52576 6.84131
#
# Compressibility (1/GPa) = 0.03673997
#
# Stress axis : x y z
#
# Youngs Moduli (GPa) = 42.87045 90.21882 51.85204
#
# Poissons Ratio (x) = 0.67779 -0.19649
# Poissons Ratio (y) = 0.32208 0.24653
# Poissons Ratio (z) = -0.16245 0.42895
#
# Static dielectric constant tensor:
#      x y z
#    x 1.520050 0.000000 0.030580 
#    y 0.000000 1.555300 0.000000 
#    z 0.030580 0.000000 1.544490 
# 
# From -- ./inp_files/97724.got.cif
#   From: 2010.05.17/outbox.cif.g08.bks.cpg/sg12_49_cif.got.tgz:97724.got - 2010.06.03 13:09:07.
