data_PCOD9172025
_publ_section_title
;
Structure prediction by ZEFSAII (Michael W. Deem and Ramdas Pophale) SiO2 
 PCOD9172025
Probable space group: C 2/M
;
_chemical_formula_sum "Si O2"
_cell_formula_units_Z 50
_cell_length_a 8.647772
_cell_length_b 17.678874
_cell_length_c 20.426014
_cell_angle_alpha 90.000000
_cell_angle_beta 42.768289
_cell_angle_gamma 90.000000
_cell_volume 2120.482470
_symmetry_space_group_name_H-M "C 2/M"
_symmetry_group_IT_number 12
_symmetry_cell_setting 'monoclinic'
loop_
_space_group_symop_operation_xyz
x,y,z
-x,y,-z
-x,-y,-z
x,-y,z
1/2+x,1/2+y,z
1/2-x,1/2+y,-z
1/2-x,1/2-y,-z
1/2+x,1/2-y,z
loop_
_atom_site_type_symbol
_atom_site_label
_atom_site_fract_x
_atom_site_fract_y
_atom_site_fract_z
Si Si1 0.000000 0.000000 0.000000
Si Si2 0.474220 0.417385 0.792828
Si Si3 0.106377 0.357590 0.402999
Si Si4 0.696281 0.860418 0.106514
Si Si5 0.052442 0.779352 0.857353
Si Si6 0.515238 0.270206 0.637924
Si Si7 0.721341 0.585399 0.293924
O O1 0.812676 0.066348 0.041299
O O2 0.434252 0.500000 0.836293
O O3 0.741732 0.410583 0.689496
O O4 0.432579 0.344308 0.850475
O O5 0.342213 0.414436 0.764538
O O6 0.287021 0.295589 0.374710
O O7 0.928360 0.304320 0.421048
O O8 0.000000 0.395671 0.500000
O O9 0.867485 0.817550 0.101494
O O10 0.592501 0.796731 0.091900
O O11 0.484152 0.891021 0.216301
O O12 0.287138 0.755071 0.747989
O O13 0.435150 0.348308 0.628223
O O14 0.682144 0.500000 0.329851
#
# Coordination Sequence:
#
# PCOD9172025 Si02
#       7
#     2   8   8   8   8   8   8
#     4  12  28  40  60  94 126 148 178 222 288 364
#     4   9  19  33  56  88 110 142 199 245 280 329
#     4  10  18  29  45  71 110 149 180 233 293 341
#     4  11  22  40  62  88 117 151 184 229 286 339
#     4  10  20  37  64  83 110 149 198 241 272 322
#     4   9  17  30  49  76  98 139 199 234 271 332
#     4   9  16  32  56  78 106 141 186 243 282 321
#
# _framework density 23.579540000000001
#
# number of rings (size 3 to 8) (size 9 to 14) (size 15 to 20)
#    0.000    2.240    0.800    5.280    1.120    0.960 
#    0.000    0.000    0.000    2.400    0.000    0.000 
#    0.000    0.000    0.000    0.000    0.000    0.000 
#
# Total GULP energy -139377.324447 kJ/mol
# GULP energy per Si atom -5575.092978 kJ/mol
# Density = 2.352587 g / cm^3
# Si number density = 23.579540 Si / 1000 Ang^3
#
#
#
# Elastic Constant Matrix: (Units=GPa)
#
#
# Indices 1 2 3 4 5 6 
#
# 1 44.0592 31.1417 4.8291 0.0061 -12.4299 -0.0029
# 2 31.1417 182.6381 28.2292 0.0086 -4.3951 -0.0056
# 3 4.8291 28.2292 48.4054 0.0088 -3.2909 -0.0061
# 4 0.0061 0.0086 0.0088 28.4428 -0.0008 -8.3948
# 5 -12.4299 -4.3951 -3.2909 -0.0008 22.8203 0.0011
# 6 -0.0029 -0.0056 -0.0061 -8.3948 0.0011 21.5826
#
#
#
# Elastic Compliance Matrix: (Units=1/GPa)
#
#
# Indices 1 2 3 4 5 6 
#
# 1 0.030579 -0.004976 0.000928 -0.000005 0.015831 0.000000
# 2 -0.004976 0.006837 -0.003621 0.000000 -0.001916 0.000000
# 3 0.000928 -0.003621 0.022890 -0.000005 0.003109 0.000004
# 4 -0.000005 0.000000 -0.000005 0.039718 -0.000003 0.015449
# 5 0.015831 -0.001916 0.003109 -0.000003 0.052523 -0.000001
# 6 0.000000 0.000000 0.000004 0.015449 -0.000001 0.052343
#
#
# Mechanical properties :
#
#
# Convention : Reuss Voigt Hill
#
# Bulk Modulus (GPa) = 22.23903 44.83361 33.53632
# Shear Modulus (GPa) = 21.25691 28.62934 24.94312
#
# Velocity S-wave (km/s) = 3.00575 3.48826 3.25596
# Velocity P-wave (km/s) = 4.63660 5.93961 5.32809
#
# Compressibility (1/GPa) = 0.04496598
#
# Stress axis : x y z
#
# Youngs Moduli (GPa) = 32.70246 146.25325 43.68810
#
# Poissons Ratio (x) = 0.72782 -0.04054
# Poissons Ratio (y) = 0.16274 0.15821
# Poissons Ratio (z) = -0.03034 0.52962
#
# Static dielectric constant tensor:
#      x y z
#    x 1.925810 0.000000 0.028560 
#    y 0.000000 1.873140 0.000000 
#    z 0.028560 0.000000 2.005880 
# 
# From -- ./inp_files/251743.got.cif
#   From: 2010.05.17/outbox.cif.g08.bks.cpg/sg12_126_cif.got.tgz:251743.got - 2010.06.03 13:09:07.
