data_PCOD9172844
_publ_section_title
;
Structure prediction by ZEFSAII (Michael W. Deem and Ramdas Pophale) SiO2 
 PCOD9172844
Probable space group: C 2/M
;
_chemical_formula_sum "Si O2"
_cell_formula_units_Z 64
_cell_length_a 30.776217
_cell_length_b 8.746901
_cell_length_c 15.571028
_cell_angle_alpha 90.000000
_cell_angle_beta 79.182781
_cell_angle_gamma 90.000000
_cell_volume 4117.184429
_symmetry_space_group_name_H-M "C 2/M"
_symmetry_group_IT_number 12
_symmetry_cell_setting 'monoclinic'
loop_
_space_group_symop_operation_xyz
x,y,z
-x,y,-z
-x,-y,-z
x,-y,z
1/2+x,1/2+y,z
1/2-x,1/2+y,-z
1/2-x,1/2-y,-z
1/2+x,1/2-y,z
loop_
_atom_site_type_symbol
_atom_site_label
_atom_site_fract_x
_atom_site_fract_y
_atom_site_fract_z
Si Si1 0.563352 0.814350 0.414783
Si Si2 0.872784 0.684455 0.756605
Si Si3 0.962237 0.183039 0.207714
Si Si4 0.711798 0.682451 0.129464
Si Si5 0.695857 0.683945 0.936972
Si Si6 0.596993 0.684736 0.931758
Si Si7 0.964970 0.684727 0.389869
Si Si8 0.442710 0.183368 0.879455
O O1 0.603536 0.763320 0.340013
O O2 0.561688 0.766898 0.514848
O O3 0.516316 0.772264 0.389185
O O4 0.563833 0.000000 0.414855
O O5 0.869949 0.500000 0.756623
O O6 0.824852 0.751847 0.793276
O O7 0.905783 0.727400 0.822476
O O8 0.927366 0.228292 0.147035
O O9 0.950078 0.243872 0.306301
O O10 0.010059 0.249768 0.164881
O O11 0.964913 0.000000 0.208212
O O12 0.711812 0.500000 0.133185
O O13 0.761259 0.744642 0.123528
O O14 0.697944 0.728836 0.037062
O O15 0.699335 0.500000 0.931758
O O16 0.648496 0.730220 0.916881
O O17 0.595124 0.500000 0.940600
O O18 0.572093 0.755555 0.022578
O O19 0.963484 0.500000 0.384279
O O20 0.445534 0.000000 0.879260
#
# Coordination Sequence:
#
# PCOD9172844 Si02
#       8
#     8   8   8   8   8   8   8   8
#     4   8  15  29  50  70  92 123 157 195 237 281
#     4  10  18  30  48  71  96 126 158 188 232 285
#     4  11  22  33  47  67  97 132 163 196 236 279
#     4  10  19  30  48  71  94 120 153 194 239 280
#     4   9  18  33  49  65  90 124 159 193 231 280
#     4  10  21  36  49  65  94 132 165 194 235 281
#     4   9  16  31  51  69  91 122 161 200 235 274
#     4  11  21  32  48  69  95 128 168 202 226 265
#
# _framework density 15.544604
#
# number of rings (size 3 to 8) (size 9 to 14) (size 15 to 20)
#    0.000    2.250    2.500    2.250    0.000    4.000 
#    0.000    1.875    0.000    0.000    0.000    0.875 
#    0.000    0.000    0.000    0.000    0.000    0.000 
#
# Total GULP energy -178481.245887 kJ/mol
# GULP energy per Si atom -5577.538934 kJ/mol
# Density = 1.550922 g / cm^3
# Si number density = 15.544604 Si / 1000 Ang^3
#
#
#
# Elastic Constant Matrix: (Units=GPa)
#
#
# Indices 1 2 3 4 5 6 
#
# 1 76.7692 20.6613 65.0584 0.0000 -9.7647 0.0000
# 2 20.6613 14.2514 29.0103 0.0000 -1.1432 0.0000
# 3 65.0584 29.0103 139.7205 0.0000 -12.4238 0.0000
# 4 0.0000 0.0000 0.0000 14.8307 0.0000 -1.0066
# 5 -9.7647 -1.1432 -12.4238 0.0000 25.4097 0.0000
# 6 0.0000 0.0000 0.0000 -1.0066 0.0000 21.0984
#
#
#
# Elastic Compliance Matrix: (Units=1/GPa)
#
#
# Indices 1 2 3 4 5 6 
#
# 1 0.025562 -0.023193 -0.006593 0.000000 0.005556 0.000000
# 2 -0.023193 0.143846 -0.020161 0.000000 -0.012299 0.000000
# 3 -0.006593 -0.020161 0.014748 0.000000 0.003770 0.000000
# 4 0.000000 0.000000 0.000000 0.067647 0.000000 0.003227
# 5 0.005556 -0.012299 0.003770 0.000000 0.042780 0.000000
# 6 0.000000 0.000000 0.000000 0.003227 0.000000 0.047551
#
#
# Mechanical properties :
#
#
# Convention : Reuss Voigt Hill
#
# Bulk Modulus (GPa) = 11.86761 51.13345 31.50053
# Shear Modulus (GPa) = 10.63567 20.00185 15.31876
#
# Velocity S-wave (km/s) = 2.61857 3.59101 3.14263
# Velocity P-wave (km/s) = 4.09800 7.08236 5.78591
#
# Compressibility (1/GPa) = 0.08426300
#
# Stress axis : x y z
#
# Youngs Moduli (GPa) = 39.12071 6.95186 67.80406
#
# Poissons Ratio (x) = 0.16123 0.44702
# Poissons Ratio (y) = 0.90731 1.36702
# Poissons Ratio (z) = 0.25792 0.14016
#
# Static dielectric constant tensor:
#      x y z
#    x 1.501970 0.000000 -0.002370 
#    y 0.000000 1.522450 0.000000 
#    z -0.002370 0.000000 1.516840 
# 
# From -- ./inp_files/243994.got.cif
#   From: 2010.05.17/outbox.cif.g08.bks.cpg/sg12_122_cif.got.tgz:243994.got - 2010.06.03 13:09:07.
