data_PCOD9172691
_publ_section_title
;
Structure prediction by ZEFSAII (Michael W. Deem and Ramdas Pophale) SiO2 
 PCOD9172691
Probable space group: C 2/M
;
_chemical_formula_sum "Si O2"
_cell_formula_units_Z 64
_cell_length_a 29.541789
_cell_length_b 8.536526
_cell_length_c 16.043042
_cell_angle_alpha 90.000000
_cell_angle_beta 89.999962
_cell_angle_gamma 90.000000
_cell_volume 4045.802513
_symmetry_space_group_name_H-M "C 2/M"
_symmetry_group_IT_number 12
_symmetry_cell_setting 'monoclinic'
loop_
_space_group_symop_operation_xyz
x,y,z
-x,y,-z
-x,-y,-z
x,-y,z
1/2+x,1/2+y,z
1/2-x,1/2+y,-z
1/2-x,1/2-y,-z
1/2+x,1/2-y,z
loop_
_atom_site_type_symbol
_atom_site_label
_atom_site_fract_x
_atom_site_fract_y
_atom_site_fract_z
Si Si1 0.698638 0.686363 0.675073
Si Si2 0.801362 0.186363 0.675072
Si Si3 0.144958 0.309945 0.166466
Si Si4 0.550462 0.809296 0.096948
Si Si5 0.800894 0.311277 1.000000
Si Si6 0.801501 0.313367 0.500000
Si Si7 0.355042 0.809945 0.166466
Si Si8 0.449538 0.809296 0.096948
O O1 0.701081 0.500000 0.670756
O O2 0.750000 0.750000 0.685868
O O3 0.679442 0.751209 0.587344
O O4 0.668524 0.740905 0.752364
O O5 0.831476 0.240905 0.752364
O O6 0.820558 0.251209 0.587344
O O7 0.798919 0.000000 0.670756
O O8 0.146207 0.500000 0.171601
O O9 0.092997 0.259427 0.151996
O O10 0.172721 0.262735 0.083556
O O11 0.500000 0.757743 0.122324
O O12 0.550500 0.000000 0.097643
O O13 0.557596 0.764127 1.000000
O O14 0.800198 0.500000 1.000000
O O15 0.827279 0.262735 0.083556
O O16 0.750000 0.250000 0.000000
O O17 0.750000 0.250000 0.500000
O O18 0.301254 0.000000 0.500000
O O19 0.407003 0.759427 0.151996
O O20 0.353793 0.000000 0.171600
O O21 0.449500 0.000000 0.097643
#
# Coordination Sequence:
#
# PCOD9172691 Si02
#       8
#     8   8   8   8   8   8   8   8
#     4  11  21  33  48  69  96 127 160 195 234 280
#     4  11  21  33  48  69  96 127 160 195 234 280
#     4  10  18  30  46  68  95 125 161 198 236 279
#     4   8  13  24  45  70  93 119 155 201 245 280
#     4  10  20  30  41  59  89 127 162 196 229 268
#     4  10  18  32  52  72  93 120 153 194 238 279
#     4  10  18  30  46  68  95 125 161 198 236 279
#     4   8  13  24  45  70  93 119 155 201 245 280
#
# _framework density 15.818864
#
# number of rings (size 3 to 8) (size 9 to 14) (size 15 to 20)
#    0.000    2.250    1.250    6.375    0.000    3.000 
#    0.000    0.000    0.000    0.750    0.000    2.625 
#    0.000    7.000    0.000    0.000    0.000    0.000 
#
# Total GULP energy -178426.066593 kJ/mol
# GULP energy per Si atom -5575.814581 kJ/mol
# Density = 1.578286 g / cm^3
# Si number density = 15.818864 Si / 1000 Ang^3
#
#
#
# Elastic Constant Matrix: (Units=GPa)
#
#
# Indices 1 2 3 4 5 6 
#
# 1 121.5746 32.7639 77.9413 0.0000 0.0002 0.0000
# 2 32.7639 66.0048 46.4371 0.0000 0.0001 0.0000
# 3 77.9413 46.4371 155.3840 0.0000 0.0003 0.0000
# 4 0.0000 0.0000 0.0000 22.9426 0.0000 0.0000
# 5 0.0002 0.0001 0.0003 0.0000 7.2539 0.0000
# 6 0.0000 0.0000 0.0000 0.0000 0.0000 13.4485
#
#
#
# Elastic Compliance Matrix: (Units=1/GPa)
#
#
# Indices 1 2 3 4 5 6 
#
# 1 0.012383 -0.002250 -0.005539 0.000000 0.000000 0.000000
# 2 -0.002250 0.019593 -0.004727 0.000000 0.000000 0.000000
# 3 -0.005539 -0.004727 0.010627 0.000000 0.000000 0.000000
# 4 0.000000 0.000000 0.000000 0.043587 0.000000 0.000000
# 5 0.000000 0.000000 0.000000 0.000000 0.137857 0.000000
# 6 0.000000 0.000000 0.000000 0.000000 0.000000 0.074358
#
#
# Mechanical properties :
#
#
# Convention : Reuss Voigt Hill
#
# Bulk Modulus (GPa) = 56.91186 73.02754 64.96970
# Shear Modulus (GPa) = 15.18411 21.11707 18.15059
#
# Velocity S-wave (km/s) = 3.10154 3.65763 3.39101
# Velocity P-wave (km/s) = 6.99152 8.00642 7.51612
#
# Compressibility (1/GPa) = 0.01757103
#
# Stress axis : x y z
#
# Youngs Moduli (GPa) = 80.75814 51.03937 94.10338
#
# Poissons Ratio (x) = 0.11483 0.52122
# Poissons Ratio (y) = 0.18169 0.44481
# Poissons Ratio (z) = 0.44731 0.24126
#
# Static dielectric constant tensor:
#      x y z
#    x 1.523640 0.000000 0.000000 
#    y 0.000000 1.548960 0.000000 
#    z 0.000000 0.000000 1.530850 
# 
# From -- ./inp_files/248354.got.cif
#   From: 2010.05.17/outbox.cif.g08.bks.cpg/sg12_125_cif.got.tgz:248354.got - 2010.06.03 13:09:07.
