data_PCOD9172262
_publ_section_title
;
Structure prediction by ZEFSAII (Michael W. Deem and Ramdas Pophale) SiO2 
 PCOD9172262
Probable space group: C 2/M
;
_chemical_formula_sum "Si O2"
_cell_formula_units_Z 64
_cell_length_a 9.992632
_cell_length_b 22.204134
_cell_length_c 14.845920
_cell_angle_alpha 90.000000
_cell_angle_beta 52.240501
_cell_angle_gamma 90.000000
_cell_volume 2604.180621
_symmetry_space_group_name_H-M "C 2/M"
_symmetry_group_IT_number 12
_symmetry_cell_setting 'monoclinic'
loop_
_space_group_symop_operation_xyz
x,y,z
-x,y,-z
-x,-y,-z
x,-y,z
1/2+x,1/2+y,z
1/2-x,1/2+y,-z
1/2-x,1/2-y,-z
1/2+x,1/2-y,z
loop_
_atom_site_type_symbol
_atom_site_label
_atom_site_fract_x
_atom_site_fract_y
_atom_site_fract_z
Si Si1 0.547253 0.931360 0.824820
Si Si2 0.946304 0.934227 0.628074
Si Si3 0.258108 0.721040 0.130024
Si Si4 0.964443 0.885823 0.119783
Si Si5 0.917649 0.819328 0.443003
Si Si6 0.021486 0.309177 0.633616
Si Si7 0.703098 0.154966 0.968557
Si Si8 0.616842 0.934198 0.307585
O O1 0.745664 0.920088 0.722317
O O2 0.454749 0.884194 0.929438
O O3 0.455555 0.930481 0.765214
O O4 0.531783 0.000000 0.866232
O O5 0.000000 0.943314 0.500000
O O6 0.047619 0.878225 0.630473
O O7 0.978807 0.000000 0.656438
O O8 0.374552 0.681351 0.149421
O O9 0.273908 0.691747 0.026034
O O10 0.065807 0.703006 0.234504
O O11 0.305878 0.791404 0.101973
O O12 0.817210 0.927879 0.217455
O O13 0.000000 0.902641 0.000000
O O14 0.134172 0.887993 0.109139
O O15 0.016448 0.757128 0.388206
O O16 0.720957 0.812006 0.541296
O O17 0.000000 0.839279 0.500000
O O18 0.949898 0.371252 0.623479
O O19 0.565838 0.000000 0.364725
#
# Coordination Sequence:
#
# PCOD9172262 Si02
#       8
#     8   8   8   8   8   8   8   8
#     4  10  18  30  48  75 105 136 175 219 260 309
#     4   9  18  32  52  79 102 128 173 217 268 320
#     4   9  19  32  49  72 108 135 173 211 249 302
#     4   9  16  30  43  71 101 130 174 210 241 311
#     4  10  21  34  57  78 104 141 164 216 276 306
#     4  10  20  36  50  82 109 129 181 214 255 325
#     4  10  18  32  49  72 104 145 167 205 261 300
#     4  10  18  29  48  71 104 138 166 216 262 295
#
# _framework density 24.575868
#
# number of rings (size 3 to 8) (size 9 to 14) (size 15 to 20)
#    0.000    2.375    3.750    1.500    0.000    4.250 
#   11.250    0.000    0.000    1.125    0.000    3.500 
#    0.000    0.000    0.000    0.000    0.000    0.000 
#
# Total GULP energy -178180.416007 kJ/mol
# GULP energy per Si atom -5568.138000 kJ/mol
# Density = 2.451993 g / cm^3
# Si number density = 24.575868 Si / 1000 Ang^3
#
#
#
# Elastic Constant Matrix: (Units=GPa)
#
#
# Indices 1 2 3 4 5 6 
#
# 1 18.0787 14.1256 28.9286 0.0000 -5.0725 0.0000
# 2 14.1256 211.4679 59.2564 0.0000 -19.7681 0.0000
# 3 28.9286 59.2564 89.4109 0.0000 -17.8879 0.0000
# 4 0.0000 0.0000 0.0000 32.3040 0.0000 -9.0898
# 5 -5.0725 -19.7681 -17.8879 0.0000 24.4780 0.0000
# 6 0.0000 0.0000 0.0000 -9.0898 0.0000 13.2580
#
#
#
# Elastic Compliance Matrix: (Units=1/GPa)
#
#
# Indices 1 2 3 4 5 6 
#
# 1 0.116827 0.003298 -0.040534 0.000000 -0.002749 0.000000
# 2 0.003298 0.006003 -0.004613 0.000000 0.002160 0.000000
# 3 -0.040534 -0.004613 0.029200 0.000000 0.009213 0.000000
# 4 0.000000 0.000000 0.000000 0.038355 0.000000 0.026297
# 5 -0.002749 0.002160 0.009213 0.000000 0.048760 0.000000
# 6 0.000000 0.000000 0.000000 0.026297 0.000000 0.093455
#
#
# Mechanical properties :
#
#
# Convention : Reuss Voigt Hill
#
# Bulk Modulus (GPa) = 14.63490 58.17545 36.40517
# Shear Modulus (GPa) = 11.38749 28.45114 19.91932
#
# Velocity S-wave (km/s) = 2.15492 3.40617 2.85006
# Velocity P-wave (km/s) = 3.48704 6.26039 5.06715
#
# Compressibility (1/GPa) = 0.06832981
#
# Stress axis : x y z
#
# Youngs Moduli (GPa) = 8.55964 166.57672 34.24687
#
# Poissons Ratio (x) = -0.54930 1.38818
# Poissons Ratio (y) = -0.02823 0.15799
# Poissons Ratio (z) = 0.34696 0.76848
#
# Static dielectric constant tensor:
#      x y z
#    x 1.980260 0.000000 0.039210 
#    y 0.000000 2.234670 0.000000 
#    z 0.039210 0.000000 2.188300 
# 
# From -- ./inp_files/306787.got.cif
#   From: 2010.05.17/outbox.cif.g08.bks.cpg/sg12_154_cif.got.tgz:306787.got - 2010.06.03 13:09:07.
