data_PCOD9172378
_publ_section_title
;
Structure prediction by ZEFSAII (Michael W. Deem and Ramdas Pophale) SiO2 
 PCOD9172378
Probable space group: C 2/M
;
_chemical_formula_sum "Si O2"
_cell_formula_units_Z 64
_cell_length_a 25.688341
_cell_length_b 7.634514
_cell_length_c 28.597677
_cell_angle_alpha 90.000000
_cell_angle_beta 140.991002
_cell_angle_gamma 90.000000
_cell_volume 3530.239947
_symmetry_space_group_name_H-M "C 2/M"
_symmetry_group_IT_number 12
_symmetry_cell_setting 'monoclinic'
loop_
_space_group_symop_operation_xyz
x,y,z
-x,y,-z
-x,-y,-z
x,-y,z
1/2+x,1/2+y,z
1/2-x,1/2+y,-z
1/2-x,1/2-y,-z
1/2+x,1/2-y,z
loop_
_atom_site_type_symbol
_atom_site_label
_atom_site_fract_x
_atom_site_fract_y
_atom_site_fract_z
Si Si1 0.356203 0.797121 0.196800
Si Si2 0.303777 0.214086 0.332505
Si Si3 0.135041 0.793733 0.171838
Si Si4 0.342132 0.210916 0.082438
Si Si5 0.435962 0.784845 0.345229
Si Si6 0.069066 0.705384 0.506947
Si Si7 0.326434 0.202817 0.905722
Si Si8 0.451457 0.788139 0.072797
O O1 0.356268 0.719800 0.144747
O O2 0.413356 0.721425 0.277773
O O3 0.261976 0.792866 0.149669
O O4 0.381048 0.000000 0.209445
O O5 0.210907 0.271482 0.256750
O O6 0.361782 0.263551 0.328990
O O7 0.348689 0.278427 0.411158
O O8 0.305281 0.000000 0.335709
O O9 0.141312 0.713891 0.124530
O O10 0.045638 0.766120 0.131549
O O11 0.148492 0.000000 0.174372
O O12 0.408083 0.273320 0.090171
O O13 0.348015 0.000000 0.088419
O O14 0.250000 0.250000 0.000000
O O15 0.521695 0.723092 0.428532
O O16 0.437203 0.000000 0.345812
O O17 0.084643 0.500000 0.508245
O O18 0.000000 0.712585 0.500000
O O19 0.311567 0.000000 0.907260
O O20 0.394560 0.271949 0.989611
O O21 0.450452 0.000000 0.071759
#
# Coordination Sequence:
#
# PCOD9172378 Si02
#       8
#     8   8   8   8   8   8   8   8
#     4  10  18  29  49  73  93 116 152 195 229 261
#     4   8  13  22  37  62  93 118 142 178 222 267
#     4  11  21  32  48  70  93 118 155 196 227 263
#     4  10  20  34  51  68  90 119 153 194 233 269
#     4   8  12  21  38  64  94 116 140 180 225 267
#     4   7  10  17  33  58  90 121 139 165 221 274
#     4  11  21  33  48  65  92 126 154 183 228 280
#     4  10  22  37  47  62  90 124 158 189 226 275
#
# _framework density 18.129079999999998
#
# number of rings (size 3 to 8) (size 9 to 14) (size 15 to 20)
#    0.000    2.625    2.500    2.625    0.000    3.000 
#    0.000    0.000    0.000    0.000    0.000    3.500 
#    0.000    0.000    0.000    0.000    0.000    0.000 
#
# Total GULP energy -178376.718627 kJ/mol
# GULP energy per Si atom -5574.272457 kJ/mol
# Density = 1.808782 g / cm^3
# Si number density = 18.129080 Si / 1000 Ang^3
#
#
#
# Elastic Constant Matrix: (Units=GPa)
#
#
# Indices 1 2 3 4 5 6 
#
# 1 90.2113 -4.5246 75.3160 0.0050 -6.3321 0.0035
# 2 -4.5246 37.0158 4.9864 0.0268 -1.8203 0.0193
# 3 75.3160 4.9864 204.4238 -0.0006 -19.8259 -0.0004
# 4 0.0050 0.0268 -0.0006 386.8498 -0.0005 249.4789
# 5 -6.3321 -1.8203 -19.8259 -0.0005 15.9822 -0.0002
# 6 0.0035 0.0193 -0.0004 249.4789 -0.0002 172.5124
#
#
#
# Elastic Compliance Matrix: (Units=1/GPa)
#
#
# Indices 1 2 3 4 5 6 
#
# 1 0.016306 0.002780 -0.006159 0.000000 -0.000863 -0.000001
# 2 0.002780 0.027672 -0.001463 0.000001 0.002439 -0.000005
# 3 -0.006159 -0.001463 0.007894 0.000000 0.007185 0.000000
# 4 0.000000 0.000001 0.000000 0.038365 0.000001 -0.055481
# 5 -0.000863 0.002439 0.007185 0.000001 0.071418 -0.000001
# 6 -0.000001 -0.000005 0.000000 -0.055481 -0.000001 0.086031
#
#
# Mechanical properties :
#
#
# Convention : Reuss Voigt Hill
#
# Bulk Modulus (GPa) = 23.70302 53.68961 38.69631
# Shear Modulus (GPa) = 18.42083 132.12709 75.27396
#
# Velocity S-wave (km/s) = 3.19108 8.54632 6.45068
# Velocity P-wave (km/s) = 5.16530 11.27233 8.76772
#
# Compressibility (1/GPa) = 0.04218872
#
# Stress axis : x y z
#
# Youngs Moduli (GPa) = 61.32633 36.13716 126.68507
#
# Poissons Ratio (x) = -0.10048 0.78029
# Poissons Ratio (y) = -0.17052 0.18533
# Poissons Ratio (z) = 0.37773 0.05286
#
# Static dielectric constant tensor:
#      x y z
#    x 1.578550 0.000000 -0.018200 
#    y 0.000000 1.714220 0.000000 
#    z -0.018200 0.000000 1.672130 
# 
# From -- ./inp_files/346235.got.cif
#   From: 2010.05.17/outbox.cif.g08.bks.cpg/sg12_174_cif.got.tgz:346235.got - 2010.06.03 13:09:07.
