data_PCOD9172441
_publ_section_title
;
Structure prediction by ZEFSAII (Michael W. Deem and Ramdas Pophale) SiO2 
 PCOD9172441
Probable space group: C 2/M
;
_chemical_formula_sum "Si O2"
_cell_formula_units_Z 48
_cell_length_a 8.887254
_cell_length_b 26.896797
_cell_length_c 13.186222
_cell_angle_alpha 90.000000
_cell_angle_beta 55.897715
_cell_angle_gamma 90.000000
_cell_volume 2609.989713
_symmetry_space_group_name_H-M "C 2/M"
_symmetry_group_IT_number 12
_symmetry_cell_setting 'monoclinic'
loop_
_space_group_symop_operation_xyz
x,y,z
-x,y,-z
-x,-y,-z
x,-y,z
1/2+x,1/2+y,z
1/2-x,1/2+y,-z
1/2-x,1/2-y,-z
1/2+x,1/2-y,z
loop_
_atom_site_type_symbol
_atom_site_label
_atom_site_fract_x
_atom_site_fract_y
_atom_site_fract_z
Si Si1 0.196143 0.122828 0.885967
Si Si2 0.455050 0.058726 0.284183
Si Si3 0.367590 0.441720 0.451848
Si Si4 0.989458 0.868246 0.772993
Si Si5 0.311246 0.058755 0.124474
Si Si6 0.798536 0.303309 0.028848
O O1 0.350810 0.083608 0.800975
O O2 0.139488 0.146331 0.799162
O O3 0.273773 0.159946 0.941587
O O4 0.000000 0.104283 0.000000
O O5 0.336017 0.066956 0.429193
O O6 0.333761 0.074135 0.232876
O O7 0.479762 0.000000 0.264216
O O8 0.500000 0.441167 0.500000
O O9 0.379567 0.500000 0.407761
O O10 0.421227 0.396609 0.356691
O O11 0.855973 0.912948 0.859393
O O12 0.845768 0.822487 0.830789
O O13 0.286274 0.000000 0.127050
O O14 0.500000 0.071602 0.000000
O O15 0.750000 0.250000 0.000000
O O16 0.000000 0.304158 0.000000
#
# Coordination Sequence:
#
# PCOD9172441 Si02
#       6
#     8   8   8   8   8   8
#     4  10  22  37  56  88 121 153 199 254 312 366
#     4  10  20  34  52  80 120 166 211 249 295 356
#     4  10  20  35  57  85 124 173 219 251 284 349
#     4  11  20  34  57  85 118 157 201 245 299 357
#     4  10  18  29  49  78 113 154 199 246 296 351
#     4  11  23  42  67  92 116 146 190 252 319 378
#
# _framework density 18.390875000000001
#
# number of rings (size 3 to 8) (size 9 to 14) (size 15 to 20)
#    0.000    1.667    1.667    5.500    0.000    2.333 
#    0.000    4.167    0.000    1.000    0.000    0.000 
#    0.000    0.000    0.000    0.000    0.000    0.000 
#
# Total GULP energy -133617.633084 kJ/mol
# GULP energy per Si atom -5567.401379 kJ/mol
# Density = 1.834902 g / cm^3
# Si number density = 18.390875 Si / 1000 Ang^3
#
#
#
# Elastic Constant Matrix: (Units=GPa)
#
#
# Indices 1 2 3 4 5 6 
#
# 1 124.9664 42.4090 41.8061 0.0000 -5.7919 0.0000
# 2 42.4090 74.0965 57.9673 0.0000 -11.3635 0.0000
# 3 41.8061 57.9673 102.4409 0.0000 -13.8590 0.0000
# 4 0.0000 0.0000 0.0000 25.8413 0.0000 6.4730
# 5 -5.7919 -11.3635 -13.8590 0.0000 26.3359 0.0000
# 6 0.0000 0.0000 0.0000 6.4730 0.0000 29.0435
#
#
#
# Elastic Compliance Matrix: (Units=1/GPa)
#
#
# Indices 1 2 3 4 5 6 
#
# 1 0.010070 -0.004625 -0.001575 0.000000 -0.000610 0.000000
# 2 -0.004625 0.026641 -0.012672 0.000000 0.003809 0.000000
# 3 -0.001575 -0.012672 0.018076 0.000000 0.003698 0.000000
# 4 0.000000 0.000000 0.000000 0.040986 0.000000 -0.009135
# 5 -0.000610 0.003809 0.003698 0.000000 0.041427 0.000000
# 6 0.000000 0.000000 0.000000 -0.009135 0.000000 0.036467
#
#
# Mechanical properties :
#
#
# Convention : Reuss Voigt Hill
#
# Bulk Modulus (GPa) = 58.67814 65.09652 61.88733
# Shear Modulus (GPa) = 23.03170 26.86555 24.94863
#
# Velocity S-wave (km/s) = 3.54269 3.82620 3.68717
# Velocity P-wave (km/s) = 6.97922 7.41570 7.20077
#
# Compressibility (1/GPa) = 0.01704212
#
# Stress axis : x y z
#
# Youngs Moduli (GPa) = 99.30103 37.53602 55.32337
#
# Poissons Ratio (x) = 0.17361 0.08714
# Poissons Ratio (y) = 0.45927 0.70107
# Poissons Ratio (z) = 0.15641 0.47567
#
# Static dielectric constant tensor:
#      x y z
#    x 1.686920 0.000000 0.015180 
#    y 0.000000 1.638220 0.000000 
#    z 0.015180 0.000000 1.712390 
# 
# From -- ./inp_files/123501.got.cif
#   From: 2010.05.17/outbox.cif.g08.bks.cpg/sg12_62_cif.got.tgz:123501.got - 2010.06.03 13:09:07.
