data_PCOD9172734
_publ_section_title
;
Structure prediction by ZEFSAII (Michael W. Deem and Ramdas Pophale) SiO2 
 PCOD9172734
Probable space group: C 2/M
;
_chemical_formula_sum "Si O2"
_cell_formula_units_Z 56
_cell_length_a 20.246750
_cell_length_b 13.575913
_cell_length_c 25.869199
_cell_angle_alpha 90.000000
_cell_angle_beta 20.575503
_cell_angle_gamma 90.000000
_cell_volume 2498.965553
_symmetry_space_group_name_H-M "C 2/M"
_symmetry_group_IT_number 12
_symmetry_cell_setting 'monoclinic'
loop_
_space_group_symop_operation_xyz
x,y,z
-x,y,-z
-x,-y,-z
x,-y,z
1/2+x,1/2+y,z
1/2-x,1/2+y,-z
1/2-x,1/2-y,-z
1/2+x,1/2-y,z
loop_
_atom_site_type_symbol
_atom_site_label
_atom_site_fract_x
_atom_site_fract_y
_atom_site_fract_z
Si Si1 0.759368 0.327607 0.075138
Si Si2 0.717209 0.174708 0.352366
Si Si3 0.682034 0.365370 0.497086
Si Si4 0.893931 0.391474 0.243813
Si Si5 0.955480 0.806081 0.087672
Si Si6 0.256238 0.393135 0.796169
Si Si7 0.676609 0.346600 0.615871
O O1 0.760357 0.384415 0.129394
O O2 0.543947 0.319638 0.216697
O O3 0.896215 0.375085 0.932039
O O4 0.855579 0.224751 0.020680
O O5 0.500000 0.173650 0.500000
O O6 0.784385 0.290313 0.309122
O O7 0.827485 0.137002 0.221541
O O8 0.764003 0.118311 0.371107
O O9 0.853103 0.395338 0.335026
O O10 0.479358 0.391217 0.621897
O O11 0.691004 0.398708 0.549880
O O12 0.690232 0.247415 0.490729
O O13 0.828536 0.500000 0.272729
O O14 0.847726 0.701688 0.151798
O O15 0.000000 0.852915 0.000000
O O16 0.181197 0.500000 0.835100
#
# Coordination Sequence:
#
# PCOD9172734 Si02
#       7
#     8   8   8   8   8   8   8
#     4   9  19  31  45  64  92 134 167 191 229 269
#     4  10  20  32  47  67  95 132 162 194 235 273
#     4   9  18  30  48  66  87 126 166 200 233 264
#     4  10  19  30  46  73 103 125 153 189 229 284
#     4   9  18  28  41  65  93 125 164 188 217 268
#     4  10  18  30  47  69 101 134 159 185 225 280
#     4   9  18  34  47  61  88 125 170 204 229 270
#
# _framework density 22.409272999999999
#
# number of rings (size 3 to 8) (size 9 to 14) (size 15 to 20)
#    0.000    2.571    0.000    2.571    0.000   11.429 
#    0.000    0.000    0.000    0.000    0.000    0.000 
#    0.000   21.714    0.000    7.286    0.000   21.000 
#
# Total GULP energy -156018.240184 kJ/mol
# GULP energy per Si atom -5572.080007 kJ/mol
# Density = 2.235827 g / cm^3
# Si number density = 22.409273 Si / 1000 Ang^3
#
#
#
# Elastic Constant Matrix: (Units=GPa)
#
#
# Indices 1 2 3 4 5 6 
#
# 1 133.1060 -2.1422 75.1139 -0.0073 21.7736 -0.0029
# 2 -2.1422 36.8232 1.1842 -0.0424 -5.0363 0.0139
# 3 75.1139 1.1842 140.4157 -0.0203 23.2454 0.0151
# 4 -0.0073 -0.0424 -0.0203 2.1563 0.0161 -4.7377
# 5 21.7736 -5.0363 23.2454 0.0161 54.4866 0.0052
# 6 -0.0029 0.0139 0.0151 -4.7377 0.0052 -13.2730
#
#
#
# Elastic Compliance Matrix: (Units=1/GPa)
#
#
# Indices 1 2 3 4 5 6 
#
# 1 0.010976 0.000548 -0.005550 -0.000005 -0.001967 -0.000007
# 2 0.000548 0.027597 -0.000981 0.000324 0.002750 -0.000087
# 3 -0.005550 -0.000981 0.010488 0.000058 -0.002347 -0.000009
# 4 -0.000005 0.000324 0.000058 0.259920 -0.000061 -0.092777
# 5 -0.001967 0.002750 -0.002347 -0.000061 0.020395 0.000030
# 6 -0.000007 -0.000087 -0.000009 -0.092777 0.000030 -0.042225
#
#
# Mechanical properties :
#
#
# Convention : Reuss Voigt Hill
#
# Bulk Modulus (GPa) = 26.95916 50.96186 38.96051
# Shear Modulus (GPa) = 16.05235 24.41991 20.23613
#
# Velocity S-wave (km/s) = 2.67933 3.30468 3.00830
# Velocity P-wave (km/s) = 4.65062 6.11163 5.43048
#
# Compressibility (1/GPa) = 0.03709314
#
# Stress axis : x y z
#
# Youngs Moduli (GPa) = 91.11199 36.23613 95.35143
#
# Poissons Ratio (x) = -0.01985 0.52921
# Poissons Ratio (y) = -0.04992 0.09355
# Poissons Ratio (z) = 0.50568 0.03555
#
# Static dielectric constant tensor:
#      x y z
#    x 1.883290 0.000000 0.054660 
#    y 0.000000 1.890470 0.000020 
#    z 0.054660 0.000020 1.819720 
# 
# From -- ./inp_files/366719.got.cif
#   From: 2010.05.17/outbox.cif.g08.bks.cpg/sg12_184_cif.got.tgz:366719.got - 2010.06.03 13:09:07.
