data_PCOD9172223
_publ_section_title
;
Structure prediction by ZEFSAII (Michael W. Deem and Ramdas Pophale) SiO2 
 PCOD9172223
Probable space group: C 2/M
;
_chemical_formula_sum "Si O2"
_cell_formula_units_Z 48
_cell_length_a 11.177828
_cell_length_b 19.211809
_cell_length_c 9.533292
_cell_angle_alpha 90.000000
_cell_angle_beta 83.218812
_cell_angle_gamma 90.000000
_cell_volume 2032.917342
_symmetry_space_group_name_H-M "C 2/M"
_symmetry_group_IT_number 12
_symmetry_cell_setting 'monoclinic'
loop_
_space_group_symop_operation_xyz
x,y,z
-x,y,-z
-x,-y,-z
x,-y,z
1/2+x,1/2+y,z
1/2-x,1/2+y,-z
1/2-x,1/2-y,-z
1/2+x,1/2-y,z
loop_
_atom_site_type_symbol
_atom_site_label
_atom_site_fract_x
_atom_site_fract_y
_atom_site_fract_z
Si Si1 0.398919 0.172424 0.137047
Si Si2 0.890580 0.207376 0.626016
Si Si3 0.554794 0.076147 0.292230
Si Si4 0.414045 0.671508 0.194615
Si Si5 0.734065 0.580081 0.975718
Si Si6 0.223831 0.645435 0.447546
O O1 0.464394 0.137036 0.260598
O O2 0.360965 0.251493 0.171117
O O3 0.500000 0.176940 0.000000
O O4 0.295655 0.122838 0.091892
O O5 0.839665 0.284428 0.602973
O O6 0.781644 0.158026 0.590732
O O7 0.000000 0.201459 0.500000
O O8 0.952512 0.188833 0.765129
O O9 0.661658 0.079040 0.159736
O O10 0.625406 0.087618 0.428004
O O11 0.498872 0.000000 0.288706
O O12 0.378687 0.622278 0.071083
O O13 0.339620 0.636370 0.331548
O O14 0.705930 0.500000 0.014406
#
# Coordination Sequence:
#
# PCOD9172223 Si02
#       6
#     8   8   8   8   8   8
#     4  10  18  29  47  73  97 123 163 198 235 272
#     4   9  17  30  49  72  94 120 156 197 238 280
#     4   9  16  28  47  70  98 124 153 195 240 281
#     4  10  18  30  49  73  95 124 162 197 233 277
#     4   9  18  30  44  67  99 127 156 195 235 276
#     4   9  17  30  48  73  97 121 154 193 243 279
#
# _framework density 23.611388999999999
#
# number of rings (size 3 to 8) (size 9 to 14) (size 15 to 20)
#    0.000    2.667    1.667    1.000    0.000    2.000 
#    0.000    0.833    0.000    6.000    0.000    0.000 
#    0.000    0.000    0.000    0.000    0.000    0.000 
#
# Total GULP energy -134062.842061 kJ/mol
# GULP energy per Si atom -5585.951753 kJ/mol
# Density = 2.355765 g / cm^3
# Si number density = 23.611389 Si / 1000 Ang^3
#
#
#
# Elastic Constant Matrix: (Units=GPa)
#
#
# Indices 1 2 3 4 5 6 
#
# 1 96.8459 29.8815 31.8004 0.0000 20.4012 0.0000
# 2 29.8815 106.1813 25.6803 0.0000 23.1967 0.0000
# 3 31.8004 25.6803 83.6042 0.0000 35.1885 0.0000
# 4 0.0000 0.0000 0.0000 24.3755 0.0000 6.1831
# 5 20.4012 23.1967 35.1885 0.0000 53.4854 0.0000
# 6 0.0000 0.0000 0.0000 6.1831 0.0000 27.1197
#
#
#
# Elastic Compliance Matrix: (Units=1/GPa)
#
#
# Indices 1 2 3 4 5 6 
#
# 1 0.012485 -0.002365 -0.003388 0.000000 -0.001508 0.000000
# 2 -0.002365 0.011050 -0.001185 0.000000 -0.003110 0.000000
# 3 -0.003388 -0.001185 0.017776 0.000000 -0.009888 0.000000
# 4 0.000000 0.000000 0.000000 0.043543 0.000000 -0.009928
# 5 -0.001508 -0.003110 -0.009888 0.000000 0.027126 0.000000
# 6 0.000000 0.000000 0.000000 -0.009928 0.000000 0.039137
#
#
# Mechanical properties :
#
#
# Convention : Reuss Voigt Hill
#
# Bulk Modulus (GPa) = 36.45083 51.26175 43.85629
# Shear Modulus (GPa) = 28.71271 34.28074 31.49673
#
# Velocity S-wave (km/s) = 3.49098 3.81448 3.65631
# Velocity P-wave (km/s) = 5.63210 6.41546 6.03650
#
# Compressibility (1/GPa) = 0.02743422
#
# Stress axis : x y z
#
# Youngs Moduli (GPa) = 80.09310 90.50148 56.25570
#
# Poissons Ratio (x) = 0.21402 0.19060
# Poissons Ratio (y) = 0.18941 0.06669
# Poissons Ratio (z) = 0.27136 0.10728
#
# Static dielectric constant tensor:
#      x y z
#    x 1.933160 0.000000 -0.039890 
#    y 0.000000 1.834610 0.000000 
#    z -0.039890 0.000000 1.930740 
# 
# From -- ./inp_files/131149.got.cif
#   From: 2010.05.17/outbox.cif.g08.bks.cpg/sg12_66_cif.got.tgz:131149.got - 2010.06.03 13:09:07.
