data_PCOD9172724
_publ_section_title
;
Structure prediction by ZEFSAII (Michael W. Deem and Ramdas Pophale) SiO2 
 PCOD9172724
Probable space group: C 2/M
;
_chemical_formula_sum "Si O2"
_cell_formula_units_Z 56
_cell_length_a 24.664137
_cell_length_b 7.537587
_cell_length_c 15.449970
_cell_angle_alpha 90.000000
_cell_angle_beta 118.137228
_cell_angle_gamma 90.000000
_cell_volume 2532.830702
_symmetry_space_group_name_H-M "C 2/M"
_symmetry_group_IT_number 12
_symmetry_cell_setting 'monoclinic'
loop_
_space_group_symop_operation_xyz
x,y,z
-x,y,-z
-x,-y,-z
x,-y,z
1/2+x,1/2+y,z
1/2-x,1/2+y,-z
1/2-x,1/2-y,-z
1/2+x,1/2-y,z
loop_
_atom_site_type_symbol
_atom_site_label
_atom_site_fract_x
_atom_site_fract_y
_atom_site_fract_z
Si Si1 0.072330 0.717742 0.810409
Si Si2 0.438280 0.213873 0.000384
Si Si3 0.623881 0.294671 0.213266
Si Si4 0.813997 0.712718 0.497547
Si Si5 0.559024 0.797623 0.326728
Si Si6 0.788714 0.712917 0.116987
Si Si7 0.255866 0.782820 0.283157
O O1 0.070975 0.500000 0.807143
O O2 0.067471 0.774761 0.906602
O O3 0.140167 0.773778 0.832645
O O4 0.009694 0.779175 0.715829
O O5 0.437668 0.000000 0.000201
O O6 0.500000 0.276008 0.000000
O O7 0.386168 0.277598 0.896393
O O8 0.620286 0.500000 0.234662
O O9 0.573806 0.199282 0.234633
O O10 0.691892 0.222705 0.277671
O O11 0.818640 0.500000 0.502767
O O12 0.750000 0.750000 0.500000
O O13 0.878146 0.782102 0.586327
O O14 0.806792 0.768807 0.391814
O O15 0.555130 0.000000 0.355474
O O16 0.790287 0.500000 0.123147
O O17 0.762287 0.778236 0.189150
O O18 0.750000 0.750000 0.000000
O O19 0.253649 0.000000 0.279525
#
# Coordination Sequence:
#
# PCOD9172724 Si02
#       7
#     8   8   8   8   8   8   8
#     4   9  18  33  52  74 100 136 175 215 258 303
#     4  10  18  30  47  68 101 134 167 211 256 306
#     4  11  20  30  47  73 106 135 166 209 262 316
#     4  10  19  33  54  78 107 139 173 214 263 316
#     4  10  19  33  52  75 102 134 173 212 256 312
#     4  10  20  37  58  76 104 140 177 218 259 310
#     4   9  19  34  51  76 108 137 167 217 271 304
#
# _framework density 22.109649000000001
#
# number of rings (size 3 to 8) (size 9 to 14) (size 15 to 20)
#    0.000    2.143    2.857    1.286    0.000    0.286 
#    0.000    2.857    0.000    4.286    0.000    0.000 
#    0.000    3.429    0.000    0.000    0.000    0.000 
#
# Total GULP energy -156153.205741 kJ/mol
# GULP energy per Si atom -5576.900205 kJ/mol
# Density = 2.205933 g / cm^3
# Si number density = 22.109649 Si / 1000 Ang^3
#
#
#
# Elastic Constant Matrix: (Units=GPa)
#
#
# Indices 1 2 3 4 5 6 
#
# 1 123.7685 3.8250 41.5916 0.0000 22.9161 0.0000
# 2 3.8250 58.7341 -1.4177 0.0000 0.8292 0.0000
# 3 41.5916 -1.4177 122.3443 0.0000 24.6401 0.0000
# 4 0.0000 0.0000 0.0000 15.0584 0.0000 0.3847
# 5 22.9161 0.8292 24.6401 0.0000 41.5889 0.0000
# 6 0.0000 0.0000 0.0000 0.3847 0.0000 7.1213
#
#
#
# Elastic Compliance Matrix: (Units=1/GPa)
#
#
# Indices 1 2 3 4 5 6 
#
# 1 0.009652 -0.000636 -0.002521 0.000000 -0.003812 0.000000
# 2 -0.000636 0.017082 0.000468 0.000000 -0.000268 0.000000
# 3 -0.002521 0.000468 0.009945 0.000000 -0.004512 0.000000
# 4 0.000000 0.000000 0.000000 0.066500 0.000000 -0.003593
# 5 -0.003812 -0.000268 -0.004512 0.000000 0.028824 0.000000
# 6 0.000000 0.000000 0.000000 -0.003593 0.000000 0.140617
#
#
# Mechanical properties :
#
#
# Convention : Reuss Voigt Hill
#
# Bulk Modulus (GPa) = 31.94660 43.64940 37.79800
# Shear Modulus (GPa) = 17.33512 30.14359 23.73935
#
# Velocity S-wave (km/s) = 2.80313 3.69639 3.28031
# Velocity P-wave (km/s) = 4.99572 6.16464 5.61071
#
# Compressibility (1/GPa) = 0.03130224
#
# Stress axis : x y z
#
# Youngs Moduli (GPa) = 103.60291 58.53991 100.55460
#
# Poissons Ratio (x) = 0.03721 0.25349
# Poissons Ratio (y) = 0.06585 -0.04705
# Poissons Ratio (z) = 0.26117 -0.02739
#
# Static dielectric constant tensor:
#      x y z
#    x 1.820040 0.000000 0.059440 
#    y 0.000000 1.829650 0.000000 
#    z 0.059440 0.000000 1.871750 
# 
# From -- ./inp_files/237801.got.cif
#   From: 2010.05.17/outbox.cif.g08.bks.cpg/sg12_119_cif.got.tgz:237801.got - 2010.06.03 13:09:07.
