data_PCOD9172961
_publ_section_title
;
Structure prediction by ZEFSAII (Michael W. Deem and Ramdas Pophale) SiO2 
 PCOD9172961
Probable space group: C 2/M
;
_chemical_formula_sum "Si O2"
_cell_formula_units_Z 40
_cell_length_a 14.760524
_cell_length_b 12.885964
_cell_length_c 9.362173
_cell_angle_alpha 90.000000
_cell_angle_beta 60.259105
_cell_angle_gamma 90.000000
_cell_volume 1546.158376
_symmetry_space_group_name_H-M "C 2/M"
_symmetry_group_IT_number 12
_symmetry_cell_setting 'monoclinic'
loop_
_space_group_symop_operation_xyz
x,y,z
-x,y,-z
-x,-y,-z
x,-y,z
1/2+x,1/2+y,z
1/2-x,1/2+y,-z
1/2-x,1/2-y,-z
1/2+x,1/2-y,z
loop_
_atom_site_type_symbol
_atom_site_label
_atom_site_fract_x
_atom_site_fract_y
_atom_site_fract_z
Si Si1 0.396535 0.891085 0.179769
Si Si2 0.151691 0.202090 0.931262
Si Si3 0.375408 0.123985 0.821716
Si Si4 0.382662 0.174743 0.490925
Si Si5 0.638204 0.617406 0.648874
O O1 0.318875 0.802035 0.192071
O O2 0.434897 0.879975 0.311776
O O3 0.342797 0.000000 0.205183
O O4 0.500000 0.889122 0.000000
O O5 0.247449 0.136363 0.913351
O O6 0.096387 0.139909 0.843834
O O7 0.103629 0.269250 0.099583
O O8 0.407560 0.146000 0.632693
O O9 0.389186 0.000000 0.848925
O O10 0.394058 0.295323 0.439858
O O11 0.263355 0.133612 0.564671
O O12 0.613657 0.500000 0.628123
#
# Coordination Sequence:
#
# PCOD9172961 Si02
#       5
#     8   8   8   8   8
#     4  10  19  31  47  67  95 131 167 199 231 277
#     4   9  18  30  46  69  96 124 157 191 238 288
#     4  10  18  30  49  73 101 125 152 199 248 288
#     4   9  17  28  45  68  93 123 159 194 237 282
#     4   9  16  29  48  69  96 124 156 201 243 282
#
# _framework density 25.870570000000001
#
# number of rings (size 3 to 8) (size 9 to 14) (size 15 to 20)
#    0.000    2.600    0.000    5.400    0.000    0.000 
#    0.000   13.000    0.000   18.600    0.000    0.000 
#    0.000   46.400    0.000    0.000    0.000    0.000 
#
# Total GULP energy -111417.244722 kJ/mol
# GULP energy per Si atom -5570.862236 kJ/mol
# Density = 2.581169 g / cm^3
# Si number density = 25.870570 Si / 1000 Ang^3
#
#
#
# Elastic Constant Matrix: (Units=GPa)
#
#
# Indices 1 2 3 4 5 6 
#
# 1 32.1303 24.2101 28.9259 0.0000 23.2190 0.0000
# 2 24.2101 210.3358 45.1168 0.0000 1.1750 0.0000
# 3 28.9259 45.1168 216.4293 0.0000 11.9937 0.0000
# 4 0.0000 0.0000 0.0000 11.5863 0.0000 -3.8780
# 5 23.2190 1.1750 11.9937 0.0000 51.1327 0.0000
# 6 0.0000 0.0000 0.0000 -3.8780 0.0000 43.0913
#
#
#
# Elastic Compliance Matrix: (Units=1/GPa)
#
#
# Indices 1 2 3 4 5 6 
#
# 1 0.057950 -0.005408 -0.005234 0.000000 -0.024963 0.000000
# 2 -0.005408 0.005482 -0.000556 0.000000 0.002460 0.000000
# 3 -0.005234 -0.000556 0.005373 0.000000 0.001129 0.000000
# 4 0.000000 0.000000 0.000000 0.088989 0.000000 0.008009
# 5 -0.024963 0.002460 0.001129 0.000000 0.030571 0.000000
# 6 0.000000 0.000000 0.000000 0.008009 0.000000 0.023927
#
#
# Mechanical properties :
#
#
# Convention : Reuss Voigt Hill
#
# Bulk Modulus (GPa) = 21.54792 72.82233 47.18512
# Shear Modulus (GPa) = 19.98724 45.20491 32.59608
#
# Velocity S-wave (km/s) = 2.78256 4.18466 3.55345
# Velocity P-wave (km/s) = 4.32096 7.18042 5.92575
#
# Compressibility (1/GPa) = 0.04640820
#
# Stress axis : x y z
#
# Youngs Moduli (GPa) = 17.25631 182.40276 186.10088
#
# Poissons Ratio (x) = 0.98642 0.97412
# Poissons Ratio (y) = 0.09332 0.10355
# Poissons Ratio (z) = 0.09033 0.10149
#
# Static dielectric constant tensor:
#      x y z
#    x 2.423230 0.000000 -0.114620 
#    y 0.000000 1.960800 0.000000 
#    z -0.114620 0.000000 2.229290 
# 
# From -- ./inp_files/95598.got.cif
#   From: 2010.05.17/outbox.cif.g08.bks.cpg/sg12_48_cif.got.tgz:95598.got - 2010.06.03 13:09:07.
