data_PCOD9172661
_publ_section_title
;
Structure prediction by ZEFSAII (Michael W. Deem and Ramdas Pophale) SiO2 
 PCOD9172661
Probable space group: C 2/M
;
_chemical_formula_sum "Si O2"
_cell_formula_units_Z 64
_cell_length_a 28.660012
_cell_length_b 9.171878
_cell_length_c 21.298288
_cell_angle_alpha 90.000000
_cell_angle_beta 45.126186
_cell_angle_gamma 90.000000
_cell_volume 3967.516163
_symmetry_space_group_name_H-M "C 2/M"
_symmetry_group_IT_number 12
_symmetry_cell_setting 'monoclinic'
loop_
_space_group_symop_operation_xyz
x,y,z
-x,y,-z
-x,-y,-z
x,-y,z
1/2+x,1/2+y,z
1/2-x,1/2+y,-z
1/2-x,1/2-y,-z
1/2+x,1/2-y,z
loop_
_atom_site_type_symbol
_atom_site_label
_atom_site_fract_x
_atom_site_fract_y
_atom_site_fract_z
Si Si1 0.854237 0.332486 0.483428
Si Si2 0.988527 0.332107 0.690132
Si Si3 0.437185 0.176350 0.604285
Si Si4 0.038513 0.178036 0.901388
Si Si5 0.010526 0.166916 0.791950
Si Si6 0.168561 0.833472 0.616410
Si Si7 0.180781 0.826319 0.355898
Si Si8 0.189897 0.174950 0.739300
O O1 0.835894 0.500000 0.515355
O O2 0.821073 0.276200 0.450795
O O3 0.839423 0.227721 0.555298
O O4 0.932992 0.329038 0.398007
O O5 0.969662 0.500000 0.716534
O O6 0.953742 0.277997 0.659788
O O7 0.977484 0.248827 0.765494
O O8 0.500000 0.209396 0.500000
O O9 0.372962 0.254837 0.638799
O O10 0.428954 0.000000 0.610160
O O11 0.005680 0.228670 0.867125
O O12 0.115637 0.218317 0.828348
O O13 0.037525 0.000000 0.899796
O O14 0.000000 0.224459 0.000000
O O15 0.089332 0.165722 0.703722
O O16 0.987891 0.000000 0.813785
O O17 0.197455 0.795751 0.657161
O O18 0.186768 0.000000 0.582424
O O19 0.253477 0.759527 0.277937
O O20 0.180651 0.000000 0.351783
O O21 0.196057 0.000000 0.741503
#
# Coordination Sequence:
#
# PCOD9172661 Si02
#       8
#     8   8   8   8   8   8   8   8
#     4  10  18  30  46  64  87 122 163 199 238 277
#     4   9  17  29  47  67  90 122 158 198 237 280
#     4  10  19  35  52  66  88 121 165 208 245 283
#     4   8  14  28  53  81 102 123 155 190 227 280
#     4   8  14  25  44  71 100 123 147 188 233 275
#     4   8  15  28  44  64  89 120 158 194 230 273
#     4  12  24  33  44  65  93 124 162 203 241 280
#     4   9  18  33  50  67  94 128 157 191 235 283
#
# _framework density 16.130998999999999
#
# number of rings (size 3 to 8) (size 9 to 14) (size 15 to 20)
#    0.000    2.750    1.250    3.000    0.000    2.250 
#    0.000    1.875    0.000    1.500    0.000    0.875 
#    0.000    0.000    0.000    0.000    0.000    0.000 
#
# Total GULP energy -178383.421448 kJ/mol
# GULP energy per Si atom -5574.481920 kJ/mol
# Density = 1.609428 g / cm^3
# Si number density = 16.130999 Si / 1000 Ang^3
#
#
#
# Elastic Constant Matrix: (Units=GPa)
#
#
# Indices 1 2 3 4 5 6 
#
# 1 149.2585 56.2276 51.0222 0.0018 15.0408 -0.0013
# 2 56.2276 49.0511 29.7963 -0.0006 6.8744 0.0007
# 3 51.0222 29.7963 79.4532 -0.0009 16.6763 -0.0006
# 4 0.0018 -0.0006 -0.0009 11.0595 -0.0019 3.3224
# 5 15.0408 6.8744 16.6763 -0.0019 20.4829 0.0019
# 6 -0.0013 0.0007 -0.0006 3.3224 0.0019 24.4342
#
#
#
# Elastic Compliance Matrix: (Units=1/GPa)
#
#
# Indices 1 2 3 4 5 6 
#
# 1 0.012602 -0.012296 -0.002901 -0.000004 -0.002765 0.000002
# 2 -0.012296 0.038415 -0.006874 0.000005 0.001733 -0.000003
# 3 -0.002901 -0.006874 0.019413 -0.000001 -0.011368 0.000002
# 4 -0.000004 0.000005 -0.000001 0.094270 0.000012 -0.012818
# 5 -0.002765 0.001733 -0.011368 0.000012 0.059525 -0.000007
# 6 0.000002 -0.000003 0.000002 -0.012818 -0.000007 0.042669
#
#
# Mechanical properties :
#
#
# Convention : Reuss Voigt Hill
#
# Bulk Modulus (GPa) = 38.04049 61.31722 49.67885
# Shear Modulus (GPa) = 15.63482 20.57646 18.10564
#
# Velocity S-wave (km/s) = 3.11664 3.57541 3.35388
# Velocity P-wave (km/s) = 6.04853 7.42558 6.77215
#
# Compressibility (1/GPa) = 0.02628778
#
# Stress axis : x y z
#
# Youngs Moduli (GPa) = 79.35047 26.03162 51.51272
#
# Poissons Ratio (x) = 0.32009 0.14944
# Poissons Ratio (y) = 0.97572 0.35408
# Poissons Ratio (z) = 0.23020 0.17893
#
# Static dielectric constant tensor:
#      x y z
#    x 1.558100 0.000000 -0.003290 
#    y 0.000000 1.539140 0.000000 
#    z -0.003290 0.000000 1.546030 
# 
# From -- ./inp_files/326845.got.cif
#   From: 2010.05.17/outbox.cif.g08.bks.cpg/sg12_164_cif.got.tgz:326845.got - 2010.06.03 13:09:07.
