data_PCOD9172608
_publ_section_title
;
Structure prediction by ZEFSAII (Michael W. Deem and Ramdas Pophale) SiO2 
 PCOD9172608
Probable space group: C 2/M
;
_chemical_formula_sum "Si O2"
_cell_formula_units_Z 40
_cell_length_a 23.078611
_cell_length_b 13.224467
_cell_length_c 23.752709
_cell_angle_alpha 90.000000
_cell_angle_beta 17.641948
_cell_angle_gamma 90.000000
_cell_volume 2197.053347
_symmetry_space_group_name_H-M "C 2/M"
_symmetry_group_IT_number 12
_symmetry_cell_setting 'monoclinic'
loop_
_space_group_symop_operation_xyz
x,y,z
-x,y,-z
-x,-y,-z
x,-y,z
1/2+x,1/2+y,z
1/2-x,1/2+y,-z
1/2-x,1/2-y,-z
1/2+x,1/2-y,z
loop_
_atom_site_type_symbol
_atom_site_label
_atom_site_fract_x
_atom_site_fract_y
_atom_site_fract_z
Si Si1 0.233340 0.698262 0.400686
Si Si2 0.906952 0.000000 0.024682
Si Si3 0.139624 0.227010 0.192644
Si Si4 0.614786 0.382076 0.104426
Si Si5 0.985949 0.230654 0.945883
Si Si6 0.029122 0.500000 0.540558
O O1 0.411251 0.667535 0.275775
O O2 0.328082 0.762019 0.261876
O O3 0.138119 0.599055 0.460829
O O4 0.066385 0.752372 0.589947
O O5 0.680110 0.000000 0.238934
O O6 0.967267 0.110262 0.947352
O O7 0.000000 0.000000 0.000000
O O8 0.140195 0.136723 0.147349
O O9 0.216480 0.322553 0.084363
O O10 0.297419 0.217462 0.095596
O O11 0.616047 0.500000 0.088943
O O12 0.000000 0.239574 0.000000
O O13 0.000000 0.500000 0.500000
#
# Coordination Sequence:
#
# PCOD9172608 Si02
#       6
#     8   4   8   8   8   4
#     4  11  21  32  52  77 107 142 176 211 254 322
#     4  10  18  30  42  69 113 144 167 197 244 321
#     4  10  22  36  54  80 104 139 180 216 265 318
#     4  10  22  39  55  74 106 139 179 227 264 303
#     4  10  20  33  49  76 112 138 170 213 259 318
#     4  12  20  28  48  79 113 146 170 198 263 325
#
# _framework density 18.206204
#
# number of rings (size 3 to 8) (size 9 to 14) (size 15 to 20)
#    0.000    1.600    3.000    3.600    5.600    0.000 
#    0.000    0.000    0.000    0.600    0.000    1.400 
#    0.000    0.000    0.000    0.000    0.000    0.000 
#
# Total GULP energy -111569.254276 kJ/mol
# GULP energy per Si atom -5578.462714 kJ/mol
# Density = 1.816477 g / cm^3
# Si number density = 18.206204 Si / 1000 Ang^3
#
#
#
# Elastic Constant Matrix: (Units=GPa)
#
#
# Indices 1 2 3 4 5 6 
#
# 1 110.2833 7.8925 29.8757 0.0016 6.1448 -0.0009
# 2 7.8925 13.1572 8.4839 0.0049 3.9673 -0.0040
# 3 29.8757 8.4839 156.9660 0.0043 8.3915 -0.0063
# 4 0.0016 0.0049 0.0043 11.7708 0.0011 3.7818
# 5 6.1448 3.9673 8.3915 0.0011 28.0917 0.0007
# 6 -0.0009 -0.0040 -0.0063 3.7818 0.0007 26.7318
#
#
#
# Elastic Compliance Matrix: (Units=1/GPa)
#
#
# Indices 1 2 3 4 5 6 
#
# 1 0.009882 -0.004597 -0.001577 0.000002 -0.001041 -0.000001
# 2 -0.004597 0.083757 -0.003123 -0.000038 -0.009890 0.000017
# 3 -0.001577 -0.003123 0.006908 -0.000001 -0.001278 0.000001
# 4 0.000002 -0.000038 -0.000001 0.089001 0.000002 -0.012591
# 5 -0.001041 -0.009890 -0.001278 0.000002 0.037604 -0.000003
# 6 -0.000001 0.000017 0.000001 -0.012591 -0.000003 0.039190
#
#
# Mechanical properties :
#
#
# Convention : Reuss Voigt Hill
#
# Bulk Modulus (GPa) = 12.20210 41.43454 26.81832
# Shear Modulus (GPa) = 16.01261 28.92916 22.47088
#
# Velocity S-wave (km/s) = 2.96888 3.99052 3.51699
# Velocity P-wave (km/s) = 4.29756 6.63628 5.59058
#
# Compressibility (1/GPa) = 0.08195308
#
# Stress axis : x y z
#
# Youngs Moduli (GPa) = 101.19731 11.93924 144.75943
#
# Poissons Ratio (x) = 0.05488 0.22824
# Poissons Ratio (y) = 0.46520 0.45214
# Poissons Ratio (z) = 0.15955 0.03729
#
# Static dielectric constant tensor:
#      x y z
#    x 1.664480 0.000000 0.018500 
#    y 0.000000 1.605960 0.000000 
#    z 0.018500 0.000000 1.650190 
# 
# From -- ./inp_files/322070.got.cif
#   From: 2010.05.17/outbox.cif.g08.bks.cpg/sg12_162_cif.got.tgz:322070.got - 2010.06.03 13:09:07.
