data_PCOD9172476
_publ_section_title
;
Structure prediction by ZEFSAII (Michael W. Deem and Ramdas Pophale) SiO2 
 PCOD9172476
Probable space group: C 2/M
;
_chemical_formula_sum "Si O2"
_cell_formula_units_Z 40
_cell_length_a 27.682303
_cell_length_b 9.930779
_cell_length_c 33.614055
_cell_angle_alpha 90.000000
_cell_angle_beta 164.474720
_cell_angle_gamma 90.000000
_cell_volume 2473.407255
_symmetry_space_group_name_H-M "C 2/M"
_symmetry_group_IT_number 12
_symmetry_cell_setting 'monoclinic'
loop_
_space_group_symop_operation_xyz
x,y,z
-x,y,-z
-x,-y,-z
x,-y,z
1/2+x,1/2+y,z
1/2-x,1/2+y,-z
1/2-x,1/2-y,-z
1/2+x,1/2-y,z
loop_
_atom_site_type_symbol
_atom_site_label
_atom_site_fract_x
_atom_site_fract_y
_atom_site_fract_z
Si Si1 0.392495 0.000000 0.144790
Si Si2 0.020799 0.000000 0.950682
Si Si3 0.752166 0.219183 0.909257
Si Si4 0.276709 0.500000 0.075390
Si Si5 0.798944 0.500000 0.246122
Si Si6 0.975637 0.718408 0.615847
Si Si7 0.700523 0.500000 0.429907
Si Si8 0.693625 0.500000 0.520489
O O1 0.344656 0.870728 0.133837
O O2 0.603609 0.000000 0.302619
O O3 0.277623 0.000000 0.013635
O O4 0.078161 0.868571 0.971179
O O5 0.820213 0.000000 0.808853
O O6 0.157116 0.000000 0.096690
O O7 0.794362 0.365173 0.959864
O O8 0.613355 0.232551 0.762267
O O9 0.493543 0.500000 0.252498
O O10 0.922819 0.630532 0.336961
O O11 0.807766 0.629700 0.498582
O O12 0.910249 0.864195 0.550700
O O13 0.708530 0.500000 0.484039
#
# Coordination Sequence:
#
# PCOD9172476 Si02
#       8
#     4   4   8   4   4   8   4   4
#     4  11  22  32  45  69 105 137 161 185 233 289
#     4   8  16  31  52  67  97 129 148 199 255 289
#     4  10  18  32  48  70  97 132 165 190 238 287
#     4  12  22  30  45  75 103 129 163 199 223 284
#     4   8  16  31  48  75  97 115 159 203 247 286
#     4  10  18  29  50  74  94 128 164 197 235 288
#     4  11  18  30  49  67  99 135 161 186 238 281
#     4  12  18  30  49  71  99 133 158 194 242 278
#
# _framework density 16.172024
#
# number of rings (size 3 to 8) (size 9 to 14) (size 15 to 20)
#    0.000    1.800    4.000    3.600    0.000    0.000 
#    0.000    1.000    0.000    4.800    0.000   26.600 
#    0.000    0.000    0.000    0.000    0.000    0.000 
#
# Total GULP energy -111588.234679 kJ/mol
# GULP energy per Si atom -5579.411734 kJ/mol
# Density = 1.613522 g / cm^3
# Si number density = 16.172024 Si / 1000 Ang^3
#
#
#
# Elastic Constant Matrix: (Units=GPa)
#
#
# Indices 1 2 3 4 5 6 
#
# 1 40.1871 27.8581 17.7384 -0.0138 20.4140 0.0028
# 2 27.8581 142.1580 10.8282 -0.0023 25.6918 -0.0016
# 3 17.7384 10.8282 42.8003 0.0646 11.5904 0.0020
# 4 -0.0138 -0.0023 0.0646 2.4135 -0.0002 -1.4763
# 5 20.4140 25.6918 11.5904 -0.0002 30.0862 -0.0033
# 6 0.0028 -0.0016 0.0020 -1.4763 -0.0033 -0.7697
#
#
#
# Elastic Compliance Matrix: (Units=1/GPa)
#
#
# Indices 1 2 3 4 5 6 
#
# 1 0.043613 -0.003696 -0.011144 0.000316 -0.022143 -0.000371
# 2 -0.003696 0.008633 0.000742 -0.000017 -0.005150 0.000026
# 3 -0.011144 0.000742 0.028939 -0.000372 -0.004221 0.000762
# 4 0.000316 -0.000017 -0.000372 0.190668 -0.000095 -0.365682
# 5 -0.022143 -0.005150 -0.004221 -0.000095 0.054286 -0.000132
# 6 -0.000371 0.000026 0.000762 -0.365682 -0.000132 -0.597789
#
#
# Mechanical properties :
#
#
# Convention : Reuss Voigt Hill
#
# Bulk Modulus (GPa) = 18.87188 37.55499 28.21344
# Shear Modulus (GPa) = -22.14423 17.59402 -2.27511
#
# Velocity S-wave (km/s) = -3.70441 3.30196 -1.18738
# Velocity P-wave (km/s) = 2.56945 6.14897 3.95017
#
# Compressibility (1/GPa) = 0.05298889
#
# Stress axis : x y z
#
# Youngs Moduli (GPa) = 22.92906 115.83527 34.55585
#
# Poissons Ratio (x) = 0.42812 0.38510
# Poissons Ratio (y) = 0.08475 -0.02565
# Poissons Ratio (z) = 0.25553 -0.08600
#
# Static dielectric constant tensor:
#      x y z
#    x 1.519550 0.000000 0.010490 
#    y 0.000000 1.553290 -0.000010 
#    z 0.010490 -0.000010 1.527320 
# 
# From -- ./inp_files/101183.got.cif
#   From: 2010.05.17/outbox.cif.g08.bks.cpg/sg12_51_cif.got.tgz:101183.got - 2010.06.03 13:09:07.
