data_PCOD9172546
_publ_section_title
;
Structure prediction by ZEFSAII (Michael W. Deem and Ramdas Pophale) SiO2 
 PCOD9172546
Probable space group: C 2/M
;
_chemical_formula_sum "Si O2"
_cell_formula_units_Z 44
_cell_length_a 7.843951
_cell_length_b 21.704442
_cell_length_c 19.990208
_cell_angle_alpha 90.000000
_cell_angle_beta 46.437222
_cell_angle_gamma 90.000000
_cell_volume 2466.101557
_symmetry_space_group_name_H-M "C 2/M"
_symmetry_group_IT_number 12
_symmetry_cell_setting 'monoclinic'
loop_
_space_group_symop_operation_xyz
x,y,z
-x,y,-z
-x,-y,-z
x,-y,z
1/2+x,1/2+y,z
1/2-x,1/2+y,-z
1/2-x,1/2-y,-z
1/2+x,1/2-y,z
loop_
_atom_site_type_symbol
_atom_site_label
_atom_site_fract_x
_atom_site_fract_y
_atom_site_fract_z
Si Si1 0.708485 0.574623 0.895831
Si Si2 0.500000 0.731933 0.500000
Si Si3 0.935028 0.069567 0.438820
Si Si4 0.264682 0.074078 0.228960
Si Si5 0.070471 0.341000 0.577740
Si Si6 0.832642 0.074287 0.250471
O O1 0.714527 0.500000 0.900784
O O2 0.656887 0.586173 0.831678
O O3 0.968705 0.598079 0.845700
O O4 0.500000 0.597462 0.000000
O O5 0.723813 0.687815 0.432288
O O6 0.484459 0.779105 0.565600
O O7 0.723404 0.116719 0.486016
O O8 0.000000 0.067668 0.500000
O O9 0.149989 0.086684 0.332508
O O10 0.863264 0.000000 0.439451
O O11 0.073393 0.091428 0.224359
O O12 0.282429 0.000000 0.219137
O O13 0.878197 0.384529 0.662893
O O14 0.790146 0.000000 0.271400
#
# Coordination Sequence:
#
# PCOD9172546 Si02
#       6
#     8   4   8   8   8   8
#     4   9  18  32  50  77 113 143 168 208 270 336
#     4  10  24  34  50  68 108 148 184 216 256 302
#     4  10  18  29  51  78 107 143 178 220 264 307
#     4   9  18  30  46  75 108 141 177 209 255 317
#     4  11  20  37  49  75 105 142 182 217 258 314
#     4  10  20  34  56  82 108 140 177 220 270 319
#
# _framework density 17.841925
#
# number of rings (size 3 to 8) (size 9 to 14) (size 15 to 20)
#    0.000    2.182    0.909    2.727    0.000    3.636 
#    0.000    7.273    0.000    0.000    0.000    1.273 
#    0.000    0.000    0.000    0.000    0.000    0.000 
#
# Total GULP energy -122538.517195 kJ/mol
# GULP energy per Si atom -5569.932600 kJ/mol
# Density = 1.780132 g / cm^3
# Si number density = 17.841925 Si / 1000 Ang^3
#
#
#
# Elastic Constant Matrix: (Units=GPa)
#
#
# Indices 1 2 3 4 5 6 
#
# 1 131.3872 34.0237 75.2611 0.0000 -21.4150 0.0000
# 2 34.0237 67.6383 35.9344 0.0000 -9.3438 0.0000
# 3 75.2611 35.9344 137.4913 0.0000 -27.4751 0.0000
# 4 0.0000 0.0000 0.0000 7.9819 0.0000 -5.6351
# 5 -21.4150 -9.3438 -27.4751 0.0000 21.9904 0.0000
# 6 0.0000 0.0000 0.0000 -5.6351 0.0000 12.9806
#
#
#
# Elastic Compliance Matrix: (Units=1/GPa)
#
#
# Indices 1 2 3 4 5 6 
#
# 1 0.011824 -0.002758 -0.004911 0.000000 0.004207 0.000000
# 2 -0.002758 0.017895 -0.002912 0.000000 0.001280 0.000000
# 3 -0.004911 -0.002912 0.012687 0.000000 0.009832 0.000000
# 4 0.000000 0.000000 0.000000 0.180649 0.000000 0.078423
# 5 0.004207 0.001280 0.009832 0.000000 0.062400 0.000000
# 6 0.000000 0.000000 0.000000 0.078423 0.000000 0.111083
#
#
# Mechanical properties :
#
#
# Convention : Reuss Voigt Hill
#
# Bulk Modulus (GPa) = 47.06752 69.66170 58.36461
# Shear Modulus (GPa) = 11.77078 21.34374 16.55726
#
# Velocity S-wave (km/s) = 2.57130 3.46246 3.04961
# Velocity P-wave (km/s) = 5.93742 7.42384 6.72185
#
# Compressibility (1/GPa) = 0.02124608
#
# Stress axis : x y z
#
# Youngs Moduli (GPa) = 84.57410 55.88007 78.82046
#
# Poissons Ratio (x) = 0.15409 0.38708
# Poissons Ratio (y) = 0.23322 0.22951
# Poissons Ratio (z) = 0.41533 0.16271
#
# Static dielectric constant tensor:
#      x y z
#    x 1.714940 0.000000 0.001670 
#    y 0.000000 1.591580 0.000000 
#    z 0.001670 0.000000 1.593860 
# 
# From -- ./inp_files/301578.got.cif
#   From: 2010.05.17/outbox.cif.g08.bks.cpg/sg12_151_cif.got.tgz:301578.got - 2010.06.03 13:09:07.
