data_PCOD9172672
_publ_section_title
;
Structure prediction by ZEFSAII (Michael W. Deem and Ramdas Pophale) SiO2 
 PCOD9172672
Probable space group: C 2/M
;
_chemical_formula_sum "Si O2"
_cell_formula_units_Z 56
_cell_length_a 32.928456
_cell_length_b 8.698105
_cell_length_c 16.460501
_cell_angle_alpha 90.000000
_cell_angle_beta 49.917898
_cell_angle_gamma 90.000000
_cell_volume 3607.198805
_symmetry_space_group_name_H-M "C 2/M"
_symmetry_group_IT_number 12
_symmetry_cell_setting 'monoclinic'
loop_
_space_group_symop_operation_xyz
x,y,z
-x,y,-z
-x,-y,-z
x,-y,z
1/2+x,1/2+y,z
1/2-x,1/2+y,-z
1/2-x,1/2-y,-z
1/2+x,1/2-y,z
loop_
_atom_site_type_symbol
_atom_site_label
_atom_site_fract_x
_atom_site_fract_y
_atom_site_fract_z
Si Si1 0.942723 0.185000 0.472917
Si Si2 0.303926 0.683771 0.390221
Si Si3 0.255436 0.183017 0.301804
Si Si4 0.763287 0.817024 0.113674
Si Si5 0.148369 0.682947 0.519781
Si Si6 0.434519 0.684684 0.672079
Si Si7 0.832196 0.682909 0.885142
O O1 0.904161 0.267968 0.460224
O O2 0.927995 0.224972 0.585099
O O3 0.004905 0.222757 0.382323
O O4 0.937023 0.000000 0.472237
O O5 0.302900 0.500000 0.391866
O O6 0.250000 0.750000 0.500000
O O7 0.300329 0.747349 0.303663
O O8 0.348643 0.745989 0.393544
O O9 0.264387 0.231644 0.197817
O O10 0.198915 0.250682 0.404886
O O11 0.254006 0.000000 0.312734
O O12 0.709419 0.777939 0.133504
O O13 0.764236 0.000000 0.125687
O O14 0.810735 0.766530 0.993057
O O15 0.153651 0.500000 0.517727
O O16 0.428765 0.500000 0.685641
O O17 0.390114 0.765250 0.782779
O O18 0.829731 0.500000 0.900637
#
# Coordination Sequence:
#
# PCOD9172672 Si02
#       7
#     8   8   8   8   8   8   8
#     4   9  18  32  48  68  92 123 160 192 229 274
#     4  10  18  30  46  65  91 122 154 188 228 274
#     4  11  20  31  47  68  95 124 154 190 231 275
#     4  10  20  33  48  68  93 123 158 191 228 275
#     4  11  20  30  45  68  96 125 156 190 230 274
#     4   9  18  32  49  67  92 124 157 194 232 273
#     4  10  20  32  47  68  94 123 156 194 232 271
#
# _framework density 15.524512
#
# number of rings (size 3 to 8) (size 9 to 14) (size 15 to 20)
#    0.000    2.000    0.000    8.143    0.000    5.143 
#    0.000    1.429    0.000    0.000    0.000    1.000 
#    0.000    8.000    0.000    0.000    0.000    0.000 
#
# Total GULP energy -156245.040956 kJ/mol
# GULP energy per Si atom -5580.180034 kJ/mol
# Density = 1.548918 g / cm^3
# Si number density = 15.524512 Si / 1000 Ang^3
#
#
#
# Elastic Constant Matrix: (Units=GPa)
#
#
# Indices 1 2 3 4 5 6 
#
# 1 106.5739 54.1459 39.5464 0.0000 16.8731 0.0000
# 2 54.1459 104.9635 35.7826 0.0000 11.7774 0.0000
# 3 39.5464 35.7826 72.3451 0.0000 6.2746 0.0000
# 4 0.0000 0.0000 0.0000 25.3366 0.0000 2.0364
# 5 16.8731 11.7774 6.2746 0.0000 23.4078 0.0000
# 6 0.0000 0.0000 0.0000 2.0364 0.0000 26.9361
#
#
#
# Elastic Compliance Matrix: (Units=1/GPa)
#
#
# Indices 1 2 3 4 5 6 
#
# 1 0.014993 -0.005264 -0.005000 0.000000 -0.006818 0.000000
# 2 -0.005264 0.013757 -0.003742 0.000000 -0.002124 0.000000
# 3 -0.005000 -0.003742 0.018358 0.000000 0.000566 0.000000
# 4 0.000000 0.000000 0.000000 0.039710 0.000000 -0.003002
# 5 -0.006818 -0.002124 0.000566 0.000000 0.048552 0.000000
# 6 0.000000 0.000000 0.000000 -0.003002 0.000000 0.037352
#
#
# Mechanical properties :
#
#
# Convention : Reuss Voigt Hill
#
# Bulk Modulus (GPa) = 52.37470 60.31471 56.34471
# Shear Modulus (GPa) = 24.14290 25.42994 24.78642
#
# Velocity S-wave (km/s) = 3.94781 4.05168 4.00008
# Velocity P-wave (km/s) = 7.38853 7.79896 7.59651
#
# Compressibility (1/GPa) = 0.01909319
#
# Stress axis : x y z
#
# Youngs Moduli (GPa) = 66.69891 72.69088 54.47243
#
# Poissons Ratio (x) = 0.38267 0.27238
# Poissons Ratio (y) = 0.35113 0.20386
# Poissons Ratio (z) = 0.33352 0.27204
#
# Static dielectric constant tensor:
#      x y z
#    x 1.530970 0.000000 0.012460 
#    y 0.000000 1.519120 0.000000 
#    z 0.012460 0.000000 1.497790 
# 
# From -- ./inp_files/243270.got.cif
#   From: 2010.05.17/outbox.cif.g08.bks.cpg/sg12_122_cif.got.tgz:243270.got - 2010.06.03 13:09:07.
