data_PCOD9172953
_publ_section_title
;
Structure prediction by ZEFSAII (Michael W. Deem and Ramdas Pophale) SiO2 
 PCOD9172953
Probable space group: C 2/M
;
_chemical_formula_sum "Si O2"
_cell_formula_units_Z 44
_cell_length_a 15.684324
_cell_length_b 7.519209
_cell_length_c 29.217823
_cell_angle_alpha 90.000000
_cell_angle_beta 30.272214
_cell_angle_gamma 90.000000
_cell_volume 1737.041288
_symmetry_space_group_name_H-M "C 2/M"
_symmetry_group_IT_number 12
_symmetry_cell_setting 'monoclinic'
loop_
_space_group_symop_operation_xyz
x,y,z
-x,y,-z
-x,-y,-z
x,-y,z
1/2+x,1/2+y,z
1/2-x,1/2+y,-z
1/2-x,1/2-y,-z
1/2+x,1/2-y,z
loop_
_atom_site_type_symbol
_atom_site_label
_atom_site_fract_x
_atom_site_fract_y
_atom_site_fract_z
Si Si1 0.375313 0.206735 0.875034
Si Si2 0.027350 0.782287 0.064337
Si Si3 0.500000 0.241210 0.500000
Si Si4 0.836096 0.297985 0.753731
Si Si5 0.211902 0.716372 0.570613
Si Si6 0.768210 0.702477 0.297318
O O1 0.424173 0.226547 0.906284
O O2 0.548237 0.274912 0.771784
O O3 0.359198 0.000000 0.869858
O O4 0.184718 0.280113 0.960389
O O5 0.835278 0.720918 0.144911
O O6 0.024706 0.000000 0.064849
O O7 0.647159 0.182653 0.466014
O O8 0.370487 0.309340 0.599201
O O9 0.849114 0.500000 0.764601
O O10 0.798479 0.301546 0.716521
O O11 0.023286 0.222440 0.670803
O O12 0.228359 0.500000 0.571346
O O13 0.250000 0.750000 0.500000
O O14 0.797724 0.500000 0.267886
#
# Coordination Sequence:
#
# PCOD9172953 Si02
#       6
#     8   8   4   8   8   8
#     4   8  14  23  40  66  93 122 161 201 238 291
#     4   8  13  24  41  64  94 124 154 198 251 294
#     4  12  23  36  55  76 105 142 175 212 261 310
#     4   9  18  31  49  72  99 129 164 208 257 301
#     4  11  22  37  55  76 102 137 176 214 257 307
#     4  10  18  30  49  72  98 133 172 205 244 300
#
# _framework density 25.330428000000001
#
# number of rings (size 3 to 8) (size 9 to 14) (size 15 to 20)
#    0.000    2.545    1.818    1.636    0.000    0.000 
#    0.000    1.818    0.000    1.091    0.000    6.364 
#    0.000    0.000    0.000   60.545    0.000   26.727 
#
# Total GULP energy -122489.587691 kJ/mol
# GULP energy per Si atom -5567.708531 kJ/mol
# Density = 2.527277 g / cm^3
# Si number density = 25.330428 Si / 1000 Ang^3
#
#
#
# Elastic Constant Matrix: (Units=GPa)
#
#
# Indices 1 2 3 4 5 6 
#
# 1 117.9858 16.1614 70.1516 0.0021 -23.7854 0.0054
# 2 16.1614 91.6719 21.3670 -0.0001 -5.3580 0.0025
# 3 70.1516 21.3670 288.7254 -0.0017 -64.7192 0.0003
# 4 0.0021 -0.0001 -0.0017 17.3025 -0.0002 -16.9914
# 5 -23.7854 -5.3580 -64.7192 -0.0002 47.5870 0.0004
# 6 0.0054 0.0025 0.0003 -16.9914 0.0004 -14.8873
#
#
#
# Elastic Compliance Matrix: (Units=1/GPa)
#
#
# Indices 1 2 3 4 5 6 
#
# 1 0.010238 -0.001231 -0.001842 0.000001 0.002474 0.000002
# 2 -0.001231 0.011249 -0.000557 0.000001 -0.000107 0.000001
# 3 -0.001842 -0.000557 0.005368 0.000000 0.006318 -0.000001
# 4 0.000001 0.000001 0.000000 0.027251 0.000001 -0.031103
# 5 0.002474 -0.000107 0.006318 0.000001 0.030831 0.000001
# 6 0.000002 0.000001 -0.000001 -0.031103 0.000001 -0.031672
#
#
# Mechanical properties :
#
#
# Convention : Reuss Voigt Hill
#
# Bulk Modulus (GPa) = 51.03324 79.30478 65.16901
# Shear Modulus (GPa) = 74.56259 36.04731 55.30495
#
# Velocity S-wave (km/s) = 5.43138 3.77647 4.67769
# Velocity P-wave (km/s) = 7.71517 7.09871 7.41335
#
# Compressibility (1/GPa) = 0.01959507
#
# Stress axis : x y z
#
# Youngs Moduli (GPa) = 97.67457 88.89561 186.27368
#
# Poissons Ratio (x) = 0.10943 0.34311
# Poissons Ratio (y) = 0.12024 0.10381
# Poissons Ratio (z) = 0.17991 0.04954
#
# Static dielectric constant tensor:
#      x y z
#    x 1.950030 0.000000 -0.040970 
#    y 0.000000 2.078090 0.000000 
#    z -0.040970 0.000000 2.036310 
# 
# From -- ./inp_files/375858.got.cif
#   From: 2010.05.17/outbox.cif.g08.bks.cpg/sg12_188_cif.got.tgz:375858.got - 2010.06.03 13:09:07.
