data_PCOD9172804
_publ_section_title
;
Structure prediction by ZEFSAII (Michael W. Deem and Ramdas Pophale) SiO2 
 PCOD9172804
Probable space group: C 2/M
;
_chemical_formula_sum "Si O2"
_cell_formula_units_Z 56
_cell_length_a 5.327523
_cell_length_b 26.135926
_cell_length_c 25.689567
_cell_angle_alpha 90.000000
_cell_angle_beta 120.358735
_cell_angle_gamma 90.000000
_cell_volume 3086.521834
_symmetry_space_group_name_H-M "C 2/M"
_symmetry_group_IT_number 12
_symmetry_cell_setting 'monoclinic'
loop_
_space_group_symop_operation_xyz
x,y,z
-x,y,-z
-x,-y,-z
x,-y,z
1/2+x,1/2+y,z
1/2-x,1/2+y,-z
1/2-x,1/2-y,-z
1/2+x,1/2-y,z
loop_
_atom_site_type_symbol
_atom_site_label
_atom_site_fract_x
_atom_site_fract_y
_atom_site_fract_z
Si Si1 0.336237 0.715866 0.156437
Si Si2 0.679695 0.558435 0.073252
Si Si3 0.018065 0.283705 0.422128
Si Si4 0.598264 0.896011 0.439031
Si Si5 0.750573 0.281551 0.285684
Si Si6 0.432156 0.560258 0.573195
Si Si7 0.178740 0.619660 0.072793
O O1 0.555862 0.756574 0.152452
O O2 0.533193 0.690743 0.223172
O O3 0.240203 0.674033 0.104984
O O4 0.721394 0.500000 0.094809
O O5 0.477353 0.590587 0.090713
O O6 0.978805 0.586327 0.090414
O O7 0.500000 0.556672 0.000000
O O8 0.278449 0.245923 0.431616
O O9 0.132182 0.336653 0.457458
O O10 0.862869 0.302684 0.352281
O O11 0.266065 0.913380 0.404284
O O12 0.752529 0.928983 0.500846
O O13 0.767421 0.910611 0.404749
O O14 0.537865 0.235486 0.283858
O O15 0.466690 0.500000 0.584144
O O16 0.000000 0.625306 0.000000
#
# Coordination Sequence:
#
# PCOD9172804 Si02
#       7
#     8   8   8   8   8   8   8
#     4  10  19  31  46  66  92 122 152 180 217 269
#     4   9  17  30  46  64  86 113 148 187 220 256
#     4  10  19  32  47  68  95 119 148 188 225 265
#     4  10  18  30  48  69  89 120 154 180 223 267
#     4   8  16  30  47  63  84 116 153 188 218 254
#     4  10  19  33  48  67  93 120 155 192 218 255
#     4  10  19  29  44  68  93 118 150 184 223 269
#
# _framework density 18.143398999999999
#
# number of rings (size 3 to 8) (size 9 to 14) (size 15 to 20)
#    0.000    2.429    0.000    4.286    0.000    2.286 
#    0.000    8.571    0.000    0.000    0.000    8.000 
#    0.000    0.000    0.000    0.000    0.000    0.000 
#
# Total GULP energy -155965.506500 kJ/mol
# GULP energy per Si atom -5570.196661 kJ/mol
# Density = 1.810210 g / cm^3
# Si number density = 18.143399 Si / 1000 Ang^3
#
#
#
# Elastic Constant Matrix: (Units=GPa)
#
#
# Indices 1 2 3 4 5 6 
#
# 1 152.3914 35.9593 1.8592 0.0000 -20.3047 0.0000
# 2 35.9593 81.6577 4.8770 0.0000 -4.0183 0.0000
# 3 1.8592 4.8770 35.6755 0.0000 3.3988 0.0000
# 4 0.0000 0.0000 0.0000 0.9504 0.0000 -3.9780
# 5 -20.3047 -4.0183 3.3988 0.0000 11.3203 0.0000
# 6 0.0000 0.0000 0.0000 -3.9780 0.0000 28.0200
#
#
#
# Elastic Compliance Matrix: (Units=1/GPa)
#
#
# Indices 1 2 3 4 5 6 
#
# 1 0.009552 -0.003301 -0.001613 0.000000 0.016445 0.000000
# 2 -0.003301 0.013773 -0.001660 0.000000 -0.000533 0.000000
# 3 -0.001613 -0.001660 0.029518 0.000000 -0.012345 0.000000
# 4 0.000000 0.000000 0.000000 2.592981 0.000000 0.368125
# 5 0.016445 -0.000533 -0.012345 0.000000 0.121352 0.000000
# 6 0.000000 0.000000 0.000000 0.368125 0.000000 0.087951
#
#
# Mechanical properties :
#
#
# Convention : Reuss Voigt Hill
#
# Bulk Modulus (GPa) = 25.19270 39.45731 32.32500
# Shear Modulus (GPa) = 1.73520 23.19342 12.46431
#
# Velocity S-wave (km/s) = 0.97901 3.57927 2.62389
# Velocity P-wave (km/s) = 3.89787 6.23508 5.19950
#
# Compressibility (1/GPa) = 0.03969404
#
# Stress axis : x y z
#
# Youngs Moduli (GPa) = 104.69274 72.60766 33.87813
#
# Poissons Ratio (x) = 0.23965 0.05466
# Poissons Ratio (y) = 0.34556 0.05624
# Poissons Ratio (z) = 0.16890 0.12053
#
# Static dielectric constant tensor:
#      x y z
#    x 1.197420 0.000000 -0.102440 
#    y 0.000000 1.596240 0.000000 
#    z -0.102440 0.000000 1.660880 
# 
# From -- ./inp_files/298012.got.cif
#   From: 2010.05.17/outbox.cif.g08.bks.cpg/sg12_150_cif.got.tgz:298012.got - 2010.06.03 13:09:07.
