data_PCOD9172410
_publ_section_title
;
Structure prediction by ZEFSAII (Michael W. Deem and Ramdas Pophale) SiO2 
 PCOD9172410
Probable space group: C 2/M
;
_chemical_formula_sum "Si O2"
_cell_formula_units_Z 56
_cell_length_a 14.731111
_cell_length_b 14.878607
_cell_length_c 13.211047
_cell_angle_alpha 90.000000
_cell_angle_beta 73.708335
_cell_angle_gamma 90.000000
_cell_volume 2779.307644
_symmetry_space_group_name_H-M "C 2/M"
_symmetry_group_IT_number 12
_symmetry_cell_setting 'monoclinic'
loop_
_space_group_symop_operation_xyz
x,y,z
-x,y,-z
-x,-y,-z
x,-y,z
1/2+x,1/2+y,z
1/2-x,1/2+y,-z
1/2-x,1/2-y,-z
1/2+x,1/2-y,z
loop_
_atom_site_type_symbol
_atom_site_label
_atom_site_fract_x
_atom_site_fract_y
_atom_site_fract_z
Si Si1 0.620292 0.399582 0.672300
Si Si2 0.625173 0.103075 0.768698
Si Si3 0.349169 0.896952 0.617292
Si Si4 0.354620 0.777498 0.433425
Si Si5 0.397229 0.896129 0.827760
Si Si6 0.115893 0.289270 0.970627
Si Si7 0.101091 0.098545 0.914288
O O1 0.590939 0.500000 0.648040
O O2 0.735057 0.399064 0.641039
O O3 0.591747 0.314170 0.613868
O O4 0.587814 0.386152 0.798370
O O5 0.655412 0.161367 0.663099
O O6 0.511027 0.102466 0.799433
O O7 0.651270 0.150618 0.865917
O O8 0.658340 0.000000 0.753299
O O9 0.391491 0.836671 0.514939
O O10 0.370152 0.864328 0.724073
O O11 0.383290 0.000000 0.598945
O O12 0.250000 0.750000 0.500000
O O13 0.366207 0.000000 0.849156
O O14 0.361848 0.834156 0.929560
O O15 0.148777 0.186930 0.944941
O O16 0.000000 0.287740 0.000000
O O17 0.147434 0.000000 0.910775
O O18 0.000000 0.092979 0.000000
#
# Coordination Sequence:
#
# PCOD9172410 Si02
#       7
#     8   8   8   8   8   8   8
#     4   9  17  31  50  71  94 123 161 202 243 282
#     4  10  18  29  49  75  99 125 157 197 239 284
#     4   9  18  32  49  71 100 130 158 191 236 290
#     4  10  19  31  48  68  94 122 162 200 236 274
#     4   9  18  31  48  73 103 131 155 185 236 301
#     4   9  16  28  47  73 102 123 154 196 243 287
#     4   9  16  27  47  72  94 120 161 207 241 274
#
# _framework density 20.148904000000002
#
# number of rings (size 3 to 8) (size 9 to 14) (size 15 to 20)
#    0.000    2.714    1.429    0.857    0.000    2.857 
#    0.000    2.857    0.000    0.857    0.000    1.000 
#    0.000    0.000    0.000    0.000    0.000    0.000 
#
# Total GULP energy -156178.317547 kJ/mol
# GULP energy per Si atom -5577.797055 kJ/mol
# Density = 2.010304 g / cm^3
# Si number density = 20.148904 Si / 1000 Ang^3
#
#
#
# Elastic Constant Matrix: (Units=GPa)
#
#
# Indices 1 2 3 4 5 6 
#
# 1 33.4168 2.2769 12.0833 0.0000 -0.1131 0.0000
# 2 2.2769 179.7888 118.6364 0.0000 14.0821 0.0000
# 3 12.0833 118.6364 179.4210 0.0000 15.2329 0.0000
# 4 0.0000 0.0000 0.0000 40.7812 0.0000 5.8234
# 5 -0.1131 14.0821 15.2329 0.0000 32.6397 0.0000
# 6 0.0000 0.0000 0.0000 5.8234 0.0000 -24.2032
#
#
#
# Elastic Compliance Matrix: (Units=1/GPa)
#
#
# Indices 1 2 3 4 5 6 
#
# 1 0.031004 0.001712 -0.003297 0.000000 0.000908 0.000000
# 2 0.001712 0.010012 -0.006632 0.000000 -0.001219 0.000000
# 3 -0.003297 -0.006632 0.010349 0.000000 -0.001980 0.000000
# 4 0.000000 0.000000 0.000000 0.023707 0.000000 0.005704
# 5 0.000908 -0.001219 -0.001980 0.000000 0.032090 0.000000
# 6 0.000000 0.000000 0.000000 0.005704 0.000000 -0.039944
#
#
# Mechanical properties :
#
#
# Convention : Reuss Voigt Hill
#
# Bulk Modulus (GPa) = 28.62844 73.17998 50.90421
# Shear Modulus (GPa) = 52.46882 27.15220 39.81051
#
# Velocity S-wave (km/s) = 5.10853 3.67492 4.44984
# Velocity P-wave (km/s) = 7.00253 7.37598 7.19168
#
# Compressibility (1/GPa) = 0.03493030
#
# Stress axis : x y z
#
# Youngs Moduli (GPa) = 32.25428 99.87956 96.62963
#
# Poissons Ratio (x) = -0.17097 0.31858
# Poissons Ratio (y) = -0.05521 0.64085
# Poissons Ratio (z) = 0.10634 0.66240
#
# Static dielectric constant tensor:
#      x y z
#    x 1.725390 0.000000 -0.011900 
#    y 0.000000 1.756970 0.000000 
#    z -0.011900 0.000000 1.692660 
# 
# From -- ./inp_files/166674.got.cif
#   From: 2010.05.17/outbox.cif.g08.bks.cpg/sg12_84_cif.got.tgz:166674.got - 2010.06.03 13:09:07.
