data_PCOD9172814
_publ_section_title
;
Structure prediction by ZEFSAII (Michael W. Deem and Ramdas Pophale) SiO2 
 PCOD9172814
Probable space group: C 2/M
;
_chemical_formula_sum "Si O2"
_cell_formula_units_Z 64
_cell_length_a 20.305116
_cell_length_b 9.040939
_cell_length_c 19.487372
_cell_angle_alpha 90.000000
_cell_angle_beta 82.972619
_cell_angle_gamma 90.000000
_cell_volume 3550.564985
_symmetry_space_group_name_H-M "C 2/M"
_symmetry_group_IT_number 12
_symmetry_cell_setting 'monoclinic'
loop_
_space_group_symop_operation_xyz
x,y,z
-x,y,-z
-x,-y,-z
x,-y,z
1/2+x,1/2+y,z
1/2-x,1/2+y,-z
1/2-x,1/2-y,-z
1/2+x,1/2-y,z
loop_
_atom_site_type_symbol
_atom_site_label
_atom_site_fract_x
_atom_site_fract_y
_atom_site_fract_z
Si Si1 0.701510 0.330817 0.910255
Si Si2 0.850277 0.329856 0.956935
Si Si3 0.890692 0.179530 0.568311
Si Si4 0.258835 0.176581 0.378645
Si Si5 0.739839 0.675598 0.222244
Si Si6 0.516324 0.679080 0.316716
Si Si7 0.602081 0.178081 0.193535
Si Si8 0.889716 0.821936 0.416101
O O1 0.686140 0.500000 0.895287
O O2 0.775559 0.327961 0.934502
O O3 0.708867 0.233755 0.841155
O O4 0.652964 0.267050 0.974418
O O5 0.865362 0.500000 0.972445
O O6 0.895928 0.280726 0.887502
O O7 0.814337 0.224814 0.588218
O O8 0.935188 0.226271 0.626788
O O9 0.913185 0.224280 0.489362
O O10 0.892484 0.000000 0.569989
O O11 0.262858 0.204803 0.296614
O O12 0.318031 0.256563 0.409724
O O13 0.263601 0.000000 0.388921
O O14 0.729377 0.500000 0.215776
O O15 0.669775 0.756500 0.217553
O O16 0.520489 0.500000 0.309338
O O17 0.542006 0.755389 0.244646
O O18 0.442945 0.719871 0.351464
O O19 0.603926 0.000000 0.197025
O O20 0.885964 0.000000 0.417008
#
# Coordination Sequence:
#
# PCOD9172814 Si02
#       8
#     8   8   8   8   8   8   8   8
#     4   9  16  25  40  66  97 128 162 203 246 288
#     4   8  15  26  39  61  95 130 161 195 243 297
#     4   9  17  34  55  75  97 129 171 208 250 304
#     4  10  20  34  52  73 101 135 168 207 253 301
#     4  10  18  30  48  69  96 134 170 203 248 300
#     4  10  19  34  53  74 100 133 170 206 251 305
#     4  10  19  30  47  72  99 129 166 210 251 290
#     4  10  21  34  53  76 100 131 168 212 253 297
#
# _framework density 18.025300000000001
#
# number of rings (size 3 to 8) (size 9 to 14) (size 15 to 20)
#    0.000    2.500    1.250    2.625    0.000    6.500 
#    0.000    0.625    0.000    1.500    0.000    0.875 
#    0.000    7.000    0.000    0.000    0.000    0.000 
#
# Total GULP energy -178416.724604 kJ/mol
# GULP energy per Si atom -5575.522644 kJ/mol
# Density = 1.798427 g / cm^3
# Si number density = 18.025300 Si / 1000 Ang^3
#
#
#
# Elastic Constant Matrix: (Units=GPa)
#
#
# Indices 1 2 3 4 5 6 
#
# 1 24.7591 -0.9401 -5.8397 0.0000 -7.8807 0.0000
# 2 -0.9401 28.4114 26.2154 0.0000 -4.8231 0.0000
# 3 -5.8397 26.2154 84.0279 0.0000 -24.5590 0.0000
# 4 0.0000 0.0000 0.0000 24.5132 0.0000 -2.9240
# 5 -7.8807 -4.8231 -24.5590 0.0000 16.3446 0.0000
# 6 0.0000 0.0000 0.0000 -2.9240 0.0000 16.8957
#
#
#
# Elastic Compliance Matrix: (Units=1/GPa)
#
#
# Indices 1 2 3 4 5 6 
#
# 1 0.073749 -0.014675 0.033576 0.000000 0.081678 0.000000
# 2 -0.014675 0.054591 -0.027479 0.000000 -0.032255 0.000000
# 3 0.033576 -0.027479 0.044877 0.000000 0.075511 0.000000
# 4 0.000000 0.000000 0.000000 0.041654 0.000000 0.007209
# 5 0.081678 -0.032255 0.075511 0.000000 0.204506 0.000000
# 6 0.000000 0.000000 0.000000 0.007209 0.000000 0.060434
#
#
# Mechanical properties :
#
#
# Convention : Reuss Voigt Hill
#
# Bulk Modulus (GPa) = 6.40778 19.56331 12.98554
# Shear Modulus (GPa) = 9.10770 19.40155 14.25462
#
# Velocity S-wave (km/s) = 2.25027 3.28434 2.81519
# Velocity P-wave (km/s) = 3.21157 5.02586 4.21743
#
# Compressibility (1/GPa) = 0.15606040
#
# Stress axis : x y z
#
# Youngs Moduli (GPa) = 13.55959 18.31813 22.28324
#
# Poissons Ratio (x) = 0.26882 -0.74818
# Poissons Ratio (y) = 0.19899 0.61231
# Poissons Ratio (z) = -0.45527 0.50336
#
# Static dielectric constant tensor:
#      x y z
#    x 1.597280 0.000000 -0.022250 
#    y 0.000000 1.604880 0.000000 
#    z -0.022250 0.000000 1.637170 
# 
# From -- ./inp_files/319084.got.cif
#   From: 2010.05.17/outbox.cif.g08.bks.cpg/sg12_160_cif.got.tgz:319084.got - 2010.06.03 13:09:07.
