data_PCOD9172097
_publ_section_title
;
Structure prediction by ZEFSAII (Michael W. Deem and Ramdas Pophale) SiO2 
 PCOD9172097
Probable space group: C 2/M
;
_chemical_formula_sum "Si O2"
_cell_formula_units_Z 52
_cell_length_a 16.016248
_cell_length_b 17.802088
_cell_length_c 13.670216
_cell_angle_alpha 90.000000
_cell_angle_beta 41.896515
_cell_angle_gamma 90.000000
_cell_volume 2602.826674
_symmetry_space_group_name_H-M "C 2/M"
_symmetry_group_IT_number 12
_symmetry_cell_setting 'monoclinic'
loop_
_space_group_symop_operation_xyz
x,y,z
-x,y,-z
-x,-y,-z
x,-y,z
1/2+x,1/2+y,z
1/2-x,1/2+y,-z
1/2-x,1/2-y,-z
1/2+x,1/2-y,z
loop_
_atom_site_type_symbol
_atom_site_label
_atom_site_fract_x
_atom_site_fract_y
_atom_site_fract_z
Si Si1 0.662305 0.918107 0.938304
Si Si2 0.256319 0.114835 0.342643
Si Si3 0.897334 0.252052 0.963966
Si Si4 0.810786 0.085756 0.387118
Si Si5 0.312807 0.719304 0.244044
Si Si6 0.000000 0.135481 0.500000
Si Si7 0.421275 0.645430 0.770574
O O1 0.657921 0.910129 0.823148
O O2 0.807557 0.910568 0.845634
O O3 0.613858 0.000000 0.008745
O O4 0.604149 0.842418 0.033178
O O5 0.272173 0.093067 0.441296
O O6 0.251045 0.205467 0.340829
O O7 0.118264 0.087852 0.431810
O O8 0.871712 0.209042 0.886200
O O9 0.039791 0.229345 0.863103
O O10 0.809344 0.222996 0.129290
O O11 0.771897 0.145226 0.337702
O O12 0.953933 0.107203 0.294173
O O13 0.807776 0.000000 0.355845
O O14 0.958928 0.179278 0.632486
#
# Coordination Sequence:
#
# PCOD9172097 Si02
#       7
#     8   8   8   8   8   4   8
#     4  10  18  29  46  70  93 117 149 189 227 263
#     4   9  17  30  47  68  93 118 145 183 229 272
#     4   9  18  32  47  64  90 124 156 182 215 268
#     4  10  18  29  46  70  93 117 149 189 227 263
#     4   9  18  32  47  64  90 124 156 182 215 268
#     4   8  16  28  49  72  85 108 148 182 220 268
#     4   9  17  30  47  68  93 118 145 183 229 272
#
# _framework density 19.978279000000001
#
# number of rings (size 3 to 8) (size 9 to 14) (size 15 to 20)
#    0.000    2.769    0.000    1.846    0.000    0.000 
#    0.000   18.462    0.000    0.000    0.000    1.077 
#    0.000    0.000    0.000    0.000    0.000    0.000 
#
# Total GULP energy -144825.824292 kJ/mol
# GULP energy per Si atom -5570.224011 kJ/mol
# Density = 1.993281 g / cm^3
# Si number density = 19.978279 Si / 1000 Ang^3
#
#
#
# Elastic Constant Matrix: (Units=GPa)
#
#
# Indices 1 2 3 4 5 6 
#
# 1 47.5524 32.0206 15.7129 0.0000 22.2035 0.0000
# 2 32.0206 165.5437 47.2758 0.0000 41.1488 0.0000
# 3 15.7129 47.2758 54.6955 0.0000 26.4594 0.0000
# 4 0.0000 0.0000 0.0000 11.0350 0.0000 -1.7401
# 5 22.2035 41.1488 26.4594 0.0000 29.9619 0.0000
# 6 0.0000 0.0000 0.0000 -1.7401 0.0000 14.4471
#
#
#
# Elastic Compliance Matrix: (Units=1/GPa)
#
#
# Indices 1 2 3 4 5 6 
#
# 1 0.032749 -0.000899 0.004385 0.000000 -0.026908 0.000000
# 2 -0.000899 0.009529 -0.003438 0.000000 -0.009385 0.000000
# 3 0.004385 -0.003438 0.033665 0.000000 -0.028257 0.000000
# 4 0.000000 0.000000 0.000000 0.092375 0.000000 0.011126
# 5 -0.026908 -0.009385 -0.028257 0.000000 0.091158 0.000000
# 6 0.000000 0.000000 0.000000 0.011126 0.000000 0.070558
#
#
# Mechanical properties :
#
#
# Convention : Reuss Voigt Hill
#
# Bulk Modulus (GPa) = 13.15100 50.86783 32.00941
# Shear Modulus (GPa) = 14.07322 22.60762 18.34042
#
# Velocity S-wave (km/s) = 2.65698 3.36759 3.03317
# Velocity P-wave (km/s) = 4.00121 6.37477 5.32200
#
# Compressibility (1/GPa) = 0.07603985
#
# Stress axis : x y z
#
# Youngs Moduli (GPa) = 30.53488 104.94067 29.70471
#
# Poissons Ratio (x) = 0.09430 -0.13026
# Poissons Ratio (y) = 0.02744 0.10214
# Poissons Ratio (z) = -0.13390 0.36083
#
# Static dielectric constant tensor:
#      x y z
#    x 1.778390 0.000000 -0.032090 
#    y 0.000000 1.688590 0.000000 
#    z -0.032090 0.000000 1.771950 
# 
# From -- ./inp_files/225615.got.cif
#   From: 2010.05.17/outbox.cif.g08.bks.cpg/sg12_113_cif.got.tgz:225615.got - 2010.06.03 13:09:07.
