data_PCOD9172752
_publ_section_title
;
Structure prediction by ZEFSAII (Michael W. Deem and Ramdas Pophale) SiO2 
 PCOD9172752
Probable space group: C 2/M
;
_chemical_formula_sum "Si O2"
_cell_formula_units_Z 64
_cell_length_a 31.073726
_cell_length_b 8.642204
_cell_length_c 15.491859
_cell_angle_alpha 90.000000
_cell_angle_beta 79.214736
_cell_angle_gamma 90.000000
_cell_volume 4086.779262
_symmetry_space_group_name_H-M "C 2/M"
_symmetry_group_IT_number 12
_symmetry_cell_setting 'monoclinic'
loop_
_space_group_symop_operation_xyz
x,y,z
-x,y,-z
-x,-y,-z
x,-y,z
1/2+x,1/2+y,z
1/2-x,1/2+y,-z
1/2-x,1/2-y,-z
1/2+x,1/2-y,z
loop_
_atom_site_type_symbol
_atom_site_label
_atom_site_fract_x
_atom_site_fract_y
_atom_site_fract_z
Si Si1 0.530452 0.811898 0.113105
Si Si2 0.962976 0.314182 0.694306
Si Si3 0.441194 0.687111 0.381196
Si Si4 0.194517 0.314964 0.434219
Si Si5 0.434774 0.186500 0.080012
Si Si6 0.103382 0.814842 0.420707
Si Si7 0.292919 0.686994 0.378767
Si Si8 0.877507 0.186210 0.247613
O O1 0.542884 0.760742 0.204135
O O2 0.480552 0.765757 0.108823
O O3 0.530684 0.000000 0.112912
O O4 0.560662 0.762677 0.021371
O O5 0.962420 0.500000 0.692947
O O6 0.925843 0.250646 0.645347
O O7 0.010594 0.256605 0.645688
O O8 0.444299 0.500000 0.379173
O O9 0.418330 0.733244 0.479532
O O10 0.410933 0.734793 0.311623
O O11 0.191248 0.500000 0.434469
O O12 0.153116 0.243838 0.401594
O O13 0.242500 0.270313 0.379922
O O14 0.194255 0.256377 0.533254
O O15 0.395134 0.249957 0.151043
O O16 0.433375 0.000000 0.081832
O O17 0.102889 0.000000 0.418198
O O18 0.294956 0.500000 0.386177
O O19 0.328918 0.734700 0.295119
O O20 0.878391 0.000000 0.244136
#
# Coordination Sequence:
#
# PCOD9172752 Si02
#       8
#     8   8   8   8   8   8   8   8
#     4   8  16  30  47  66  93 123 152 194 242 278
#     4  11  21  33  49  70  93 123 166 206 232 268
#     4  10  20  33  46  63  95 135 164 186 229 281
#     4  10  19  31  50  72  92 121 164 202 230 274
#     4   9  16  30  49  68  91 123 157 190 235 282
#     4  11  22  36  49  64  95 134 163 194 240 283
#     4   9  18  33  49  68  98 129 153 189 244 288
#     4  10  18  30  47  70  98 128 155 186 232 284
#
# _framework density 15.660253000000001
#
# number of rings (size 3 to 8) (size 9 to 14) (size 15 to 20)
#    0.000    2.250    2.500    2.250    0.000    3.500 
#    0.000    2.500    0.000    0.000    0.000    0.875 
#    0.000    0.000    0.000    0.000    0.000    0.000 
#
# Total GULP energy -178460.153532 kJ/mol
# GULP energy per Si atom -5576.879798 kJ/mol
# Density = 1.562461 g / cm^3
# Si number density = 15.660253 Si / 1000 Ang^3
#
#
#
# Elastic Constant Matrix: (Units=GPa)
#
#
# Indices 1 2 3 4 5 6 
#
# 1 125.4510 28.5452 70.3857 0.0000 -14.0278 0.0000
# 2 28.5452 14.8331 22.3546 0.0000 -2.9074 0.0000
# 3 70.3857 22.3546 101.2165 0.0000 -15.7122 0.0000
# 4 0.0000 0.0000 0.0000 21.8511 0.0000 -2.7323
# 5 -14.0278 -2.9074 -15.7122 0.0000 25.7395 0.0000
# 6 0.0000 0.0000 0.0000 -2.7323 0.0000 22.6313
#
#
#
# Elastic Compliance Matrix: (Units=1/GPa)
#
#
# Indices 1 2 3 4 5 6 
#
# 1 0.017009 -0.022503 -0.006422 0.000000 0.002808 0.000000
# 2 -0.022503 0.130964 -0.014232 0.000000 -0.006158 0.000000
# 3 -0.006422 -0.014232 0.018444 0.000000 0.006151 0.000000
# 4 0.000000 0.000000 0.000000 0.046466 0.000000 0.005610
# 5 0.002808 -0.006158 0.006151 0.000000 0.043440 0.000000
# 6 0.000000 0.000000 0.000000 0.005610 0.000000 0.044864
#
#
# Mechanical properties :
#
#
# Convention : Reuss Voigt Hill
#
# Bulk Modulus (GPa) = 12.48401 53.78572 33.13486
# Shear Modulus (GPa) = 12.07142 22.05873 17.06508
#
# Velocity S-wave (km/s) = 2.77940 3.75718 3.30465
# Velocity P-wave (km/s) = 4.27658 7.29670 5.98042
#
# Compressibility (1/GPa) = 0.08010249
#
# Stress axis : x y z
#
# Youngs Moduli (GPa) = 58.79355 7.63566 54.21919
#
# Poissons Ratio (x) = 0.17183 0.34819
# Poissons Ratio (y) = 1.32305 0.77164
# Poissons Ratio (z) = 0.37757 0.10867
#
# Static dielectric constant tensor:
#      x y z
#    x 1.511250 0.000000 -0.013770 
#    y 0.000000 1.532620 0.000000 
#    z -0.013770 0.000000 1.521120 
# 
# From -- ./inp_files/248297.got.cif
#   From: 2010.05.17/outbox.cif.g08.bks.cpg/sg12_125_cif.got.tgz:248297.got - 2010.06.03 13:09:07.
