data_PCOD9172729
_publ_section_title
;
Structure prediction by ZEFSAII (Michael W. Deem and Ramdas Pophale) SiO2 
 PCOD9172729
Probable space group: C 2/M
;
_chemical_formula_sum "Si O2"
_cell_formula_units_Z 32
_cell_length_a 12.769305
_cell_length_b 32.038856
_cell_length_c 5.205949
_cell_angle_alpha 90.000000
_cell_angle_beta 58.577192
_cell_angle_gamma 90.000000
_cell_volume 1817.473000
_symmetry_space_group_name_H-M "C 2/M"
_symmetry_group_IT_number 12
_symmetry_cell_setting 'monoclinic'
loop_
_space_group_symop_operation_xyz
x,y,z
-x,y,-z
-x,-y,-z
x,-y,z
1/2+x,1/2+y,z
1/2-x,1/2+y,-z
1/2-x,1/2-y,-z
1/2+x,1/2-y,z
loop_
_atom_site_type_symbol
_atom_site_label
_atom_site_fract_x
_atom_site_fract_y
_atom_site_fract_z
Si Si1 0.344877 0.288042 0.405873
Si Si2 0.085976 0.500000 0.138723
Si Si3 0.087714 0.408255 0.139227
Si Si4 0.735837 0.173964 0.059040
Si Si5 0.500000 0.768773 0.500000
O O1 0.250000 0.250000 0.500000
O O2 0.322064 0.318863 0.197149
O O3 0.468210 0.262631 0.309085
O O4 0.305835 0.310553 0.718319
O O5 0.148148 0.454527 0.050108
O O6 0.000000 0.500000 0.500000
O O7 0.000000 0.500000 0.000000
O O8 0.185233 0.371887 0.060876
O O9 0.000000 0.407483 0.500000
O O10 0.000000 0.401598 0.000000
O O11 0.614383 0.202312 0.272171
#
# Coordination Sequence:
#
# PCOD9172729 Si02
#       5
#     8   4   8   8   4
#     4  10  22  33  45  67  89 120 162 198 223 270
#     4   8  16  28  44  66  92 119 148 177 224 282
#     4  10  18  30  47  68  94 124 150 184 228 276
#     4  11  21  32  48  69  90 122 163 186 225 279
#     4  10  20  34  48  61  96 125 154 194 238 252
#
# _framework density 17.606864999999999
#
# number of rings (size 3 to 8) (size 9 to 14) (size 15 to 20)
#    0.000    2.000    1.250    4.500    3.500    5.000 
#    0.000    0.000    0.000    0.000    0.000    0.000 
#    0.000    6.000    0.000    0.000    0.000    0.125 
#
# Total GULP energy -89133.355576 kJ/mol
# GULP energy per Si atom -5570.834724 kJ/mol
# Density = 1.756679 g / cm^3
# Si number density = 17.606865 Si / 1000 Ang^3
#
#
#
# Elastic Constant Matrix: (Units=GPa)
#
#
# Indices 1 2 3 4 5 6 
#
# 1 67.2547 45.0444 16.6507 0.0000 27.3173 0.0000
# 2 45.0444 157.3249 21.0563 0.0000 13.3878 0.0000
# 3 16.6507 21.0563 85.1471 0.0000 37.0950 0.0000
# 4 0.0000 0.0000 0.0000 16.0857 0.0000 7.0849
# 5 27.3173 13.3878 37.0950 0.0000 35.7604 0.0000
# 6 0.0000 0.0000 0.0000 7.0849 0.0000 24.2495
#
#
#
# Elastic Compliance Matrix: (Units=1/GPa)
#
#
# Indices 1 2 3 4 5 6 
#
# 1 0.028905 -0.006999 0.008313 0.000000 -0.028084 0.000000
# 2 -0.006999 0.008308 -0.003029 0.000000 0.005378 0.000000
# 3 0.008313 -0.003029 0.023975 0.000000 -0.030087 0.000000
# 4 0.000000 0.000000 0.000000 0.071348 0.000000 -0.020846
# 5 -0.028084 0.005378 -0.030087 0.000000 0.078613 0.000000
# 6 0.000000 0.000000 0.000000 -0.020846 0.000000 0.047328
#
#
# Mechanical properties :
#
#
# Convention : Reuss Voigt Hill
#
# Bulk Modulus (GPa) = 17.31307 52.80327 35.05817
# Shear Modulus (GPa) = 17.78346 30.35080 24.06713
#
# Velocity S-wave (km/s) = 3.18154 4.15638 3.70120
# Velocity P-wave (km/s) = 4.83226 7.28624 6.18223
#
# Compressibility (1/GPa) = 0.05775984
#
# Stress axis : x y z
#
# Youngs Moduli (GPa) = 34.59575 120.36804 41.70985
#
# Poissons Ratio (x) = 0.84243 -0.34675
# Poissons Ratio (y) = 0.24213 0.12633
# Poissons Ratio (z) = -0.28761 0.36457
#
# Static dielectric constant tensor:
#      x y z
#    x 1.651220 0.000000 0.019650 
#    y 0.000000 1.641100 0.000000 
#    z 0.019650 0.000000 1.623600 
# 
# From -- ./inp_files/7992.got.cif
#   From: 2010.05.17/outbox.cif.g08.bks.cpg/sg12_4_cif.got.tgz:7992.got - 2010.06.03 13:09:07.
