data_PCOD9172047
_publ_section_title
;
Structure prediction by ZEFSAII (Michael W. Deem and Ramdas Pophale) SiO2 
 PCOD9172047
Probable space group: C 2/M
;
_chemical_formula_sum "Si O2"
_cell_formula_units_Z 64
_cell_length_a 28.444151
_cell_length_b 9.098410
_cell_length_c 20.261413
_cell_angle_alpha 90.000000
_cell_angle_beta 132.288683
_cell_angle_gamma 90.000000
_cell_volume 3879.014551
_symmetry_space_group_name_H-M "C 2/M"
_symmetry_group_IT_number 12
_symmetry_cell_setting 'monoclinic'
loop_
_space_group_symop_operation_xyz
x,y,z
-x,y,-z
-x,-y,-z
x,-y,z
1/2+x,1/2+y,z
1/2-x,1/2+y,-z
1/2-x,1/2-y,-z
1/2+x,1/2-y,z
loop_
_atom_site_type_symbol
_atom_site_label
_atom_site_fract_x
_atom_site_fract_y
_atom_site_fract_z
Si Si1 0.794290 0.676720 0.597504
Si Si2 0.953921 0.831509 0.373784
Si Si3 0.677800 0.825098 0.739977
Si Si4 0.417871 0.829633 0.519491
Si Si5 0.711954 0.324662 0.646587
Si Si6 0.438766 0.332556 0.199899
Si Si7 0.808344 0.675372 0.092238
Si Si8 0.065731 0.669869 0.306209
O O1 0.793167 0.500000 0.585680
O O2 0.750000 0.750000 0.500000
O O3 0.765288 0.706595 0.642128
O O4 0.867471 0.725026 0.659822
O O5 0.893510 0.736689 0.338882
O O6 0.948579 0.834728 0.288683
O O7 0.021476 0.756809 0.451374
O O8 0.949606 0.000000 0.392951
O O9 0.721737 0.745991 0.727672
O O10 0.694616 0.791869 0.831888
O O11 0.678686 0.000000 0.732034
O O12 0.352818 0.748237 0.441290
O O13 0.425306 0.829042 0.605961
O O14 0.417056 0.000000 0.497293
O O15 0.704520 0.500000 0.645053
O O16 0.429833 0.500000 0.169430
O O17 0.375306 0.238478 0.129305
O O18 0.502804 0.262104 0.231400
O O19 0.806865 0.500000 0.083151
O O20 0.750000 0.750000 0.000000
O O21 0.056190 0.500000 0.277324
#
# Coordination Sequence:
#
# PCOD9172047 Si02
#       8
#     8   8   8   8   8   8   8   8
#     4  10  20  33  49  70  96 131 176 221 260 296
#     4   9  17  30  47  67  94 126 164 206 245 287
#     4  10  21  36  51  70  98 130 163 198 243 297
#     4  10  18  29  46  66  92 129 170 209 251 294
#     4  11  22  33  47  68  96 130 171 214 253 292
#     4   9  17  29  48  75 103 130 161 200 244 294
#     4  10  20  35  57  82 106 131 158 194 240 299
#     4   9  17  30  47  68  97 132 169 212 255 293
#
# _framework density 16.499034999999999
#
# number of rings (size 3 to 8) (size 9 to 14) (size 15 to 20)
#    0.000    2.250    1.250    2.250    0.000    6.500 
#    0.000    2.500    0.000    0.000    0.000    0.875 
#    0.000    7.000    0.000    0.000    0.000    0.000 
#
# Total GULP energy -178594.005406 kJ/mol
# GULP energy per Si atom -5581.062669 kJ/mol
# Density = 1.646148 g / cm^3
# Si number density = 16.499035 Si / 1000 Ang^3
#
#
#
# Elastic Constant Matrix: (Units=GPa)
#
#
# Indices 1 2 3 4 5 6 
#
# 1 127.5710 62.7553 47.8065 0.0000 17.5729 0.0000
# 2 62.7553 95.7723 46.7824 0.0000 8.3860 0.0000
# 3 47.8065 46.7824 81.9760 0.0000 18.9110 0.0000
# 4 0.0000 0.0000 0.0000 24.7753 0.0000 3.6694
# 5 17.5729 8.3860 18.9110 0.0000 19.5533 0.0000
# 6 0.0000 0.0000 0.0000 3.6694 0.0000 24.7000
#
#
#
# Elastic Compliance Matrix: (Units=1/GPa)
#
#
# Indices 1 2 3 4 5 6 
#
# 1 0.012909 -0.006861 -0.002079 0.000000 -0.006648 0.000000
# 2 -0.006861 0.018204 -0.007735 0.000000 0.005839 0.000000
# 3 -0.002079 -0.007735 0.021405 0.000000 -0.015516 0.000000
# 4 0.000000 0.000000 0.000000 0.041271 0.000000 -0.006131
# 5 -0.006648 0.005839 -0.015516 0.000000 0.069619 0.000000
# 6 0.000000 0.000000 0.000000 -0.006131 0.000000 0.041397
#
#
# Mechanical properties :
#
#
# Convention : Reuss Voigt Hill
#
# Bulk Modulus (GPa) = 52.17019 68.88974 60.52997
# Shear Modulus (GPa) = 20.44643 23.67072 22.05858
#
# Velocity S-wave (km/s) = 3.52412 3.79182 3.66042
# Velocity P-wave (km/s) = 6.94608 7.81121 7.39131
#
# Compressibility (1/GPa) = 0.01916803
#
# Stress axis : x y z
#
# Youngs Moduli (GPa) = 77.46760 54.93333 46.71914
#
# Poissons Ratio (x) = 0.37688 0.09713
# Poissons Ratio (y) = 0.53149 0.36136
# Poissons Ratio (z) = 0.16106 0.42489
#
# Static dielectric constant tensor:
#      x y z
#    x 1.568680 0.000000 -0.020510 
#    y 0.000000 1.557510 0.000000 
#    z -0.020510 0.000000 1.542210 
# 
# From -- ./inp_files/326935.got.cif
#   From: 2010.05.17/outbox.cif.g08.bks.cpg/sg12_164_cif.got.tgz:326935.got - 2010.06.03 13:09:07.
