data_PCOD9172032
_publ_section_title
;
Structure prediction by ZEFSAII (Michael W. Deem and Ramdas Pophale) SiO2 
 PCOD9172032
Probable space group: C 2/M
;
_chemical_formula_sum "Si O2"
_cell_formula_units_Z 64
_cell_length_a 14.117806
_cell_length_b 26.581116
_cell_length_c 14.362805
_cell_angle_alpha 90.000000
_cell_angle_beta 141.399450
_cell_angle_gamma 90.000000
_cell_volume 3362.681152
_symmetry_space_group_name_H-M "C 2/M"
_symmetry_group_IT_number 12
_symmetry_cell_setting 'monoclinic'
loop_
_space_group_symop_operation_xyz
x,y,z
-x,y,-z
-x,-y,-z
x,-y,z
1/2+x,1/2+y,z
1/2-x,1/2+y,-z
1/2-x,1/2-y,-z
1/2+x,1/2-y,z
loop_
_atom_site_type_symbol
_atom_site_label
_atom_site_fract_x
_atom_site_fract_y
_atom_site_fract_z
Si Si1 0.163252 0.215490 0.306594
Si Si2 0.535728 0.270107 0.395772
Si Si3 0.211048 0.237512 0.141901
Si Si4 0.727611 0.364911 0.046255
Si Si5 0.350435 0.145777 0.945083
Si Si6 0.395968 0.603871 0.712258
Si Si7 0.180454 0.055950 0.162565
Si Si8 0.526097 0.613288 0.623020
O O1 0.310934 0.246629 0.448680
O O2 0.036874 0.231554 0.284055
O O3 0.120890 0.224589 0.167364
O O4 0.191514 0.156850 0.348377
O O5 0.386091 0.241472 0.310931
O O6 0.528753 0.328394 0.418403
O O7 0.208774 0.191724 0.068657
O O8 0.173871 0.293673 0.079414
O O9 0.756389 0.401469 0.156393
O O10 0.845346 0.367619 0.050948
O O11 0.564648 0.382055 0.879917
O O12 0.203509 0.118570 0.786529
O O13 0.500000 0.133940 0.000000
O O14 0.317090 0.567528 0.725546
O O15 0.429714 0.587875 0.632323
O O16 0.237350 0.000000 0.185272
O O17 0.000000 0.057085 0.000000
O O18 0.500000 0.592427 0.500000
#
# Coordination Sequence:
#
# PCOD9172032 Si02
#       8
#     8   8   8   8   8   8   8   8
#     4  10  18  29  46  63  94 132 170 209 233 284
#     4   9  19  30  41  65  94 133 179 201 230 274
#     4  11  20  29  45  64 101 135 167 199 244 291
#     4  10  20  33  46  71 104 126 160 207 252 302
#     4  10  22  31  47  72 105 138 171 204 243 293
#     4   9  18  31  48  75  96 124 160 208 254 292
#     4   9  17  32  55  78  99 125 159 205 260 312
#     4   9  17  34  49  66 102 138 170 207 242 286
#
# _framework density 19.032430999999999
#
# number of rings (size 3 to 8) (size 9 to 14) (size 15 to 20)
#    0.000    2.375    1.250    3.000    3.500    0.000 
#    0.000    0.000    0.000    0.750    0.000    1.750 
#    0.000    0.000    0.000    0.000    0.000    0.000 
#
# Total GULP energy -178421.579497 kJ/mol
# GULP energy per Si atom -5575.674359 kJ/mol
# Density = 1.898911 g / cm^3
# Si number density = 19.032431 Si / 1000 Ang^3
#
#
#
# Elastic Constant Matrix: (Units=GPa)
#
#
# Indices 1 2 3 4 5 6 
#
# 1 149.0936 28.0420 34.2966 0.0000 -36.9152 0.0000
# 2 28.0420 27.7321 8.4455 0.0000 -3.7869 0.0000
# 3 34.2966 8.4455 33.0882 0.0000 -21.7843 0.0000
# 4 0.0000 0.0000 0.0000 5.5262 0.0000 -1.5453
# 5 -36.9152 -3.7869 -21.7843 0.0000 38.9137 0.0000
# 6 0.0000 0.0000 0.0000 -1.5453 0.0000 11.7888
#
#
#
# Elastic Compliance Matrix: (Units=1/GPa)
#
#
# Indices 1 2 3 4 5 6 
#
# 1 0.011242 -0.008978 -0.004616 0.000000 0.007207 0.000000
# 2 -0.008978 0.046465 -0.008210 0.000000 -0.008591 0.000000
# 3 -0.004616 -0.008210 0.053360 0.000000 0.024693 0.000000
# 4 0.000000 0.000000 0.000000 0.187843 0.000000 0.024623
# 5 0.007207 -0.008591 0.024693 0.000000 0.045522 0.000000
# 6 0.000000 0.000000 0.000000 0.024623 0.000000 0.088054
#
#
# Mechanical properties :
#
#
# Convention : Reuss Voigt Hill
#
# Bulk Modulus (GPa) = 14.82407 39.05356 26.93881
# Shear Modulus (GPa) = 10.02847 20.52106 15.27477
#
# Velocity S-wave (km/s) = 2.29795 3.28718 2.83603
# Velocity P-wave (km/s) = 3.85312 5.91367 4.99089
#
# Compressibility (1/GPa) = 0.06745786
#
# Stress axis : x y z
#
# Youngs Moduli (GPa) = 88.95189 21.52177 18.74055
#
# Poissons Ratio (x) = 0.19322 0.08651
# Poissons Ratio (y) = 0.79858 0.15387
# Poissons Ratio (z) = 0.41064 0.17670
#
# Static dielectric constant tensor:
#      x y z
#    x 1.722490 0.000000 -0.038160 
#    y 0.000000 1.629910 0.000000 
#    z -0.038160 0.000000 1.704590 
# 
# From -- ./inp_files/218956.got.cif
#   From: 2010.05.17/outbox.cif.g08.bks.cpg/sg12_110_cif.got.tgz:218956.got - 2010.06.03 13:09:07.
