data_PCOD9172186
_publ_section_title
;
Structure prediction by ZEFSAII (Michael W. Deem and Ramdas Pophale) SiO2 
 PCOD9172186
Probable space group: C 2/M
;
_chemical_formula_sum "Si O2"
_cell_formula_units_Z 56
_cell_length_a 23.997168
_cell_length_b 8.552218
_cell_length_c 19.101112
_cell_angle_alpha 90.000000
_cell_angle_beta 52.623098
_cell_angle_gamma 90.000000
_cell_volume 3115.146222
_symmetry_space_group_name_H-M "C 2/M"
_symmetry_group_IT_number 12
_symmetry_cell_setting 'monoclinic'
loop_
_space_group_symop_operation_xyz
x,y,z
-x,y,-z
-x,-y,-z
x,-y,z
1/2+x,1/2+y,z
1/2-x,1/2+y,-z
1/2-x,1/2-y,-z
1/2+x,1/2-y,z
loop_
_atom_site_type_symbol
_atom_site_label
_atom_site_fract_x
_atom_site_fract_y
_atom_site_fract_z
Si Si1 0.748076 0.187942 0.665591
Si Si2 0.384523 0.686618 0.314376
Si Si3 0.037873 0.186872 0.211625
Si Si4 0.964950 0.316427 0.629215
Si Si5 0.682035 0.686213 0.250268
Si Si6 0.316255 0.185574 0.907645
Si Si7 0.113688 0.810959 0.522652
O O1 0.676401 0.240715 0.685168
O O2 0.761120 0.236833 0.735723
O O3 0.815860 0.241975 0.569647
O O4 0.750250 0.000000 0.663013
O O5 0.376135 0.500000 0.318670
O O6 0.464357 0.722692 0.230178
O O7 0.379484 0.732780 0.400288
O O8 0.034813 0.278436 0.287581
O O9 0.110833 0.237107 0.121966
O O10 0.039007 0.000000 0.225589
O O11 0.957199 0.500000 0.622367
O O12 0.894896 0.226231 0.659525
O O13 0.041363 0.258134 0.547266
O O14 0.685583 0.500000 0.236601
O O15 0.690344 0.768378 0.169251
O O16 0.320896 0.000000 0.910763
O O17 0.250000 0.250000 0.000000
O O18 0.108203 0.000000 0.523427
#
# Coordination Sequence:
#
# PCOD9172186 Si02
#       7
#     8   8   8   8   8   8   8
#     4  10  21  33  49  70  98 137 177 212 251 295
#     4   9  18  31  50  72 100 135 172 212 251 287
#     4   9  17  32  52  76 103 132 163 201 247 297
#     4  10  18  29  47  71  96 129 169 213 256 297
#     4  10  20  35  51  72 102 135 166 203 251 305
#     4  11  21  35  58  85 106 128 156 197 246 298
#     4   9  18  33  48  68  97 134 176 217 257 296
#
# _framework density 17.976683999999999
#
# number of rings (size 3 to 8) (size 9 to 14) (size 15 to 20)
#    0.000    2.286    0.000    6.429    0.000    5.143 
#    0.000    2.857    0.000    0.857    0.000    6.000 
#    0.000    0.000    0.000    0.000    0.000    0.000 
#
# Total GULP energy -156189.692550 kJ/mol
# GULP energy per Si atom -5578.203305 kJ/mol
# Density = 1.793577 g / cm^3
# Si number density = 17.976684 Si / 1000 Ang^3
#
#
#
# Elastic Constant Matrix: (Units=GPa)
#
#
# Indices 1 2 3 4 5 6 
#
# 1 105.8088 7.5550 42.8562 0.0000 -12.0728 0.0000
# 2 7.5550 38.5149 13.6252 -0.0005 -0.4035 0.0005
# 3 42.8562 13.6252 94.3238 0.0000 -23.1252 0.0001
# 4 0.0000 -0.0005 0.0000 21.9839 0.0002 -8.7509
# 5 -12.0728 -0.4035 -23.1252 0.0002 21.4120 -0.0001
# 6 0.0000 0.0005 0.0001 -8.7509 -0.0001 28.9255
#
#
#
# Elastic Compliance Matrix: (Units=1/GPa)
#
#
# Indices 1 2 3 4 5 6 
#
# 1 0.011614 -0.000534 -0.004892 0.000000 0.001255 0.000000
# 2 -0.000534 0.027803 -0.005058 0.000001 -0.005240 0.000000
# 3 -0.004892 -0.005058 0.017485 0.000000 0.016031 0.000000
# 4 0.000000 0.000001 0.000000 0.051716 -0.000001 0.015646
# 5 0.001255 -0.005240 0.016031 -0.000001 0.064625 0.000000
# 6 0.000000 0.000000 0.000000 0.015646 0.000000 0.039305
#
#
# Mechanical properties :
#
#
# Convention : Reuss Voigt Hill
#
# Bulk Modulus (GPa) = 27.82923 40.74669 34.28796
# Shear Modulus (GPa) = 20.36704 26.10502 23.23603
#
# Velocity S-wave (km/s) = 3.36961 3.81486 3.59913
# Velocity P-wave (km/s) = 5.53655 6.48998 6.03213
#
# Compressibility (1/GPa) = 0.03593344
#
# Stress axis : x y z
#
# Youngs Moduli (GPa) = 86.10503 35.96689 57.19084
#
# Poissons Ratio (x) = 0.01922 0.27977
# Poissons Ratio (y) = 0.04602 0.28928
# Poissons Ratio (z) = 0.42121 0.18193
#
# Static dielectric constant tensor:
#      x y z
#    x 1.634700 0.000000 -0.005130 
#    y 0.000000 1.605900 0.000000 
#    z -0.005130 0.000000 1.634730 
# 
# From -- ./inp_files/320275.got.cif
#   From: 2010.05.17/outbox.cif.g08.bks.cpg/sg12_161_cif.got.tgz:320275.got - 2010.06.03 13:09:07.
