data_PCOD9172508
_publ_section_title
;
Structure prediction by ZEFSAII (Michael W. Deem and Ramdas Pophale) SiO2 
 PCOD9172508
Probable space group: C 2/M
;
_chemical_formula_sum "Si O2"
_cell_formula_units_Z 48
_cell_length_a 20.912998
_cell_length_b 17.541305
_cell_length_c 12.302953
_cell_angle_alpha 90.000000
_cell_angle_beta 39.195005
_cell_angle_gamma 90.000000
_cell_volume 2852.189310
_symmetry_space_group_name_H-M "C 2/M"
_symmetry_group_IT_number 12
_symmetry_cell_setting 'monoclinic'
loop_
_space_group_symop_operation_xyz
x,y,z
-x,y,-z
-x,-y,-z
x,-y,z
1/2+x,1/2+y,z
1/2-x,1/2+y,-z
1/2-x,1/2-y,-z
1/2+x,1/2-y,z
loop_
_atom_site_type_symbol
_atom_site_label
_atom_site_fract_x
_atom_site_fract_y
_atom_site_fract_z
Si Si1 0.239255 0.087859 0.509822
Si Si2 0.116790 0.337093 0.848995
Si Si3 0.856279 0.092451 0.927322
Si Si4 0.433498 0.411800 0.445727
Si Si5 0.617449 0.654876 0.869161
Si Si6 0.234760 0.092199 0.172265
O O1 0.326425 0.135608 0.335201
O O2 0.145814 0.089863 0.548372
O O3 0.194151 0.119567 0.680600
O O4 0.271304 0.000000 0.479411
O O5 0.121130 0.245964 0.853174
O O6 0.175576 0.372984 0.874527
O O7 0.000000 0.361017 0.000000
O O8 0.772307 0.109913 0.946179
O O9 0.962140 0.120880 0.735377
O O10 0.860320 0.000000 0.934270
O O11 0.849694 0.128798 0.054214
O O12 0.456496 0.500000 0.441212
O O13 0.370203 0.381309 0.631232
O O14 0.500000 0.630665 0.000000
O O15 0.238318 0.000000 0.179192
#
# Coordination Sequence:
#
# PCOD9172508 Si02
#       6
#     8   8   8   8   8   8
#     4  10  19  33  55  79 103 134 175 216 258 304
#     4  10  22  37  53  74 102 141 181 220 251 295
#     4  10  18  29  50  78 109 137 164 206 261 317
#     4   8  14  26  47  75 104 128 157 204 255 304
#     4  11  21  33  51  79 114 143 162 200 266 329
#     4   9  18  32  51  76 101 134 179 218 253 294
#
# _framework density 16.829177999999999
#
# number of rings (size 3 to 8) (size 9 to 14) (size 15 to 20)
#    0.000    2.333    1.667    3.000    0.000    4.667 
#    0.000    0.000    0.000    1.000    0.000    3.500 
#    0.000    0.000    0.000    0.000    0.000    0.000 
#
# Total GULP energy -133721.149634 kJ/mol
# GULP energy per Si atom -5571.714568 kJ/mol
# Density = 1.679087 g / cm^3
# Si number density = 16.829178 Si / 1000 Ang^3
#
#
#
# Elastic Constant Matrix: (Units=GPa)
#
#
# Indices 1 2 3 4 5 6 
#
# 1 93.6822 36.2135 87.4134 0.0000 28.5190 0.0000
# 2 36.2135 47.1511 41.6964 0.0000 8.1073 0.0000
# 3 87.4134 41.6964 123.1434 0.0000 15.5290 0.0000
# 4 0.0000 0.0000 0.0000 23.4578 0.0000 1.9911
# 5 28.5190 8.1073 15.5290 0.0000 29.8108 0.0000
# 6 0.0000 0.0000 0.0000 1.9911 0.0000 23.5898
#
#
#
# Elastic Compliance Matrix: (Units=1/GPa)
#
#
# Indices 1 2 3 4 5 6 
#
# 1 0.050174 -0.007395 -0.029233 0.000000 -0.030761 0.000000
# 2 -0.007395 0.031632 -0.005639 0.000000 0.001409 0.000000
# 3 -0.029233 -0.005639 0.028964 0.000000 0.014412 0.000000
# 4 0.000000 0.000000 0.000000 0.042937 0.000000 -0.003624
# 5 -0.030761 0.001409 0.014412 0.000000 0.055082 0.000000
# 6 0.000000 0.000000 0.000000 -0.003624 0.000000 0.042697
#
#
# Mechanical properties :
#
#
# Convention : Reuss Voigt Hill
#
# Bulk Modulus (GPa) = 38.11572 66.06927 52.09250
# Shear Modulus (GPa) = 14.50252 21.94857 18.22555
#
# Velocity S-wave (km/s) = 2.93874 3.61529 3.29443
# Velocity P-wave (km/s) = 5.84916 7.53466 6.74477
#
# Compressibility (1/GPa) = 0.02623589
#
# Stress axis : x y z
#
# Youngs Moduli (GPa) = 19.93044 31.61310 34.52575
#
# Poissons Ratio (x) = 0.23378 1.00930
# Poissons Ratio (y) = 0.14738 0.19470
# Poissons Ratio (z) = 0.58263 0.17827
#
# Static dielectric constant tensor:
#      x y z
#    x 1.582870 0.000000 0.007210 
#    y 0.000000 1.562360 0.000000 
#    z 0.007210 0.000000 1.579150 
# 
# From -- ./inp_files/131750.got.cif
#   From: 2010.05.17/outbox.cif.g08.bks.cpg/sg12_66_cif.got.tgz:131750.got - 2010.06.03 13:09:07.
