data_PCOD9172216
_publ_section_title
;
Structure prediction by ZEFSAII (Michael W. Deem and Ramdas Pophale) SiO2 
 PCOD9172216
Probable space group: C 2/M
;
_chemical_formula_sum "Si O2"
_cell_formula_units_Z 60
_cell_length_a 24.724914
_cell_length_b 14.769577
_cell_length_c 22.225183
_cell_angle_alpha 90.000000
_cell_angle_beta 27.965068
_cell_angle_gamma 90.000000
_cell_volume 3805.915470
_symmetry_space_group_name_H-M "C 2/M"
_symmetry_group_IT_number 12
_symmetry_cell_setting 'monoclinic'
loop_
_space_group_symop_operation_xyz
x,y,z
-x,y,-z
-x,-y,-z
x,-y,z
1/2+x,1/2+y,z
1/2-x,1/2+y,-z
1/2-x,1/2-y,-z
1/2+x,1/2-y,z
loop_
_atom_site_type_symbol
_atom_site_label
_atom_site_fract_x
_atom_site_fract_y
_atom_site_fract_z
Si Si1 0.628038 0.230991 0.991762
Si Si2 0.885902 0.718429 0.760929
Si Si3 0.500000 0.732703 0.000000
Si Si4 0.012384 0.899432 0.819266
Si Si5 0.939319 0.899813 0.762934
Si Si6 0.553582 0.103631 0.513461
Si Si7 0.670321 0.894432 0.062515
Si Si8 0.685221 0.605280 0.753103
O O1 0.762634 0.257143 0.852073
O O2 0.558873 0.213334 0.997658
O O3 0.568761 0.320572 0.077176
O O4 0.623580 0.153026 0.047313
O O5 0.947905 0.813992 0.712330
O O6 0.861596 0.666383 0.848169
O O7 0.968348 0.658020 0.639697
O O8 0.398695 0.667325 0.124702
O O9 0.129590 0.894131 0.741403
O O10 0.023635 0.891558 0.736886
O O11 0.961900 0.000000 0.880923
O O12 0.951238 0.000000 0.723969
O O13 0.809412 0.893883 0.918172
O O14 0.500000 0.102880 0.500000
O O15 0.684148 0.138508 0.379034
O O16 0.562166 0.000000 0.527089
O O17 0.635232 0.000000 0.103196
O O18 0.684367 0.500000 0.775582
#
# Coordination Sequence:
#
# PCOD9172216 Si02
#       8
#     8   8   4   8   8   8   8   8
#     4  10  18  30  45  75  99 123 165 204 234 284
#     4  11  18  30  51  73  98 128 161 193 247 294
#     4  10  19  30  53  68  96 132 162 196 242 282
#     4   9  15  26  46  67  96 122 147 196 243 275
#     4   9  16  28  47  74 100 121 153 202 244 278
#     4  10  21  34  46  66  99 131 160 192 233 292
#     4  10  18  29  47  73 102 128 161 204 241 281
#     4   9  18  31  45  69  96 124 160 197 234 284
#
# _framework density 15.764932
#
# number of rings (size 3 to 8) (size 9 to 14) (size 15 to 20)
#    0.000    2.267    2.667    2.200    0.000    1.067 
#    0.000    1.000    0.000    0.400    0.000    0.933 
#    0.000    0.000    0.000    0.000    0.000    0.000 
#
# Total GULP energy -167062.718461 kJ/mol
# GULP energy per Si atom -5568.757282 kJ/mol
# Density = 1.572905 g / cm^3
# Si number density = 15.764932 Si / 1000 Ang^3
#
#
#
# Elastic Constant Matrix: (Units=GPa)
#
#
# Indices 1 2 3 4 5 6 
#
# 1 92.3148 26.4344 19.7440 0.0000 -2.2085 0.0000
# 2 26.4344 69.1342 21.7637 0.0000 3.7240 0.0000
# 3 19.7440 21.7637 60.1108 0.0000 0.1317 0.0000
# 4 0.0000 0.0000 0.0000 16.0874 0.0000 2.1952
# 5 -2.2085 3.7240 0.1317 0.0000 16.9520 0.0000
# 6 0.0000 0.0000 0.0000 2.1952 0.0000 19.3877
#
#
#
# Elastic Compliance Matrix: (Units=1/GPa)
#
#
# Indices 1 2 3 4 5 6 
#
# 1 0.012648 -0.004137 -0.002662 0.000000 0.002577 0.000000
# 2 -0.004137 0.017894 -0.005110 0.000000 -0.004430 0.000000
# 3 -0.002662 -0.005110 0.019359 0.000000 0.000625 0.000000
# 4 0.000000 0.000000 0.000000 0.063136 0.000000 -0.007149
# 5 0.002577 -0.004430 0.000625 0.000000 0.060294 0.000000
# 6 0.000000 0.000000 0.000000 -0.007149 0.000000 0.052389
#
#
# Mechanical properties :
#
#
# Convention : Reuss Voigt Hill
#
# Bulk Modulus (GPa) = 38.33982 39.71600 39.02791
# Shear Modulus (GPa) = 19.36239 20.72659 20.04449
#
# Velocity S-wave (km/s) = 3.50836 3.62985 3.56962
# Velocity P-wave (km/s) = 6.38623 6.54332 6.46525
#
# Compressibility (1/GPa) = 0.02608254
#
# Stress axis : x y z
#
# Youngs Moduli (GPa) = 79.06278 55.88537 51.65508
#
# Poissons Ratio (x) = 0.23120 0.13752
# Poissons Ratio (y) = 0.32708 0.26396
# Poissons Ratio (z) = 0.21048 0.28558
#
# Static dielectric constant tensor:
#      x y z
#    x 1.556970 0.000000 -0.004430 
#    y 0.000000 1.536200 0.000000 
#    z -0.004430 0.000000 1.495230 
# 
# From -- ./inp_files/325528.got.cif
#   From: 2010.05.17/outbox.cif.g08.bks.cpg/sg12_163_cif.got.tgz:325528.got - 2010.06.03 13:09:07.
