data_PCOD9172081
_publ_section_title
;
Structure prediction by ZEFSAII (Michael W. Deem and Ramdas Pophale) SiO2 
 PCOD9172081
Probable space group: C 2/M
;
_chemical_formula_sum "Si O2"
_cell_formula_units_Z 64
_cell_length_a 25.405115
_cell_length_b 8.239131
_cell_length_c 18.266168
_cell_angle_alpha 90.000000
_cell_angle_beta 102.494223
_cell_angle_gamma 90.000000
_cell_volume 3732.856024
_symmetry_space_group_name_H-M "C 2/M"
_symmetry_group_IT_number 12
_symmetry_cell_setting 'monoclinic'
loop_
_space_group_symop_operation_xyz
x,y,z
-x,y,-z
-x,-y,-z
x,-y,z
1/2+x,1/2+y,z
1/2-x,1/2+y,-z
1/2-x,1/2-y,-z
1/2+x,1/2-y,z
loop_
_atom_site_type_symbol
_atom_site_label
_atom_site_fract_x
_atom_site_fract_y
_atom_site_fract_z
Si Si1 0.713946 0.694535 0.665076
Si Si2 0.485279 0.302297 0.078295
Si Si3 0.199403 0.686352 0.821408
Si Si4 0.863331 0.189706 0.063486
Si Si5 0.594489 0.696708 0.181279
Si Si6 0.335331 0.696852 0.662294
Si Si7 0.310595 0.695584 0.498885
Si Si8 0.185611 0.688867 0.097073
O O1 0.711187 0.500000 0.669066
O O2 0.694113 0.767934 0.734939
O O3 0.776692 0.742176 0.671264
O O4 0.681528 0.750563 0.582438
O O5 0.485072 0.500000 0.079519
O O6 0.425039 0.250066 0.080206
O O7 0.533841 0.248671 0.145493
O O8 0.500000 0.252908 0.000000
O O9 0.185115 0.500000 0.828521
O O10 0.163125 0.790052 0.865436
O O11 0.261721 0.714314 0.862120
O O12 0.863387 0.000000 0.042348
O O13 0.828437 0.280907 0.991746
O O14 0.595120 0.500000 0.179858
O O15 0.619770 0.749790 0.266160
O O16 0.634449 0.756350 0.129600
O O17 0.333269 0.500000 0.662806
O O18 0.344012 0.749376 0.580398
O O19 0.312603 0.500000 0.497872
O O20 0.250000 0.750000 0.500000
O O21 0.196514 0.500000 0.113610
#
# Coordination Sequence:
#
# PCOD9172081 Si02
#       8
#     8   8   8   8   8   8   8   8
#     4  10  18  29  46  69 100 132 165 199 244 294
#     4   9  17  32  54  76  97 127 166 205 247 292
#     4  12  24  37  51  71 100 131 168 207 249 298
#     4  11  22  38  56  72  96 130 170 208 247 293
#     4  10  18  31  52  76 101 134 169 202 242 291
#     4   9  16  27  46  71 101 133 166 198 240 289
#     4   8  15  26  41  66  98 131 161 197 237 288
#     4  12  23  35  51  74 102 131 166 203 247 293
#
# _framework density 17.145049
#
# number of rings (size 3 to 8) (size 9 to 14) (size 15 to 20)
#    0.000    1.875    2.500    3.375    0.000    0.500 
#    0.000    1.875    0.000    0.000    0.000    0.875 
#    0.000    7.000    0.000    0.000    0.000    0.000 
#
# Total GULP energy -178491.977449 kJ/mol
# GULP energy per Si atom -5577.874295 kJ/mol
# Density = 1.710603 g / cm^3
# Si number density = 17.145049 Si / 1000 Ang^3
#
#
#
# Elastic Constant Matrix: (Units=GPa)
#
#
# Indices 1 2 3 4 5 6 
#
# 1 35.9770 -4.7332 21.4225 0.0000 -8.2528 0.0000
# 2 -4.7332 18.5041 -2.0833 0.0000 4.6616 0.0000
# 3 21.4225 -2.0833 131.2877 0.0000 1.0360 0.0000
# 4 0.0000 0.0000 0.0000 17.5118 0.0000 2.6209
# 5 -8.2528 4.6616 1.0360 0.0000 16.7975 0.0000
# 6 0.0000 0.0000 0.0000 2.6209 0.0000 1.9712
#
#
#
# Elastic Compliance Matrix: (Units=1/GPa)
#
#
# Indices 1 2 3 4 5 6 
#
# 1 0.035698 0.004256 -0.005889 0.000000 0.016721 0.000000
# 2 0.004256 0.058757 0.000350 0.000000 -0.014237 0.000000
# 3 -0.005889 0.000350 0.008611 0.000000 -0.003522 0.000000
# 4 0.000000 0.000000 0.000000 0.071291 0.000000 -0.094789
# 5 0.016721 -0.014237 -0.003522 0.000000 0.071916 0.000000
# 6 0.000000 0.000000 0.000000 -0.094789 0.000000 0.633347
#
#
# Mechanical properties :
#
#
# Convention : Reuss Voigt Hill
#
# Bulk Modulus (GPa) = 9.95034 23.88677 16.91855
# Shear Modulus (GPa) = 5.46039 18.66695 12.06367
#
# Velocity S-wave (km/s) = 1.78654 3.30323 2.65547
# Velocity P-wave (km/s) = 3.17362 5.33955 4.39219
#
# Compressibility (1/GPa) = 0.10049911
#
# Stress axis : x y z
#
# Youngs Moduli (GPa) = 28.01283 17.01933 116.12805
#
# Poissons Ratio (x) = -0.07243 0.68392
# Poissons Ratio (y) = -0.11921 -0.04068
# Poissons Ratio (z) = 0.16498 -0.00596
#
# Static dielectric constant tensor:
#      x y z
#    x 1.541560 0.000000 0.012950 
#    y 0.000000 1.594710 0.000000 
#    z 0.012950 0.000000 1.621490 
# 
# From -- ./inp_files/287775.got.cif
#   From: 2010.05.17/outbox.cif.g08.bks.cpg/sg12_144_cif.got.tgz:287775.got - 2010.06.03 13:09:07.
