data_PCOD9172793
_publ_section_title
;
Structure prediction by ZEFSAII (Michael W. Deem and Ramdas Pophale) SiO2 
 PCOD9172793
Probable space group: C 2/M
;
_chemical_formula_sum "Si O2"
_cell_formula_units_Z 64
_cell_length_a 19.981823
_cell_length_b 9.289488
_cell_length_c 20.842768
_cell_angle_alpha 90.000000
_cell_angle_beta 96.815561
_cell_angle_gamma 90.000000
_cell_volume 3841.513486
_symmetry_space_group_name_H-M "C 2/M"
_symmetry_group_IT_number 12
_symmetry_cell_setting 'monoclinic'
loop_
_space_group_symop_operation_xyz
x,y,z
-x,y,-z
-x,-y,-z
x,-y,z
1/2+x,1/2+y,z
1/2-x,1/2+y,-z
1/2-x,1/2-y,-z
1/2+x,1/2-y,z
loop_
_atom_site_type_symbol
_atom_site_label
_atom_site_fract_x
_atom_site_fract_y
_atom_site_fract_z
Si Si1 0.590720 0.832551 0.071161
Si Si2 0.961720 0.329040 0.330350
Si Si3 0.107942 0.164698 0.197993
Si Si4 0.944974 0.166181 0.199766
Si Si5 0.928099 0.331760 0.072473
Si Si6 0.317740 0.173320 0.530185
Si Si7 0.072277 0.167975 0.543315
Si Si8 0.621811 0.831055 0.326400
O O1 0.622351 0.743142 0.132539
O O2 0.509446 0.826749 0.072021
O O3 0.609796 0.000000 0.078303
O O4 0.602825 0.783923 0.999267
O O5 0.948585 0.500000 0.333670
O O6 0.933057 0.261858 0.261394
O O7 0.934989 0.242128 0.388328
O O8 0.043066 0.309616 0.336134
O O9 0.136611 0.242685 0.263990
O O10 0.026310 0.168236 0.197914
O O11 0.129247 0.000000 0.198039
O O12 0.912915 0.235896 0.132538
O O13 0.925345 0.000000 0.206675
O O14 0.911331 0.500000 0.081309
O O15 0.250000 0.250000 0.500000
O O16 0.376834 0.240413 0.493929
O O17 0.334244 0.206031 0.606520
O O18 0.315021 0.000000 0.523023
O O19 0.000000 0.171455 0.500000
O O20 0.092925 0.000000 0.550964
O O21 0.629835 0.000000 0.313187
#
# Coordination Sequence:
#
# PCOD9172793 Si02
#       8
#     8   8   8   8   8   8   8   8
#     4   8  13  21  32  46  69 103 145 186 225 273
#     4  10  18  30  48  68  91 121 159 200 240 288
#     4   9  16  23  35  55  79 107 145 190 234 277
#     4   9  16  24  34  54  82 111 145 189 237 281
#     4   8  13  21  32  46  68 105 147 184 224 275
#     4  11  23  39  56  76 101 131 166 203 250 302
#     4  11  22  35  54  78 102 128 161 205 251 295
#     4   9  18  31  47  65  89 121 156 194 239 290
#
# _framework density 16.6601
#
# number of rings (size 3 to 8) (size 9 to 14) (size 15 to 20)
#    0.000    2.625    1.250    2.625    0.000    5.500 
#    0.000    2.500    0.000    0.000    0.000    0.000 
#    0.000    0.000    0.000    1.125    0.000   15.250 
#
# Total GULP energy -178302.669323 kJ/mol
# GULP energy per Si atom -5571.958416 kJ/mol
# Density = 1.662218 g / cm^3
# Si number density = 16.660100 Si / 1000 Ang^3
#
#
#
# Elastic Constant Matrix: (Units=GPa)
#
#
# Indices 1 2 3 4 5 6 
#
# 1 24.8983 25.0785 27.3407 0.0000 7.7891 0.0000
# 2 25.0785 109.2985 102.7738 0.0000 13.3905 0.0000
# 3 27.3407 102.7738 185.0485 0.0000 17.2495 0.0000
# 4 0.0000 0.0000 0.0000 28.2985 0.0000 -0.2891
# 5 7.7891 13.3905 17.2495 0.0000 8.0218 0.0000
# 6 0.0000 0.0000 0.0000 -0.2891 0.0000 13.5076
#
#
#
# Elastic Compliance Matrix: (Units=1/GPa)
#
#
# Indices 1 2 3 4 5 6 
#
# 1 0.063871 -0.008669 -0.000238 0.000000 -0.047036 0.000000
# 2 -0.008669 0.021195 -0.009977 0.000000 -0.005508 0.000000
# 3 -0.000238 -0.009977 0.011764 0.000000 -0.008412 0.000000
# 4 0.000000 0.000000 0.000000 0.035345 0.000000 0.000756
# 5 -0.047036 -0.005508 -0.008412 0.000000 0.197615 0.000000
# 6 0.000000 0.000000 0.000000 0.000756 0.000000 0.074048
#
#
# Mechanical properties :
#
#
# Convention : Reuss Voigt Hill
#
# Bulk Modulus (GPa) = 16.93133 69.95905 43.44519
# Shear Modulus (GPa) = 10.83909 20.90240 15.87074
#
# Velocity S-wave (km/s) = 2.55346 3.54593 3.08980
# Velocity P-wave (km/s) = 4.34493 7.67124 6.23403
#
# Compressibility (1/GPa) = 0.05906211
#
# Stress axis : x y z
#
# Youngs Moduli (GPa) = 15.65661 47.18198 85.00287
#
# Poissons Ratio (x) = 0.40904 0.02019
# Poissons Ratio (y) = 0.13573 0.84806
# Poissons Ratio (z) = 0.00372 0.47073
#
# Static dielectric constant tensor:
#      x y z
#    x 1.544490 0.000000 0.002670 
#    y 0.000000 1.554020 0.000000 
#    z 0.002670 0.000000 1.565050 
# 
# From -- ./inp_files/314195.got.cif
#   From: 2010.05.17/outbox.cif.g08.bks.cpg/sg12_158_cif.got.tgz:314195.got - 2010.06.03 13:09:07.
