data_PCOD9172098
_publ_section_title
;
Structure prediction by ZEFSAII (Michael W. Deem and Ramdas Pophale) SiO2 
 PCOD9172098
Probable space group: C 2/M
;
_chemical_formula_sum "Si O2"
_cell_formula_units_Z 64
_cell_length_a 20.986491
_cell_length_b 7.272730
_cell_length_c 21.890421
_cell_angle_alpha 90.000000
_cell_angle_beta 130.223715
_cell_angle_gamma 90.000000
_cell_volume 2551.037450
_symmetry_space_group_name_H-M "C 2/M"
_symmetry_group_IT_number 12
_symmetry_cell_setting 'monoclinic'
loop_
_space_group_symop_operation_xyz
x,y,z
-x,y,-z
-x,-y,-z
x,-y,z
1/2+x,1/2+y,z
1/2-x,1/2+y,-z
1/2-x,1/2-y,-z
1/2+x,1/2-y,z
loop_
_atom_site_type_symbol
_atom_site_label
_atom_site_fract_x
_atom_site_fract_y
_atom_site_fract_z
Si Si1 0.996507 0.722960 0.183031
Si Si2 0.754479 0.724765 0.842298
Si Si3 0.167175 0.278327 0.236177
Si Si4 0.422878 0.217993 0.639852
Si Si5 0.252322 0.777553 0.583361
Si Si6 0.404548 0.724118 0.447339
Si Si7 0.666357 0.218027 0.985413
Si Si8 0.592976 0.718552 0.685698
O O1 0.992194 0.500000 0.185913
O O2 0.910300 0.791157 0.101897
O O3 0.070233 0.767930 0.181740
O O4 0.029079 0.787502 0.269323
O O5 0.754372 0.500000 0.845392
O O6 0.793779 0.784036 0.802596
O O7 0.810465 0.789303 0.933079
O O8 0.656838 0.784034 0.777708
O O9 0.174962 0.500000 0.240428
O O10 0.208056 0.226504 0.326023
O O11 0.325726 0.286629 0.581641
O O12 0.494761 0.245937 0.634040
O O13 0.413540 0.000000 0.639972
O O14 0.156930 0.712156 0.536430
O O15 0.248492 0.000000 0.576766
O O16 0.500000 0.784599 0.500000
O O17 0.405594 0.500000 0.452280
O O18 0.373406 0.776101 0.360046
O O19 0.650541 0.000000 0.982090
O O20 0.750000 0.250000 0.000000
O O21 0.599120 0.500000 0.688956
#
# Coordination Sequence:
#
# PCOD9172098 Si02
#       8
#     8   8   8   8   8   8   8   8
#     4   8  15  26  41  62  87 113 146 183 216 255
#     4   9  16  25  41  64  88 112 141 182 228 261
#     4   8  12  22  40  62  85 108 138 183 227 254
#     4   9  17  29  47  67  89 122 154 179 214 264
#     4   8  13  25  44  65  88 116 150 182 216 262
#     4   9  16  27  46  70  92 115 147 187 224 259
#     4  10  19  29  40  59  86 115 145 177 218 262
#     4  10  18  29  46  70  94 114 145 188 227 262
#
# _framework density 25.08783
#
# number of rings (size 3 to 8) (size 9 to 14) (size 15 to 20)
#    0.000    3.125    1.250    2.250    0.000    0.500 
#    0.000    3.125    0.000    1.125    0.000    3.500 
#    0.000    0.000    0.000    0.000    0.000    0.000 
#
# Total GULP energy -178570.623967 kJ/mol
# GULP energy per Si atom -5580.331999 kJ/mol
# Density = 2.503073 g / cm^3
# Si number density = 25.087830 Si / 1000 Ang^3
#
#
#
# Elastic Constant Matrix: (Units=GPa)
#
#
# Indices 1 2 3 4 5 6 
#
# 1 187.3376 -6.2588 45.8034 0.0000 13.5552 0.0000
# 2 -6.2588 109.7958 5.9943 0.0001 -0.2167 -0.0001
# 3 45.8034 5.9943 88.4724 0.0000 24.4235 0.0000
# 4 0.0000 0.0001 0.0000 -15.3692 0.0000 3.8557
# 5 13.5552 -0.2167 24.4235 0.0000 48.6235 0.0000
# 6 0.0000 -0.0001 0.0000 3.8557 0.0000 9.2722
#
#
#
# Elastic Compliance Matrix: (Units=1/GPa)
#
#
# Indices 1 2 3 4 5 6 
#
# 1 0.006142 0.000524 -0.003185 0.000000 -0.000110 0.000000
# 2 0.000524 0.009193 -0.001004 0.000000 0.000399 0.000000
# 3 -0.003185 -0.001004 0.014833 0.000000 -0.006567 0.000000
# 4 0.000000 0.000000 0.000000 -0.058919 0.000000 0.024500
# 5 -0.000110 0.000399 -0.006567 0.000000 0.023897 0.000000
# 6 0.000000 0.000000 0.000000 0.024500 0.000000 0.097661
#
#
# Mechanical properties :
#
#
# Convention : Reuss Voigt Hill
#
# Bulk Modulus (GPa) = 43.78802 52.96483 48.37643
# Shear Modulus (GPa) = 46.40329 31.17643 38.78986
#
# Velocity S-wave (km/s) = 4.30540 3.52901 3.93639
# Velocity P-wave (km/s) = 6.49670 6.14514 6.32336
#
# Compressibility (1/GPa) = 0.02283729
#
# Stress axis : x y z
#
# Youngs Moduli (GPa) = 162.80979 108.77496 67.41819
#
# Poissons Ratio (x) = -0.05698 0.21472
# Poissons Ratio (y) = -0.08528 0.06771
# Poissons Ratio (z) = 0.51854 0.10924
#
# Static dielectric constant tensor:
#      x y z
#    x 1.980290 0.000000 0.014090 
#    y 0.000000 1.982010 0.000000 
#    z 0.014090 0.000000 2.028810 
# 
# From -- ./inp_files/319125.got.cif
#   From: 2010.05.17/outbox.cif.g08.bks.cpg/sg12_160_cif.got.tgz:319125.got - 2010.06.03 13:09:07.
