data_PCOD9172427
_publ_section_title
;
Structure prediction by ZEFSAII (Michael W. Deem and Ramdas Pophale) SiO2 
 PCOD9172427
Probable space group: C 2/M
;
_chemical_formula_sum "Si O2"
_cell_formula_units_Z 50
_cell_length_a 32.725426
_cell_length_b 17.343690
_cell_length_c 8.381311
_cell_angle_alpha 90.000000
_cell_angle_beta 24.379695
_cell_angle_gamma 90.000000
_cell_volume 1963.627783
_symmetry_space_group_name_H-M "C 2/M"
_symmetry_group_IT_number 12
_symmetry_cell_setting 'monoclinic'
loop_
_space_group_symop_operation_xyz
x,y,z
-x,y,-z
-x,-y,-z
x,-y,z
1/2+x,1/2+y,z
1/2-x,1/2+y,-z
1/2-x,1/2-y,-z
1/2+x,1/2-y,z
loop_
_atom_site_type_symbol
_atom_site_label
_atom_site_fract_x
_atom_site_fract_y
_atom_site_fract_z
Si Si1 0.158062 0.915028 0.035231
Si Si2 0.299101 0.752282 0.999882
Si Si3 0.019612 0.258254 0.102673
Si Si4 0.836739 0.414623 0.993854
Si Si5 0.500000 0.500000 0.000000
Si Si6 0.054693 0.418005 0.056874
Si Si7 0.567653 0.606869 0.029352
O O1 0.211911 0.834048 0.885515
O O2 0.139926 0.920355 0.910730
O O3 0.046628 0.908650 0.506074
O O4 0.196966 0.000000 0.951665
O O5 0.417112 0.759606 0.559035
O O6 0.278688 0.836598 0.152544
O O7 0.250000 0.750000 0.000000
O O8 0.065090 0.341750 0.918180
O O9 0.084879 0.198294 0.963980
O O10 0.000000 0.224919 0.000000
O O11 0.791500 0.500000 0.125674
O O12 0.873201 0.411085 0.047637
O O13 0.942102 0.417065 0.523691
O O14 0.564152 0.566023 0.871771
O O15 0.071781 0.500000 0.915481
#
# Coordination Sequence:
#
# PCOD9172427 Si02
#       7
#     8   8   8   8   2   8   8
#     4  10  18  32  49  72 102 135 168 206 252 299
#     4  10  21  33  48  72 100 131 170 205 241 294
#     4  10  19  30  48  74  98 127 157 202 253 293
#     4   8  14  28  49  68  91 119 159 208 247 281
#     4  12  16  26  48  80 110 122 156 212 262 300
#     4   8  14  26  46  72  92 116 157 206 250 287
#     4  10  18  29  49  77 105 127 162 209 255 303
#
# _framework density 25.463073999999999
#
# number of rings (size 3 to 8) (size 9 to 14) (size 15 to 20)
#    0.000    2.560    2.400    2.400    0.000    4.800 
#    0.000    0.000    0.000    3.840    0.000    2.240 
#    0.000    0.000    0.000    0.000    0.000    0.000 
#
# Total GULP energy -139264.727350 kJ/mol
# GULP energy per Si atom -5570.589094 kJ/mol
# Density = 2.540512 g / cm^3
# Si number density = 25.463074 Si / 1000 Ang^3
#
#
#
# Elastic Constant Matrix: (Units=GPa)
#
#
# Indices 1 2 3 4 5 6 
#
# 1 86.4642 85.5235 -3.9872 0.0000 -11.4857 0.0000
# 2 85.5235 313.8642 8.9499 0.0000 -12.8585 0.0000
# 3 -3.9872 8.9499 97.6418 0.0000 -26.0556 0.0000
# 4 0.0000 0.0000 0.0000 -5.2795 0.0000 1.7068
# 5 -11.4857 -12.8585 -26.0556 0.0000 20.1144 0.0000
# 6 0.0000 0.0000 0.0000 1.7068 0.0000 47.6088
#
#
#
# Elastic Compliance Matrix: (Units=1/GPa)
#
#
# Indices 1 2 3 4 5 6 
#
# 1 0.018042 -0.004494 0.004785 0.000000 0.013628 0.000000
# 2 -0.004494 0.004401 -0.000796 0.000000 -0.000784 0.000000
# 3 0.004785 -0.000796 0.016969 0.000000 0.024204 0.000000
# 4 0.000000 0.000000 0.000000 -0.187243 0.000000 0.006713
# 5 0.013628 -0.000784 0.024204 0.000000 0.088350 0.000000
# 6 0.000000 0.000000 0.000000 0.006713 0.000000 0.020764
#
#
# Mechanical properties :
#
#
# Convention : Reuss Voigt Hill
#
# Bulk Modulus (GPa) = 26.04061 75.43806 50.73934
# Shear Modulus (GPa) = -200.75375 39.65435 -80.54970
#
# Velocity S-wave (km/s) = -8.88889 3.95058 -5.63051
# Velocity P-wave (km/s) = 9.75196 7.10635 4.72231
#
# Compressibility (1/GPa) = 0.03840156
#
# Stress axis : x y z
#
# Youngs Moduli (GPa) = 55.42677 227.20559 58.93164
#
# Poissons Ratio (x) = 1.02113 -0.28200
# Poissons Ratio (y) = 0.24910 0.04692
# Poissons Ratio (z) = -0.26523 0.18089
#
# Static dielectric constant tensor:
#      x y z
#    x 1.908680 0.000000 0.014750 
#    y 0.000000 1.997870 0.000000 
#    z 0.014750 0.000000 2.068830 
# 
# From -- ./inp_files/112457.got.cif
#   From: 2010.05.17/outbox.cif.g08.bks.cpg/sg12_57_cif.got.tgz:112457.got - 2010.06.03 13:09:07.
