data_PCOD9172037
_publ_section_title
;
Structure prediction by ZEFSAII (Michael W. Deem and Ramdas Pophale) SiO2 
 PCOD9172037
Probable space group: C 2/M
;
_chemical_formula_sum "Si O2"
_cell_formula_units_Z 40
_cell_length_a 11.886709
_cell_length_b 28.882317
_cell_length_c 9.957102
_cell_angle_alpha 90.000000
_cell_angle_beta 38.784950
_cell_angle_gamma 90.000000
_cell_volume 2141.301040
_symmetry_space_group_name_H-M "C 2/M"
_symmetry_group_IT_number 12
_symmetry_cell_setting 'monoclinic'
loop_
_space_group_symop_operation_xyz
x,y,z
-x,y,-z
-x,-y,-z
x,-y,z
1/2+x,1/2+y,z
1/2-x,1/2+y,-z
1/2-x,1/2-y,-z
1/2+x,1/2-y,z
loop_
_atom_site_type_symbol
_atom_site_label
_atom_site_fract_x
_atom_site_fract_y
_atom_site_fract_z
Si Si1 0.651315 0.948991 0.247479
Si Si2 0.012704 0.645336 0.324103
Si Si3 0.000000 0.264538 0.000000
Si Si4 0.614854 0.684700 0.095315
Si Si5 0.780726 0.200946 0.547466
Si Si6 0.500000 0.394786 0.000000
O O1 0.500000 0.954402 0.500000
O O2 0.570702 0.907102 0.234278
O O3 0.826736 0.927635 0.155998
O O4 0.686814 0.000000 0.154876
O O5 0.000000 0.649794 0.500000
O O6 0.826554 0.662512 0.437992
O O7 0.172455 0.676277 0.112172
O O8 0.832813 0.293624 0.211405
O O9 0.074952 0.229938 0.043628
O O10 0.492646 0.690773 0.341405
O O11 0.530671 0.640277 0.095238
O O12 0.750000 0.250000 0.500000
#
# Coordination Sequence:
#
# PCOD9172037 Si02
#       6
#     8   8   4   8   8   4
#     4   9  16  25  40  64  90 115 143 176 217 264
#     4  10  18  29  46  65  88 119 148 176 218 266
#     4   9  18  30  43  62  86 114 147 184 214 247
#     4   9  17  30  44  61  87 119 147 175 216 262
#     4  10  19  31  45  63  89 117 149 184 216 257
#     4   9  15  26  43  62  90 120 143 170 215 271
#
# _framework density 18.680230999999999
#
# number of rings (size 3 to 8) (size 9 to 14) (size 15 to 20)
#    0.000    2.600    0.000    6.300    0.000    3.200 
#    0.000    5.000    0.000    0.000    0.000    0.700 
#    0.000    6.400    0.000    0.000    0.000    0.000 
#
# Total GULP energy -111348.581685 kJ/mol
# GULP energy per Si atom -5567.429084 kJ/mol
# Density = 1.863771 g / cm^3
# Si number density = 18.680231 Si / 1000 Ang^3
#
#
#
# Elastic Constant Matrix: (Units=GPa)
#
#
# Indices 1 2 3 4 5 6 
#
# 1 34.4400 23.0399 21.3439 0.0000 -13.2682 0.0000
# 2 23.0399 89.2433 14.1983 0.0000 -6.4683 0.0000
# 3 21.3439 14.1983 149.5252 0.0000 -9.7112 0.0000
# 4 0.0000 0.0000 0.0000 34.1265 0.0000 -15.9863
# 5 -13.2682 -6.4683 -9.7112 0.0000 30.8313 0.0000
# 6 0.0000 0.0000 0.0000 -15.9863 0.0000 17.0248
#
#
#
# Elastic Compliance Matrix: (Units=1/GPa)
#
#
# Indices 1 2 3 4 5 6 
#
# 1 0.044176 -0.009576 -0.004382 0.000000 0.015622 0.000000
# 2 -0.009576 0.013586 -0.000006 0.000000 -0.001272 0.000000
# 3 -0.004382 -0.000006 0.007342 0.000000 0.000425 0.000000
# 4 0.000000 0.000000 0.000000 0.052314 0.000000 0.049123
# 5 0.015622 -0.001272 0.000425 0.000000 0.039025 0.000000
# 6 0.000000 0.000000 0.000000 0.049123 0.000000 0.104865
#
#
# Mechanical properties :
#
#
# Convention : Reuss Voigt Hill
#
# Bulk Modulus (GPa) = 26.89836 43.37474 35.13655
# Shear Modulus (GPa) = 16.57681 30.70493 23.64087
#
# Velocity S-wave (km/s) = 2.98215 4.05867 3.56132
# Velocity P-wave (km/s) = 5.12721 6.72560 5.98005
#
# Compressibility (1/GPa) = 0.03717699
#
# Stress axis : x y z
#
# Youngs Moduli (GPa) = 22.63662 73.60433 136.21124
#
# Poissons Ratio (x) = 0.70480 0.59689
# Poissons Ratio (y) = 0.21676 0.00080
# Poissons Ratio (z) = 0.09920 0.00043
#
# Static dielectric constant tensor:
#      x y z
#    x 1.739040 0.000000 -0.004460 
#    y 0.000000 1.690200 0.000000 
#    z -0.004460 0.000000 1.702190 
# 
# From -- ./inp_files/150001.got.cif
#   From: 2010.05.17/outbox.cif.g08.bks.cpg/sg12_76_cif.got.tgz:150001.got - 2010.06.03 13:09:07.
