data_PCOD9173039
_publ_section_title
;
Structure prediction by ZEFSAII (Michael W. Deem and Ramdas Pophale) SiO2 
 PCOD9173039
Probable space group: C 2/M
;
_chemical_formula_sum "Si O2"
_cell_formula_units_Z 58
_cell_length_a 24.953158
_cell_length_b 7.508941
_cell_length_c 25.517187
_cell_angle_alpha 90.000000
_cell_angle_beta 152.145813
_cell_angle_gamma 90.000000
_cell_volume 2233.887170
_symmetry_space_group_name_H-M "C 2/M"
_symmetry_group_IT_number 12
_symmetry_cell_setting 'monoclinic'
loop_
_space_group_symop_operation_xyz
x,y,z
-x,y,-z
-x,-y,-z
x,-y,z
1/2+x,1/2+y,z
1/2-x,1/2+y,-z
1/2-x,1/2-y,-z
1/2+x,1/2-y,z
loop_
_atom_site_type_symbol
_atom_site_label
_atom_site_fract_x
_atom_site_fract_y
_atom_site_fract_z
Si Si1 0.906340 0.282105 0.462170
Si Si2 0.410522 0.206955 0.176791
Si Si3 0.318925 0.199779 0.610162
Si Si4 0.821517 0.711006 0.873666
Si Si5 0.921842 0.714700 0.303442
Si Si6 0.000000 0.000000 0.000000
Si Si7 0.403937 0.795640 0.056730
Si Si8 0.162337 0.198293 0.262993
O O1 0.898808 0.500000 0.455087
O O2 0.776848 0.220133 0.337221
O O3 0.000000 0.230591 0.500000
O O4 0.962262 0.227454 0.566521
O O5 0.547808 0.206897 0.289183
O O6 0.394766 0.285702 0.221260
O O7 0.374611 0.284489 0.088564
O O8 0.372475 0.000000 0.145478
O O9 0.250000 0.250000 0.500000
O O10 0.297307 0.316247 0.641736
O O11 0.291074 0.000000 0.602306
O O12 0.849472 0.500000 0.892918
O O13 0.685869 0.738474 0.753169
O O14 0.849667 0.780458 0.957482
O O15 0.901033 0.839833 0.908853
O O16 0.929524 0.500000 0.305501
O O17 0.540411 0.794293 0.162859
O O18 0.366782 0.000000 0.027828
O O19 0.134888 0.000000 0.220997
#
# Coordination Sequence:
#
# PCOD9173039 Si02
#       8
#     8   8   8   8   8   2   8   8
#     4   9  19  35  55  85 123 167 216 268 321 382
#     4   8  16  32  56  84 123 170 209 253 324 394
#     4  10  18  30  49  77 116 159 207 259 318 380
#     4  11  25  45  69 100 133 168 220 275 330 386
#     4  10  19  37  63  92 126 173 220 263 327 400
#     4  12  26  48  72  94 122 180 218 272 330 374
#     4   9  20  39  60  90 132 170 209 272 331 386
#     4  10  19  32  55  86 118 162 215 264 315 383
#
# _framework density 25.963709999999999
#
# number of rings (size 3 to 8) (size 9 to 14) (size 15 to 20)
#    0.000    2.345    0.690    2.690    0.966    3.862 
#    2.483    6.207    0.000    2.897    0.000    0.000 
#    0.000    0.000    0.000    0.000    0.000    0.000 
#
# Total GULP energy -161798.533299 kJ/mol
# GULP energy per Si atom -5579.259769 kJ/mol
# Density = 2.590462 g / cm^3
# Si number density = 25.963710 Si / 1000 Ang^3
#
#
#
# Elastic Constant Matrix: (Units=GPa)
#
#
# Indices 1 2 3 4 5 6 
#
# 1 115.1283 20.5009 19.7079 0.0000 -6.7901 0.0000
# 2 20.5009 112.9527 6.7762 -0.0001 1.3938 -0.0001
# 3 19.7079 6.7762 91.6059 0.0000 15.7146 0.0000
# 4 0.0000 -0.0001 0.0000 5.4965 0.0000 6.1686
# 5 -6.7901 1.3938 15.7146 0.0000 55.9422 0.0000
# 6 0.0000 -0.0001 0.0000 6.1686 0.0000 13.1613
#
#
#
# Elastic Compliance Matrix: (Units=1/GPa)
#
#
# Indices 1 2 3 4 5 6 
#
# 1 0.009460 -0.001606 -0.002228 0.000000 0.001814 0.000000
# 2 -0.001606 0.009165 -0.000273 0.000000 -0.000347 0.000000
# 3 -0.002228 -0.000273 0.012041 0.000000 -0.003646 0.000000
# 4 0.000000 0.000000 0.000000 0.383841 0.000000 -0.179905
# 5 0.001814 -0.000347 -0.003646 0.000000 0.019129 0.000000
# 6 0.000000 0.000000 0.000000 -0.179905 0.000000 0.160301
#
#
# Mechanical properties :
#
#
# Convention : Reuss Voigt Hill
#
# Bulk Modulus (GPa) = 44.53576 45.96186 45.24881
# Shear Modulus (GPa) = 8.20163 33.10012 20.65088
#
# Velocity S-wave (km/s) = 1.77925 3.57439 2.82330
# Velocity P-wave (km/s) = 4.62724 5.89710 5.30034
#
# Compressibility (1/GPa) = 0.02245387
#
# Stress axis : x y z
#
# Youngs Moduli (GPa) = 105.70567 109.10633 83.04783
#
# Poissons Ratio (x) = 0.17520 0.18500
# Poissons Ratio (y) = 0.16974 0.02268
# Poissons Ratio (z) = 0.23548 0.02979
#
# Static dielectric constant tensor:
#      x y z
#    x 2.122850 0.000000 -0.049840 
#    y 0.000000 1.968910 0.000000 
#    z -0.049840 0.000000 2.059280 
# 
# From -- ./inp_files/367582.got.cif
#   From: 2010.05.17/outbox.cif.g08.bks.cpg/sg12_184_cif.got.tgz:367582.got - 2010.06.03 13:09:07.
