data_PCOD9173419
_publ_section_title
;
Structure prediction by ZEFSAII (Michael W. Deem and Ramdas Pophale) SiO2 
 PCOD9173419
Probable space group: C 2/M
;
_chemical_formula_sum "Si O2"
_cell_formula_units_Z 64
_cell_length_a 26.928689
_cell_length_b 14.582335
_cell_length_c 12.659264
_cell_angle_alpha 90.000000
_cell_angle_beta 136.042412
_cell_angle_gamma 90.000000
_cell_volume 3450.554295
_symmetry_space_group_name_H-M "C 2/M"
_symmetry_group_IT_number 12
_symmetry_cell_setting 'monoclinic'
loop_
_space_group_symop_operation_xyz
x,y,z
-x,y,-z
-x,-y,-z
x,-y,z
1/2+x,1/2+y,z
1/2-x,1/2+y,-z
1/2-x,1/2-y,-z
1/2+x,1/2-y,z
loop_
_atom_site_type_symbol
_atom_site_label
_atom_site_fract_x
_atom_site_fract_y
_atom_site_fract_z
Si Si1 0.917841 0.770873 0.899245
Si Si2 0.221106 0.110436 0.335281
Si Si3 0.931049 0.395314 0.322493
Si Si4 0.161462 0.895635 0.854667
Si Si5 0.895419 0.266066 0.107118
Si Si6 0.733738 0.892148 0.160292
Si Si7 0.679710 0.107964 0.311258
Si Si8 0.209838 0.392805 0.778527
O O1 0.856584 0.843521 0.772698
O O2 0.888301 0.674616 0.806157
O O3 0.915459 0.764153 0.021960
O O4 0.000000 0.791295 0.000000
O O5 0.272490 0.130754 0.513263
O O6 0.257790 0.144546 0.281564
O O7 0.212919 0.000000 0.316274
O O8 0.912693 0.500000 0.266452
O O9 0.946129 0.339092 0.240332
O O10 0.863251 0.355093 0.283567
O O11 0.000000 0.395029 0.500000
O O12 0.110229 0.819762 0.823691
O O13 0.190941 0.876901 0.782399
O O14 0.134381 0.000000 0.818492
O O15 0.229829 0.889849 0.038771
O O16 0.821460 0.322819 0.979283
O O17 0.725803 0.879504 0.273723
O O18 0.715895 0.000000 0.111617
O O19 0.660135 0.000000 0.287197
O O20 0.194363 0.500000 0.731670
#
# Coordination Sequence:
#
# PCOD9173419 Si02
#       8
#     8   8   8   8   8   8   8   8
#     4  11  24  38  54  81 114 146 189 238 283 330
#     4  10  20  38  61  83 110 145 191 238 281 329
#     4  10  21  35  52  81 117 145 173 216 274 334
#     4  10  18  30  52  82 108 130 173 226 267 312
#     4  11  20  33  54  76 105 143 181 219 271 327
#     4   9  17  30  51  82 110 133 171 225 273 320
#     4   9  20  37  57  81 110 148 187 226 277 336
#     4   9  17  31  54  82 107 135 174 220 266 316
#
# _framework density 18.547744000000002
#
# number of rings (size 3 to 8) (size 9 to 14) (size 15 to 20)
#    0.000    2.125    2.500    1.125    0.000    2.000 
#    0.000    2.500    0.000    0.375    0.000    0.000 
#    0.000    0.000    0.000    0.000    0.000    0.000 
#
# Total GULP energy -178405.570277 kJ/mol
# GULP energy per Si atom -5575.174071 kJ/mol
# Density = 1.850553 g / cm^3
# Si number density = 18.547744 Si / 1000 Ang^3
#
#
#
# Elastic Constant Matrix: (Units=GPa)
#
#
# Indices 1 2 3 4 5 6 
#
# 1 48.9437 8.2033 11.7589 0.0000 -3.5385 0.0000
# 2 8.2033 38.2952 -0.4620 0.0000 0.7970 0.0000
# 3 11.7589 -0.4620 49.2675 0.0000 -8.4839 0.0000
# 4 0.0000 0.0000 0.0000 20.7534 0.0000 -4.4617
# 5 -3.5385 0.7970 -8.4839 0.0000 22.2459 0.0000
# 6 0.0000 0.0000 0.0000 -4.4617 0.0000 16.2161
#
#
#
# Elastic Compliance Matrix: (Units=1/GPa)
#
#
# Indices 1 2 3 4 5 6 
#
# 1 0.022625 -0.004946 -0.005133 0.000000 0.001818 0.000000
# 2 -0.004946 0.027214 0.001212 0.000000 -0.001300 0.000000
# 3 -0.005133 0.001212 0.022889 0.000000 0.007869 0.000000
# 4 0.000000 0.000000 0.000000 0.051214 0.000000 0.014091
# 5 0.001818 -0.001300 0.007869 0.000000 0.048289 0.000000
# 6 0.000000 0.000000 0.000000 0.014091 0.000000 0.065544
#
#
# Mechanical properties :
#
#
# Convention : Reuss Voigt Hill
#
# Bulk Modulus (GPa) = 18.18411 19.50075 18.84243
# Shear Modulus (GPa) = 18.25865 19.64349 18.95107
#
# Velocity S-wave (km/s) = 3.14094 3.25788 3.19994
# Velocity P-wave (km/s) = 4.79367 4.96873 4.88199
#
# Compressibility (1/GPa) = 0.05499307
#
# Stress axis : x y z
#
# Youngs Moduli (GPa) = 44.19801 36.74554 43.68910
#
# Poissons Ratio (x) = 0.18176 0.22427
# Poissons Ratio (y) = 0.21862 -0.05295
# Poissons Ratio (z) = 0.22688 -0.04454
#
# Static dielectric constant tensor:
#      x y z
#    x 1.656180 0.000000 -0.015480 
#    y 0.000000 1.688690 0.000000 
#    z -0.015480 0.000000 1.617810 
# 
# From -- ./inp_files/183860.got.cif
#   From: 2010.05.17/outbox.cif.g08.bks.cpg/sg12_92_cif.got.tgz:183860.got - 2010.06.03 13:09:07.
