data_PCOD9173069
_publ_section_title
;
Structure prediction by ZEFSAII (Michael W. Deem and Ramdas Pophale) SiO2 
 PCOD9173069
Probable space group: C 2/M
;
_chemical_formula_sum "Si O2"
_cell_formula_units_Z 56
_cell_length_a 21.332644
_cell_length_b 7.384279
_cell_length_c 18.330364
_cell_angle_alpha 90.000000
_cell_angle_beta 118.207424
_cell_angle_gamma 90.000000
_cell_volume 2544.597907
_symmetry_space_group_name_H-M "C 2/M"
_symmetry_group_IT_number 12
_symmetry_cell_setting 'monoclinic'
loop_
_space_group_symop_operation_xyz
x,y,z
-x,y,-z
-x,-y,-z
x,-y,z
1/2+x,1/2+y,z
1/2-x,1/2+y,-z
1/2-x,1/2-y,-z
1/2+x,1/2-y,z
loop_
_atom_site_type_symbol
_atom_site_label
_atom_site_fract_x
_atom_site_fract_y
_atom_site_fract_z
Si Si1 0.167751 0.716753 0.434205
Si Si2 0.419392 0.221155 0.473401
Si Si3 0.675273 0.219905 0.017610
Si Si4 0.664036 0.796960 0.859191
Si Si5 0.689692 0.781590 0.713049
Si Si6 0.933139 0.719830 0.917333
Si Si7 0.347438 0.215119 0.737832
O O1 0.159161 0.500000 0.427343
O O2 0.250000 0.750000 0.500000
O O3 0.114422 0.782059 0.468214
O O4 0.154372 0.788492 0.345338
O O5 0.500000 0.278346 0.500000
O O6 0.364912 0.276576 0.379661
O O7 0.419762 0.000000 0.474447
O O8 0.752515 0.301967 0.073414
O O9 0.631732 0.261802 0.065155
O O10 0.681286 0.000000 0.017126
O O11 0.636837 0.281470 0.921328
O O12 0.665132 0.712777 0.779402
O O13 0.633921 0.000000 0.835911
O O14 0.770156 0.736668 0.733607
O O15 0.687522 0.000000 0.716490
O O16 0.940594 0.500000 0.916168
O O17 0.909679 0.785642 0.824878
O O18 0.000000 0.786573 0.000000
O O19 0.358404 0.000000 0.737881
#
# Coordination Sequence:
#
# PCOD9173069 Si02
#       7
#     8   8   8   8   8   8   8
#     4  10  19  32  53  79 102 129 168 211 251 300
#     4   9  18  33  50  71 102 134 161 199 254 304
#     4   9  16  28  45  64  89 120 151 188 235 279
#     4   9  17  27  43  69  91 113 152 195 231 276
#     4  10  18  30  50  72  95 125 161 202 247 295
#     4   9  17  30  46  66  96 129 159 198 246 288
#     4  10  19  31  50  75  97 124 167 208 243 292
#
# _framework density 22.007407000000001
#
# number of rings (size 3 to 8) (size 9 to 14) (size 15 to 20)
#    0.000    2.571    2.857    0.000    0.000    0.000 
#    2.571    0.000    0.000    3.429    0.000    0.000 
#    0.000    0.000    0.000    0.000    0.000    0.000 
#
# Total GULP energy -156090.551227 kJ/mol
# GULP energy per Si atom -5574.662544 kJ/mol
# Density = 2.195732 g / cm^3
# Si number density = 22.007407 Si / 1000 Ang^3
#
#
#
# Elastic Constant Matrix: (Units=GPa)
#
#
# Indices 1 2 3 4 5 6 
#
# 1 71.3289 1.0773 69.0757 0.0000 -4.7041 0.0000
# 2 1.0773 75.9114 7.2329 0.0000 -7.2505 0.0000
# 3 69.0757 7.2329 230.9594 0.0000 -25.7435 0.0000
# 4 0.0000 0.0000 0.0000 3.6888 0.0000 1.6456
# 5 -4.7041 -7.2505 -25.7435 0.0000 41.3727 0.0000
# 6 0.0000 0.0000 0.0000 1.6456 0.0000 8.0553
#
#
#
# Elastic Compliance Matrix: (Units=1/GPa)
#
#
# Indices 1 2 3 4 5 6 
#
# 1 0.019829 0.000155 -0.006104 0.000000 -0.001517 0.000000
# 2 0.000155 0.013405 -0.000218 0.000000 0.002231 0.000000
# 3 -0.006104 -0.000218 0.006534 0.000000 0.003333 0.000000
# 4 0.000000 0.000000 0.000000 0.298277 0.000000 -0.060934
# 5 -0.001517 0.002231 0.003333 0.000000 0.026463 0.000000
# 6 0.000000 0.000000 0.000000 -0.060934 0.000000 0.136590
#
#
# Mechanical properties :
#
#
# Convention : Reuss Voigt Hill
#
# Bulk Modulus (GPa) = 36.45048 59.21904 47.83476
# Shear Modulus (GPa) = 9.56800 30.67761 20.12281
#
# Velocity S-wave (km/s) = 2.08736 3.73764 3.02713
# Velocity P-wave (km/s) = 4.73373 6.75231 5.83103
#
# Compressibility (1/GPa) = 0.02743448
#
# Stress axis : x y z
#
# Youngs Moduli (GPa) = 50.43207 74.59953 153.05020
#
# Poissons Ratio (x) = -0.01159 0.93426
# Poissons Ratio (y) = -0.00784 0.03329
# Poissons Ratio (z) = 0.30785 0.01623
#
# Static dielectric constant tensor:
#      x y z
#    x 1.818860 0.000000 -0.050510 
#    y 0.000000 1.894210 0.000000 
#    z -0.050510 0.000000 1.838170 
# 
# From -- ./inp_files/287856.got.cif
#   From: 2010.05.17/outbox.cif.g08.bks.cpg/sg12_144_cif.got.tgz:287856.got - 2010.06.03 13:09:07.
