data_PCOD9173640
_publ_section_title
;
Structure prediction by ZEFSAII (Michael W. Deem and Ramdas Pophale) SiO2 
 PCOD9173640
Probable space group: C 2/M
;
_chemical_formula_sum "Si O2"
_cell_formula_units_Z 64
_cell_length_a 19.311838
_cell_length_b 8.853938
_cell_length_c 23.549214
_cell_angle_alpha 90.000000
_cell_angle_beta 62.287089
_cell_angle_gamma 90.000000
_cell_volume 3564.687800
_symmetry_space_group_name_H-M "C 2/M"
_symmetry_group_IT_number 12
_symmetry_cell_setting 'monoclinic'
loop_
_space_group_symop_operation_xyz
x,y,z
-x,y,-z
-x,-y,-z
x,-y,z
1/2+x,1/2+y,z
1/2-x,1/2+y,-z
1/2-x,1/2-y,-z
1/2+x,1/2-y,z
loop_
_atom_site_type_symbol
_atom_site_label
_atom_site_fract_x
_atom_site_fract_y
_atom_site_fract_z
Si Si1 0.698066 0.318754 0.150486
Si Si2 0.412427 0.679133 0.226680
Si Si3 0.753424 0.677882 0.321946
Si Si4 0.194619 0.320592 0.568544
Si Si5 0.633105 0.821266 0.289641
Si Si6 0.309538 0.318055 0.024045
Si Si7 0.434828 0.317118 0.891387
Si Si8 0.465838 0.322245 0.336989
O O1 0.702458 0.500000 0.148869
O O2 0.676582 0.256835 0.219974
O O3 0.777759 0.249627 0.094634
O O4 0.626737 0.274109 0.134881
O O5 0.397442 0.500000 0.223536
O O6 0.331089 0.766912 0.259241
O O7 0.478331 0.734994 0.157495
O O8 0.449953 0.695087 0.275383
O O9 0.741762 0.500000 0.317237
O O10 0.769504 0.704690 0.382339
O O11 0.679768 0.769314 0.327310
O O12 0.186822 0.500000 0.563311
O O13 0.250000 0.250000 0.500000
O O14 0.109590 0.243755 0.602569
O O15 0.544527 0.763182 0.323181
O O16 0.635501 0.000000 0.282017
O O17 0.303637 0.500000 0.027060
O O18 0.250000 0.250000 0.000000
O O19 0.394760 0.275948 0.966549
O O20 0.438130 0.500000 0.888481
O O21 0.474430 0.500000 0.344875
#
# Coordination Sequence:
#
# PCOD9173640 Si02
#       8
#     8   8   8   8   8   8   8   8
#     4  10  18  31  48  70 103 142 179 223 278 329
#     4   9  16  31  53  77 104 140 180 220 269 323
#     4  10  22  38  55  80 112 144 178 220 267 318
#     4  10  21  39  63  89 116 146 182 219 260 314
#     4  12  23  35  54  81 111 144 183 226 271 325
#     4   9  16  26  41  67 101 138 178 224 273 326
#     4   8  14  26  46  71 101 135 175 220 270 322
#     4  10  19  34  58  84 113 146 180 221 268 317
#
# _framework density 17.953887000000002
#
# number of rings (size 3 to 8) (size 9 to 14) (size 15 to 20)
#    0.000    2.250    1.250    3.750    0.000    2.000 
#    0.000    1.875    0.000    4.500    0.000    5.250 
#    0.000    0.000    0.000    0.000    0.000    0.000 
#
# Total GULP energy -178514.490882 kJ/mol
# GULP energy per Si atom -5578.577840 kJ/mol
# Density = 1.791302 g / cm^3
# Si number density = 17.953887 Si / 1000 Ang^3
#
#
#
# Elastic Constant Matrix: (Units=GPa)
#
#
# Indices 1 2 3 4 5 6 
#
# 1 47.9338 36.5300 23.3600 0.0000 -11.2487 0.0002
# 2 36.5300 83.3107 44.3072 0.0001 -7.6418 0.0004
# 3 23.3600 44.3072 111.1778 0.0000 -33.5274 0.0000
# 4 0.0000 0.0001 0.0000 30.4506 0.0000 -5.2927
# 5 -11.2487 -7.6418 -33.5274 0.0000 18.1970 0.0000
# 6 0.0002 0.0004 0.0000 -5.2927 0.0000 26.3676
#
#
#
# Elastic Compliance Matrix: (Units=1/GPa)
#
#
# Indices 1 2 3 4 5 6 
#
# 1 0.038400 -0.018820 0.009467 0.000000 0.033277 0.000000
# 2 -0.018820 0.025456 -0.014571 0.000000 -0.027791 0.000000
# 3 0.009467 -0.014571 0.028651 0.000000 0.052523 0.000000
# 4 0.000000 0.000000 0.000000 0.034027 0.000000 0.006830
# 5 0.033277 -0.027791 0.052523 0.000000 0.160626 0.000000
# 6 0.000000 0.000000 0.000000 0.006830 0.000000 0.039296
#
#
# Mechanical properties :
#
#
# Convention : Reuss Voigt Hill
#
# Bulk Modulus (GPa) = 22.39185 50.09074 36.24130
# Shear Modulus (GPa) = 12.84715 24.21805 18.53260
#
# Velocity S-wave (km/s) = 2.67790 3.67673 3.21632
# Velocity P-wave (km/s) = 4.69686 6.78120 5.83289
#
# Compressibility (1/GPa) = 0.04465911
#
# Stress axis : x y z
#
# Youngs Moduli (GPa) = 26.04142 39.28392 34.90236
#
# Poissons Ratio (x) = 0.73933 -0.33043
# Poissons Ratio (y) = 0.49011 0.50856
# Poissons Ratio (z) = -0.24654 0.57241
#
# Static dielectric constant tensor:
#      x y z
#    x 1.605480 0.000000 -0.004330 
#    y 0.000000 1.597420 0.000000 
#    z -0.004330 0.000000 1.627450 
# 
# From -- ./inp_files/345547.got.cif
#   From: 2010.05.17/outbox.cif.g08.bks.cpg/sg12_173_cif.got.tgz:345547.got - 2010.06.03 13:09:07.
