data_PCOD9173563
_publ_section_title
;
Structure prediction by ZEFSAII (Michael W. Deem and Ramdas Pophale) SiO2 
 PCOD9173563
Probable space group: C 2/M
;
_chemical_formula_sum "Si O2"
_cell_formula_units_Z 48
_cell_length_a 13.346232
_cell_length_b 27.026456
_cell_length_c 8.497918
_cell_angle_alpha 90.000000
_cell_angle_beta 48.495856
_cell_angle_gamma 90.000000
_cell_volume 2295.560042
_symmetry_space_group_name_H-M "C 2/M"
_symmetry_group_IT_number 12
_symmetry_cell_setting 'monoclinic'
loop_
_space_group_symop_operation_xyz
x,y,z
-x,y,-z
-x,-y,-z
x,-y,z
1/2+x,1/2+y,z
1/2-x,1/2+y,-z
1/2-x,1/2-y,-z
1/2+x,1/2-y,z
loop_
_atom_site_type_symbol
_atom_site_label
_atom_site_fract_x
_atom_site_fract_y
_atom_site_fract_z
Si Si1 0.047333 0.163749 0.768200
Si Si2 0.277362 0.697375 0.890717
Si Si3 0.587480 0.052743 0.567100
Si Si4 0.515009 0.846354 0.296836
Si Si5 0.603328 0.445207 0.747083
Si Si6 0.631234 0.232747 0.750563
O O1 0.087577 0.107913 0.677191
O O2 0.149541 0.210560 0.674348
O O3 0.924560 0.180523 0.785892
O O4 0.000000 0.158195 0.000000
O O5 0.243154 0.707830 0.744550
O O6 0.250000 0.750000 0.000000
O O7 0.166451 0.661033 0.081049
O O8 0.500000 0.051587 0.500000
O O9 0.542458 0.101559 0.704094
O O10 0.742587 0.056520 0.358283
O O11 0.568626 0.000000 0.670156
O O12 0.500000 0.845549 0.500000
O O13 0.426091 0.802128 0.324145
O O14 0.586508 0.500000 0.685199
O O15 0.500000 0.445727 0.000000
O O16 0.500000 0.236321 0.000000
#
# Coordination Sequence:
#
# PCOD9173563 Si02
#       6
#     8   8   8   8   8   8
#     4  10  18  30  58  78 104 150 194 227 273 327
#     4  11  19  36  57  77 115 157 190 223 280 350
#     4   9  19  34  52  80 117 149 184 238 295 333
#     4  10  21  33  56  87 112 146 185 242 287 330
#     4   9  19  33  52  79 112 150 192 234 279 339
#     4   9  18  34  54  78 115 153 188 222 280 346
#
# _framework density 20.909929000000002
#
# number of rings (size 3 to 8) (size 9 to 14) (size 15 to 20)
#    0.000    2.333    5.000    0.000    9.333    0.000 
#    0.000    3.333    0.000    5.500    0.000    2.333 
#    0.000    0.000    0.000    0.000    0.000    0.000 
#
# Total GULP energy -133760.646624 kJ/mol
# GULP energy per Si atom -5573.360276 kJ/mol
# Density = 2.086234 g / cm^3
# Si number density = 20.909929 Si / 1000 Ang^3
#
#
#
# Elastic Constant Matrix: (Units=GPa)
#
#
# Indices 1 2 3 4 5 6 
#
# 1 116.0013 43.0153 23.7672 0.0000 -15.6698 0.0000
# 2 43.0153 202.8233 17.0561 0.0000 -10.6316 0.0000
# 3 23.7672 17.0561 51.6935 0.0000 -4.5867 0.0000
# 4 0.0000 0.0000 0.0000 -1.8863 0.0000 -0.3555
# 5 -15.6698 -10.6316 -4.5867 0.0000 37.6399 0.0000
# 6 0.0000 0.0000 0.0000 -0.3555 0.0000 20.3481
#
#
#
# Elastic Compliance Matrix: (Units=1/GPa)
#
#
# Indices 1 2 3 4 5 6 
#
# 1 0.010534 -0.001721 -0.003972 0.000000 0.003415 0.000000
# 2 -0.001721 0.005410 -0.000932 0.000000 0.000698 0.000000
# 3 -0.003972 -0.000932 0.021541 0.000000 0.000708 0.000000
# 4 0.000000 0.000000 0.000000 -0.528406 0.000000 -0.009231
# 5 0.003415 0.000698 0.000708 0.000000 0.028273 0.000000
# 6 0.000000 0.000000 0.000000 -0.009231 0.000000 0.048983
#
#
# Mechanical properties :
#
#
# Convention : Reuss Voigt Hill
#
# Bulk Modulus (GPa) = 41.26219 59.79948 50.53083
# Shear Modulus (GPa) = -12.74421 30.33231 8.79405
#
# Velocity S-wave (km/s) = -2.47145 3.81283 2.05300
# Velocity P-wave (km/s) = 3.41058 6.93140 5.46243
#
# Compressibility (1/GPa) = 0.02423526
#
# Stress axis : x y z
#
# Youngs Moduli (GPa) = 94.93072 184.83054 46.42207
#
# Poissons Ratio (x) = 0.31810 0.18441
# Poissons Ratio (y) = 0.16338 0.04326
# Poissons Ratio (z) = 0.37710 0.17225
#
# Static dielectric constant tensor:
#      x y z
#    x 1.736700 0.000000 -0.026300 
#    y 0.000000 1.841740 0.000000 
#    z -0.026300 0.000000 1.794560 
# 
# From -- ./inp_files/68069.got.cif
#   From: 2010.05.17/outbox.cif.g08.bks.cpg/sg12_35_cif.got.tgz:68069.got - 2010.06.03 13:09:07.
