data_PCOD9173393
_publ_section_title
;
Structure prediction by ZEFSAII (Michael W. Deem and Ramdas Pophale) SiO2 
 PCOD9173393
Probable space group: C 2/M
;
_chemical_formula_sum "Si O2"
_cell_formula_units_Z 56
_cell_length_a 24.708960
_cell_length_b 7.580687
_cell_length_c 14.528346
_cell_angle_alpha 90.000000
_cell_angle_beta 68.803953
_cell_angle_gamma 90.000000
_cell_volume 2537.216915
_symmetry_space_group_name_H-M "C 2/M"
_symmetry_group_IT_number 12
_symmetry_cell_setting 'monoclinic'
loop_
_space_group_symop_operation_xyz
x,y,z
-x,y,-z
-x,-y,-z
x,-y,z
1/2+x,1/2+y,z
1/2-x,1/2+y,-z
1/2-x,1/2-y,-z
1/2+x,1/2-y,z
loop_
_atom_site_type_symbol
_atom_site_label
_atom_site_fract_x
_atom_site_fract_y
_atom_site_fract_z
Si Si1 0.091021 0.716380 0.186514
Si Si2 0.434825 0.296061 0.528488
Si Si3 0.756061 0.200713 0.388943
Si Si4 0.671610 0.801228 0.289945
Si Si5 0.465063 0.788211 0.317806
Si Si6 0.624306 0.787626 0.778079
Si Si7 0.564422 0.784347 0.994670
O O1 0.091984 0.500000 0.187525
O O2 0.147364 0.777487 0.209029
O O3 0.031627 0.772034 0.274648
O O4 0.082481 0.771032 0.086074
O O5 0.500000 0.225079 0.500000
O O6 0.433198 0.500000 0.558676
O O7 0.386709 0.192867 0.612895
O O8 0.427047 0.286955 0.423839
O O9 0.750000 0.250000 0.500000
O O10 0.716994 0.288889 0.332074
O O11 0.821217 0.214618 0.311071
O O12 0.735652 0.000000 0.401118
O O13 0.692279 0.000000 0.254797
O O14 0.434140 0.744537 0.241618
O O15 0.464971 0.000000 0.326989
O O16 0.612250 0.730469 0.889667
O O17 0.630749 0.000000 0.773420
O O18 0.562591 0.000000 0.996860
O O19 0.500000 0.728997 0.000000
#
# Coordination Sequence:
#
# PCOD9173393 Si02
#       7
#     8   8   8   8   8   8   8
#     4   9  16  29  52  80 108 136 172 222 268 308
#     4  11  22  32  46  75 111 141 170 214 277 337
#     4  11  24  41  59  79 107 146 192 233 271 324
#     4  10  21  37  56  76 102 143 189 227 266 319
#     4  10  18  30  52  79 106 139 178 218 263 321
#     4  10  20  34  57  87 113 141 182 227 274 324
#     4   9  15  28  53  87 117 139 174 225 272 319
#
# _framework density 22.071428000000001
#
# number of rings (size 3 to 8) (size 9 to 14) (size 15 to 20)
#    0.000    2.000    2.857    1.714    0.000    5.714 
#    0.000    0.714    0.000    2.143    0.000    0.000 
#    0.000    0.000    0.000    0.000    0.000    0.000 
#
# Total GULP energy -156207.930469 kJ/mol
# GULP energy per Si atom -5578.854660 kJ/mol
# Density = 2.202119 g / cm^3
# Si number density = 22.071428 Si / 1000 Ang^3
#
#
#
# Elastic Constant Matrix: (Units=GPa)
#
#
# Indices 1 2 3 4 5 6 
#
# 1 127.0212 11.5922 42.0982 0.0000 29.1582 0.0000
# 2 11.5922 46.4361 2.2410 0.0000 7.8870 0.0000
# 3 42.0982 2.2410 133.2549 0.0000 30.1982 0.0000
# 4 0.0000 0.0000 0.0000 -79.1336 0.0000 -13.1816
# 5 29.1582 7.8870 30.1982 0.0000 41.8208 0.0000
# 6 0.0000 0.0000 0.0000 -13.1816 0.0000 8.8459
#
#
#
# Elastic Compliance Matrix: (Units=1/GPa)
#
#
# Indices 1 2 3 4 5 6 
#
# 1 0.009833 -0.001479 -0.001902 0.000000 -0.005203 0.000000
# 2 -0.001479 0.022523 0.000977 0.000000 -0.003922 0.000000
# 3 -0.001902 0.000977 0.009362 0.000000 -0.005618 0.000000
# 4 0.000000 0.000000 0.000000 -0.010124 0.000000 -0.015086
# 5 -0.005203 -0.003922 -0.005618 0.000000 0.032336 0.000000
# 6 0.000000 0.000000 0.000000 -0.015086 0.000000 0.090567
#
#
# Mechanical properties :
#
#
# Convention : Reuss Voigt Hill
#
# Bulk Modulus (GPa) = 27.09322 46.50831 36.80077
# Shear Modulus (GPa) = 29.13620 11.02533 20.08076
#
# Velocity S-wave (km/s) = 3.63724 2.23744 3.01957
# Velocity P-wave (km/s) = 5.47186 5.27184 5.37278
#
# Compressibility (1/GPa) = 0.03690960
#
# Stress axis : x y z
#
# Youngs Moduli (GPa) = 101.70353 44.39867 106.81266
#
# Poissons Ratio (x) = 0.06567 0.20320
# Poissons Ratio (y) = 0.15043 -0.10439
# Poissons Ratio (z) = 0.19348 -0.04339
#
# Static dielectric constant tensor:
#      x y z
#    x 1.866790 0.000000 0.074050 
#    y 0.000000 1.848930 0.000000 
#    z 0.074050 0.000000 1.804470 
# 
# From -- ./inp_files/243663.got.cif
#   From: 2010.05.17/outbox.cif.g08.bks.cpg/sg12_122_cif.got.tgz:243663.got - 2010.06.03 13:09:07.
