data_PCOD9173045
_publ_section_title
;
Structure prediction by ZEFSAII (Michael W. Deem and Ramdas Pophale) SiO2 
 PCOD9173045
Probable space group: C 2/M
;
_chemical_formula_sum "Si O2"
_cell_formula_units_Z 38
_cell_length_a 16.805799
_cell_length_b 14.217334
_cell_length_c 9.835002
_cell_angle_alpha 90.000000
_cell_angle_beta 45.516754
_cell_angle_gamma 90.000000
_cell_volume 1676.558056
_symmetry_space_group_name_H-M "C 2/M"
_symmetry_group_IT_number 12
_symmetry_cell_setting 'monoclinic'
loop_
_space_group_symop_operation_xyz
x,y,z
-x,y,-z
-x,-y,-z
x,-y,z
1/2+x,1/2+y,z
1/2-x,1/2+y,-z
1/2-x,1/2-y,-z
1/2+x,1/2-y,z
loop_
_atom_site_type_symbol
_atom_site_label
_atom_site_fract_x
_atom_site_fract_y
_atom_site_fract_z
Si Si1 0.305731 0.000000 0.584277
Si Si2 0.941095 0.000000 0.219702
Si Si3 0.453000 0.000000 0.709577
Si Si4 0.500000 0.000000 0.000000
Si Si5 0.230687 0.708247 0.304969
Si Si6 0.373238 0.155552 0.991711
Si Si7 0.928934 0.796367 0.291489
O O1 0.424058 0.000000 0.359512
O O2 0.295968 0.097385 0.679733
O O3 0.194165 0.000000 0.628315
O O4 0.970136 0.902943 0.256258
O O5 0.000000 0.000000 0.000000
O O6 0.500000 0.000000 0.500000
O O7 0.387294 0.090413 0.841489
O O8 0.592996 0.082652 0.930235
O O9 0.128447 0.753580 0.507754
O O10 0.336548 0.707291 0.282088
O O11 0.263992 0.781875 0.148381
O O12 0.469272 0.232138 0.868186
#
# Coordination Sequence:
#
# PCOD9173045 Si02
#       7
#     4   4   4   2   8   8   8
#     4  10  19  37  58  79 117 154 189 233 292 345
#     4  10  20  30  51  85 126 152 176 221 300 379
#     4  11  25  42  59  79 111 161 215 254 285 328
#     4  10  20  28  54  82 116 146 178 226 300 348
#     4  10  19  31  54  87 114 150 184 225 295 361
#     4  11  20  35  56  82 117 150 193 239 292 350
#     4  10  18  30  49  82 123 146 177 219 291 364
#
# _framework density 22.665483999999999
#
# number of rings (size 3 to 8) (size 9 to 14) (size 15 to 20)
#    0.000    1.684    4.211    2.526    0.000    1.684 
#    0.000    1.053    0.000    0.000    0.000    1.474 
#    0.000    0.000    0.000    0.000    0.000    0.000 
#
# Total GULP energy -105822.370788 kJ/mol
# GULP energy per Si atom -5569.598463 kJ/mol
# Density = 2.261390 g / cm^3
# Si number density = 22.665484 Si / 1000 Ang^3
#
#
#
# Elastic Constant Matrix: (Units=GPa)
#
#
# Indices 1 2 3 4 5 6 
#
# 1 13.5993 11.2142 5.0528 0.0000 7.9714 0.0000
# 2 11.2142 267.2184 79.4712 0.0000 1.6587 0.0000
# 3 5.0528 79.4712 127.9965 0.0000 -9.2881 0.0000
# 4 0.0000 0.0000 0.0000 47.6129 0.0000 -14.0987
# 5 7.9714 1.6587 -9.2881 0.0000 28.3361 0.0000
# 6 0.0000 0.0000 0.0000 -14.0987 0.0000 -13.5047
#
#
#
# Elastic Compliance Matrix: (Units=1/GPa)
#
#
# Indices 1 2 3 4 5 6 
#
# 1 0.093209 -0.002521 -0.004104 0.000000 -0.027419 0.000000
# 2 -0.002521 0.004700 -0.002855 0.000000 -0.000502 0.000000
# 3 -0.004104 -0.002855 0.010083 0.000000 0.004627 0.000000
# 4 0.000000 0.000000 0.000000 0.016043 0.000000 -0.016749
# 5 -0.027419 -0.000502 0.004627 0.000000 0.044550 0.000000
# 6 0.000000 0.000000 0.000000 -0.016749 0.000000 -0.056563
#
#
# Mechanical properties :
#
#
# Convention : Reuss Voigt Hill
#
# Bulk Modulus (GPa) = 11.23187 66.69895 38.96541
# Shear Modulus (GPa) = 31.12142 33.36059 32.24100
#
# Velocity S-wave (km/s) = 3.70952 3.84065 3.77566
# Velocity P-wave (km/s) = 4.82842 7.01134 6.01966
#
# Compressibility (1/GPa) = 0.08903234
#
# Stress axis : x y z
#
# Youngs Moduli (GPa) = 10.72856 212.75115 99.17420
#
# Poissons Ratio (x) = 0.53633 0.40701
# Poissons Ratio (y) = 0.02705 0.28317
# Poissons Ratio (z) = 0.04403 0.60746
#
# Static dielectric constant tensor:
#      x y z
#    x 2.070110 0.000000 0.173120 
#    y 0.000000 1.855160 0.000000 
#    z 0.173120 0.000000 1.985070 
# 
# From -- ./inp_files/96105.got.cif
#   From: 2010.05.17/outbox.cif.g08.bks.cpg/sg12_49_cif.got.tgz:96105.got - 2010.06.03 13:09:07.
