data_PCOD9173627
_publ_section_title
;
Structure prediction by ZEFSAII (Michael W. Deem and Ramdas Pophale) SiO2 
 PCOD9173627
Probable space group: C 2/M
;
_chemical_formula_sum "Si O2"
_cell_formula_units_Z 56
_cell_length_a 16.758571
_cell_length_b 14.683394
_cell_length_c 12.846824
_cell_angle_alpha 90.000000
_cell_angle_beta 88.251524
_cell_angle_gamma 90.000000
_cell_volume 3159.780809
_symmetry_space_group_name_H-M "C 2/M"
_symmetry_group_IT_number 12
_symmetry_cell_setting 'monoclinic'
loop_
_space_group_symop_operation_xyz
x,y,z
-x,y,-z
-x,-y,-z
x,-y,z
1/2+x,1/2+y,z
1/2-x,1/2+y,-z
1/2-x,1/2-y,-z
1/2+x,1/2-y,z
loop_
_atom_site_type_symbol
_atom_site_label
_atom_site_fract_x
_atom_site_fract_y
_atom_site_fract_z
Si Si1 0.791666 0.100907 0.378342
Si Si2 0.619931 0.105831 0.492481
Si Si3 0.872660 0.276078 0.297902
Si Si4 0.416113 0.602404 0.562252
Si Si5 0.441602 0.225846 0.681998
Si Si6 0.415799 0.104479 0.870769
Si Si7 0.608682 0.104095 0.894862
O O1 0.702530 0.108519 0.424643
O O2 0.819252 0.186382 0.309879
O O3 0.848741 0.104956 0.477261
O O4 0.802253 0.000000 0.329965
O O5 0.634193 0.160576 0.598870
O O6 0.559967 0.156705 0.415993
O O7 0.599270 0.000000 0.513060
O O8 0.854905 0.331874 0.194152
O O9 0.966964 0.251582 0.292653
O O10 0.500000 0.621288 0.500000
O O11 0.420501 0.500000 0.605546
O O12 0.401815 0.681145 0.645663
O O13 0.399944 0.174503 0.779184
O O14 0.512411 0.104001 0.880487
O O15 0.393013 0.000000 0.845208
O O16 0.379924 0.129087 0.984620
O O17 0.635452 0.000000 0.879640
#
# Coordination Sequence:
#
# PCOD9173627 Si02
#       7
#     8   8   8   8   8   8   8
#     4  10  21  35  48  66  97 136 168 191 230 287
#     4  11  22  32  45  72 104 130 153 190 246 297
#     4  11  19  30  49  73  98 124 161 201 238 280
#     4  10  18  31  48  68  94 126 167 202 231 277
#     4  11  19  29  49  75  97 125 155 200 244 283
#     4   8  15  28  45  68  98 127 156 189 237 292
#     4   8  15  28  46  68  95 127 158 193 234 284
#
# _framework density 17.722750000000001
#
# number of rings (size 3 to 8) (size 9 to 14) (size 15 to 20)
#    0.000    2.143    2.857    2.571    0.000    2.286 
#    0.000    0.000    0.000    1.714    0.000    4.000 
#    0.000    0.000    0.000    0.000    0.000    0.000 
#
# Total GULP energy -156184.944321 kJ/mol
# GULP energy per Si atom -5578.033726 kJ/mol
# Density = 1.768241 g / cm^3
# Si number density = 17.722750 Si / 1000 Ang^3
#
#
#
# Elastic Constant Matrix: (Units=GPa)
#
#
# Indices 1 2 3 4 5 6 
#
# 1 28.4144 -4.0997 -3.2827 0.0000 -4.1494 0.0000
# 2 -4.0997 138.0585 88.0561 0.0000 -2.0434 0.0000
# 3 -3.2827 88.0561 118.2335 0.0000 1.2467 0.0000
# 4 0.0000 0.0000 0.0000 63.6404 0.0000 -10.8541
# 5 -4.1494 -2.0434 1.2467 0.0000 10.3419 0.0000
# 6 0.0000 0.0000 0.0000 -10.8541 0.0000 20.0545
#
#
#
# Elastic Compliance Matrix: (Units=1/GPa)
#
#
# Indices 1 2 3 4 5 6 
#
# 1 0.037634 0.001492 -0.000229 0.000000 0.015422 0.000000
# 2 0.001492 0.014021 -0.010450 0.000000 0.004629 0.000000
# 3 -0.000229 -0.010450 0.016278 0.000000 -0.004119 0.000000
# 4 0.000000 0.000000 0.000000 0.017311 0.000000 0.009369
# 5 0.015422 0.004629 -0.004119 0.000000 0.104293 0.000000
# 6 0.000000 0.000000 0.000000 0.009369 0.000000 0.054935
#
#
# Mechanical properties :
#
#
# Convention : Reuss Voigt Hill
#
# Bulk Modulus (GPa) = 20.17780 49.56153 34.86966
# Shear Modulus (GPa) = 17.89764 32.40955 25.15359
#
# Velocity S-wave (km/s) = 3.18129 4.28097 3.77142
# Velocity P-wave (km/s) = 4.99040 7.24301 6.21954
#
# Compressibility (1/GPa) = 0.04955942
#
# Stress axis : x y z
#
# Youngs Moduli (GPa) = 26.57149 71.32042 61.43400
#
# Poissons Ratio (x) = -0.10639 0.01405
# Poissons Ratio (y) = -0.03964 0.64198
# Poissons Ratio (z) = 0.00608 0.74529
#
# Static dielectric constant tensor:
#      x y z
#    x 1.637710 0.000000 -0.004740 
#    y 0.000000 1.625990 0.000000 
#    z -0.004740 0.000000 1.595880 
# 
# From -- ./inp_files/155991.got.cif
#   From: 2010.05.17/outbox.cif.g08.bks.cpg/sg12_78_cif.got.tgz:155991.got - 2010.06.03 13:09:07.
