data_PCOD9173301
_publ_section_title
;
Structure prediction by ZEFSAII (Michael W. Deem and Ramdas Pophale) SiO2 
 PCOD9173301
Probable space group: C 2/M
;
_chemical_formula_sum "Si O2"
_cell_formula_units_Z 44
_cell_length_a 16.035486
_cell_length_b 7.413114
_cell_length_c 23.485788
_cell_angle_alpha 90.000000
_cell_angle_beta 144.122189
_cell_angle_gamma 90.000000
_cell_volume 1636.172129
_symmetry_space_group_name_H-M "C 2/M"
_symmetry_group_IT_number 12
_symmetry_cell_setting 'monoclinic'
loop_
_space_group_symop_operation_xyz
x,y,z
-x,y,-z
-x,-y,-z
x,-y,z
1/2+x,1/2+y,z
1/2-x,1/2+y,-z
1/2-x,1/2-y,-z
1/2+x,1/2-y,z
loop_
_atom_site_type_symbol
_atom_site_label
_atom_site_fract_x
_atom_site_fract_y
_atom_site_fract_z
Si Si1 0.148889 0.220589 0.055780
Si Si2 0.204710 0.285895 0.691549
Si Si3 0.736948 0.800091 0.573739
Si Si4 0.948238 0.296645 0.243840
Si Si5 0.470266 0.283066 0.125820
Si Si6 0.038128 0.000000 0.413228
O O1 0.291296 0.281831 0.165978
O O2 0.154112 0.000000 0.060472
O O3 0.000000 0.276051 0.000000
O O4 0.135145 0.275873 0.982286
O O5 0.179771 0.500000 0.685818
O O6 0.208147 0.253995 0.624586
O O7 0.365787 0.248557 0.800956
O O8 0.086232 0.159064 0.652401
O O9 0.660291 0.654106 0.494236
O O10 0.908634 0.806765 0.660882
O O11 0.680497 0.000000 0.532830
O O12 0.959824 0.500000 0.272162
O O13 0.950051 0.302752 0.175893
O O14 0.459360 0.500000 0.126891
#
# Coordination Sequence:
#
# PCOD9173301 Si02
#       6
#     8   8   8   8   8   4
#     4   9  18  33  54  79 108 139 186 229 273 324
#     4   9  18  28  43  71 106 142 177 214 268 326
#     4  10  19  30  45  71 109 144 178 218 269 328
#     4  10  18  30  51  78 108 147 185 219 270 329
#     4   9  18  32  50  76 109 145 181 220 272 328
#     4  12  19  28  48  74 108 144 174 222 279 324
#
# _framework density 26.892036000000001
#
# number of rings (size 3 to 8) (size 9 to 14) (size 15 to 20)
#    0.000    2.364    0.909    4.364    3.818    1.455 
#    0.000    0.909    0.000    4.909    0.000    1.273 
#    0.000    0.000    0.000    0.000    0.000    0.000 
#
# Total GULP energy -122877.338162 kJ/mol
# GULP energy per Si atom -5585.333553 kJ/mol
# Density = 2.683083 g / cm^3
# Si number density = 26.892036 Si / 1000 Ang^3
#
#
#
# Elastic Constant Matrix: (Units=GPa)
#
#
# Indices 1 2 3 4 5 6 
#
# 1 102.6633 -6.5723 44.6747 0.0000 -0.7242 0.0000
# 2 -6.5723 124.8083 63.5945 0.0000 1.8988 0.0000
# 3 44.6747 63.5945 191.7773 0.0000 18.7795 0.0000
# 4 0.0000 0.0000 0.0000 27.7571 0.0000 45.8715
# 5 -0.7242 1.8988 18.7795 0.0000 54.8701 0.0000
# 6 0.0000 0.0000 0.0000 45.8715 0.0000 96.8802
#
#
#
# Elastic Compliance Matrix: (Units=1/GPa)
#
#
# Indices 1 2 3 4 5 6 
#
# 1 0.011472 0.002420 -0.003602 0.000000 0.001301 0.000000
# 2 0.002420 0.010185 -0.004045 0.000000 0.001064 0.000000
# 3 -0.003602 -0.004045 0.007642 0.000000 -0.002523 0.000000
# 4 0.000000 0.000000 0.000000 0.165631 0.000000 -0.078424
# 5 0.001301 0.001064 -0.002523 0.000000 0.019069 0.000000
# 6 0.000000 0.000000 0.000000 -0.078424 0.000000 0.047455
#
#
# Mechanical properties :
#
#
# Convention : Reuss Voigt Hill
#
# Bulk Modulus (GPa) = 53.06822 69.18250 61.12536
# Shear Modulus (GPa) = 17.97336 57.07161 37.52248
#
# Velocity S-wave (km/s) = 2.58806 4.61179 3.73943
# Velocity P-wave (km/s) = 5.35792 7.35799 6.43612
#
# Compressibility (1/GPa) = 0.01884367
#
# Stress axis : x y z
#
# Youngs Moduli (GPa) = 87.16723 98.18643 130.85575
#
# Poissons Ratio (x) = -0.23759 0.47137
# Poissons Ratio (y) = -0.21093 0.52934
# Poissons Ratio (z) = 0.31400 0.39718
#
# Static dielectric constant tensor:
#      x y z
#    x 2.225920 0.000000 -0.017940 
#    y 0.000000 2.002390 0.000000 
#    z -0.017940 0.000000 2.015420 
# 
# From -- ./inp_files/377821.got.cif
#   From: 2010.05.17/outbox.cif.g08.bks.cpg/sg12_189_cif.got.tgz:377821.got - 2010.06.03 13:09:07.
