data_PCOD9173554
_publ_section_title
;
Structure prediction by ZEFSAII (Michael W. Deem and Ramdas Pophale) SiO2 
 PCOD9173554
Probable space group: C 2/M
;
_chemical_formula_sum "Si O2"
_cell_formula_units_Z 44
_cell_length_a 8.503037
_cell_length_b 21.708196
_cell_length_c 10.550021
_cell_angle_alpha 90.000000
_cell_angle_beta 95.629099
_cell_angle_gamma 90.000000
_cell_volume 1937.991054
_symmetry_space_group_name_H-M "C 2/M"
_symmetry_group_IT_number 12
_symmetry_cell_setting 'monoclinic'
loop_
_space_group_symop_operation_xyz
x,y,z
-x,y,-z
-x,-y,-z
x,-y,z
1/2+x,1/2+y,z
1/2-x,1/2+y,-z
1/2-x,1/2-y,-z
1/2+x,1/2-y,z
loop_
_atom_site_type_symbol
_atom_site_label
_atom_site_fract_x
_atom_site_fract_y
_atom_site_fract_z
Si Si1 0.000000 0.245981 0.500000
Si Si2 0.771713 0.813134 0.669207
Si Si3 0.311077 0.929858 0.458688
Si Si4 0.824289 0.427893 0.734661
Si Si5 0.831193 0.929239 0.017256
Si Si6 0.080639 0.661263 0.880332
O O1 0.933603 0.210045 0.618783
O O2 0.859574 0.287994 0.438335
O O3 0.759394 0.886271 0.652454
O O4 0.699695 0.798613 0.802202
O O5 0.500000 0.923496 0.500000
O O6 0.246795 0.914347 0.593269
O O7 0.279125 0.000000 0.424740
O O8 0.888215 0.500000 0.733866
O O9 0.697482 0.428323 0.835407
O O10 0.950623 0.374697 0.782830
O O11 0.828111 0.000000 0.972748
O O12 0.687643 0.892783 0.946122
O O13 0.000000 0.901006 0.000000
O O14 0.000000 0.690766 0.000000
#
# Coordination Sequence:
#
# PCOD9173554 Si02
#       6
#     4   8   8   8   8   8
#     4  10  24  40  64  78 110 150 192 234 280 322
#     4  11  21  41  59  87 110 147 190 234 276 338
#     4  10  18  30  56  88 117 144 175 228 281 326
#     4   9  16  28  48  76 109 148 186 216 261 327
#     4   9  18  30  45  72 113 153 181 214 269 334
#     4  10  19  32  54  79 106 140 184 230 271 326
#
# _framework density 22.703921999999999
#
# number of rings (size 3 to 8) (size 9 to 14) (size 15 to 20)
#    0.000    2.182    2.727    0.545    0.000    4.364 
#    0.000    3.182    0.000    0.000    0.000    0.000 
#    0.000    0.000    0.000    0.000    0.000    0.000 
#
# Total GULP energy -122695.659474 kJ/mol
# GULP energy per Si atom -5577.075431 kJ/mol
# Density = 2.265225 g / cm^3
# Si number density = 22.703922 Si / 1000 Ang^3
#
#
#
# Elastic Constant Matrix: (Units=GPa)
#
#
# Indices 1 2 3 4 5 6 
#
# 1 49.3630 7.1717 4.1613 0.0000 -23.6955 0.0000
# 2 7.1717 24.8518 6.5997 0.0000 -11.9352 0.0000
# 3 4.1613 6.5997 90.0824 0.0000 -37.7630 0.0000
# 4 0.0000 0.0000 0.0000 -7.2502 0.0000 -9.9825
# 5 -23.6955 -11.9352 -37.7630 0.0000 32.7911 0.0000
# 6 0.0000 0.0000 0.0000 -9.9825 0.0000 8.8460
#
#
#
# Elastic Compliance Matrix: (Units=1/GPa)
#
#
# Indices 1 2 3 4 5 6 
#
# 1 0.051353 0.013226 0.027517 0.000000 0.073612 0.000000
# 2 0.013226 0.054921 0.014987 0.000000 0.046807 0.000000
# 3 0.027517 0.014987 0.037419 0.000000 0.068432 0.000000
# 4 0.000000 0.000000 0.000000 -0.054009 0.000000 -0.060949
# 5 0.073612 0.046807 0.068432 0.000000 0.179534 0.000000
# 6 0.000000 0.000000 0.000000 -0.060949 0.000000 0.044266
#
#
# Mechanical properties :
#
#
# Convention : Reuss Voigt Hill
#
# Bulk Modulus (GPa) = 3.91922 22.24029 13.07975
# Shear Modulus (GPa) = 17.41710 16.63502 17.02606
#
# Velocity S-wave (km/s) = 2.77273 2.70977 2.74143
# Velocity P-wave (km/s) = 3.46132 4.42804 3.97418
#
# Compressibility (1/GPa) = 0.25515307
#
# Stress axis : x y z
#
# Youngs Moduli (GPa) = 19.47320 18.20798 26.72442
#
# Poissons Ratio (x) = -0.24082 -0.73539
# Poissons Ratio (y) = -0.25755 -0.40052
# Poissons Ratio (z) = -0.53585 -0.27288
#
# Static dielectric constant tensor:
#      x y z
#    x 1.883410 0.000000 -0.086300 
#    y 0.000000 1.858900 0.000000 
#    z -0.086300 0.000000 1.909300 
# 
# From -- ./inp_files/121364.got.cif
#   From: 2010.05.17/outbox.cif.g08.bks.cpg/sg12_61_cif.got.tgz:121364.got - 2010.06.03 13:09:07.
