data_PCOD9173906
_publ_section_title
;
Structure prediction by ZEFSAII (Michael W. Deem and Ramdas Pophale) SiO2 
 PCOD9173906
Probable space group: C 2/M
;
_chemical_formula_sum "Si O2"
_cell_formula_units_Z 64
_cell_length_a 19.769195
_cell_length_b 19.552105
_cell_length_c 11.381471
_cell_angle_alpha 90.000000
_cell_angle_beta 58.963224
_cell_angle_gamma 90.000000
_cell_volume 3769.457763
_symmetry_space_group_name_H-M "C 2/M"
_symmetry_group_IT_number 12
_symmetry_cell_setting 'monoclinic'
loop_
_space_group_symop_operation_xyz
x,y,z
-x,y,-z
-x,-y,-z
x,-y,z
1/2+x,1/2+y,z
1/2-x,1/2+y,-z
1/2-x,1/2-y,-z
1/2+x,1/2-y,z
loop_
_atom_site_type_symbol
_atom_site_label
_atom_site_fract_x
_atom_site_fract_y
_atom_site_fract_z
Si Si1 0.668544 0.805524 0.334432
Si Si2 0.742491 0.580579 0.894411
Si Si3 0.482197 0.919695 0.886113
Si Si4 0.082185 0.853546 0.984225
Si Si5 0.670894 0.236644 0.761570
Si Si6 0.817208 0.350640 0.029405
Si Si7 0.067079 0.680537 0.648681
Si Si8 0.404488 0.263919 0.810032
O O1 0.695744 0.871060 0.232248
O O2 0.747989 0.777835 0.323347
O O3 0.603656 0.826083 0.487625
O O4 0.635531 0.743818 0.281714
O O5 0.760691 0.500000 0.877398
O O6 0.655933 0.594671 0.918071
O O7 0.746928 0.612991 0.022266
O O8 0.538939 0.888277 0.737935
O O9 0.492215 0.000000 0.881170
O O10 0.500000 0.889543 0.000000
O O11 0.392061 0.899844 0.943687
O O12 0.076125 0.828753 0.125651
O O13 0.109634 0.786938 0.884113
O O14 0.000000 0.877173 0.000000
O O15 0.689011 0.171691 0.830059
O O16 0.631560 0.214274 0.676351
O O17 0.841994 0.280275 0.942948
O O18 0.987620 0.725340 0.721344
#
# Coordination Sequence:
#
# PCOD9173906 Si02
#       8
#     8   8   8   8   8   8   8   8
#     4  10  21  33  47  74 105 134 164 193 247 306
#     4  10  21  35  50  71 102 138 169 201 244 295
#     4  10  19  30  47  72  99 130 170 204 236 281
#     4  10  18  32  55  76  96 126 165 214 260 286
#     4  10  18  31  51  75 100 127 160 210 251 294
#     4   9  17  31  52  71  97 128 162 204 249 285
#     4  11  19  31  51  73 102 133 161 198 248 302
#     4   9  18  31  51  74 100 126 158 204 251 299
#
# _framework density 16.978569
#
# number of rings (size 3 to 8) (size 9 to 14) (size 15 to 20)
#    0.000    2.125    2.500    1.875    0.000    3.750 
#    0.000    0.000    0.000    4.500    0.000    0.000 
#    0.000    3.000    0.000    0.000    0.000    0.000 
#
# Total GULP energy -178209.927048 kJ/mol
# GULP energy per Si atom -5569.060220 kJ/mol
# Density = 1.693993 g / cm^3
# Si number density = 16.978569 Si / 1000 Ang^3
#
#
#
# Elastic Constant Matrix: (Units=GPa)
#
#
# Indices 1 2 3 4 5 6 
#
# 1 98.7016 2.6926 0.3587 0.0000 -0.2120 0.0000
# 2 2.6926 32.4814 -1.8577 0.0000 -4.7579 0.0000
# 3 0.3587 -1.8577 51.1679 0.0000 -2.6082 0.0000
# 4 0.0000 0.0000 0.0000 8.2568 0.0000 2.4382
# 5 -0.2120 -4.7579 -2.6082 0.0000 15.3861 0.0000
# 6 0.0000 0.0000 0.0000 2.4382 0.0000 13.9747
#
#
#
# Elastic Compliance Matrix: (Units=1/GPa)
#
#
# Indices 1 2 3 4 5 6 
#
# 1 0.010155 -0.000870 -0.000110 0.000000 -0.000148 0.000000
# 2 -0.000870 0.032468 0.001711 0.000000 0.010318 0.000000
# 3 -0.000110 0.001711 0.019804 0.000000 0.003885 0.000000
# 4 0.000000 0.000000 0.000000 0.127692 0.000000 -0.022279
# 5 -0.000148 0.010318 0.003885 0.000000 0.068841 0.000000
# 6 0.000000 0.000000 0.000000 -0.022279 0.000000 0.075445
#
#
# Mechanical properties :
#
#
# Convention : Reuss Voigt Hill
#
# Bulk Modulus (GPa) = 15.65201 20.52646 18.08923
# Shear Modulus (GPa) = 14.11468 19.60065 16.85767
#
# Velocity S-wave (km/s) = 2.88640 3.40138 3.15442
# Velocity P-wave (km/s) = 4.51077 5.24802 4.89330
#
# Compressibility (1/GPa) = 0.06388956
#
# Stress axis : x y z
#
# Youngs Moduli (GPa) = 98.47013 30.79930 50.49381
#
# Poissons Ratio (x) = 0.02679 0.00557
# Poissons Ratio (y) = 0.08565 -0.08639
# Poissons Ratio (z) = 0.01086 -0.05269
#
# Static dielectric constant tensor:
#      x y z
#    x 1.627260 0.000000 0.016570 
#    y 0.000000 1.563920 0.000000 
#    z 0.016570 0.000000 1.579170 
# 
# From -- ./inp_files/159245.got.cif
#   From: 2010.05.17/outbox.cif.g08.bks.cpg/sg12_80_cif.got.tgz:159245.got - 2010.06.03 13:09:07.
