data_PCOD9173135
_publ_section_title
;
Structure prediction by ZEFSAII (Michael W. Deem and Ramdas Pophale) SiO2 
 PCOD9173135
Probable space group: C 2/M
;
_chemical_formula_sum "Si O2"
_cell_formula_units_Z 64
_cell_length_a 14.491685
_cell_length_b 15.870221
_cell_length_c 16.802624
_cell_angle_alpha 90.000000
_cell_angle_beta 84.895750
_cell_angle_gamma 90.000000
_cell_volume 3849.048087
_symmetry_space_group_name_H-M "C 2/M"
_symmetry_group_IT_number 12
_symmetry_cell_setting 'monoclinic'
loop_
_space_group_symop_operation_xyz
x,y,z
-x,y,-z
-x,-y,-z
x,-y,z
1/2+x,1/2+y,z
1/2-x,1/2+y,-z
1/2-x,1/2-y,-z
1/2+x,1/2-y,z
loop_
_atom_site_type_symbol
_atom_site_label
_atom_site_fract_x
_atom_site_fract_y
_atom_site_fract_z
Si Si1 0.871245 0.255482 0.161403
Si Si2 0.218776 0.181217 0.067030
Si Si3 0.602389 0.593248 0.954043
Si Si4 0.223938 0.267396 0.308155
Si Si5 0.794962 0.902355 0.416918
Si Si6 0.936016 0.239774 0.796781
Si Si7 0.005450 0.095042 0.676623
Si Si8 0.816009 0.095614 0.603381
O O1 0.807283 0.322625 0.118736
O O2 0.885301 0.171595 0.106513
O O3 0.810453 0.227671 0.241679
O O4 0.973122 0.286897 0.178131
O O5 0.132850 0.214064 0.126804
O O6 0.250000 0.250000 0.000000
O O7 0.178176 0.104889 0.018562
O O8 0.612069 0.500000 0.916834
O O9 0.500000 0.599216 0.000000
O O10 0.231210 0.335196 0.377432
O O11 0.130902 0.281419 0.263663
O O12 0.225126 0.172690 0.343337
O O13 0.897310 0.888031 0.372896
O O14 0.798247 0.891453 0.511521
O O15 0.769718 0.000000 0.402648
O O16 0.977864 0.158228 0.748636
O O17 0.924996 0.098874 0.616303
O O18 0.007244 0.000000 0.708564
O O19 0.784810 0.000000 0.627136
#
# Coordination Sequence:
#
# PCOD9173135 Si02
#       8
#     8   8   8   8   8   8   8   8
#     4  10  19  33  50  72 102 135 169 201 249 301
#     4   9  19  32  48  71  98 132 166 195 239 298
#     4  10  19  31  51  78 106 128 154 204 265 311
#     4  10  20  32  50  76 103 139 175 207 257 309
#     4  10  18  30  50  75 104 136 170 211 260 315
#     4  10  18  31  48  71 103 132 168 208 247 301
#     4   9  17  28  46  75 105 129 157 205 268 321
#     4   9  18  32  50  73 103 134 170 218 263 305
#
# _framework density 16.627486999999999
#
# number of rings (size 3 to 8) (size 9 to 14) (size 15 to 20)
#    0.000    2.375    2.500    0.750    0.000    3.000 
#    0.000    1.875    0.000    1.500    0.000    9.625 
#    0.000    0.000    0.000    0.000    0.000    0.000 
#
# Total GULP energy -178171.592537 kJ/mol
# GULP energy per Si atom -5567.862267 kJ/mol
# Density = 1.658964 g / cm^3
# Si number density = 16.627487 Si / 1000 Ang^3
#
#
#
# Elastic Constant Matrix: (Units=GPa)
#
#
# Indices 1 2 3 4 5 6 
#
# 1 97.9115 31.5047 33.7781 0.0000 11.3089 0.0000
# 2 31.5047 57.6528 28.8381 0.0000 7.4868 0.0000
# 3 33.7781 28.8381 67.3873 0.0000 11.3150 0.0000
# 4 0.0000 0.0000 0.0000 17.1586 0.0000 -1.5529
# 5 11.3089 7.4868 11.3150 0.0000 24.1361 0.0000
# 6 0.0000 0.0000 0.0000 -1.5529 0.0000 17.3111
#
#
#
# Elastic Compliance Matrix: (Units=1/GPa)
#
#
# Indices 1 2 3 4 5 6 
#
# 1 0.013589 -0.004946 -0.004215 0.000000 -0.002857 0.000000
# 2 -0.004946 0.024024 -0.007532 0.000000 -0.001603 0.000000
# 3 -0.004215 -0.007532 0.021114 0.000000 -0.005587 0.000000
# 4 0.000000 0.000000 0.000000 0.058757 0.000000 0.005271
# 5 -0.002857 -0.001603 -0.005587 0.000000 0.045887 0.000000
# 6 0.000000 0.000000 0.000000 0.005271 0.000000 0.058239
#
#
# Mechanical properties :
#
#
# Convention : Reuss Voigt Hill
#
# Bulk Modulus (GPa) = 39.46441 45.68816 42.57628
# Shear Modulus (GPa) = 18.97937 20.30988 19.64462
#
# Velocity S-wave (km/s) = 3.38219 3.49874 3.44096
# Velocity P-wave (km/s) = 6.24806 6.62259 6.43805
#
# Compressibility (1/GPa) = 0.02533929
#
# Stress axis : x y z
#
# Youngs Moduli (GPa) = 73.58893 41.62482 47.36208
#
# Poissons Ratio (x) = 0.20589 0.19963
# Poissons Ratio (y) = 0.36400 0.35675
# Poissons Ratio (z) = 0.31018 0.31354
#
# Static dielectric constant tensor:
#      x y z
#    x 1.569370 0.000000 0.038100 
#    y 0.000000 1.549240 0.000000 
#    z 0.038100 0.000000 1.579450 
# 
# From -- ./inp_files/269841.got.cif
#   From: 2010.05.17/outbox.cif.g08.bks.cpg/sg12_135_cif.got.tgz:269841.got - 2010.06.03 13:09:07.
