data_PCOD9173144
_publ_section_title
;
Structure prediction by ZEFSAII (Michael W. Deem and Ramdas Pophale) SiO2 
 PCOD9173144
Probable space group: C 2/M
;
_chemical_formula_sum "Si O2"
_cell_formula_units_Z 56
_cell_length_a 21.187628
_cell_length_b 8.272002
_cell_length_c 18.226823
_cell_angle_alpha 90.000000
_cell_angle_beta 73.068196
_cell_angle_gamma 90.000000
_cell_volume 3056.032460
_symmetry_space_group_name_H-M "C 2/M"
_symmetry_group_IT_number 12
_symmetry_cell_setting 'monoclinic'
loop_
_space_group_symop_operation_xyz
x,y,z
-x,y,-z
-x,-y,-z
x,-y,z
1/2+x,1/2+y,z
1/2-x,1/2+y,-z
1/2-x,1/2-y,-z
1/2+x,1/2-y,z
loop_
_atom_site_type_symbol
_atom_site_label
_atom_site_fract_x
_atom_site_fract_y
_atom_site_fract_z
Si Si1 0.539956 0.305258 0.824615
Si Si2 0.322368 0.693399 0.501910
Si Si3 0.217103 0.692408 0.334344
Si Si4 0.215602 0.805735 0.173568
Si Si5 0.136035 0.802655 0.665544
Si Si6 0.362216 0.806174 0.082132
Si Si7 0.392305 0.696226 0.907368
O O1 0.537884 0.500000 0.820997
O O2 0.578903 0.245951 0.739284
O O3 0.583096 0.259509 0.880677
O O4 0.465089 0.247772 0.858637
O O5 0.323501 0.500000 0.505036
O O6 0.250000 0.750000 0.500000
O O7 0.329002 0.759232 0.581688
O O8 0.368626 0.746050 0.418379
O O9 0.219587 0.500000 0.329665
O O10 0.197024 0.759447 0.262483
O O11 0.292181 0.749818 0.327629
O O12 0.289614 0.746303 0.131035
O O13 0.163332 0.747437 0.131003
O O14 0.217092 0.000000 0.168368
O O15 0.136447 0.000000 0.666467
O O16 0.362781 0.000000 0.086087
O O17 0.376699 0.753640 0.994460
O O18 0.392242 0.500000 0.907629
#
# Coordination Sequence:
#
# PCOD9173144 Si02
#       7
#     8   8   8   8   8   8   8
#     4  10  19  35  56  76 101 134 172 211 251 302
#     4   9  16  27  45  73 106 134 164 208 255 302
#     4  10  18  30  50  76 102 133 169 209 256 304
#     4  10  21  36  52  75 103 134 172 213 256 302
#     4   8  15  28  48  74 100 127 164 206 248 293
#     4  11  22  35  53  76 103 132 168 215 261 304
#     4  10  22  37  54  74 100 136 174 211 254 304
#
# _framework density 18.324411000000001
#
# number of rings (size 3 to 8) (size 9 to 14) (size 15 to 20)
#    0.000    2.286    1.429    3.000    0.000    3.429 
#    0.000    0.714    0.000    0.857    0.000    6.000 
#    0.000    0.000    0.000    0.000    0.000    0.000 
#
# Total GULP energy -156169.421315 kJ/mol
# GULP energy per Si atom -5577.479333 kJ/mol
# Density = 1.828270 g / cm^3
# Si number density = 18.324411 Si / 1000 Ang^3
#
#
#
# Elastic Constant Matrix: (Units=GPa)
#
#
# Indices 1 2 3 4 5 6 
#
# 1 61.0360 5.3835 18.7551 0.0000 0.4406 0.0000
# 2 5.3835 4.0463 -6.2059 0.0000 -4.8114 0.0000
# 3 18.7551 -6.2059 120.5351 0.0000 -12.6971 0.0000
# 4 0.0000 0.0000 0.0000 27.3108 0.0000 0.5307
# 5 0.4406 -4.8114 -12.6971 0.0000 -1.7349 0.0000
# 6 0.0000 0.0000 0.0000 0.5307 0.0000 12.6359
#
#
#
# Elastic Compliance Matrix: (Units=1/GPa)
#
#
# Indices 1 2 3 4 5 6 
#
# 1 0.016749 -0.002555 -0.000871 0.000000 0.017716 0.000000
# 2 -0.002555 0.074750 -0.009972 0.000000 -0.134973 0.000000
# 3 -0.000871 -0.009972 0.006103 0.000000 -0.017233 0.000000
# 4 0.000000 0.000000 0.000000 0.036645 0.000000 -0.001539
# 5 0.017716 -0.134973 -0.017233 0.000000 -0.071458 0.000000
# 6 0.000000 0.000000 0.000000 -0.001539 0.000000 0.079204
#
#
# Mechanical properties :
#
#
# Convention : Reuss Voigt Hill
#
# Bulk Modulus (GPa) = 14.12301 24.60920 19.36611
# Shear Modulus (GPa) = 25.98869 18.82134 22.40502
#
# Velocity S-wave (km/s) = 3.77006 3.20835 3.50049
# Velocity P-wave (km/s) = 5.16479 5.21378 5.18934
#
# Compressibility (1/GPa) = 0.07080643
#
# Stress axis : x y z
#
# Youngs Moduli (GPa) = 59.70520 13.37791 163.84949
#
# Poissons Ratio (x) = 0.03417 0.14278
# Poissons Ratio (y) = 0.15252 1.63390
# Poissons Ratio (z) = 0.05203 0.13340
#
# Static dielectric constant tensor:
#      x y z
#    x 1.612340 0.000000 -0.018410 
#    y 0.000000 1.638280 0.000000 
#    z -0.018410 0.000000 1.644030 
# 
# From -- ./inp_files/280163.got.cif
#   From: 2010.05.17/outbox.cif.g08.bks.cpg/sg12_141_cif.got.tgz:280163.got - 2010.06.03 13:09:07.
