data_PCOD9173860
_publ_section_title
;
Structure prediction by ZEFSAII (Michael W. Deem and Ramdas Pophale) SiO2 
 PCOD9173860
Probable space group: C 2/M
;
_chemical_formula_sum "Si O2"
_cell_formula_units_Z 56
_cell_length_a 9.804294
_cell_length_b 19.363067
_cell_length_c 26.857868
_cell_angle_alpha 90.000000
_cell_angle_beta 42.669191
_cell_angle_gamma 90.000000
_cell_volume 3455.737607
_symmetry_space_group_name_H-M "C 2/M"
_symmetry_group_IT_number 12
_symmetry_cell_setting 'monoclinic'
loop_
_space_group_symop_operation_xyz
x,y,z
-x,y,-z
-x,-y,-z
x,-y,z
1/2+x,1/2+y,z
1/2-x,1/2+y,-z
1/2-x,1/2-y,-z
1/2+x,1/2-y,z
loop_
_atom_site_type_symbol
_atom_site_label
_atom_site_fract_x
_atom_site_fract_y
_atom_site_fract_z
Si Si1 0.076888 0.702410 0.070833
Si Si2 0.858100 0.194519 0.863812
Si Si3 0.640762 0.683703 0.694469
Si Si4 0.178566 0.145138 0.488597
Si Si5 0.294566 0.920621 0.022869
Si Si6 0.948625 0.420704 0.568276
Si Si7 0.972241 0.230252 0.380675
O O1 0.063273 0.736657 0.128934
O O2 0.866702 0.708295 0.097359
O O3 0.250000 0.750000 0.000000
O O4 0.151307 0.623696 0.041315
O O5 0.845059 0.130196 0.906195
O O6 0.999893 0.175580 0.779754
O O7 0.764793 0.616753 0.644098
O O8 0.520856 0.708192 0.678180
O O9 0.816964 0.738042 0.659214
O O10 0.350972 0.089682 0.453029
O O11 0.085809 0.169339 0.566031
O O12 0.297829 0.211726 0.434493
O O13 0.000000 0.124403 0.500000
O O14 0.226326 0.000000 0.033249
O O15 0.500000 0.924563 0.000000
O O16 0.899369 0.500000 0.574099
O O17 0.000000 0.388824 0.500000
#
# Coordination Sequence:
#
# PCOD9173860 Si02
#       7
#     8   8   8   8   8   8   8
#     4   9  17  32  52  76 103 133 166 210 247 301
#     4  10  19  30  50  77 105 135 166 208 264 305
#     4  11  20  32  49  74 106 131 166 216 269 309
#     4  10  18  31  51  71  92 126 171 222 257 300
#     4   8  15  29  50  74  98 128 169 203 235 291
#     4  10  21  35  50  70  99 137 178 215 253 306
#     4  10  19  29  47  74  98 124 164 217 268 304
#
# _framework density 16.204934000000002
#
# number of rings (size 3 to 8) (size 9 to 14) (size 15 to 20)
#    0.000    2.286    2.857    2.143    0.000    0.857 
#    0.000    0.000    0.000    6.857    0.000    4.000 
#    0.000    0.000    0.000    0.000    0.000    0.000 
#
# Total GULP energy -155894.370034 kJ/mol
# GULP energy per Si atom -5567.656073 kJ/mol
# Density = 1.616805 g / cm^3
# Si number density = 16.204934 Si / 1000 Ang^3
#
#
#
# Elastic Constant Matrix: (Units=GPa)
#
#
# Indices 1 2 3 4 5 6 
#
# 1 70.8993 22.1335 18.6743 0.0006 7.1368 0.0019
# 2 22.1335 84.9401 42.0299 0.0012 9.7823 0.0002
# 3 18.6743 42.0299 94.6173 0.0013 15.4284 0.0005
# 4 0.0006 0.0012 0.0013 19.1712 -0.0006 9.1089
# 5 7.1368 9.7823 15.4284 -0.0006 25.4945 -0.0018
# 6 0.0019 0.0002 0.0005 9.1089 -0.0018 10.7502
#
#
#
# Elastic Compliance Matrix: (Units=1/GPa)
#
#
# Indices 1 2 3 4 5 6 
#
# 1 0.015675 -0.003168 -0.001297 0.000002 -0.002388 -0.000005
# 2 -0.003168 0.015815 -0.006163 -0.000001 -0.001452 0.000001
# 3 -0.001297 -0.006163 0.014554 0.000000 -0.006080 -0.000001
# 4 0.000002 -0.000001 0.000000 0.087313 -0.000003 -0.073983
# 5 -0.002388 -0.001452 -0.006080 -0.000003 0.044129 0.000010
# 6 -0.000005 0.000001 -0.000001 -0.073983 0.000010 0.155709
#
#
# Mechanical properties :
#
#
# Convention : Reuss Voigt Hill
#
# Bulk Modulus (GPa) = 40.34219 46.23690 43.28955
# Shear Modulus (GPa) = 13.78488 22.25778 18.02133
#
# Velocity S-wave (km/s) = 2.91977 3.71012 3.33842
# Velocity P-wave (km/s) = 6.02626 6.85185 6.45227
#
# Compressibility (1/GPa) = 0.02478794
#
# Stress axis : x y z
#
# Youngs Moduli (GPa) = 63.79399 63.22944 68.70900
#
# Poissons Ratio (x) = 0.20030 0.08914
# Poissons Ratio (y) = 0.20208 0.42348
# Poissons Ratio (z) = 0.08276 0.38971
#
# Static dielectric constant tensor:
#      x y z
#    x 1.542750 0.000000 0.017100 
#    y 0.000000 1.550920 0.000000 
#    z 0.017100 0.000000 1.556750 
# 
# From -- ./inp_files/257668.got.cif
#   From: 2010.05.17/outbox.cif.g08.bks.cpg/sg12_129_cif.got.tgz:257668.got - 2010.06.03 13:09:07.
