data_PCOD9173649
_publ_section_title
;
Structure prediction by ZEFSAII (Michael W. Deem and Ramdas Pophale) SiO2 
 PCOD9173649
Probable space group: C 2/M
;
_chemical_formula_sum "Si O2"
_cell_formula_units_Z 64
_cell_length_a 29.654195
_cell_length_b 11.054919
_cell_length_c 10.902382
_cell_angle_alpha 90.000000
_cell_angle_beta 82.519045
_cell_angle_gamma 90.000000
_cell_volume 3543.648571
_symmetry_space_group_name_H-M "C 2/M"
_symmetry_group_IT_number 12
_symmetry_cell_setting 'monoclinic'
loop_
_space_group_symop_operation_xyz
x,y,z
-x,y,-z
-x,-y,-z
x,-y,z
1/2+x,1/2+y,z
1/2-x,1/2+y,-z
1/2-x,1/2-y,-z
1/2+x,1/2-y,z
loop_
_atom_site_type_symbol
_atom_site_label
_atom_site_fract_x
_atom_site_fract_y
_atom_site_fract_z
Si Si1 0.555339 0.136662 0.122253
Si Si2 0.708613 0.866411 0.884204
Si Si3 0.381673 0.636065 0.904834
Si Si4 0.450278 0.135398 0.173612
Si Si5 0.300595 0.867158 0.580008
Si Si6 0.191908 0.130585 0.573442
Si Si7 0.700696 0.778911 0.156101
Si Si8 0.631174 0.709985 0.811897
O O1 0.586232 0.251306 0.145071
O O2 0.503344 0.154259 0.183807
O O3 0.570604 0.000000 0.153257
O O4 0.553676 0.135792 0.973913
O O5 0.748839 0.773388 0.841940
O O6 0.662521 0.825040 0.836258
O O7 0.721846 0.000000 0.841241
O O8 0.700981 0.858521 0.033061
O O9 0.396484 0.500000 0.867612
O O10 0.332954 0.668412 0.863477
O O11 0.376916 0.644591 0.054947
O O12 0.415742 0.239272 0.226196
O O13 0.437540 0.000000 0.219834
O O14 0.245474 0.864404 0.587932
O O15 0.318163 0.750615 0.500794
O O16 0.312897 0.849382 0.717752
O O17 0.315489 0.000000 0.530157
O O18 0.160810 0.136472 0.704996
O O19 0.184473 0.000000 0.513283
#
# Coordination Sequence:
#
# PCOD9173649 Si02
#       8
#     8   8   8   8   8   8   8   8
#     4   8  15  29  46  67  98 131 165 201 245 291
#     4  10  19  29  46  71  99 130 163 201 241 293
#     4  10  20  31  48  73 104 135 166 202 245 297
#     4   8  14  26  46  70  97 130 164 204 244 290
#     4  10  21  37  53  69  93 132 175 213 247 288
#     4  10  21  36  51  70  98 132 168 211 254 289
#     4  10  20  33  46  70  97 133 166 204 245 290
#     4  10  18  31  48  73 101 132 165 203 247 296
#
# _framework density 18.060479999999998
#
# number of rings (size 3 to 8) (size 9 to 14) (size 15 to 20)
#    0.000    2.500    1.250    2.250    0.000    5.500 
#    0.000    5.625    0.000    0.000    0.000    0.875 
#    0.000    5.000    0.000    0.000    0.000    0.000 
#
# Total GULP energy -178292.931615 kJ/mol
# GULP energy per Si atom -5571.654113 kJ/mol
# Density = 1.801937 g / cm^3
# Si number density = 18.060480 Si / 1000 Ang^3
#
#
#
# Elastic Constant Matrix: (Units=GPa)
#
#
# Indices 1 2 3 4 5 6 
#
# 1 44.2049 26.4116 6.9297 0.0000 -11.6340 0.0000
# 2 26.4116 130.4203 29.2092 0.0000 -4.9762 0.0000
# 3 6.9297 29.2092 25.3070 0.0000 0.3644 0.0000
# 4 0.0000 0.0000 0.0000 5.4943 0.0000 -2.9350
# 5 -11.6340 -4.9762 0.3644 0.0000 12.4245 0.0000
# 6 0.0000 0.0000 0.0000 -2.9350 0.0000 8.7271
#
#
#
# Elastic Compliance Matrix: (Units=1/GPa)
#
#
# Indices 1 2 3 4 5 6 
#
# 1 0.034080 -0.004809 -0.004215 0.000000 0.030110 0.000000
# 2 -0.004809 0.011276 -0.011703 0.000000 0.000357 0.000000
# 3 -0.004215 -0.011703 0.054324 0.000000 -0.010228 0.000000
# 4 0.000000 0.000000 0.000000 0.221867 0.000000 0.074617
# 5 0.030110 0.000357 -0.010228 0.000000 0.109123 0.000000
# 6 0.000000 0.000000 0.000000 0.074617 0.000000 0.139680
#
#
# Mechanical properties :
#
#
# Convention : Reuss Voigt Hill
#
# Bulk Modulus (GPa) = 17.17451 36.11480 26.64466
# Shear Modulus (GPa) = 7.92124 14.48796 11.20460
#
# Velocity S-wave (km/s) = 2.09654 2.83537 2.49347
# Velocity P-wave (km/s) = 3.92310 5.54609 4.80364
#
# Compressibility (1/GPa) = 0.05822583
#
# Stress axis : x y z
#
# Youngs Moduli (GPa) = 29.34259 88.68392 18.40805
#
# Poissons Ratio (x) = 0.42645 0.07760
# Poissons Ratio (y) = 0.14110 0.21543
# Poissons Ratio (z) = 0.12369 1.03788
#
# Static dielectric constant tensor:
#      x y z
#    x 1.610720 0.000000 -0.014940 
#    y 0.000000 1.662230 0.000000 
#    z -0.014940 0.000000 1.626330 
# 
# From -- ./inp_files/188327.got.cif
#   From: 2010.05.17/outbox.cif.g08.bks.cpg/sg12_95_cif.got.tgz:188327.got - 2010.06.03 13:09:07.
