data_PCOD9173055
_publ_section_title
;
Structure prediction by ZEFSAII (Michael W. Deem and Ramdas Pophale) SiO2 
 PCOD9173055
Probable space group: C 2/M
;
_chemical_formula_sum "Si O2"
_cell_formula_units_Z 32
_cell_length_a 23.470010
_cell_length_b 15.575709
_cell_length_c 5.129578
_cell_angle_alpha 90.000000
_cell_angle_beta 119.525723
_cell_angle_gamma 90.000000
_cell_volume 1631.658031
_symmetry_space_group_name_H-M "C 2/M"
_symmetry_group_IT_number 12
_symmetry_cell_setting 'monoclinic'
loop_
_space_group_symop_operation_xyz
x,y,z
-x,y,-z
-x,-y,-z
x,-y,z
1/2+x,1/2+y,z
1/2-x,1/2+y,-z
1/2-x,1/2-y,-z
1/2+x,1/2-y,z
loop_
_atom_site_type_symbol
_atom_site_label
_atom_site_fract_x
_atom_site_fract_y
_atom_site_fract_z
Si Si1 0.683533 0.000000 0.131246
Si Si2 0.787496 0.811569 0.876585
Si Si3 0.847566 0.672793 0.718215
Si Si4 0.728007 0.500000 0.157674
Si Si5 0.544644 0.899854 0.358368
O O1 0.643143 0.913801 0.094359
O O2 0.742851 0.000000 0.480927
O O3 0.711150 0.000000 0.904757
O O4 0.847447 0.758874 0.887285
O O5 0.727836 0.828410 0.542335
O O6 0.806794 0.909392 0.989170
O O7 0.750000 0.750000 0.000000
O O8 0.894661 0.661217 0.578511
O O9 0.500000 0.873215 0.500000
O O10 0.564618 0.000000 0.441993
O O11 0.500000 0.897519 0.000000
#
# Coordination Sequence:
#
# PCOD9173055 Si02
#       5
#     4   8   8   4   8
#     4  10  18  30  50  71 106 145 163 211 259 310
#     4  10  20  32  53  78 107 145 180 220 276 328
#     4  10  20  34  51  79 109 144 182 218 267 324
#     4  10  20  32  46  75 108 134 175 212 265 320
#     4  10  22  36  53  79 110 148 185 215 260 323
#
# _framework density 19.611954000000001
#
# number of rings (size 3 to 8) (size 9 to 14) (size 15 to 20)
#    0.000    2.000    3.750    0.000    3.500    0.000 
#    0.000    0.000    0.000    0.000    0.000    1.750 
#    0.000    0.000    0.000    0.000    0.000    0.000 
#
# Total GULP energy -89172.207053 kJ/mol
# GULP energy per Si atom -5573.262941 kJ/mol
# Density = 1.956732 g / cm^3
# Si number density = 19.611954 Si / 1000 Ang^3
#
#
#
# Elastic Constant Matrix: (Units=GPa)
#
#
# Indices 1 2 3 4 5 6 
#
# 1 136.5528 65.1395 12.2044 0.0000 -29.4957 0.0000
# 2 65.1395 178.4718 7.1435 0.0000 -15.7384 0.0000
# 3 12.2044 7.1435 43.8929 0.0000 -11.4890 0.0000
# 4 0.0000 0.0000 0.0000 12.3647 0.0000 -12.3162
# 5 -29.4957 -15.7384 -11.4890 0.0000 25.3905 0.0000
# 6 0.0000 0.0000 0.0000 -12.3162 0.0000 36.2676
#
#
#
# Elastic Compliance Matrix: (Units=1/GPa)
#
#
# Indices 1 2 3 4 5 6 
#
# 1 0.011206 -0.003112 0.000333 0.000000 0.011239 0.000000
# 2 -0.003112 0.006791 -0.000096 0.000000 0.000551 0.000000
# 3 0.000333 -0.000096 0.025854 0.000000 0.012026 0.000000
# 4 0.000000 0.000000 0.000000 0.122217 0.000000 0.041504
# 5 0.011239 0.000551 0.012026 0.000000 0.058224 0.000000
# 6 0.000000 0.000000 0.000000 0.041504 0.000000 0.041667
#
#
# Mechanical properties :
#
#
# Convention : Reuss Voigt Hill
#
# Bulk Modulus (GPa) = 26.24669 58.65469 42.45069
# Shear Modulus (GPa) = 17.58033 33.09989 25.34011
#
# Velocity S-wave (km/s) = 2.99726 4.11267 3.59844
# Velocity P-wave (km/s) = 5.03886 7.24739 6.24158
#
# Compressibility (1/GPa) = 0.03810004
#
# Stress axis : x y z
#
# Youngs Moduli (GPa) = 89.24086 147.24445 38.67941
#
# Poissons Ratio (x) = 0.45824 -0.01286
# Poissons Ratio (y) = 0.27773 0.00370
# Poissons Ratio (z) = -0.02968 0.01409
#
# Static dielectric constant tensor:
#      x y z
#    x 1.700390 0.000000 -0.026160 
#    y 0.000000 1.834410 0.000000 
#    z -0.026160 0.000000 1.816240 
# 
# From -- ./inp_files/14344.got.cif
#   From: 2010.05.17/outbox.cif.g08.bks.cpg/sg12_8_cif.got.tgz:14344.got - 2010.06.03 13:09:07.
