data_PCOD9173578
_publ_section_title
;
Structure prediction by ZEFSAII (Michael W. Deem and Ramdas Pophale) SiO2 
 PCOD9173578
Probable space group: C 2/M
;
_chemical_formula_sum "Si O2"
_cell_formula_units_Z 52
_cell_length_a 21.715681
_cell_length_b 32.624863
_cell_length_c 5.546555
_cell_angle_alpha 90.000000
_cell_angle_beta 109.089056
_cell_angle_gamma 90.000000
_cell_volume 3713.492232
_symmetry_space_group_name_H-M "C 2/M"
_symmetry_group_IT_number 12
_symmetry_cell_setting 'monoclinic'
loop_
_space_group_symop_operation_xyz
x,y,z
-x,y,-z
-x,-y,-z
x,-y,z
1/2+x,1/2+y,z
1/2-x,1/2+y,-z
1/2-x,1/2-y,-z
1/2+x,1/2-y,z
loop_
_atom_site_type_symbol
_atom_site_label
_atom_site_fract_x
_atom_site_fract_y
_atom_site_fract_z
Si Si1 0.383753 0.328649 0.556562
Si Si2 0.500000 0.685140 0.000000
Si Si3 0.579245 0.407674 0.611784
Si Si4 0.254279 0.199960 0.491275
Si Si5 0.078839 0.952775 0.109604
Si Si6 0.302596 0.212188 0.053429
Si Si7 0.564753 0.744589 0.693079
O O1 0.385194 0.363706 0.358218
O O2 0.316689 0.320449 0.604614
O O3 0.403618 0.285043 0.467552
O O4 0.443850 0.340898 0.804431
O O5 0.537047 0.714211 0.859916
O O6 0.500000 0.402655 0.500000
O O7 0.597500 0.432045 0.389042
O O8 0.597515 0.429944 0.884912
O O9 0.250000 0.250000 0.500000
O O10 0.292366 0.190052 0.295817
O O11 0.285935 0.188423 0.787777
O O12 0.101061 0.000000 0.133554
O O13 0.000000 0.953205 0.000000
O O14 0.376180 0.228563 0.135056
O O15 0.250000 0.250000 0.000000
O O16 0.500000 0.765585 0.500000
#
# Coordination Sequence:
#
# PCOD9173578 Si02
#       7
#     8   4   8   8   8   8   8
#     4  11  21  29  42  61  82 105 133 172 219 263
#     4  10  20  28  40  54  83 106 122 168 222 268
#     4  10  20  29  43  62  82 102 128 170 217 254
#     4  10  19  31  46  56  75 106 140 161 199 259
#     4   9  18  32  46  58  76 104 134 160 200 261
#     4  10  18  31  45  56  73 105 137 164 198 261
#     4  10  20  29  41  60  80 103 134 173 219 256
#
# _framework density 14.002991
#
# number of rings (size 3 to 8) (size 9 to 14) (size 15 to 20)
#    0.000    2.000    3.077    3.692    7.538    1.846 
#    0.000    0.000    0.000    0.000    0.000    0.000 
#    0.000    0.000    0.000    0.000    0.000    0.000 
#
# Total GULP energy -144831.655674 kJ/mol
# GULP energy per Si atom -5570.448295 kJ/mol
# Density = 1.397112 g / cm^3
# Si number density = 14.002991 Si / 1000 Ang^3
#
#
#
# Elastic Constant Matrix: (Units=GPa)
#
#
# Indices 1 2 3 4 5 6 
#
# 1 55.8889 20.6927 24.9764 0.0000 2.4318 0.0000
# 2 20.6927 31.2576 13.3072 0.0000 1.2809 0.0000
# 3 24.9764 13.3072 84.3602 0.0000 -10.8763 0.0000
# 4 0.0000 0.0000 0.0000 13.9322 0.0000 -8.3631
# 5 2.4318 1.2809 -10.8763 0.0000 22.6577 0.0000
# 6 0.0000 0.0000 0.0000 -8.3631 0.0000 7.2073
#
#
#
# Elastic Compliance Matrix: (Units=1/GPa)
#
#
# Indices 1 2 3 4 5 6 
#
# 1 0.026225 -0.014562 -0.006102 0.000000 -0.004920 0.000000
# 2 -0.014562 0.042885 -0.002734 0.000000 -0.002174 0.000000
# 3 -0.006102 -0.002734 0.015133 0.000000 0.008074 0.000000
# 4 0.000000 0.000000 0.000000 0.236519 0.000000 0.274449
# 5 -0.004920 -0.002174 0.008074 0.000000 0.048662 0.000000
# 6 0.000000 0.000000 0.000000 0.274449 0.000000 0.457210
#
#
# Mechanical properties :
#
#
# Convention : Reuss Voigt Hill
#
# Bulk Modulus (GPa) = 26.70367 32.16216 29.43291
# Shear Modulus (GPa) = 5.64391 16.26145 10.95268
#
# Velocity S-wave (km/s) = 2.00979 3.41146 2.79976
# Velocity P-wave (km/s) = 4.94945 6.20768 5.61393
#
# Compressibility (1/GPa) = 0.03744804
#
# Stress axis : x y z
#
# Youngs Moduli (GPa) = 38.13150 23.31809 66.08243
#
# Poissons Ratio (x) = 0.33955 0.40322
# Poissons Ratio (y) = 0.55526 0.18066
# Poissons Ratio (z) = 0.23267 0.06375
#
# Static dielectric constant tensor:
#      x y z
#    x 1.454710 0.000000 -0.014740 
#    y 0.000000 1.440030 0.000000 
#    z -0.014740 0.000000 1.551210 
# 
# From -- ./inp_files/17964.got.cif
#   From: 2010.05.17/outbox.cif.g08.bks.cpg/sg12_9_cif.got.tgz:17964.got - 2010.06.03 13:09:07.
