data_PCOD9173206
_publ_section_title
;
Structure prediction by ZEFSAII (Michael W. Deem and Ramdas Pophale) SiO2 
 PCOD9173206
Probable space group: C 2/M
;
_chemical_formula_sum "Si O2"
_cell_formula_units_Z 56
_cell_length_a 17.653806
_cell_length_b 21.472533
_cell_length_c 10.015153
_cell_angle_alpha 90.000000
_cell_angle_beta 129.449941
_cell_angle_gamma 90.000000
_cell_volume 2931.553207
_symmetry_space_group_name_H-M "C 2/M"
_symmetry_group_IT_number 12
_symmetry_cell_setting 'monoclinic'
loop_
_space_group_symop_operation_xyz
x,y,z
-x,y,-z
-x,-y,-z
x,-y,z
1/2+x,1/2+y,z
1/2-x,1/2+y,-z
1/2-x,1/2-y,-z
1/2+x,1/2-y,z
loop_
_atom_site_type_symbol
_atom_site_label
_atom_site_fract_x
_atom_site_fract_y
_atom_site_fract_z
Si Si1 0.452645 0.073484 0.092485
Si Si2 0.888970 0.683447 0.379149
Si Si3 0.877175 0.232153 0.104612
Si Si4 0.896591 0.754783 0.661467
Si Si5 0.859945 0.429439 0.508666
Si Si6 0.745901 0.149203 0.420112
Si Si7 0.265119 0.839058 0.886999
O O1 0.534485 0.081341 0.299933
O O2 0.428517 0.000000 0.058717
O O3 0.500000 0.090169 0.000000
O O4 0.356046 0.114171 0.013815
O O5 0.872958 0.718960 0.224049
O O6 0.885100 0.733492 0.493984
O O7 0.834600 0.621607 0.367442
O O8 0.000000 0.660804 0.500000
O O9 0.819942 0.171935 0.097452
O O10 0.990044 0.228954 0.187716
O O11 0.813890 0.269966 0.926523
O O12 0.826732 0.814054 0.596363
O O13 0.849850 0.695229 0.683486
O O14 0.856521 0.500000 0.457354
O O15 0.785073 0.414374 0.544791
O O16 0.777717 0.141488 0.303681
#
# Coordination Sequence:
#
# PCOD9173206 Si02
#       7
#     8   8   8   8   8   8   8
#     4  10  19  31  48  72 100 130 164 206 254 294
#     4   9  16  30  47  66  97 128 157 193 244 299
#     4  10  21  32  47  74 108 133 165 200 254 302
#     4   9  18  31  48  71  96 134 162 206 251 296
#     4  10  20  32  50  74  98 128 169 211 246 293
#     4  10  18  30  51  72  97 131 171 203 256 289
#     4  11  20  31  49  75 103 134 168 205 245 309
#
# _framework density 19.102501
#
# number of rings (size 3 to 8) (size 9 to 14) (size 15 to 20)
#    0.000    2.143    2.857    2.571    0.000    0.286 
#    0.000    0.714    0.000    0.857    0.000    2.000 
#    0.000    2.571    0.000    0.000    0.000    0.000 
#
# Total GULP energy -155967.972789 kJ/mol
# GULP energy per Si atom -5570.284742 kJ/mol
# Density = 1.905902 g / cm^3
# Si number density = 19.102501 Si / 1000 Ang^3
#
#
#
# Elastic Constant Matrix: (Units=GPa)
#
#
# Indices 1 2 3 4 5 6 
#
# 1 67.8242 16.3908 9.8068 0.0000 17.6271 0.0000
# 2 16.3908 60.8757 5.8433 0.0000 13.2171 0.0000
# 3 9.8068 5.8433 17.7206 0.0000 9.3769 0.0000
# 4 0.0000 0.0000 0.0000 21.5360 0.0000 3.8501
# 5 17.6271 13.2171 9.3769 0.0000 40.5400 0.0000
# 6 0.0000 0.0000 0.0000 3.8501 0.0000 26.9713
#
#
#
# Elastic Compliance Matrix: (Units=1/GPa)
#
#
# Indices 1 2 3 4 5 6 
#
# 1 0.017731 -0.003041 -0.005988 0.000000 -0.005333 0.000000
# 2 -0.003041 0.018357 -0.002168 0.000000 -0.004161 0.000000
# 3 -0.005988 -0.002168 0.066896 0.000000 -0.012163 0.000000
# 4 0.000000 0.000000 0.000000 0.047650 0.000000 -0.006802
# 5 -0.005333 -0.004161 -0.012163 0.000000 0.031156 0.000000
# 6 0.000000 0.000000 0.000000 -0.006802 0.000000 0.038047
#
#
# Mechanical properties :
#
#
# Convention : Reuss Voigt Hill
#
# Bulk Modulus (GPa) = 12.40858 23.38916 17.89887
# Shear Modulus (GPa) = 18.58081 25.43476 22.00778
#
# Velocity S-wave (km/s) = 3.12218 3.65292 3.39793
# Velocity P-wave (km/s) = 4.41670 5.48291 4.97843
#
# Compressibility (1/GPa) = 0.08058943
#
# Stress axis : x y z
#
# Youngs Moduli (GPa) = 56.39912 54.47406 14.94859
#
# Poissons Ratio (x) = 0.16568 0.08951
# Poissons Ratio (y) = 0.17153 0.03241
# Poissons Ratio (z) = 0.33770 0.11812
#
# Static dielectric constant tensor:
#      x y z
#    x 1.737820 0.000000 -0.024900 
#    y 0.000000 1.670030 0.000000 
#    z -0.024900 0.000000 1.734090 
# 
# From -- ./inp_files/159294.got.cif
#   From: 2010.05.17/outbox.cif.g08.bks.cpg/sg12_80_cif.got.tgz:159294.got - 2010.06.03 13:09:07.
