data_PCOD9173078
_publ_section_title
;
Structure prediction by ZEFSAII (Michael W. Deem and Ramdas Pophale) SiO2 
 PCOD9173078
Probable space group: C 2/M
;
_chemical_formula_sum "Si O2"
_cell_formula_units_Z 56
_cell_length_a 9.852259
_cell_length_b 27.901679
_cell_length_c 17.958949
_cell_angle_alpha 90.000000
_cell_angle_beta 38.499831
_cell_angle_gamma 90.000000
_cell_volume 3073.229773
_symmetry_space_group_name_H-M "C 2/M"
_symmetry_group_IT_number 12
_symmetry_cell_setting 'monoclinic'
loop_
_space_group_symop_operation_xyz
x,y,z
-x,y,-z
-x,-y,-z
x,-y,z
1/2+x,1/2+y,z
1/2-x,1/2+y,-z
1/2-x,1/2-y,-z
1/2+x,1/2-y,z
loop_
_atom_site_type_symbol
_atom_site_label
_atom_site_fract_x
_atom_site_fract_y
_atom_site_fract_z
Si Si1 0.462634 0.352778 0.367352
Si Si2 0.885239 0.695436 0.117690
Si Si3 0.615964 0.554210 0.529127
Si Si4 0.593195 0.055329 0.374958
Si Si5 0.743982 0.341192 0.697523
Si Si6 0.962309 0.249235 0.816636
Si Si7 0.824322 0.705777 0.417216
O O1 0.691444 0.331850 0.242947
O O2 0.476540 0.409018 0.371701
O O3 0.285494 0.340018 0.379609
O O4 0.367661 0.331916 0.484803
O O5 0.047810 0.715909 0.109173
O O6 0.759423 0.739474 0.131861
O O7 0.000000 0.668590 0.000000
O O8 0.500000 0.561282 0.500000
O O9 0.577189 0.500000 0.569941
O O10 0.877630 0.560688 0.415991
O O11 0.500000 0.059891 0.500000
O O12 0.746627 0.101270 0.291796
O O13 0.674914 0.000000 0.332428
O O14 0.553830 0.303318 0.801055
O O15 0.957209 0.318108 0.643099
O O16 0.126453 0.273737 0.685841
O O17 0.750000 0.750000 0.500000
#
# Coordination Sequence:
#
# PCOD9173078 Si02
#       7
#     8   8   8   8   8   8   8
#     4  11  22  33  56  77 109 146 176 227 273 321
#     4  11  24  40  54  74 106 148 194 228 265 321
#     4  10  21  34  49  79 117 145 173 218 280 343
#     4  10  18  30  50  73 105 146 175 209 266 330
#     4  11  19  33  50  79 110 139 182 225 257 331
#     4  11  23  37  56  77 108 151 178 230 278 320
#     4  12  20  30  50  82 115 136 174 217 279 328
#
# _framework density 18.221872000000001
#
# number of rings (size 3 to 8) (size 9 to 14) (size 15 to 20)
#    0.000    1.143    7.143    0.857    2.000    1.143 
#    0.000    0.000    0.000    0.429    0.000    0.000 
#    0.000    0.571    0.000    1.143    0.000    0.000 
#
# Total GULP energy -155994.477725 kJ/mol
# GULP energy per Si atom -5571.231347 kJ/mol
# Density = 1.818040 g / cm^3
# Si number density = 18.221872 Si / 1000 Ang^3
#
#
#
# Elastic Constant Matrix: (Units=GPa)
#
#
# Indices 1 2 3 4 5 6 
#
# 1 66.4174 26.1367 8.1431 0.0000 -0.4692 0.0000
# 2 26.1367 100.0119 11.1374 0.0000 0.3328 0.0000
# 3 8.1431 11.1374 49.8738 0.0000 1.6241 0.0000
# 4 0.0000 0.0000 0.0000 8.6324 0.0000 -3.9193
# 5 -0.4692 0.3328 1.6241 0.0000 17.4857 0.0000
# 6 0.0000 0.0000 0.0000 -3.9193 0.0000 27.9224
#
#
#
# Elastic Compliance Matrix: (Units=1/GPa)
#
#
# Indices 1 2 3 4 5 6 
#
# 1 0.016951 -0.004227 -0.001847 0.000000 0.000707 0.000000
# 2 -0.004227 0.011308 -0.001830 0.000000 -0.000159 0.000000
# 3 -0.001847 -0.001830 0.020824 0.000000 -0.001949 0.000000
# 4 0.000000 0.000000 0.000000 0.123728 0.000000 0.017367
# 5 0.000707 -0.000159 -0.001949 0.000000 0.057393 0.000000
# 6 0.000000 0.000000 0.000000 0.017367 0.000000 0.038251
#
#
# Mechanical properties :
#
#
# Convention : Reuss Voigt Hill
#
# Bulk Modulus (GPa) = 30.05142 34.12641 32.08891
# Shear Modulus (GPa) = 16.92886 22.20048 19.56467
#
# Velocity S-wave (km/s) = 3.05132 3.49426 3.28028
# Velocity P-wave (km/s) = 5.37976 5.92020 5.65644
#
# Compressibility (1/GPa) = 0.03327630
#
# Stress axis : x y z
#
# Youngs Moduli (GPa) = 58.99362 88.43545 48.02098
#
# Poissons Ratio (x) = 0.37378 0.08869
# Poissons Ratio (y) = 0.24934 0.08787
# Poissons Ratio (z) = 0.10895 0.16183
#
# Static dielectric constant tensor:
#      x y z
#    x 1.696930 0.000000 0.006910 
#    y 0.000000 1.687240 0.000000 
#    z 0.006910 0.000000 1.690170 
# 
# From -- ./inp_files/260115.got.cif
#   From: 2010.05.17/outbox.cif.g08.bks.cpg/sg12_131_cif.got.tgz:260115.got - 2010.06.03 13:09:07.
