data_PCOD9173092
_publ_section_title
;
Structure prediction by ZEFSAII (Michael W. Deem and Ramdas Pophale) SiO2 
 PCOD9173092
Probable space group: C 2/M
;
_chemical_formula_sum "Si O2"
_cell_formula_units_Z 64
_cell_length_a 30.023840
_cell_length_b 8.480817
_cell_length_c 16.273042
_cell_angle_alpha 90.000000
_cell_angle_beta 62.393117
_cell_angle_gamma 90.000000
_cell_volume 3671.798966
_symmetry_space_group_name_H-M "C 2/M"
_symmetry_group_IT_number 12
_symmetry_cell_setting 'monoclinic'
loop_
_space_group_symop_operation_xyz
x,y,z
-x,y,-z
-x,-y,-z
x,-y,z
1/2+x,1/2+y,z
1/2-x,1/2+y,-z
1/2-x,1/2-y,-z
1/2+x,1/2-y,z
loop_
_atom_site_type_symbol
_atom_site_label
_atom_site_fract_x
_atom_site_fract_y
_atom_site_fract_z
Si Si1 0.863334 0.311347 0.347813
Si Si2 0.912625 0.690470 0.554473
Si Si3 0.326668 0.190370 0.896378
Si Si4 0.461815 0.686839 0.348081
Si Si5 0.223984 0.190442 0.898552
Si Si6 0.293956 0.690690 0.271822
Si Si7 0.069516 0.309179 0.273850
Si Si8 0.309318 0.808673 0.558570
O O1 0.862375 0.500000 0.348445
O O2 0.918775 0.256611 0.325977
O O3 0.842088 0.247642 0.280835
O O4 0.826363 0.254665 0.453551
O O5 0.916675 0.500000 0.547109
O O6 0.947163 0.758337 0.452903
O O7 0.926285 0.741373 0.634322
O O8 0.855174 0.732335 0.580337
O O9 0.280421 0.240296 0.876816
O O10 0.380471 0.243487 0.816612
O O11 0.326883 0.000000 0.896651
O O12 0.312801 0.249540 0.998807
O O13 0.459945 0.500000 0.345490
O O14 0.517536 0.747417 0.282000
O O15 0.209637 0.243577 0.819533
O O16 0.223425 0.000000 0.899490
O O17 0.293243 0.500000 0.272634
O O18 0.244033 0.747831 0.362835
O O19 0.068655 0.500000 0.274132
O O20 0.307255 0.000000 0.558200
#
# Coordination Sequence:
#
# PCOD9173092 Si02
#       8
#     8   8   8   8   8   8   8   8
#     4  10  20  34  50  69  96 131 170 207 243 285
#     4   9  17  31  50  72 100 133 167 200 237 286
#     4   9  18  33  53  76 102 132 164 197 237 289
#     4  11  22  34  48  69  99 132 166 205 248 289
#     4   9  18  32  51  76 105 133 159 194 242 292
#     4  10  18  30  50  74 100 130 164 201 244 290
#     4  10  19  32  52  74  97 130 169 204 241 287
#     4   8  15  28  47  71  99 130 163 198 235 282
#
# _framework density 17.430147999999999
#
# number of rings (size 3 to 8) (size 9 to 14) (size 15 to 20)
#    0.000    2.500    0.000    3.750    0.000    6.000 
#    0.000    2.500    0.000    6.750    0.000    5.250 
#    0.000    0.000    0.000    0.000    0.000    0.000 
#
# Total GULP energy -178545.906932 kJ/mol
# GULP energy per Si atom -5579.559592 kJ/mol
# Density = 1.739048 g / cm^3
# Si number density = 17.430148 Si / 1000 Ang^3
#
#
#
# Elastic Constant Matrix: (Units=GPa)
#
#
# Indices 1 2 3 4 5 6 
#
# 1 135.8825 23.5463 100.7097 0.0000 4.2913 0.0000
# 2 23.5463 20.1513 23.7214 0.0000 1.3361 0.0000
# 3 100.7097 23.7214 103.0918 0.0000 2.3661 0.0000
# 4 0.0000 0.0000 0.0000 20.5637 0.0000 1.8357
# 5 4.2913 1.3361 2.3661 0.0000 30.8446 0.0000
# 6 0.0000 0.0000 0.0000 1.8357 0.0000 21.9033
#
#
#
# Elastic Compliance Matrix: (Units=1/GPa)
#
#
# Indices 1 2 3 4 5 6 
#
# 1 0.026763 -0.000588 -0.025970 0.000000 -0.001706 0.000000
# 2 -0.000588 0.068167 -0.015072 0.000000 -0.001715 0.000000
# 3 -0.025970 -0.015072 0.038508 0.000000 0.001312 0.000000
# 4 0.000000 0.000000 0.000000 0.048996 0.000000 -0.004106
# 5 -0.001706 -0.001715 0.001312 0.000000 0.032632 0.000000
# 6 0.000000 0.000000 0.000000 -0.004106 0.000000 0.045999
#
#
# Mechanical properties :
#
#
# Convention : Reuss Voigt Hill
#
# Bulk Modulus (GPa) = 19.92873 61.67560 40.80216
# Shear Modulus (GPa) = 13.84853 22.07219 17.96036
#
# Velocity S-wave (km/s) = 2.82177 3.56240 3.21350
# Velocity P-wave (km/s) = 4.69839 7.23756 6.10152
#
# Compressibility (1/GPa) = 0.05017882
#
# Stress axis : x y z
#
# Youngs Moduli (GPa) = 37.36556 14.66986 25.96877
#
# Poissons Ratio (x) = 0.00862 0.67441
# Poissons Ratio (y) = 0.02195 0.39140
# Poissons Ratio (z) = 0.97038 0.22110
#
# Static dielectric constant tensor:
#      x y z
#    x 1.590840 0.000000 -0.001970 
#    y 0.000000 1.598160 0.000000 
#    z -0.001970 0.000000 1.578670 
# 
# From -- ./inp_files/249007.got.cif
#   From: 2010.05.17/outbox.cif.g08.bks.cpg/sg12_125_cif.got.tgz:249007.got - 2010.06.03 13:09:07.
