data_PCOD9173000
_publ_section_title
;
Structure prediction by ZEFSAII (Michael W. Deem and Ramdas Pophale) SiO2 
 PCOD9173000
Probable space group: C 2/M
;
_chemical_formula_sum "Si O2"
_cell_formula_units_Z 56
_cell_length_a 30.147589
_cell_length_b 7.771641
_cell_length_c 14.727974
_cell_angle_alpha 90.000000
_cell_angle_beta 120.764199
_cell_angle_gamma 90.000000
_cell_volume 2965.124039
_symmetry_space_group_name_H-M "C 2/M"
_symmetry_group_IT_number 12
_symmetry_cell_setting 'monoclinic'
loop_
_space_group_symop_operation_xyz
x,y,z
-x,y,-z
-x,-y,-z
x,-y,z
1/2+x,1/2+y,z
1/2-x,1/2+y,-z
1/2-x,1/2-y,-z
1/2+x,1/2-y,z
loop_
_atom_site_type_symbol
_atom_site_label
_atom_site_fract_x
_atom_site_fract_y
_atom_site_fract_z
Si Si1 0.098874 0.207835 0.760178
Si Si2 0.306680 0.700031 0.022074
Si Si3 0.800072 0.708296 0.614143
Si Si4 0.662840 0.293247 0.651867
Si Si5 0.489256 0.202368 0.590518
Si Si6 0.220743 0.292706 0.202871
Si Si7 0.611911 0.802768 0.419292
O O1 0.120788 0.248701 0.683171
O O2 0.041374 0.279971 0.703031
O O3 0.094753 0.000000 0.763250
O O4 0.142942 0.275443 0.874875
O O5 0.309674 0.500000 0.046314
O O6 0.308758 0.728436 0.916487
O O7 0.250000 0.750000 0.000000
O O8 0.900011 0.500000 0.619532
O O9 0.750000 0.750000 0.500000
O O10 0.794531 0.767484 0.712427
O O11 0.852927 0.774757 0.623505
O O12 0.662586 0.500000 0.636039
O O13 0.719166 0.246158 0.746558
O O14 0.650088 0.201345 0.545377
O O15 0.500000 0.275124 0.500000
O O16 0.440611 0.277426 0.595163
O O17 0.477102 0.000000 0.564247
O O18 0.217288 0.500000 0.198423
O O19 0.697478 0.000000 0.381698
#
# Coordination Sequence:
#
# PCOD9173000 Si02
#       7
#     8   8   8   8   8   8   8
#     4  10  21  35  50  73 104 135 170 208 252 305
#     4  11  22  36  54  78 106 137 173 214 259 310
#     4  10  20  33  52  76 106 139 172 213 257 307
#     4  10  18  30  49  74 106 137 168 207 247 304
#     4  10  20  33  50  75 104 134 171 212 254 304
#     4  10  20  35  51  75 108 140 174 211 255 308
#     4  10  20  33  49  75 107 137 172 211 254 303
#
# _framework density 18.886226000000001
#
# number of rings (size 3 to 8) (size 9 to 14) (size 15 to 20)
#    0.000    1.857    4.286    0.429    0.000    3.143 
#    0.000    0.000    0.000    0.857    0.000    6.000 
#    0.000    0.000    0.000    0.000    0.000    0.000 
#
# Total GULP energy -156148.201437 kJ/mol
# GULP energy per Si atom -5576.721480 kJ/mol
# Density = 1.884324 g / cm^3
# Si number density = 18.886226 Si / 1000 Ang^3
#
#
#
# Elastic Constant Matrix: (Units=GPa)
#
#
# Indices 1 2 3 4 5 6 
#
# 1 123.7165 3.9126 31.1388 0.0000 5.9944 0.0000
# 2 3.9126 22.3471 -5.0098 0.0000 -0.5825 0.0000
# 3 31.1388 -5.0098 83.6385 0.0000 5.6585 0.0000
# 4 0.0000 0.0000 0.0000 22.9185 0.0000 0.6999
# 5 5.9944 -0.5825 5.6585 0.0000 25.7991 0.0000
# 6 0.0000 0.0000 0.0000 0.6999 0.0000 9.3919
#
#
#
# Elastic Compliance Matrix: (Units=1/GPa)
#
#
# Indices 1 2 3 4 5 6 
#
# 1 0.009091 -0.002398 -0.003433 0.000000 -0.001414 0.000000
# 2 -0.002398 0.045995 0.003593 0.000000 0.000808 0.000000
# 3 -0.003433 0.003593 0.013592 0.000000 -0.002102 0.000000
# 4 0.000000 0.000000 0.000000 0.043732 0.000000 -0.003259
# 5 -0.001414 0.000808 -0.002102 0.000000 0.039569 0.000000
# 6 0.000000 0.000000 0.000000 -0.003259 0.000000 0.106717
#
#
# Mechanical properties :
#
#
# Convention : Reuss Voigt Hill
#
# Bulk Modulus (GPa) = 15.57567 32.19835 23.88701
# Shear Modulus (GPa) = 17.57021 24.93262 21.25141
#
# Velocity S-wave (km/s) = 3.05342 3.63733 3.35809
# Velocity P-wave (km/s) = 4.54931 5.89286 5.26412
#
# Compressibility (1/GPa) = 0.06420268
#
# Stress axis : x y z
#
# Youngs Moduli (GPa) = 109.99495 21.74151 73.57442
#
# Poissons Ratio (x) = 0.05214 0.25256
# Poissons Ratio (y) = 0.26378 -0.26437
# Poissons Ratio (z) = 0.37758 -0.07812
#
# Static dielectric constant tensor:
#      x y z
#    x 1.683780 0.000000 0.003890 
#    y 0.000000 1.709420 0.000000 
#    z 0.003890 0.000000 1.649570 
# 
# From -- ./inp_files/243069.got.cif
#   From: 2010.05.17/outbox.cif.g08.bks.cpg/sg12_122_cif.got.tgz:243069.got - 2010.06.03 13:09:07.
