data_PCOD9173957
_publ_section_title
;
Structure prediction by ZEFSAII (Michael W. Deem and Ramdas Pophale) SiO2 
 PCOD9173957
Probable space group: C 2/M
;
_chemical_formula_sum "Si O2"
_cell_formula_units_Z 56
_cell_length_a 13.667347
_cell_length_b 14.756334
_cell_length_c 22.174531
_cell_angle_alpha 90.000000
_cell_angle_beta 42.620456
_cell_angle_gamma 90.000000
_cell_volume 3028.271408
_symmetry_space_group_name_H-M "C 2/M"
_symmetry_group_IT_number 12
_symmetry_cell_setting 'monoclinic'
loop_
_space_group_symop_operation_xyz
x,y,z
-x,y,-z
-x,-y,-z
x,-y,z
1/2+x,1/2+y,z
1/2-x,1/2+y,-z
1/2-x,1/2-y,-z
1/2+x,1/2-y,z
loop_
_atom_site_type_symbol
_atom_site_label
_atom_site_fract_x
_atom_site_fract_y
_atom_site_fract_z
Si Si1 0.147818 0.280769 0.101400
Si Si2 0.337508 0.254770 0.206439
Si Si3 0.709923 0.605663 0.564196
Si Si4 0.063123 0.785083 0.263267
Si Si5 0.160987 0.099895 0.901241
Si Si6 0.554647 0.104466 0.632689
Si Si7 0.701584 0.898908 0.347845
O O1 0.120752 0.207952 0.168352
O O2 0.231064 0.362152 0.097044
O O3 0.987006 0.296993 0.148547
O O4 0.250000 0.250000 0.000000
O O5 0.198516 0.199820 0.246802
O O6 0.349853 0.330031 0.148354
O O7 0.297919 0.314752 0.282560
O O8 0.676562 0.500000 0.569934
O O9 0.567554 0.655600 0.651948
O O10 0.794181 0.635754 0.465942
O O11 0.819278 0.610858 0.571496
O O12 0.006242 0.680489 0.294985
O O13 0.207684 0.000000 0.859402
O O14 0.000000 0.094660 0.000000
O O15 0.438077 0.103088 0.631192
O O16 0.566956 0.000000 0.649045
O O17 0.768571 0.000000 0.309085
#
# Coordination Sequence:
#
# PCOD9173957 Si02
#       7
#     8   8   8   8   8   8   8
#     4  11  21  36  54  78 109 143 179 225 282 328
#     4  10  19  34  53  76 110 144 178 222 275 322
#     4  10  18  31  51  78 108 142 177 217 267 327
#     4  10  21  33  53  78 108 143 185 220 268 331
#     4  10  20  34  55  82 105 135 182 232 274 326
#     4   9  18  32  53  78 108 137 173 225 277 321
#     4   9  16  28  49  78 106 132 168 218 272 323
#
# _framework density 18.492397
#
# number of rings (size 3 to 8) (size 9 to 14) (size 15 to 20)
#    0.000    2.143    2.857    1.286    0.000    5.143 
#    0.000    1.429    0.000    0.000    0.000    5.000 
#    0.000    0.000    0.000    0.000    0.000    0.000 
#
# Total GULP energy -155917.981623 kJ/mol
# GULP energy per Si atom -5568.499344 kJ/mol
# Density = 1.845031 g / cm^3
# Si number density = 18.492397 Si / 1000 Ang^3
#
#
#
# Elastic Constant Matrix: (Units=GPa)
#
#
# Indices 1 2 3 4 5 6 
#
# 1 74.6576 17.5208 25.3601 0.0000 -12.9288 0.0000
# 2 17.5208 33.3880 19.4564 0.0000 -5.1576 0.0000
# 3 25.3601 19.4564 112.2350 0.0000 -3.7368 0.0000
# 4 0.0000 0.0000 0.0000 18.7046 0.0000 -5.0498
# 5 -12.9288 -5.1576 -3.7368 0.0000 30.8611 0.0000
# 6 0.0000 0.0000 0.0000 -5.0498 0.0000 18.9143
#
#
#
# Elastic Compliance Matrix: (Units=1/GPa)
#
#
# Indices 1 2 3 4 5 6 
#
# 1 0.016726 -0.006468 -0.002471 0.000000 0.005627 0.000000
# 2 -0.006468 0.036569 -0.004784 0.000000 0.002822 0.000000
# 3 -0.002471 -0.004784 0.010278 0.000000 -0.000590 0.000000
# 4 0.000000 0.000000 0.000000 0.057616 0.000000 0.015382
# 5 0.005627 0.002822 -0.000590 0.000000 0.035161 0.000000
# 6 0.000000 0.000000 0.000000 0.015382 0.000000 0.056977
#
#
# Mechanical properties :
#
#
# Convention : Reuss Voigt Hill
#
# Bulk Modulus (GPa) = 27.68000 38.32835 33.00417
# Shear Modulus (GPa) = 19.77737 24.22557 22.00147
#
# Velocity S-wave (km/s) = 3.27385 3.62336 3.45303
# Velocity P-wave (km/s) = 5.41217 6.18680 5.81240
#
# Compressibility (1/GPa) = 0.03612717
#
# Stress axis : x y z
#
# Youngs Moduli (GPa) = 59.78640 27.34567 97.29711
#
# Poissons Ratio (x) = 0.17688 0.24039
# Poissons Ratio (y) = 0.38672 0.46545
# Poissons Ratio (z) = 0.14772 0.13082
#
# Static dielectric constant tensor:
#      x y z
#    x 1.663390 0.000000 -0.007350 
#    y 0.000000 1.653500 0.000000 
#    z -0.007350 0.000000 1.690830 
# 
# From -- ./inp_files/206241.got.cif
#   From: 2010.05.17/outbox.cif.g08.bks.cpg/sg12_104_cif.got.tgz:206241.got - 2010.06.03 13:09:07.
