data_PCOD9173819
_publ_section_title
;
Structure prediction by ZEFSAII (Michael W. Deem and Ramdas Pophale) SiO2 
 PCOD9173819
Probable space group: C 2/M
;
_chemical_formula_sum "Si O2"
_cell_formula_units_Z 56
_cell_length_a 27.324855
_cell_length_b 8.879839
_cell_length_c 13.658332
_cell_angle_alpha 90.000000
_cell_angle_beta 119.083735
_cell_angle_gamma 90.000000
_cell_volume 2896.192702
_symmetry_space_group_name_H-M "C 2/M"
_symmetry_group_IT_number 12
_symmetry_cell_setting 'monoclinic'
loop_
_space_group_symop_operation_xyz
x,y,z
-x,y,-z
-x,-y,-z
x,-y,z
1/2+x,1/2+y,z
1/2-x,1/2+y,-z
1/2-x,1/2-y,-z
1/2+x,1/2-y,z
loop_
_atom_site_type_symbol
_atom_site_label
_atom_site_fract_x
_atom_site_fract_y
_atom_site_fract_z
Si Si1 0.468594 0.181143 0.869206
Si Si2 0.323093 0.325937 0.522626
Si Si3 0.372339 0.178126 0.268980
Si Si4 0.932509 0.826468 0.508861
Si Si5 0.765013 0.680677 0.276118
Si Si6 0.838385 0.319939 0.744087
Si Si7 0.031335 0.820644 0.744786
O O1 0.403413 0.226402 0.813587
O O2 0.501423 0.251858 0.810157
O O3 0.469392 0.000000 0.857884
O O4 0.500000 0.219711 0.000000
O O5 0.305094 0.500000 0.516365
O O6 0.388359 0.326050 0.555252
O O7 0.292451 0.249339 0.401345
O O8 0.317551 0.236179 0.617467
O O9 0.406201 0.221422 0.400840
O O10 0.308141 0.223030 0.230898
O O11 0.406741 0.259184 0.216931
O O12 0.374010 0.000000 0.255175
O O13 0.991680 0.782807 0.612537
O O14 0.934532 0.000000 0.473738
O O15 0.763836 0.500000 0.281490
O O16 0.702522 0.746284 0.215455
O O17 0.834676 0.500000 0.746675
O O18 0.031975 0.000000 0.753231
#
# Coordination Sequence:
#
# PCOD9173819 Si02
#       7
#     8   8   8   8   8   8   8
#     4  10  23  42  62  84 109 139 180 232 286 335
#     4  10  18  31  50  75 111 149 185 222 264 320
#     4  10  21  34  51  78 111 150 188 221 262 320
#     4   9  18  31  48  75 111 148 183 221 267 319
#     4  10  21  35  51  76 112 150 187 222 263 319
#     4  11  21  34  55  79 106 141 181 226 277 327
#     4  11  21  35  56  81 110 144 181 227 278 326
#
# _framework density 19.335732
#
# number of rings (size 3 to 8) (size 9 to 14) (size 15 to 20)
#    0.000    1.857    1.429    3.000    0.000    6.000 
#    0.000    0.000    0.000    0.857    0.000    0.000 
#    0.000    0.000    0.000    0.000    0.000    0.000 
#
# Total GULP energy -156321.103309 kJ/mol
# GULP energy per Si atom -5582.896547 kJ/mol
# Density = 1.929172 g / cm^3
# Si number density = 19.335732 Si / 1000 Ang^3
#
#
#
# Elastic Constant Matrix: (Units=GPa)
#
#
# Indices 1 2 3 4 5 6 
#
# 1 192.6386 48.6743 33.0711 0.0000 -10.3750 0.0000
# 2 48.6743 49.5161 15.0518 0.0000 -2.3647 0.0000
# 3 33.0711 15.0518 33.4595 0.0000 -2.1912 0.0000
# 4 0.0000 0.0000 0.0000 3.9295 0.0000 11.6759
# 5 -10.3750 -2.3647 -2.1912 0.0000 10.0982 0.0000
# 6 0.0000 0.0000 0.0000 11.6759 0.0000 10.1674
#
#
#
# Elastic Compliance Matrix: (Units=1/GPa)
#
#
# Indices 1 2 3 4 5 6 
#
# 1 0.007805 -0.005991 -0.004653 0.000000 0.005607 0.000000
# 2 -0.005991 0.028097 -0.006787 0.000000 -0.001048 0.000000
# 3 -0.004653 -0.006787 0.037657 0.000000 0.001801 0.000000
# 4 0.000000 0.000000 0.000000 -0.105500 0.000000 0.121153
# 5 0.005607 -0.001048 0.001801 0.000000 0.104933 0.000000
# 6 0.000000 0.000000 0.000000 0.121153 0.000000 -0.040773
#
#
# Mechanical properties :
#
#
# Convention : Reuss Voigt Hill
#
# Bulk Modulus (GPa) = 25.84082 52.13430 38.98756
# Shear Modulus (GPa) = 62.51588 16.76016 39.63802
#
# Velocity S-wave (km/s) = 5.69227 2.94734 4.53259
# Velocity P-wave (km/s) = 7.52303 6.21318 6.89926
#
# Compressibility (1/GPa) = 0.03869847
#
# Stress axis : x y z
#
# Youngs Moduli (GPa) = 128.11504 35.59056 26.55567
#
# Poissons Ratio (x) = 0.21321 0.12356
# Poissons Ratio (y) = 0.76750 0.18024
# Poissons Ratio (z) = 0.59609 0.24156
#
# Static dielectric constant tensor:
#      x y z
#    x 1.766410 0.000000 -0.000490 
#    y 0.000000 1.649450 0.000000 
#    z -0.000490 0.000000 1.635390 
# 
# From -- ./inp_files/181108.got.cif
#   From: 2010.05.17/outbox.cif.g08.bks.cpg/sg12_91_cif.got.tgz:181108.got - 2010.06.03 13:09:07.
