data_PCOD9173335
_publ_section_title
;
Structure prediction by ZEFSAII (Michael W. Deem and Ramdas Pophale) SiO2 
 PCOD9173335
Probable space group: C 2/M
;
_chemical_formula_sum "Si O2"
_cell_formula_units_Z 48
_cell_length_a 8.769950
_cell_length_b 17.499495
_cell_length_c 22.274319
_cell_angle_alpha 90.000000
_cell_angle_beta 38.495429
_cell_angle_gamma 90.000000
_cell_volume 2127.811119
_symmetry_space_group_name_H-M "C 2/M"
_symmetry_group_IT_number 12
_symmetry_cell_setting 'monoclinic'
loop_
_space_group_symop_operation_xyz
x,y,z
-x,y,-z
-x,-y,-z
x,-y,z
1/2+x,1/2+y,z
1/2-x,1/2+y,-z
1/2-x,1/2-y,-z
1/2+x,1/2-y,z
loop_
_atom_site_type_symbol
_atom_site_label
_atom_site_fract_x
_atom_site_fract_y
_atom_site_fract_z
Si Si1 0.781480 0.213162 0.911028
Si Si2 0.018780 0.916674 0.065751
Si Si3 0.763678 0.204257 0.783081
Si Si4 0.004500 0.348738 0.567135
Si Si5 0.927302 0.170208 0.607795
Si Si6 0.568039 0.879217 0.283536
O O1 0.813028 0.177689 0.834995
O O2 0.840049 0.150605 0.943268
O O3 0.975811 0.281638 0.858476
O O4 0.500000 0.237559 0.000000
O O5 0.752026 0.917662 0.180239
O O6 0.135466 0.000000 0.039929
O O7 0.000000 0.906433 0.000000
O O8 0.888054 0.159657 0.691078
O O9 0.869632 0.289775 0.745430
O O10 0.292647 0.344109 0.494266
O O11 0.000000 0.376923 0.500000
O O12 0.896904 0.261406 0.601786
O O13 0.888724 0.393977 0.658984
O O14 0.719150 0.117546 0.643041
#
# Coordination Sequence:
#
# PCOD9173335 Si02
#       6
#     8   8   8   8   8   8
#     4  11  23  35  59  87 124 160 194 248 299 360
#     4  10  25  47  65  81 108 156 212 255 298 350
#     4  10  20  33  51  91 127 155 189 231 299 365
#     4  10  19  29  52  85 125 161 190 225 282 355
#     4  10  18  30  51  81 128 162 188 220 281 361
#     4  10  20  35  57  84 117 156 192 243 291 350
#
# _framework density 22.558392999999999
#
# number of rings (size 3 to 8) (size 9 to 14) (size 15 to 20)
#    0.000    1.833    1.667    4.000    7.000    3.000 
#    0.000    0.000    0.000    2.500    0.000    0.000 
#    0.000    0.000    0.000    0.000    0.000    0.000 
#
# Total GULP energy -134011.654612 kJ/mol
# GULP energy per Si atom -5583.818942 kJ/mol
# Density = 2.250705 g / cm^3
# Si number density = 22.558393 Si / 1000 Ang^3
#
#
#
# Elastic Constant Matrix: (Units=GPa)
#
#
# Indices 1 2 3 4 5 6 
#
# 1 98.5477 6.7449 64.3896 -0.0082 23.9407 -0.0005
# 2 6.7449 24.3289 15.8522 -0.0286 3.0481 -0.0012
# 3 64.3896 15.8522 151.5521 -0.0212 30.7533 0.0048
# 4 -0.0082 -0.0286 -0.0212 -7.5206 0.0167 -6.0738
# 5 23.9407 3.0481 30.7533 0.0167 78.6479 -0.0002
# 6 -0.0005 -0.0012 0.0048 -6.0738 -0.0002 -2.5896
#
#
#
# Elastic Compliance Matrix: (Units=1/GPa)
#
#
# Indices 1 2 3 4 5 6 
#
# 1 0.014377 -0.000022 -0.005668 -0.000007 -0.002159 0.000004
# 2 -0.000022 0.044111 -0.004626 0.000146 0.000106 -0.000372
# 3 -0.005668 -0.004626 0.009888 0.000029 -0.001962 -0.000047
# 4 -0.000007 0.000146 0.000029 0.148695 -0.000047 -0.348758
# 5 -0.002159 0.000106 -0.001962 -0.000047 0.014135 0.000107
# 6 0.000004 -0.000372 -0.000047 -0.348758 0.000107 0.431836
#
#
# Mechanical properties :
#
#
# Convention : Reuss Voigt Hill
#
# Bulk Modulus (GPa) = 20.94512 49.82244 35.38378
# Shear Modulus (GPa) = 7.14706 26.20367 16.67536
#
# Velocity S-wave (km/s) = 1.78189 3.41191 2.72179
# Velocity P-wave (km/s) = 3.67947 6.13640 5.05935
#
# Compressibility (1/GPa) = 0.04774382
#
# Stress axis : x y z
#
# Youngs Moduli (GPa) = 69.55736 22.67031 101.12829
#
# Poissons Ratio (x) = 0.00051 0.57316
# Poissons Ratio (y) = 0.00155 0.46781
# Poissons Ratio (z) = 0.39423 0.10487
#
# Static dielectric constant tensor:
#      x y z
#    x 1.894030 0.000000 0.007010 
#    y 0.000000 1.812610 0.000000 
#    z 0.007010 0.000000 1.904990 
# 
# From -- ./inp_files/301547.got.cif
#   From: 2010.05.17/outbox.cif.g08.bks.cpg/sg12_151_cif.got.tgz:301547.got - 2010.06.03 13:09:07.
