data_PCOD9173020
_publ_section_title
;
Structure prediction by ZEFSAII (Michael W. Deem and Ramdas Pophale) SiO2 
 PCOD9173020
Probable space group: C 2/M
;
_chemical_formula_sum "Si O2"
_cell_formula_units_Z 64
_cell_length_a 20.709540
_cell_length_b 9.717179
_cell_length_c 17.921544
_cell_angle_alpha 90.000000
_cell_angle_beta 120.480093
_cell_angle_gamma 90.000000
_cell_volume 3108.102366
_symmetry_space_group_name_H-M "C 2/M"
_symmetry_group_IT_number 12
_symmetry_cell_setting 'monoclinic'
loop_
_space_group_symop_operation_xyz
x,y,z
-x,y,-z
-x,-y,-z
x,-y,z
1/2+x,1/2+y,z
1/2-x,1/2+y,-z
1/2-x,1/2-y,-z
1/2+x,1/2-y,z
loop_
_atom_site_type_symbol
_atom_site_label
_atom_site_fract_x
_atom_site_fract_y
_atom_site_fract_z
Si Si1 0.688506 0.340888 0.005493
Si Si2 0.139984 0.145235 0.540961
Si Si3 0.979351 0.832918 0.071844
Si Si4 0.247051 0.655454 0.791061
Si Si5 0.121839 0.837983 0.255065
Si Si6 0.103091 0.844955 0.690431
Si Si7 0.024082 0.655838 0.425718
Si Si8 0.703335 0.157940 0.414129
O O1 0.691578 0.500000 0.980955
O O2 0.709452 0.341334 0.105203
O O3 0.750000 0.250000 0.000000
O O4 0.603034 0.288181 0.949779
O O5 0.104376 0.141350 0.601370
O O6 0.228101 0.147942 0.605361
O O7 0.105134 0.272878 0.477079
O O8 0.121696 0.000000 0.490849
O O9 0.045916 0.799112 0.167556
O O10 0.975727 0.000000 0.065831
O O11 0.000000 0.785360 0.000000
O O12 0.215320 0.500000 0.761472
O O13 0.309255 0.675246 0.763391
O O14 0.179113 0.763712 0.754251
O O15 0.138719 0.740671 0.334806
O O16 0.118535 0.000000 0.274342
O O17 0.030677 0.748449 0.656801
O O18 0.098695 0.000000 0.719636
O O19 0.024527 0.500000 0.399838
O O20 0.000000 0.651732 0.500000
O O21 0.750000 0.250000 0.500000
O O22 0.687572 0.000000 0.427626
#
# Coordination Sequence:
#
# PCOD9173020 Si02
#       8
#     8   8   8   8   8   8   8   8
#     4  10  21  38  60  89 127 165 200 244 302 369
#     4   9  18  32  49  70 100 138 180 231 289 349
#     4   9  16  33  63  95 122 156 206 257 303 361
#     4  10  19  32  55  85 114 148 196 251 301 356
#     4  10  19  34  61  91 115 147 200 261 310 357
#     4  10  18  30  49  75 107 141 180 230 287 345
#     4   9  17  28  45  71 100 132 174 224 276 331
#     4  11  23  39  56  80 115 154 196 245 306 366
#
# _framework density 20.591341
#
# number of rings (size 3 to 8) (size 9 to 14) (size 15 to 20)
#    0.000    2.250    2.500    1.125    0.000    3.500 
#    0.000    1.875    0.000    5.250    0.000    0.000 
#    0.000    0.000    0.000    0.000    0.000    0.000 
#
# Total GULP energy -178402.384340 kJ/mol
# GULP energy per Si atom -5575.074511 kJ/mol
# Density = 2.054447 g / cm^3
# Si number density = 20.591341 Si / 1000 Ang^3
#
#
#
# Elastic Constant Matrix: (Units=GPa)
#
#
# Indices 1 2 3 4 5 6 
#
# 1 70.6628 34.3654 31.3237 0.0000 21.9226 0.0000
# 2 34.3654 134.8628 70.5086 0.0000 24.5104 0.0000
# 3 31.3237 70.5086 107.9166 0.0000 24.7772 0.0000
# 4 0.0000 0.0000 0.0000 20.9312 0.0000 9.6756
# 5 21.9226 24.5104 24.7772 0.0000 41.0590 0.0000
# 6 0.0000 0.0000 0.0000 9.6756 0.0000 21.1434
#
#
#
# Elastic Compliance Matrix: (Units=1/GPa)
#
#
# Indices 1 2 3 4 5 6 
#
# 1 0.018456 -0.002218 -0.002263 0.000000 -0.007165 0.000000
# 2 -0.002218 0.011782 -0.006630 0.000000 -0.001849 0.000000
# 3 -0.002263 -0.006630 0.015171 0.000000 -0.003989 0.000000
# 4 0.000000 0.000000 0.000000 0.060593 0.000000 -0.027729
# 5 -0.007165 -0.001849 -0.003989 0.000000 0.031691 0.000000
# 6 0.000000 0.000000 0.000000 -0.027729 0.000000 0.059985
#
#
# Mechanical properties :
#
#
# Convention : Reuss Voigt Hill
#
# Bulk Modulus (GPa) = 43.12591 65.09305 54.10948
# Shear Modulus (GPa) = 21.96548 28.44302 25.20425
#
# Velocity S-wave (km/s) = 3.26963 3.72063 3.50240
# Velocity P-wave (km/s) = 5.93660 7.08081 6.53380
#
# Compressibility (1/GPa) = 0.02318792
#
# Stress axis : x y z
#
# Youngs Moduli (GPa) = 54.18214 84.87341 65.91563
#
# Poissons Ratio (x) = 0.18822 0.14918
# Poissons Ratio (y) = 0.12015 0.43702
# Poissons Ratio (z) = 0.12262 0.56271
#
# Static dielectric constant tensor:
#      x y z
#    x 1.823190 0.000000 -0.014720 
#    y 0.000000 1.767030 0.000000 
#    z -0.014720 0.000000 1.706290 
# 
# From -- ./inp_files/324340.got.cif
#   From: 2010.05.17/outbox.cif.g08.bks.cpg/sg12_163_cif.got.tgz:324340.got - 2010.06.03 13:09:07.
