data_PCOD9173041
_publ_section_title
;
Structure prediction by ZEFSAII (Michael W. Deem and Ramdas Pophale) SiO2 
 PCOD9173041
Probable space group: C 2/M
;
_chemical_formula_sum "Si O2"
_cell_formula_units_Z 48
_cell_length_a 25.323399
_cell_length_b 10.937390
_cell_length_c 28.375449
_cell_angle_alpha 90.000000
_cell_angle_beta 160.816028
_cell_angle_gamma 90.000000
_cell_volume 2582.552977
_symmetry_space_group_name_H-M "C 2/M"
_symmetry_group_IT_number 12
_symmetry_cell_setting 'monoclinic'
loop_
_space_group_symop_operation_xyz
x,y,z
-x,y,-z
-x,-y,-z
x,-y,z
1/2+x,1/2+y,z
1/2-x,1/2+y,-z
1/2-x,1/2-y,-z
1/2+x,1/2-y,z
loop_
_atom_site_type_symbol
_atom_site_label
_atom_site_fract_x
_atom_site_fract_y
_atom_site_fract_z
Si Si1 0.868962 0.647754 0.351611
Si Si2 0.992980 0.356497 0.635330
Si Si3 0.396811 0.869820 0.121335
Si Si4 0.621530 0.362292 0.299335
Si Si5 0.949701 0.859684 0.871076
Si Si6 0.758852 0.256207 0.090643
O O1 0.860977 0.500000 0.350578
O O2 0.931017 0.670607 0.351646
O O3 0.689250 0.691150 0.212300
O O4 0.000000 0.692540 0.500000
O O5 0.030582 0.500000 0.678566
O O6 0.075429 0.266017 0.741917
O O7 0.801758 0.346593 0.470219
O O8 0.513764 0.753027 0.223207
O O9 0.277233 0.858371 0.064857
O O10 0.481560 0.000000 0.194255
O O11 0.297846 0.856146 0.989294
O O12 0.566067 0.500000 0.266182
O O13 0.623406 0.360425 0.243677
O O14 0.986764 0.000000 0.915590
O O15 0.116050 0.788592 0.006040
#
# Coordination Sequence:
#
# PCOD9173041 Si02
#       6
#     8   8   8   8   8   8
#     4   9  15  25  45  74 107 139 166 202 257 318
#     4  10  18  30  49  79 114 137 165 216 267 310
#     4  10  21  38  55  72 102 144 185 220 257 307
#     4   9  18  32  54  80 106 138 174 213 261 312
#     4   9  15  27  46  71 104 138 168 201 252 314
#     4  10  21  33  50  74 103 138 176 215 264 309
#
# _framework density 18.586258999999998
#
# number of rings (size 3 to 8) (size 9 to 14) (size 15 to 20)
#    0.000    2.500    1.667    1.500    0.000    6.000 
#    0.000    3.333    0.000    0.000    0.000   18.667 
#    0.000    0.000    0.000    0.000    0.000    0.000 
#
# Total GULP energy -133686.346676 kJ/mol
# GULP energy per Si atom -5570.264445 kJ/mol
# Density = 1.854396 g / cm^3
# Si number density = 18.586259 Si / 1000 Ang^3
#
#
#
# Elastic Constant Matrix: (Units=GPa)
#
#
# Indices 1 2 3 4 5 6 
#
# 1 50.9809 26.2179 15.4275 -0.0009 12.1506 -0.0003
# 2 26.2179 81.4248 35.1419 0.0023 13.9629 0.0002
# 3 15.4275 35.1419 86.6038 -0.0013 2.6925 -0.0010
# 4 -0.0009 0.0023 -0.0013 16.3128 -0.0005 -1.1648
# 5 12.1506 13.9629 2.6925 -0.0005 26.4641 -0.0003
# 6 -0.0003 0.0002 -0.0010 -1.1648 -0.0003 9.4104
#
#
#
# Elastic Compliance Matrix: (Units=1/GPa)
#
#
# Indices 1 2 3 4 5 6 
#
# 1 0.025171 -0.005897 -0.001834 0.000002 -0.008259 0.000001
# 2 -0.005897 0.017806 -0.005986 -0.000004 -0.006078 -0.000002
# 3 -0.001834 -0.005986 0.014223 0.000002 0.002553 0.000002
# 4 0.000002 -0.000004 0.000002 0.061848 0.000002 0.007655
# 5 -0.008259 -0.006078 0.002553 0.000002 0.044526 0.000002
# 6 0.000001 -0.000002 0.000002 0.007655 0.000002 0.107212
#
#
# Mechanical properties :
#
#
# Convention : Reuss Voigt Hill
#
# Bulk Modulus (GPa) = 33.59525 41.39823 37.49674
# Shear Modulus (GPa) = 16.22624 19.91895 18.07260
#
# Velocity S-wave (km/s) = 2.95790 3.27724 3.12166
# Velocity P-wave (km/s) = 5.45712 6.05329 5.76292
#
# Compressibility (1/GPa) = 0.02976611
#
# Stress axis : x y z
#
# Youngs Moduli (GPa) = 39.72762 56.16196 70.30818
#
# Poissons Ratio (x) = 0.33118 0.12897
# Poissons Ratio (y) = 0.23427 0.42084
# Poissons Ratio (z) = 0.07288 0.33617
#
# Static dielectric constant tensor:
#      x y z
#    x 1.664960 0.000000 0.003490 
#    y 0.000000 1.633520 0.000000 
#    z 0.003490 0.000000 1.694210 
# 
# From -- ./inp_files/367950.got.cif
#   From: 2010.05.17/outbox.cif.g08.bks.cpg/sg12_184_cif.got.tgz:367950.got - 2010.06.03 13:09:07.
