data_PCOD9173996
_publ_section_title
;
Structure prediction by ZEFSAII (Michael W. Deem and Ramdas Pophale) SiO2 
 PCOD9173996
Probable space group: C 2/M
;
_chemical_formula_sum "Si O2"
_cell_formula_units_Z 64
_cell_length_a 26.497744
_cell_length_b 7.794043
_cell_length_c 15.384662
_cell_angle_alpha 90.000000
_cell_angle_beta 105.568903
_cell_angle_gamma 90.000000
_cell_volume 3060.729821
_symmetry_space_group_name_H-M "C 2/M"
_symmetry_group_IT_number 12
_symmetry_cell_setting 'monoclinic'
loop_
_space_group_symop_operation_xyz
x,y,z
-x,y,-z
-x,-y,-z
x,-y,z
1/2+x,1/2+y,z
1/2-x,1/2+y,-z
1/2-x,1/2-y,-z
1/2+x,1/2-y,z
loop_
_atom_site_type_symbol
_atom_site_label
_atom_site_fract_x
_atom_site_fract_y
_atom_site_fract_z
Si Si1 0.050518 0.209845 0.965156
Si Si2 0.757298 0.194518 0.734655
Si Si3 0.683649 0.199648 0.406637
Si Si4 0.166128 0.199578 0.582733
Si Si5 0.963503 0.193683 0.234604
Si Si6 0.551442 0.288878 0.578632
Si Si7 0.422574 0.801255 0.718920
Si Si8 0.860748 0.208438 0.863660
O O1 0.049235 0.273330 0.865228
O O2 0.047189 0.000000 0.960959
O O3 0.104973 0.256239 0.036970
O O4 0.000000 0.264849 0.000000
O O5 0.788540 0.197673 0.657025
O O6 0.702304 0.280016 0.684701
O O7 0.800677 0.267701 0.821710
O O8 0.745890 0.000000 0.754939
O O9 0.695624 0.222646 0.512962
O O10 0.622068 0.242684 0.370702
O O11 0.691228 0.000000 0.386405
O O12 0.107477 0.268487 0.567116
O O13 0.162037 0.000000 0.561106
O O14 0.949614 0.271053 0.321498
O O15 0.026431 0.188772 0.264423
O O16 0.941598 0.000000 0.223807
O O17 0.500000 0.235678 0.500000
O O18 0.550706 0.500000 0.579098
O O19 0.394590 0.775613 0.798326
O O20 0.437580 0.000000 0.715562
O O21 0.859702 0.000000 0.858023
#
# Coordination Sequence:
#
# PCOD9173996 Si02
#       8
#     8   8   8   8   8   8   8   8
#     4   9  15  26  49  79 102 124 163 210 249 292
#     4  10  20  33  51  73  99 132 167 202 249 302
#     4  10  20  33  49  72 102 133 167 205 249 298
#     4  11  21  34  52  72  97 127 166 213 253 293
#     4  10  18  31  52  72  98 134 170 209 249 292
#     4   9  19  34  52  75  98 127 170 210 245 289
#     4  10  19  29  44  71 105 134 161 198 245 300
#     4   9  17  31  49  71  99 132 165 198 241 297
#
# _framework density 20.910048
#
# number of rings (size 3 to 8) (size 9 to 14) (size 15 to 20)
#    0.000    2.250    1.250    2.625    0.000    3.000 
#    0.000    2.500    0.000    4.125    0.000    0.000 
#    0.000    0.000    0.000    0.000    0.000    0.500 
#
# Total GULP energy -178415.136845 kJ/mol
# GULP energy per Si atom -5575.473026 kJ/mol
# Density = 2.086246 g / cm^3
# Si number density = 20.910048 Si / 1000 Ang^3
#
#
#
# Elastic Constant Matrix: (Units=GPa)
#
#
# Indices 1 2 3 4 5 6 
#
# 1 81.8262 3.6320 38.0669 0.0000 16.1331 0.0000
# 2 3.6320 27.4159 -0.1525 0.0000 6.2583 0.0000
# 3 38.0669 -0.1525 132.3415 0.0000 13.9340 0.0000
# 4 0.0000 0.0000 0.0000 -33.9752 0.0000 -38.5219
# 5 16.1331 6.2583 13.9340 0.0000 31.9914 0.0000
# 6 0.0000 0.0000 0.0000 -38.5219 0.0000 -40.3332
#
#
#
# Elastic Compliance Matrix: (Units=1/GPa)
#
#
# Indices 1 2 3 4 5 6 
#
# 1 0.015150 -0.000686 -0.003740 0.000000 -0.005877 0.000000
# 2 -0.000686 0.038307 0.001042 0.000000 -0.007601 0.000000
# 3 -0.003740 0.001042 0.008862 0.000000 -0.002178 0.000000
# 4 0.000000 0.000000 0.000000 0.355013 0.000000 -0.339070
# 5 -0.005877 -0.007601 -0.002178 0.000000 0.036658 0.000000
# 6 0.000000 0.000000 0.000000 -0.339070 0.000000 0.299050
#
#
# Mechanical properties :
#
#
# Convention : Reuss Voigt Hill
#
# Bulk Modulus (GPa) = 18.00143 36.07516 27.03830
# Shear Modulus (GPa) = 6.42404 4.87243 5.64824
#
# Velocity S-wave (km/s) = 1.75468 1.52815 1.64532
# Velocity P-wave (km/s) = 3.56832 4.51704 4.07041
#
# Compressibility (1/GPa) = 0.05555113
#
# Stress axis : x y z
#
# Youngs Moduli (GPa) = 66.00653 26.10484 112.83571
#
# Poissons Ratio (x) = 0.01792 0.42198
# Poissons Ratio (y) = 0.04530 -0.11756
# Poissons Ratio (z) = 0.24685 -0.02720
#
# Static dielectric constant tensor:
#      x y z
#    x 1.762190 0.000000 0.039440 
#    y 0.000000 1.776220 0.000000 
#    z 0.039440 0.000000 1.794900 
# 
# From -- ./inp_files/244125.got.cif
#   From: 2010.05.17/outbox.cif.g08.bks.cpg/sg12_123_cif.got.tgz:244125.got - 2010.06.03 13:09:07.
