data_PCOD9173511
_publ_section_title
;
Structure prediction by ZEFSAII (Michael W. Deem and Ramdas Pophale) SiO2 
 PCOD9173511
Probable space group: C 2/M
;
_chemical_formula_sum "Si O2"
_cell_formula_units_Z 56
_cell_length_a 12.104342
_cell_length_b 13.863250
_cell_length_c 15.582651
_cell_angle_alpha 90.000000
_cell_angle_beta 74.365365
_cell_angle_gamma 90.000000
_cell_volume 2518.104769
_symmetry_space_group_name_H-M "C 2/M"
_symmetry_group_IT_number 12
_symmetry_cell_setting 'monoclinic'
loop_
_space_group_symop_operation_xyz
x,y,z
-x,y,-z
-x,-y,-z
x,-y,z
1/2+x,1/2+y,z
1/2-x,1/2+y,-z
1/2-x,1/2-y,-z
1/2+x,1/2-y,z
loop_
_atom_site_type_symbol
_atom_site_label
_atom_site_fract_x
_atom_site_fract_y
_atom_site_fract_z
Si Si1 0.912927 0.292883 0.401990
Si Si2 0.162470 0.298262 0.401281
Si Si3 0.735712 0.384611 0.788424
Si Si4 0.374159 0.117523 0.926328
Si Si5 0.406847 0.115678 0.222408
Si Si6 0.996639 0.117979 0.900932
Si Si7 0.755562 0.118130 0.878728
O O1 0.877580 0.343900 0.499235
O O2 0.790108 0.243053 0.400745
O O3 0.935074 0.352590 0.311595
O O4 0.039816 0.245246 0.398138
O O5 0.194912 0.356979 0.310056
O O6 0.735354 0.500000 0.791431
O O7 0.789517 0.353477 0.867558
O O8 0.604199 0.351853 0.820884
O O9 0.498406 0.145768 0.866951
O O10 0.374147 0.000000 0.930710
O O11 0.329630 0.149842 0.027500
O O12 0.286165 0.148514 0.206624
O O13 0.406854 0.000000 0.223478
O O14 0.880630 0.149471 0.880208
O O15 0.996412 0.000000 0.903301
O O16 0.000000 0.147764 0.000000
O O17 0.755512 0.000000 0.879198
#
# Coordination Sequence:
#
# PCOD9173511 Si02
#       7
#     8   8   8   8   8   8   8
#     4  10  22  40  60  79 104 140 182 224 268 329
#     4  10  22  40  60  80 103 140 182 221 274 328
#     4  10  18  30  54  84 110 134 171 223 270 308
#     4   9  15  26  46  77 111 138 167 209 259 310
#     4  10  19  31  52  83 111 138 175 222 271 311
#     4   9  15  25  43  71 109 146 175 208 251 308
#     4   9  16  26  44  75 114 148 175 207 256 317
#
# _framework density 22.238947
#
# number of rings (size 3 to 8) (size 9 to 14) (size 15 to 20)
#    0.000    2.429    2.857    0.429    0.000    3.429 
#    0.000    1.429    0.000    2.571    0.000    8.000 
#    0.000    0.000    0.000    0.000    0.000    0.000 
#
# Total GULP energy -155957.275093 kJ/mol
# GULP energy per Si atom -5569.902682 kJ/mol
# Density = 2.218833 g / cm^3
# Si number density = 22.238947 Si / 1000 Ang^3
#
#
#
# Elastic Constant Matrix: (Units=GPa)
#
#
# Indices 1 2 3 4 5 6 
#
# 1 183.6815 23.0104 70.0053 0.0000 3.5781 0.0000
# 2 23.0104 45.8567 14.7391 0.0000 1.8236 0.0000
# 3 70.0053 14.7391 137.8005 0.0000 11.3535 0.0000
# 4 0.0000 0.0000 0.0000 18.3268 0.0000 0.4759
# 5 3.5781 1.8236 11.3535 0.0000 36.9803 0.0000
# 6 0.0000 0.0000 0.0000 0.4759 0.0000 20.8017
#
#
#
# Elastic Compliance Matrix: (Units=1/GPa)
#
#
# Indices 1 2 3 4 5 6 
#
# 1 0.007017 -0.002466 -0.003339 0.000000 0.000468 0.000000
# 2 -0.002466 0.023455 -0.001211 0.000000 -0.000546 0.000000
# 3 -0.003339 -0.001211 0.009286 0.000000 -0.002468 0.000000
# 4 0.000000 0.000000 0.000000 0.054597 0.000000 -0.001249
# 5 0.000468 -0.000546 -0.002468 0.000000 0.027781 0.000000
# 6 0.000000 0.000000 0.000000 -0.001249 0.000000 0.048102
#
#
# Mechanical properties :
#
#
# Convention : Reuss Voigt Hill
#
# Bulk Modulus (GPa) = 38.87204 64.76091 51.81647
# Shear Modulus (GPa) = 25.92735 32.52735 29.22735
#
# Velocity S-wave (km/s) = 3.41816 3.82858 3.62918
# Velocity P-wave (km/s) = 5.75288 6.98053 6.39623
#
# Compressibility (1/GPa) = 0.02572543
#
# Stress axis : x y z
#
# Youngs Moduli (GPa) = 142.51563 42.63395 107.68631
#
# Poissons Ratio (x) = 0.10514 0.35961
# Poissons Ratio (y) = 0.35147 0.13040
# Poissons Ratio (z) = 0.47592 0.05163
#
# Static dielectric constant tensor:
#      x y z
#    x 1.921580 0.000000 -0.012370 
#    y 0.000000 1.887180 0.000000 
#    z -0.012370 0.000000 1.742760 
# 
# From -- ./inp_files/206063.got.cif
#   From: 2010.05.17/outbox.cif.g08.bks.cpg/sg12_104_cif.got.tgz:206063.got - 2010.06.03 13:09:07.
