data_PCOD9173901
_publ_section_title
;
Structure prediction by ZEFSAII (Michael W. Deem and Ramdas Pophale) SiO2 
 PCOD9173901
Probable space group: C 2/M
;
_chemical_formula_sum "Si O2"
_cell_formula_units_Z 56
_cell_length_a 27.436656
_cell_length_b 12.841070
_cell_length_c 7.867247
_cell_angle_alpha 90.000000
_cell_angle_beta 62.620997
_cell_angle_gamma 90.000000
_cell_volume 2461.275931
_symmetry_space_group_name_H-M "C 2/M"
_symmetry_group_IT_number 12
_symmetry_cell_setting 'monoclinic'
loop_
_space_group_symop_operation_xyz
x,y,z
-x,y,-z
-x,-y,-z
x,-y,z
1/2+x,1/2+y,z
1/2-x,1/2+y,-z
1/2-x,1/2-y,-z
1/2+x,1/2-y,z
loop_
_atom_site_type_symbol
_atom_site_label
_atom_site_fract_x
_atom_site_fract_y
_atom_site_fract_z
Si Si1 0.063340 0.109938 0.769413
Si Si2 0.681825 0.838032 0.782282
Si Si3 0.864932 0.888033 0.679676
Si Si4 0.939660 0.671010 0.040475
Si Si5 0.765624 0.113428 0.348346
Si Si6 0.463575 0.686182 0.720493
Si Si7 0.699390 0.181263 0.137566
O O1 0.108106 0.109654 0.548754
O O2 0.066760 0.215599 0.864779
O O3 0.004586 0.121035 0.772024
O O4 0.067968 0.000000 0.853508
O O5 0.620620 0.874685 0.825336
O O6 0.730848 0.877154 0.580338
O O7 0.693127 0.711528 0.746036
O O8 0.684041 0.868073 0.979479
O O9 0.912723 0.881820 0.742631
O O10 0.839827 0.773349 0.735092
O O11 0.834222 0.000000 0.751613
O O12 0.945079 0.705729 0.836283
O O13 0.000000 0.627977 0.000000
O O14 0.721302 0.118103 0.264627
O O15 0.793100 0.000000 0.300957
O O16 0.500000 0.713672 0.500000
O O17 0.750000 0.250000 0.000000
#
# Coordination Sequence:
#
# PCOD9173901 Si02
#       7
#     8   8   8   8   8   8   8
#     4   9  18  28  42  71 110 150 193 230 268 340
#     4  10  21  41  63  93 125 157 204 250 298 363
#     4  10  18  31  51  74 109 155 191 232 285 337
#     4  10  19  32  52  82 118 158 196 239 297 359
#     4  10  23  42  65  90 121 159 202 256 310 354
#     4   9  17  29  45  71 109 153 192 226 275 345
#     4  10  21  37  56  83 118 152 201 253 288 352
#
# _framework density 22.752426
#
# number of rings (size 3 to 8) (size 9 to 14) (size 15 to 20)
#    0.000    2.286    1.429    1.286    0.000    8.286 
#    0.000    8.571    0.000    0.429    0.000    1.000 
#    0.000    0.000    0.000    0.000    0.000    0.000 
#
# Total GULP energy -155915.119684 kJ/mol
# GULP energy per Si atom -5568.397132 kJ/mol
# Density = 2.270064 g / cm^3
# Si number density = 22.752426 Si / 1000 Ang^3
#
#
#
# Elastic Constant Matrix: (Units=GPa)
#
#
# Indices 1 2 3 4 5 6 
#
# 1 75.3989 8.1425 15.2432 0.0000 -10.2907 0.0000
# 2 8.1425 87.3140 15.0270 0.0000 3.2275 0.0000
# 3 15.2432 15.0270 69.1736 0.0000 0.9408 0.0000
# 4 0.0000 0.0000 0.0000 -7.0750 0.0000 -8.8976
# 5 -10.2907 3.2275 0.9408 0.0000 27.0317 0.0000
# 6 0.0000 0.0000 0.0000 -8.8976 0.0000 -1.7243
#
#
#
# Elastic Compliance Matrix: (Units=1/GPa)
#
#
# Indices 1 2 3 4 5 6 
#
# 1 0.014808 -0.001062 -0.003112 0.000000 0.005873 0.000000
# 2 -0.001062 0.012022 -0.002354 0.000000 -0.001758 0.000000
# 3 -0.003112 -0.002354 0.015673 0.000000 -0.001449 0.000000
# 4 0.000000 0.000000 0.000000 0.025749 0.000000 -0.132864
# 5 0.005873 -0.001758 -0.001449 0.000000 0.039489 0.000000
# 6 0.000000 0.000000 0.000000 -0.132864 0.000000 0.105649
#
#
# Mechanical properties :
#
#
# Convention : Reuss Voigt Hill
#
# Bulk Modulus (GPa) = 33.95932 34.30130 34.13031
# Shear Modulus (GPa) = 21.16288 16.54472 18.85380
#
# Velocity S-wave (km/s) = 3.05312 2.69952 2.88175
# Velocity P-wave (km/s) = 5.23323 4.98249 5.10940
#
# Compressibility (1/GPa) = 0.02944700
#
# Stress axis : x y z
#
# Youngs Moduli (GPa) = 67.53007 83.18058 63.80314
#
# Poissons Ratio (x) = 0.08837 0.19857
# Poissons Ratio (y) = 0.07174 0.15017
# Poissons Ratio (z) = 0.21017 0.19577
#
# Static dielectric constant tensor:
#      x y z
#    x 1.910670 0.000000 0.070390 
#    y 0.000000 1.822630 0.000000 
#    z 0.070390 0.000000 1.867570 
# 
# From -- ./inp_files/111094.got.cif
#   From: 2010.05.17/outbox.cif.g08.bks.cpg/sg12_56_cif.got.tgz:111094.got - 2010.06.03 13:09:07.
