data_PCOD9173789
_publ_section_title
;
Structure prediction by ZEFSAII (Michael W. Deem and Ramdas Pophale) SiO2 
 PCOD9173789
Probable space group: C 2/M
;
_chemical_formula_sum "Si O2"
_cell_formula_units_Z 64
_cell_length_a 12.847430
_cell_length_b 14.273520
_cell_length_c 29.166868
_cell_angle_alpha 90.000000
_cell_angle_beta 30.228450
_cell_angle_gamma 90.000000
_cell_volume 2692.729068
_symmetry_space_group_name_H-M "C 2/M"
_symmetry_group_IT_number 12
_symmetry_cell_setting 'monoclinic'
loop_
_space_group_symop_operation_xyz
x,y,z
-x,y,-z
-x,-y,-z
x,-y,z
1/2+x,1/2+y,z
1/2-x,1/2+y,-z
1/2-x,1/2-y,-z
1/2+x,1/2-y,z
loop_
_atom_site_type_symbol
_atom_site_label
_atom_site_fract_x
_atom_site_fract_y
_atom_site_fract_z
Si Si1 0.203231 0.634186 0.476090
Si Si2 0.507066 0.113285 0.858195
Si Si3 0.051634 0.885534 0.032620
Si Si4 0.081524 0.844801 0.517596
Si Si5 0.938502 0.892110 0.732875
Si Si6 0.351143 0.112804 0.295721
Si Si7 0.760656 0.609719 0.677803
Si Si8 0.814593 0.385897 0.759632
O O1 0.272728 0.605314 0.501241
O O2 0.386893 0.602346 0.373254
O O3 0.188632 0.744917 0.471901
O O4 0.960678 0.609120 0.568305
O O5 0.720263 0.149150 0.799637
O O6 0.518116 0.129331 0.799470
O O7 0.510344 0.000000 0.862284
O O8 0.281676 0.145608 0.959658
O O9 0.878344 0.857938 0.135255
O O10 0.051279 0.000000 0.031716
O O11 0.000000 0.855628 0.000000
O O12 0.863556 0.833473 0.626400
O O13 0.000000 0.884132 0.500000
O O14 0.061800 0.847213 0.728337
O O15 0.892034 0.000000 0.762834
O O16 0.475466 0.139087 0.293875
O O17 0.306153 0.000000 0.314070
O O18 0.714081 0.500000 0.702783
O O19 0.804889 0.649012 0.711339
O O20 0.816083 0.500000 0.758499
#
# Coordination Sequence:
#
# PCOD9173789 Si02
#       8
#     8   8   8   8   8   8   8   8
#     4  11  22  36  52  70 100 135 176 214 250 302
#     4   9  16  27  46  73 100 128 165 204 247 296
#     4   9  14  24  45  73 106 136 159 198 254 308
#     4  11  23  35  49  73 103 131 169 210 257 306
#     4  10  19  33  52  72  99 138 180 215 247 294
#     4  10  18  31  50  73 105 134 162 206 254 304
#     4  10  20  33  50  72  99 135 177 215 251 295
#     4   9  17  29  48  77 109 135 162 203 258 307
#
# _framework density 23.767709
#
# number of rings (size 3 to 8) (size 9 to 14) (size 15 to 20)
#    0.000    2.125    2.500    2.250    0.000    1.750 
#    0.000    0.625    0.000    3.750    0.000    0.875 
#    7.500    0.000    0.000    0.000    0.000    0.000 
#
# Total GULP energy -178705.307931 kJ/mol
# GULP energy per Si atom -5584.540873 kJ/mol
# Density = 2.371361 g / cm^3
# Si number density = 23.767709 Si / 1000 Ang^3
#
#
#
# Elastic Constant Matrix: (Units=GPa)
#
#
# Indices 1 2 3 4 5 6 
#
# 1 163.3976 14.4209 47.2727 0.0023 -26.3173 -0.0019
# 2 14.4209 63.0590 18.7825 -0.0008 -1.4080 0.0008
# 3 47.2727 18.7825 113.7193 0.0045 -20.7588 -0.0044
# 4 0.0023 -0.0008 0.0045 -1.5622 -0.0022 11.7686
# 5 -26.3173 -1.4080 -20.7588 -0.0022 38.1862 0.0013
# 6 -0.0019 0.0008 -0.0044 11.7686 0.0013 5.8684
#
#
#
# Elastic Compliance Matrix: (Units=1/GPa)
#
#
# Indices 1 2 3 4 5 6 
#
# 1 0.007481 -0.000957 -0.002239 0.000000 0.003903 0.000000
# 2 -0.000957 0.016834 -0.002653 -0.000003 -0.001481 0.000002
# 3 -0.002239 -0.002653 0.010950 0.000005 0.004311 -0.000002
# 4 0.000000 -0.000003 0.000005 -0.039741 -0.000003 0.079697
# 5 0.003903 -0.001481 0.004311 -0.000003 0.031167 0.000003
# 6 0.000000 0.000002 -0.000002 0.079697 0.000003 0.010579
#
#
# Mechanical properties :
#
#
# Convention : Reuss Voigt Hill
#
# Bulk Modulus (GPa) = 42.43281 55.68089 49.05685
# Shear Modulus (GPa) = 87.99233 25.81179 56.90206
#
# Velocity S-wave (km/s) = 6.09115 3.29903 4.89825
# Velocity P-wave (km/s) = 8.20740 6.16356 7.25779
#
# Compressibility (1/GPa) = 0.02356667
#
# Stress axis : x y z
#
# Youngs Moduli (GPa) = 133.67221 59.40325 91.32703
#
# Poissons Ratio (x) = 0.05683 0.20451
# Poissons Ratio (y) = 0.12788 0.24229
# Poissons Ratio (z) = 0.29933 0.15760
#
# Static dielectric constant tensor:
#      x y z
#    x 1.941090 0.000000 0.001500 
#    y 0.000000 1.932990 0.000000 
#    z 0.001500 0.000000 1.858990 
# 
# From -- ./inp_files/358988.got.cif
#   From: 2010.05.17/outbox.cif.g08.bks.cpg/sg12_180_cif.got.tgz:358988.got - 2010.06.03 13:09:07.
