data_PCOD9173247
_publ_section_title
;
Structure prediction by ZEFSAII (Michael W. Deem and Ramdas Pophale) SiO2 
 PCOD9173247
Probable space group: C 2/M
;
_chemical_formula_sum "Si O2"
_cell_formula_units_Z 56
_cell_length_a 24.029452
_cell_length_b 7.344444
_cell_length_c 15.288498
_cell_angle_alpha 90.000000
_cell_angle_beta 113.554571
_cell_angle_gamma 90.000000
_cell_volume 2473.348461
_symmetry_space_group_name_H-M "C 2/M"
_symmetry_group_IT_number 12
_symmetry_cell_setting 'monoclinic'
loop_
_space_group_symop_operation_xyz
x,y,z
-x,y,-z
-x,-y,-z
x,-y,z
1/2+x,1/2+y,z
1/2-x,1/2+y,-z
1/2-x,1/2-y,-z
1/2+x,1/2-y,z
loop_
_atom_site_type_symbol
_atom_site_label
_atom_site_fract_x
_atom_site_fract_y
_atom_site_fract_z
Si Si1 0.233718 0.716845 0.589874
Si Si2 0.088659 0.720890 0.852376
Si Si3 0.011891 0.721244 0.646477
Si Si4 0.813230 0.776688 0.797310
Si Si5 0.066730 0.789885 0.038998
Si Si6 0.402398 0.222013 0.460340
Si Si7 0.279652 0.216327 0.112797
O O1 0.230721 0.500000 0.600983
O O2 0.250000 0.750000 0.500000
O O3 0.286533 0.782185 0.687807
O O4 0.166506 0.785980 0.572600
O O5 0.088900 0.500000 0.855865
O O6 0.033009 0.779216 0.755779
O O7 0.151416 0.782830 0.847186
O O8 0.087004 0.785508 0.950738
O O9 0.011384 0.500000 0.646461
O O10 0.062913 0.774974 0.606961
O O11 0.946813 0.778693 0.567713
O O12 0.879738 0.712198 0.867592
O O13 0.764594 0.715600 0.839655
O O14 0.059915 0.000000 0.062857
O O15 0.184738 0.000000 0.198780
O O16 0.000000 0.705040 0.000000
O O17 0.401359 0.000000 0.459397
O O18 0.283743 0.000000 0.128988
O O19 0.250000 0.250000 0.000000
#
# Coordination Sequence:
#
# PCOD9173247 Si02
#       7
#     8   8   8   8   8   8   8
#     4  10  20  34  52  73  97 130 169 205 244 290
#     4  10  19  30  49  78 103 123 155 204 255 292
#     4   8  14  26  47  75 101 122 153 200 248 293
#     4   9  18  34  53  71  97 132 167 204 245 294
#     4  10  21  36  51  67  94 136 176 199 229 292
#     4   8  14  27  48  72  97 126 160 198 242 295
#     4  10  18  30  51  76 100 128 161 200 247 296
#
# _framework density 22.641372
#
# number of rings (size 3 to 8) (size 9 to 14) (size 15 to 20)
#    0.000    2.714    1.429    1.714    0.000    4.857 
#    0.000    1.429    0.000    2.571    0.000    2.000 
#    0.000    0.000    0.000    0.000    0.000    0.000 
#
# Total GULP energy -156384.620436 kJ/mol
# GULP energy per Si atom -5585.165016 kJ/mol
# Density = 2.258984 g / cm^3
# Si number density = 22.641372 Si / 1000 Ang^3
#
#
#
# Elastic Constant Matrix: (Units=GPa)
#
#
# Indices 1 2 3 4 5 6 
#
# 1 134.6167 6.0096 71.7178 0.0000 34.3722 0.0000
# 2 6.0096 85.3160 -5.6368 0.0000 5.9121 0.0000
# 3 71.7178 -5.6368 185.2229 0.0000 35.8915 0.0000
# 4 0.0000 0.0000 0.0000 1.8853 0.0000 -23.6846
# 5 34.3722 5.9121 35.8915 0.0000 34.0707 0.0000
# 6 0.0000 0.0000 0.0000 -23.6846 0.0000 -28.0184
#
#
#
# Elastic Compliance Matrix: (Units=1/GPa)
#
#
# Indices 1 2 3 4 5 6 
#
# 1 0.010955 -0.000382 -0.002669 0.000000 -0.008173 0.000000
# 2 -0.000382 0.012013 0.001059 0.000000 -0.002815 0.000000
# 3 -0.002669 0.001059 0.007512 0.000000 -0.005404 0.000000
# 4 0.000000 0.000000 0.000000 0.045649 0.000000 -0.038588
# 5 -0.008173 -0.002815 -0.005404 0.000000 0.043778 0.000000
# 6 0.000000 0.000000 0.000000 -0.038588 0.000000 -0.003072
#
#
# Mechanical properties :
#
#
# Convention : Reuss Voigt Hill
#
# Bulk Modulus (GPa) = 37.74293 61.03743 49.39018
# Shear Modulus (GPa) = 38.56530 23.79185 31.17858
#
# Velocity S-wave (km/s) = 4.13160 3.24514 3.71490
# Velocity P-wave (km/s) = 6.28221 6.40766 6.34525
#
# Compressibility (1/GPa) = 0.02649503
#
# Stress axis : x y z
#
# Youngs Moduli (GPa) = 91.28585 83.24287 133.12238
#
# Poissons Ratio (x) = 0.03177 0.35536
# Poissons Ratio (y) = 0.03484 -0.14095
# Poissons Ratio (z) = 0.24368 -0.08814
#
# Static dielectric constant tensor:
#      x y z
#    x 1.812370 0.000000 0.031020 
#    y 0.000000 1.858420 0.000000 
#    z 0.031020 0.000000 1.825310 
# 
# From -- ./inp_files/237901.got.cif
#   From: 2010.05.17/outbox.cif.g08.bks.cpg/sg12_119_cif.got.tgz:237901.got - 2010.06.03 13:09:07.
