data_PCOD9173633
_publ_section_title
;
Structure prediction by ZEFSAII (Michael W. Deem and Ramdas Pophale) SiO2 
 PCOD9173633
Probable space group: C 2/M
;
_chemical_formula_sum "Si O2"
_cell_formula_units_Z 64
_cell_length_a 25.602926
_cell_length_b 8.588296
_cell_length_c 18.320495
_cell_angle_alpha 90.000000
_cell_angle_beta 103.158808
_cell_angle_gamma 90.000000
_cell_volume 3922.636613
_symmetry_space_group_name_H-M "C 2/M"
_symmetry_group_IT_number 12
_symmetry_cell_setting 'monoclinic'
loop_
_space_group_symop_operation_xyz
x,y,z
-x,y,-z
-x,-y,-z
x,-y,z
1/2+x,1/2+y,z
1/2-x,1/2+y,-z
1/2-x,1/2-y,-z
1/2+x,1/2-y,z
loop_
_atom_site_type_symbol
_atom_site_label
_atom_site_fract_x
_atom_site_fract_y
_atom_site_fract_z
Si Si1 0.132942 0.311973 0.422235
Si Si2 0.285415 0.813735 0.839957
Si Si3 0.308811 0.686879 0.997142
Si Si4 0.336688 0.689130 0.161126
Si Si5 0.905999 0.813226 0.318231
Si Si6 0.179244 0.688273 0.592196
Si Si7 0.296871 0.313742 0.685089
Si Si8 0.988170 0.311995 0.579535
O O1 0.134299 0.500000 0.418389
O O2 0.166416 0.265188 0.505049
O O3 0.159358 0.243226 0.358593
O O4 0.071310 0.263846 0.415304
O O5 0.318935 0.753230 0.920092
O O6 0.223060 0.761424 0.831760
O O7 0.304769 0.752300 0.768522
O O8 0.285611 0.000000 0.840710
O O9 0.307547 0.500000 0.993133
O O10 0.250000 0.750000 0.000000
O O11 0.344175 0.734354 0.078752
O O12 0.336252 0.500000 0.162453
O O13 0.380585 0.741878 0.233329
O O14 0.865809 0.755842 0.368721
O O15 0.964792 0.750250 0.354322
O O16 0.906937 0.000000 0.318687
O O17 0.176157 0.500000 0.594762
O O18 0.238066 0.737904 0.637416
O O19 0.296787 0.500000 0.688103
O O20 0.989854 0.500000 0.580370
O O21 0.000000 0.261051 0.500000
#
# Coordination Sequence:
#
# PCOD9173633 Si02
#       8
#     8   8   8   8   8   8   8   8
#     4  10  21  37  54  68  95 136 172 208 256 301
#     4  10  18  31  48  69 101 136 168 199 246 302
#     4   9  16  28  45  68  99 133 168 200 243 297
#     4   8  16  29  45  69 101 132 160 199 246 294
#     4  11  20  31  51  77 102 131 167 209 252 293
#     4  10  20  35  51  71  99 135 170 204 250 302
#     4  11  22  33  50  76 103 130 170 213 248 296
#     4  10  20  37  55  70  95 132 171 211 255 302
#
# _framework density 16.315557999999999
#
# number of rings (size 3 to 8) (size 9 to 14) (size 15 to 20)
#    0.000    2.125    2.500    2.625    0.000    1.750 
#    0.000    1.875    0.000    0.000    0.000    0.875 
#    0.000    7.000    0.000    0.000    0.000    0.000 
#
# Total GULP energy -178468.564445 kJ/mol
# GULP energy per Si atom -5577.142639 kJ/mol
# Density = 1.627842 g / cm^3
# Si number density = 16.315558 Si / 1000 Ang^3
#
#
#
# Elastic Constant Matrix: (Units=GPa)
#
#
# Indices 1 2 3 4 5 6 
#
# 1 64.0269 19.1985 55.5416 0.0000 -13.1451 0.0000
# 2 19.1985 24.2984 31.7662 0.0000 -5.7695 0.0000
# 3 55.5416 31.7662 179.2172 0.0000 -8.3465 0.0000
# 4 0.0000 0.0000 0.0000 24.6587 0.0000 -3.4022
# 5 -13.1451 -5.7695 -8.3465 0.0000 18.3003 0.0000
# 6 0.0000 0.0000 0.0000 -3.4022 0.0000 21.4214
#
#
#
# Elastic Compliance Matrix: (Units=1/GPa)
#
#
# Indices 1 2 3 4 5 6 
#
# 1 0.026351 -0.010195 -0.005750 0.000000 0.013091 0.000000
# 2 -0.010195 0.060633 -0.007191 0.000000 0.008513 0.000000
# 3 -0.005750 -0.007191 0.008519 0.000000 -0.002512 0.000000
# 4 0.000000 0.000000 0.000000 0.041462 0.000000 0.006585
# 5 0.013091 0.008513 -0.002512 0.000000 0.065586 0.000000
# 6 0.000000 0.000000 0.000000 0.006585 0.000000 0.047728
#
#
# Mechanical properties :
#
#
# Convention : Reuss Voigt Hill
#
# Bulk Modulus (GPa) = 20.31225 53.39502 36.85363
# Shear Modulus (GPa) = 15.97642 23.61182 19.79412
#
# Velocity S-wave (km/s) = 3.13263 3.80833 3.48689
# Velocity P-wave (km/s) = 5.05581 7.22048 6.23284
#
# Compressibility (1/GPa) = 0.04923138
#
# Stress axis : x y z
#
# Youngs Moduli (GPa) = 37.94947 16.49274 117.37944
#
# Poissons Ratio (x) = 0.16814 0.67490
# Poissons Ratio (y) = 0.38689 0.84409
# Poissons Ratio (z) = 0.21820 0.11860
#
# Static dielectric constant tensor:
#      x y z
#    x 1.410740 0.000000 0.073780 
#    y 0.000000 1.553010 0.000000 
#    z 0.073780 0.000000 1.535150 
# 
# From -- ./inp_files/287737.got.cif
#   From: 2010.05.17/outbox.cif.g08.bks.cpg/sg12_144_cif.got.tgz:287737.got - 2010.06.03 13:09:07.
