data_PCOD9173610
_publ_section_title
;
Structure prediction by ZEFSAII (Michael W. Deem and Ramdas Pophale) SiO2 
 PCOD9173610
Probable space group: C 2/M
;
_chemical_formula_sum "Si O2"
_cell_formula_units_Z 48
_cell_length_a 12.119739
_cell_length_b 20.486429
_cell_length_c 12.619621
_cell_angle_alpha 90.000000
_cell_angle_beta 135.796878
_cell_angle_gamma 90.000000
_cell_volume 2184.569247
_symmetry_space_group_name_H-M "C 2/M"
_symmetry_group_IT_number 12
_symmetry_cell_setting 'monoclinic'
loop_
_space_group_symop_operation_xyz
x,y,z
-x,y,-z
-x,-y,-z
x,-y,z
1/2+x,1/2+y,z
1/2-x,1/2+y,-z
1/2-x,1/2-y,-z
1/2+x,1/2-y,z
loop_
_atom_site_type_symbol
_atom_site_label
_atom_site_fract_x
_atom_site_fract_y
_atom_site_fract_z
Si Si1 0.387969 0.000000 0.185232
Si Si2 0.688606 0.000000 0.105953
Si Si3 0.397761 0.141289 0.193008
Si Si4 0.689248 0.857162 0.636425
Si Si5 0.692635 0.000000 0.641840
Si Si6 0.268866 0.642816 0.152037
Si Si7 0.956597 0.776400 0.741483
Si Si8 0.500000 0.239950 0.000000
O O1 0.476979 0.069248 0.253695
O O2 0.275762 0.000000 0.210186
O O3 0.297433 0.000000 0.012217
O O4 0.759139 0.930571 0.190281
O O5 0.500000 0.000000 0.000000
O O6 0.286638 0.148252 0.219814
O O7 0.514548 0.202368 0.273476
O O8 0.304869 0.141373 0.018109
O O9 0.500000 0.853233 0.500000
O O10 0.780885 0.802554 0.635480
O O11 0.745260 0.929387 0.638142
O O12 0.500000 0.000000 0.500000
O O13 0.439099 0.675918 0.259392
O O14 0.148573 0.692284 0.126398
O O15 0.026955 0.778527 0.910333
#
# Coordination Sequence:
#
# PCOD9173610 Si02
#       8
#     4   4   8   8   4   8   8   4
#     4   8  16  30  50  71  95 129 168 195 239 299
#     4  10  18  31  47  72 106 138 160 193 238 301
#     4   9  18  33  49  73  99 128 165 201 245 295
#     4  10  20  34  51  71  98 129 165 207 252 290
#     4   8  16  33  53  68  91 124 168 208 245 291
#     4  10  19  31  50  73 101 133 166 195 240 293
#     4  11  20  30  50  75 101 130 162 206 244 292
#     4  10  18  33  50  69 102 132 160 200 244 295
#
# _framework density 21.972294999999999
#
# number of rings (size 3 to 8) (size 9 to 14) (size 15 to 20)
#    0.000    2.333    0.833    4.000    0.000    1.333 
#    0.000    0.000    0.000    7.000    0.000    0.583 
#    0.000    0.500    0.000    0.000    0.000    0.000 
#
# Total GULP energy -133800.986073 kJ/mol
# GULP energy per Si atom -5575.041086 kJ/mol
# Density = 2.192229 g / cm^3
# Si number density = 21.972295 Si / 1000 Ang^3
#
#
#
# Elastic Constant Matrix: (Units=GPa)
#
#
# Indices 1 2 3 4 5 6 
#
# 1 55.6465 42.9340 -2.2998 0.0000 21.8132 0.0000
# 2 42.9340 187.0601 13.6470 0.0000 40.8405 0.0000
# 3 -2.2998 13.6470 25.3565 0.0000 4.2852 0.0000
# 4 0.0000 0.0000 0.0000 6.7237 0.0000 1.9390
# 5 21.8132 40.8405 4.2852 0.0000 27.8028 0.0000
# 6 0.0000 0.0000 0.0000 1.9390 0.0000 16.1050
#
#
#
# Elastic Compliance Matrix: (Units=1/GPa)
#
#
# Indices 1 2 3 4 5 6 
#
# 1 0.027803 -0.002800 0.007208 0.000000 -0.018811 0.000000
# 2 -0.002800 0.008290 -0.003110 0.000000 -0.009501 0.000000
# 3 0.007208 -0.003110 0.043071 0.000000 -0.007725 0.000000
# 4 0.000000 0.000000 0.000000 0.154076 0.000000 -0.018551
# 5 -0.018811 -0.009501 -0.007725 0.000000 0.065872 0.000000
# 6 0.000000 0.000000 0.000000 -0.018551 0.000000 0.064326
#
#
# Mechanical properties :
#
#
# Convention : Reuss Voigt Hill
#
# Bulk Modulus (GPa) = 12.23123 41.84729 27.03926
# Shear Modulus (GPa) = 12.88343 24.37844 18.63094
#
# Velocity S-wave (km/s) = 2.42409 3.33454 2.91508
# Velocity P-wave (km/s) = 3.66247 5.82343 4.86447
#
# Compressibility (1/GPa) = 0.08175795
#
# Stress axis : x y z
#
# Youngs Moduli (GPa) = 35.96779 120.63064 23.21771
#
# Poissons Ratio (x) = 0.33779 -0.16735
# Poissons Ratio (y) = 0.10072 0.07221
# Poissons Ratio (z) = -0.25924 0.37516
#
# Static dielectric constant tensor:
#      x y z
#    x 1.799360 0.000000 -0.032160 
#    y 0.000000 1.866280 0.000000 
#    z -0.032160 0.000000 1.845170 
# 
# From -- ./inp_files/132547.got.cif
#   From: 2010.05.17/outbox.cif.g08.bks.cpg/sg12_67_cif.got.tgz:132547.got - 2010.06.03 13:09:07.
