data_PCOD9173553
_publ_section_title
;
Structure prediction by ZEFSAII (Michael W. Deem and Ramdas Pophale) SiO2 
 PCOD9173553
Probable space group: C 2/M
;
_chemical_formula_sum "Si O2"
_cell_formula_units_Z 60
_cell_length_a 11.608132
_cell_length_b 27.063608
_cell_length_c 18.002809
_cell_angle_alpha 90.000000
_cell_angle_beta 149.640436
_cell_angle_gamma 90.000000
_cell_volume 2858.544536
_symmetry_space_group_name_H-M "C 2/M"
_symmetry_group_IT_number 12
_symmetry_cell_setting 'monoclinic'
loop_
_space_group_symop_operation_xyz
x,y,z
-x,y,-z
-x,-y,-z
x,-y,z
1/2+x,1/2+y,z
1/2-x,1/2+y,-z
1/2-x,1/2-y,-z
1/2+x,1/2-y,z
loop_
_atom_site_type_symbol
_atom_site_label
_atom_site_fract_x
_atom_site_fract_y
_atom_site_fract_z
Si Si1 0.500000 0.621840 0.500000
Si Si2 0.909013 0.947040 0.054172
Si Si3 0.995629 0.398628 0.763567
Si Si4 0.822108 0.848555 0.838795
Si Si5 0.272687 0.555353 0.150482
Si Si6 0.461075 0.711976 0.778629
Si Si7 0.979183 0.689394 0.113268
Si Si8 0.576029 0.340298 0.702055
O O1 0.270497 0.590195 0.383194
O O2 0.493434 0.655638 0.422600
O O3 0.849899 0.944952 0.108029
O O4 0.060274 0.900007 0.119257
O O5 0.018742 0.000000 0.099813
O O6 0.676028 0.941652 0.877579
O O7 0.087051 0.364859 0.746509
O O8 0.028145 0.363877 0.853389
O O9 0.816714 0.813877 0.764080
O O10 0.000000 0.827015 0.000000
O O11 0.322929 0.500000 0.209559
O O12 0.386605 0.602830 0.251871
O O13 0.000000 0.561711 0.000000
O O14 0.449339 0.770371 0.784973
O O15 0.422013 0.688789 0.675830
O O16 0.726135 0.699769 0.944603
O O17 0.178944 0.687115 0.164330
#
# Coordination Sequence:
#
# PCOD9173553 Si02
#       8
#     4   8   8   8   8   8   8   8
#     4  10  24  42  61  76 114 170 206 246 275 326
#     4  10  19  34  59  93 119 147 185 239 312 366
#     4  10  20  39  55  80 119 155 194 240 281 345
#     4  10  19  33  56  86 121 144 178 239 300 364
#     4  10  18  30  56  87 116 147 186 242 302 357
#     4  11  20  33  58  90 116 152 181 244 305 358
#     4  10  21  32  57  88 118 149 185 238 305 357
#     4  11  21  39  56  80 118 159 203 241 285 339
#
# _framework density 20.989702999999999
#
# number of rings (size 3 to 8) (size 9 to 14) (size 15 to 20)
#    0.000    1.733    4.000    2.800    1.867    2.400 
#    0.000    4.667    0.000    0.000    0.000    1.867 
#    0.000    0.000    0.000    0.000    0.000    0.000 
#
# Total GULP energy -167383.369817 kJ/mol
# GULP energy per Si atom -5579.445661 kJ/mol
# Density = 2.094193 g / cm^3
# Si number density = 20.989703 Si / 1000 Ang^3
#
#
#
# Elastic Constant Matrix: (Units=GPa)
#
#
# Indices 1 2 3 4 5 6 
#
# 1 109.8929 0.5837 10.1314 0.0007 -13.0730 0.0003
# 2 0.5837 70.6755 5.0799 0.0010 -10.4861 0.0007
# 3 10.1314 5.0799 33.2133 0.0024 -3.3064 0.0018
# 4 0.0007 0.0010 0.0024 3.4913 0.0011 -2.0224
# 5 -13.0730 -10.4861 -3.3064 0.0011 39.4428 0.0007
# 6 0.0003 0.0007 0.0018 -2.0224 0.0007 20.4141
#
#
#
# Elastic Compliance Matrix: (Units=1/GPa)
#
#
# Indices 1 2 3 4 5 6 
#
# 1 0.009724 0.000584 -0.002742 -0.000001 0.003148 0.000000
# 2 0.000584 0.014882 -0.002058 -0.000005 0.003978 -0.000001
# 3 -0.002742 -0.002058 0.031377 -0.000024 0.001174 -0.000005
# 4 -0.000001 -0.000005 -0.000024 0.303868 -0.000013 0.030104
# 5 0.003148 0.003978 0.001174 -0.000013 0.027553 -0.000002
# 6 0.000000 -0.000001 -0.000005 0.030104 -0.000002 0.051968
#
#
# Mechanical properties :
#
#
# Convention : Reuss Voigt Hill
#
# Bulk Modulus (GPa) = 21.03054 27.26351 24.14702
# Shear Modulus (GPa) = 10.78389 25.86875 18.32632
#
# Velocity S-wave (km/s) = 2.26911 3.51443 2.95805
# Velocity P-wave (km/s) = 4.11173 5.43006 4.81622
#
# Compressibility (1/GPa) = 0.04754989
#
# Stress axis : x y z
#
# Youngs Moduli (GPa) = 102.83835 67.19330 31.87091
#
# Poissons Ratio (x) = -0.03923 0.08739
# Poissons Ratio (y) = -0.06005 0.06560
# Poissons Ratio (z) = 0.28199 0.13831
#
# Static dielectric constant tensor:
#      x y z
#    x 1.815300 0.000000 0.003830 
#    y 0.000000 1.749940 0.000000 
#    z 0.003830 0.000000 1.804310 
# 
# From -- ./inp_files/266040.got.cif
#   From: 2010.05.17/outbox.cif.g08.bks.cpg/sg12_134_cif.got.tgz:266040.got - 2010.06.03 13:09:07.
