data_PCOD9173063
_publ_section_title
;
Structure prediction by ZEFSAII (Michael W. Deem and Ramdas Pophale) SiO2 
 PCOD9173063
Probable space group: C 2/M
;
_chemical_formula_sum "Si O2"
_cell_formula_units_Z 40
_cell_length_a 11.422220
_cell_length_b 23.548372
_cell_length_c 12.946718
_cell_angle_alpha 90.000000
_cell_angle_beta 142.892639
_cell_angle_gamma 90.000000
_cell_volume 2100.931757
_symmetry_space_group_name_H-M "C 2/M"
_symmetry_group_IT_number 12
_symmetry_cell_setting 'monoclinic'
loop_
_space_group_symop_operation_xyz
x,y,z
-x,y,-z
-x,-y,-z
x,-y,z
1/2+x,1/2+y,z
1/2-x,1/2+y,-z
1/2-x,1/2-y,-z
1/2+x,1/2-y,z
loop_
_atom_site_type_symbol
_atom_site_label
_atom_site_fract_x
_atom_site_fract_y
_atom_site_fract_z
Si Si1 0.639179 0.152846 0.326807
Si Si2 0.785850 0.806920 0.957003
Si Si3 0.320444 0.746075 0.312343
Si Si4 0.785494 0.566664 0.800032
Si Si5 0.997179 0.148012 0.708041
O O1 0.409871 0.155147 0.177988
O O2 0.691862 0.211396 0.303453
O O3 0.709893 0.102340 0.302222
O O4 0.770755 0.147931 0.521020
O O5 0.795775 0.786161 0.846184
O O6 0.750000 0.750000 0.000000
O O7 0.949998 0.839299 0.136958
O O8 0.500000 0.773208 0.500000
O O9 0.416347 0.698245 0.304730
O O10 0.755810 0.500000 0.763274
O O11 0.618314 0.593534 0.754149
O O12 0.000000 0.575603 0.000000
#
# Coordination Sequence:
#
# PCOD9173063 Si02
#       5
#     8   8   8   8   8
#     4  10  19  33  47  66 100 127 159 196 229 280
#     4  10  19  30  46  64  91 129 163 195 234 272
#     4   8  17  29  44  65  89 125 162 190 229 272
#     4  10  18  30  50  71  96 129 158 190 239 293
#     4   9  18  30  44  66  91 123 158 188 229 276
#
# _framework density 19.039171
#
# number of rings (size 3 to 8) (size 9 to 14) (size 15 to 20)
#    0.000    2.600    2.000    1.800    0.000    8.800 
#    0.000    2.000    0.000    0.000    0.000    0.000 
#    0.000    3.200    0.000   78.600    0.000    2.000 
#
# Total GULP energy -111597.182983 kJ/mol
# GULP energy per Si atom -5579.859149 kJ/mol
# Density = 1.899584 g / cm^3
# Si number density = 19.039171 Si / 1000 Ang^3
#
#
#
# Elastic Constant Matrix: (Units=GPa)
#
#
# Indices 1 2 3 4 5 6 
#
# 1 37.5344 25.3016 39.7217 0.0000 -0.0682 0.0000
# 2 25.3016 67.8633 49.8587 0.0000 -6.7280 0.0000
# 3 39.7217 49.8587 191.2513 0.0000 -12.4995 0.0000
# 4 0.0000 0.0000 0.0000 16.3386 0.0000 4.1557
# 5 -0.0682 -6.7280 -12.4995 0.0000 9.5454 0.0000
# 6 0.0000 0.0000 0.0000 4.1557 0.0000 16.0795
#
#
#
# Elastic Compliance Matrix: (Units=1/GPa)
#
#
# Indices 1 2 3 4 5 6 
#
# 1 0.042025 -0.012533 -0.006582 0.000000 -0.017152 0.000000
# 2 -0.012533 0.022434 -0.002425 0.000000 0.012547 0.000000
# 3 -0.006582 -0.002425 0.007779 0.000000 0.008430 0.000000
# 4 0.000000 0.000000 0.000000 0.065511 0.000000 -0.016931
# 5 -0.017152 0.012547 0.008430 0.000000 0.124523 0.000000
# 6 0.000000 0.000000 0.000000 -0.016931 0.000000 0.066567
#
#
# Mechanical properties :
#
#
# Convention : Reuss Voigt Hill
#
# Bulk Modulus (GPa) = 34.29688 58.49034 46.39361
# Shear Modulus (GPa) = 13.10139 20.51049 16.80594
#
# Velocity S-wave (km/s) = 2.62607 3.28575 2.97426
# Velocity P-wave (km/s) = 5.21995 6.72180 6.01791
#
# Compressibility (1/GPa) = 0.02915717
#
# Stress axis : x y z
#
# Youngs Moduli (GPa) = 23.79530 44.57502 128.55061
#
# Poissons Ratio (x) = 0.55866 0.84613
# Poissons Ratio (y) = 0.29823 0.31180
# Poissons Ratio (z) = 0.15662 0.10812
#
# Static dielectric constant tensor:
#      x y z
#    x 1.737340 0.000000 0.024690 
#    y 0.000000 1.640440 0.000000 
#    z 0.024690 0.000000 1.719560 
# 
# From -- ./inp_files/106928.got.cif
#   From: 2010.05.17/outbox.cif.g08.bks.cpg/sg12_54_cif.got.tgz:106928.got - 2010.06.03 13:09:07.
