data_PCOD9173269
_publ_section_title
;
Structure prediction by ZEFSAII (Michael W. Deem and Ramdas Pophale) SiO2 
 PCOD9173269
Probable space group: C 2/M
;
_chemical_formula_sum "Si O2"
_cell_formula_units_Z 64
_cell_length_a 21.020434
_cell_length_b 8.974192
_cell_length_c 24.978803
_cell_angle_alpha 90.000000
_cell_angle_beta 127.401041
_cell_angle_gamma 90.000000
_cell_volume 3743.258795
_symmetry_space_group_name_H-M "C 2/M"
_symmetry_group_IT_number 12
_symmetry_cell_setting 'monoclinic'
loop_
_space_group_symop_operation_xyz
x,y,z
-x,y,-z
-x,-y,-z
x,-y,z
1/2+x,1/2+y,z
1/2-x,1/2+y,-z
1/2-x,1/2-y,-z
1/2+x,1/2-y,z
loop_
_atom_site_type_symbol
_atom_site_label
_atom_site_fract_x
_atom_site_fract_y
_atom_site_fract_z
Si Si1 0.068675 0.321026 0.992374
Si Si2 0.324552 0.678583 0.770012
Si Si3 0.778173 0.679883 0.859934
Si Si4 0.510494 0.679737 0.853366
Si Si5 0.403922 0.318684 0.211518
Si Si6 0.574848 0.171636 0.496650
Si Si7 0.965255 0.178562 0.357736
Si Si8 0.818377 0.822697 0.363980
O O1 0.064653 0.500000 0.984259
O O2 0.051184 0.246218 0.926907
O O3 0.154303 0.282707 0.061901
O O4 0.000000 0.277353 0.000000
O O5 0.318044 0.500000 0.767807
O O6 0.300564 0.745223 0.815295
O O7 0.416570 0.719461 0.805329
O O8 0.263062 0.744560 0.695499
O O9 0.779079 0.500000 0.852904
O O10 0.689149 0.724660 0.832152
O O11 0.515724 0.500000 0.858467
O O12 0.553767 0.731160 0.821198
O O13 0.405479 0.500000 0.212549
O O14 0.448722 0.271439 0.288753
O O15 0.500000 0.176037 0.500000
O O16 0.539592 0.244420 0.425075
O O17 0.644940 0.260832 0.562164
O O18 0.597185 0.000000 0.500028
O O19 0.885248 0.208940 0.352050
O O20 0.976709 0.000000 0.364589
O O21 0.808433 0.000000 0.361367
#
# Coordination Sequence:
#
# PCOD9173269 Si02
#       8
#     8   8   8   8   8   8   8   8
#     4  10  20  34  55  79 105 135 173 219 263 309
#     4  11  21  32  50  78 107 135 170 217 267 309
#     4  10  19  35  57  77  99 137 179 215 257 310
#     4  10  22  37  54  76 106 140 173 213 264 319
#     4   9  18  35  55  76 103 139 179 214 255 311
#     4   9  17  28  44  73 111 140 164 210 266 307
#     4   9  16  29  51  74  99 136 177 211 250 308
#     4  10  18  30  51  77 102 136 178 217 254 305
#
# _framework density 17.097403
#
# number of rings (size 3 to 8) (size 9 to 14) (size 15 to 20)
#    0.000    2.250    2.500    1.125    0.000    3.750 
#    0.000    1.250    0.000    0.750    0.000    0.000 
#    0.000    0.000    0.000    0.000    0.000    0.000 
#
# Total GULP energy -178518.679906 kJ/mol
# GULP energy per Si atom -5578.708747 kJ/mol
# Density = 1.705849 g / cm^3
# Si number density = 17.097403 Si / 1000 Ang^3
#
#
#
# Elastic Constant Matrix: (Units=GPa)
#
#
# Indices 1 2 3 4 5 6 
#
# 1 115.0395 34.1538 87.9357 0.0000 -2.7357 0.0000
# 2 34.1538 30.6527 52.4217 0.0000 5.9163 0.0000
# 3 87.9357 52.4217 196.1293 0.0000 4.3855 0.0000
# 4 0.0000 0.0000 0.0000 32.8407 0.0000 0.1554
# 5 -2.7357 5.9163 4.3855 0.0000 23.3284 0.0000
# 6 0.0000 0.0000 0.0000 0.1554 0.0000 12.7210
#
#
#
# Elastic Compliance Matrix: (Units=1/GPa)
#
#
# Indices 1 2 3 4 5 6 
#
# 1 0.015138 -0.011214 -0.003909 0.000000 0.005354 0.000000
# 2 -0.011214 0.072114 -0.013867 0.000000 -0.016997 0.000000
# 3 -0.003909 -0.013867 0.010534 0.000000 0.001078 0.000000
# 4 0.000000 0.000000 0.000000 0.030452 0.000000 -0.000372
# 5 0.005354 -0.016997 0.001078 0.000000 0.047602 0.000000
# 6 0.000000 0.000000 0.000000 -0.000372 0.000000 0.078615
#
#
# Mechanical properties :
#
#
# Convention : Reuss Voigt Hill
#
# Bulk Modulus (GPa) = 25.12286 76.76043 50.94164
# Shear Modulus (GPa) = 15.35145 24.93203 20.14174
#
# Velocity S-wave (km/s) = 2.99972 3.82283 3.43601
# Velocity P-wave (km/s) = 5.16949 8.02987 6.75287
#
# Compressibility (1/GPa) = 0.03980439
#
# Stress axis : x y z
#
# Youngs Moduli (GPa) = 66.06012 13.86702 94.93360
#
# Poissons Ratio (x) = 0.15551 0.37114
# Poissons Ratio (y) = 0.74082 1.31641
# Poissons Ratio (z) = 0.25826 0.19229
#
# Static dielectric constant tensor:
#      x y z
#    x 1.561500 0.000000 0.005540 
#    y 0.000000 1.574140 0.000000 
#    z 0.005540 0.000000 1.567300 
# 
# From -- ./inp_files/346053.got.cif
#   From: 2010.05.17/outbox.cif.g08.bks.cpg/sg12_174_cif.got.tgz:346053.got - 2010.06.03 13:09:07.
