data_PCOD9173037
_publ_section_title
;
Structure prediction by ZEFSAII (Michael W. Deem and Ramdas Pophale) SiO2 
 PCOD9173037
Probable space group: C 2/M
;
_chemical_formula_sum "Si O2"
_cell_formula_units_Z 40
_cell_length_a 25.979830
_cell_length_b 8.606688
_cell_length_c 14.641379
_cell_angle_alpha 90.000000
_cell_angle_beta 136.567705
_cell_angle_gamma 90.000000
_cell_volume 2250.738894
_symmetry_space_group_name_H-M "C 2/M"
_symmetry_group_IT_number 12
_symmetry_cell_setting 'monoclinic'
loop_
_space_group_symop_operation_xyz
x,y,z
-x,y,-z
-x,-y,-z
x,-y,z
1/2+x,1/2+y,z
1/2-x,1/2+y,-z
1/2-x,1/2-y,-z
1/2+x,1/2-y,z
loop_
_atom_site_type_symbol
_atom_site_label
_atom_site_fract_x
_atom_site_fract_y
_atom_site_fract_z
Si Si1 0.592980 0.314121 0.902193
Si Si2 0.263356 0.185710 0.801326
Si Si3 0.178212 0.314119 0.851547
Si Si4 0.538766 0.814502 0.148072
Si Si5 0.794152 0.814799 0.643664
O O1 0.595400 0.500000 0.905416
O O2 0.609232 0.250380 0.821423
O O3 0.516423 0.251831 0.846225
O O4 0.660692 0.251494 0.053729
O O5 0.193732 0.250682 0.770415
O O6 0.262952 0.241138 0.696939
O O7 0.265547 0.000000 0.810159
O O8 0.178612 0.500000 0.852847
O O9 0.250000 0.250000 0.000000
O O10 0.619285 0.734899 0.252921
O O11 0.547206 0.000000 0.169235
O O12 0.500000 0.785360 0.000000
O O13 0.750000 0.750000 0.500000
O O14 0.788029 0.000000 0.640472
#
# Coordination Sequence:
#
# PCOD9173037 Si02
#       5
#     8   8   8   8   8
#     4  11  20  32  53  83 115 148 187 234 286 338
#     4  11  20  34  54  80 113 149 189 235 283 336
#     4  10  18  30  49  77 111 147 185 231 284 336
#     4  11  22  37  59  85 116 151 190 237 288 337
#     4  12  25  41  60  84 115 153 194 235 285 342
#
# _framework density 17.771941000000002
#
# number of rings (size 3 to 8) (size 9 to 14) (size 15 to 20)
#    0.000    1.000    2.000   10.200    0.000    0.800 
#    0.000    0.000    0.000    1.200    0.000    8.400 
#    0.000    0.000    0.000    0.000    0.000    0.000 
#
# Total GULP energy -111768.183753 kJ/mol
# GULP energy per Si atom -5588.409188 kJ/mol
# Density = 1.773149 g / cm^3
# Si number density = 17.771941 Si / 1000 Ang^3
#
#
#
# Elastic Constant Matrix: (Units=GPa)
#
#
# Indices 1 2 3 4 5 6 
#
# 1 170.4506 54.4244 32.0025 0.0000 -26.5732 0.0000
# 2 54.4244 155.1273 25.7777 0.0000 -6.2530 0.0000
# 3 32.0025 25.7777 52.9994 0.0000 -14.2444 0.0000
# 4 0.0000 0.0000 0.0000 23.0591 0.0000 -1.3568
# 5 -26.5732 -6.2530 -14.2444 0.0000 19.7582 0.0000
# 6 0.0000 0.0000 0.0000 -1.3568 0.0000 37.4594
#
#
#
# Elastic Compliance Matrix: (Units=1/GPa)
#
#
# Indices 1 2 3 4 5 6 
#
# 1 0.008345 -0.002319 -0.001354 0.000000 0.009513 0.000000
# 2 -0.002319 0.007659 -0.003115 0.000000 -0.002941 0.000000
# 3 -0.001354 -0.003115 0.025360 0.000000 0.015476 0.000000
# 4 0.000000 0.000000 0.000000 0.043459 0.000000 0.001574
# 5 0.009513 -0.002941 0.015476 0.000000 0.073632 0.000000
# 6 0.000000 0.000000 0.000000 0.001574 0.000000 0.026753
#
#
# Mechanical properties :
#
#
# Convention : Reuss Voigt Hill
#
# Bulk Modulus (GPa) = 35.98783 66.99850 51.49316
# Shear Modulus (GPa) = 24.03295 33.81351 28.92323
#
# Velocity S-wave (km/s) = 3.68135 4.36665 4.03856
# Velocity P-wave (km/s) = 6.19383 7.95012 7.12629
#
# Compressibility (1/GPa) = 0.02778717
#
# Stress axis : x y z
#
# Youngs Moduli (GPa) = 119.83909 130.56395 39.43140
#
# Poissons Ratio (x) = 0.30279 0.05339
# Poissons Ratio (y) = 0.27792 0.12284
# Poissons Ratio (z) = 0.16226 0.40675
#
# Static dielectric constant tensor:
#      x y z
#    x 1.643490 0.000000 -0.010720 
#    y 0.000000 1.587440 0.000000 
#    z -0.010720 0.000000 1.617620 
# 
# From -- ./inp_files/229487.got.cif
#   From: 2010.05.17/outbox.cif.g08.bks.cpg/sg12_115_cif.got.tgz:229487.got - 2010.06.03 13:09:07.
