data_PCOD9173484
_publ_section_title
;
Structure prediction by ZEFSAII (Michael W. Deem and Ramdas Pophale) SiO2 
 PCOD9173484
Probable space group: C 2/M
;
_chemical_formula_sum "Si O2"
_cell_formula_units_Z 64
_cell_length_a 13.041316
_cell_length_b 23.527344
_cell_length_c 10.621476
_cell_angle_alpha 90.000000
_cell_angle_beta 76.471534
_cell_angle_gamma 90.000000
_cell_volume 3168.537493
_symmetry_space_group_name_H-M "C 2/M"
_symmetry_group_IT_number 12
_symmetry_cell_setting 'monoclinic'
loop_
_space_group_symop_operation_xyz
x,y,z
-x,y,-z
-x,-y,-z
x,-y,z
1/2+x,1/2+y,z
1/2-x,1/2+y,-z
1/2-x,1/2-y,-z
1/2+x,1/2-y,z
loop_
_atom_site_type_symbol
_atom_site_label
_atom_site_fract_x
_atom_site_fract_y
_atom_site_fract_z
Si Si1 0.166508 0.651521 0.707627
Si Si2 0.485124 0.435047 0.649938
Si Si3 0.303697 0.563480 0.249441
Si Si4 0.121966 0.435532 0.502298
Si Si5 0.624523 0.062971 0.941067
Si Si6 0.862868 0.169441 0.794227
Si Si7 0.026786 0.275073 0.143697
Si Si8 0.268047 0.853969 0.920061
O O1 0.158804 0.615047 0.583079
O O2 0.153513 0.604536 0.820764
O O3 0.276957 0.682036 0.709399
O O4 0.068788 0.693120 0.759860
O O5 0.500000 0.418402 0.500000
O O6 0.443905 0.500000 0.664581
O O7 0.598917 0.434768 0.682623
O O8 0.410913 0.391398 0.744460
O O9 0.310937 0.500000 0.185214
O O10 0.195189 0.565208 0.358595
O O11 0.305281 0.621270 0.167875
O O12 0.132293 0.500000 0.555177
O O13 0.000000 0.427843 0.500000
O O14 0.660378 0.000000 0.903131
O O15 0.500000 0.063797 0.000000
O O16 0.676309 0.088057 0.050277
O O17 0.952726 0.215462 0.793904
O O18 0.800389 0.168755 0.944514
O O19 0.136224 0.310431 0.130137
O O20 0.000000 0.271857 0.000000
#
# Coordination Sequence:
#
# PCOD9173484 Si02
#       8
#     8   8   8   8   8   8   8   8
#     4  11  21  40  60  89 123 165 212 260 309 371
#     4  10  23  46  69  91 123 160 203 256 313 371
#     4  10  22  38  61  92 129 167 199 250 314 366
#     4  10  21  37  63  97 130 167 206 248 307 378
#     4  10  18  30  53  86 122 159 195 250 310 370
#     4  11  26  38  67  95 115 165 213 258 304 372
#     4  12  23  42  61  88 129 165 207 258 317 363
#     4  11  21  39  59  92 126 167 205 256 308 374
#
# _framework density 20.198592000000001
#
# number of rings (size 3 to 8) (size 9 to 14) (size 15 to 20)
#    0.000    1.375    3.750    2.625    1.750    4.000 
#    0.000    3.125    0.000    5.250    0.000    0.000 
#    0.000    0.000    0.000    0.000    0.000    0.000 
#
# Total GULP energy -178586.083605 kJ/mol
# GULP energy per Si atom -5580.815113 kJ/mol
# Density = 2.015262 g / cm^3
# Si number density = 20.198592 Si / 1000 Ang^3
#
#
#
# Elastic Constant Matrix: (Units=GPa)
#
#
# Indices 1 2 3 4 5 6 
#
# 1 50.2472 20.1822 0.6924 0.0000 1.1962 0.0000
# 2 20.1822 75.8431 8.7669 0.0000 6.3496 0.0000
# 3 0.6924 8.7669 16.8589 0.0000 7.8553 0.0000
# 4 0.0000 0.0000 0.0000 14.6697 0.0000 12.7977
# 5 1.1962 6.3496 7.8553 0.0000 31.6339 0.0000
# 6 0.0000 0.0000 0.0000 12.7977 0.0000 16.5177
#
#
#
# Elastic Compliance Matrix: (Units=1/GPa)
#
#
# Indices 1 2 3 4 5 6 
#
# 1 0.022369 -0.006214 0.002404 0.000000 -0.000195 0.000000
# 2 -0.006214 0.015791 -0.007451 0.000000 -0.001084 0.000000
# 3 0.002404 -0.007451 0.070607 0.000000 -0.016128 0.000000
# 4 0.000000 0.000000 0.000000 0.210341 0.000000 -0.162970
# 5 -0.000195 -0.001084 -0.016128 0.000000 0.035842 0.000000
# 6 0.000000 0.000000 0.000000 -0.162970 0.000000 0.186808
#
#
# Mechanical properties :
#
#
# Convention : Reuss Voigt Hill
#
# Bulk Modulus (GPa) = 11.59502 22.47026 17.03264
# Shear Modulus (GPa) = 8.43130 20.11809 14.27470
#
# Velocity S-wave (km/s) = 2.04530 3.15939 2.66130
# Velocity P-wave (km/s) = 3.36610 4.94549 4.23016
#
# Compressibility (1/GPa) = 0.08624392
#
# Stress axis : x y z
#
# Youngs Moduli (GPa) = 44.70464 63.32813 14.16295
#
# Poissons Ratio (x) = 0.39352 -0.03404
# Poissons Ratio (y) = 0.27779 0.10553
# Poissons Ratio (z) = -0.10746 0.47186
#
# Static dielectric constant tensor:
#      x y z
#    x 1.690130 0.000000 0.026840 
#    y 0.000000 1.739840 0.000000 
#    z 0.026840 0.000000 1.706500 
# 
# From -- ./inp_files/135915.got.cif
#   From: 2010.05.17/outbox.cif.g08.bks.cpg/sg12_68_cif.got.tgz:135915.got - 2010.06.03 13:09:07.
