data_PCOD9173775
_publ_section_title
;
Structure prediction by ZEFSAII (Michael W. Deem and Ramdas Pophale) SiO2 
 PCOD9173775
Probable space group: C 2/M
;
_chemical_formula_sum "Si O2"
_cell_formula_units_Z 56
_cell_length_a 32.144244
_cell_length_b 7.582555
_cell_length_c 19.937487
_cell_angle_alpha 90.000000
_cell_angle_beta 37.232468
_cell_angle_gamma 90.000000
_cell_volume 2940.226231
_symmetry_space_group_name_H-M "C 2/M"
_symmetry_group_IT_number 12
_symmetry_cell_setting 'monoclinic'
loop_
_space_group_symop_operation_xyz
x,y,z
-x,y,-z
-x,-y,-z
x,-y,z
1/2+x,1/2+y,z
1/2-x,1/2+y,-z
1/2-x,1/2-y,-z
1/2+x,1/2-y,z
loop_
_atom_site_type_symbol
_atom_site_label
_atom_site_fract_x
_atom_site_fract_y
_atom_site_fract_z
Si Si1 0.453466 0.208292 0.761721
Si Si2 0.093490 0.283296 0.644467
Si Si3 0.799537 0.209689 0.999654
Si Si4 0.190946 0.290781 0.630473
Si Si5 0.292555 0.783854 0.760917
Si Si6 0.058912 0.715651 0.373370
Si Si7 0.792867 0.294702 0.608963
O O1 0.516935 0.276150 0.724424
O O2 0.377037 0.228242 0.888331
O O3 0.453977 0.280064 0.685356
O O4 0.466667 0.000000 0.738554
O O5 0.096282 0.500000 0.642056
O O6 0.122786 0.226631 0.679427
O O7 0.146854 0.223665 0.517404
O O8 0.802563 0.000000 0.000444
O O9 0.750000 0.250000 0.000000
O O10 0.764976 0.277329 0.112576
O O11 0.185969 0.500000 0.646035
O O12 0.250000 0.250000 0.500000
O O13 0.221229 0.216526 0.660431
O O14 0.366328 0.732805 0.696275
O O15 0.287301 0.721012 0.690975
O O16 0.289796 0.000000 0.763936
O O17 0.058386 0.500000 0.372808
O O18 0.000000 0.772291 0.500000
O O19 0.810803 0.500000 0.594303
#
# Coordination Sequence:
#
# PCOD9173775 Si02
#       7
#     8   8   8   8   8   8   8
#     4  10  18  31  50  72  95 123 161 202 240 282
#     4   8  15  27  47  73  98 122 153 194 238 284
#     4  11  21  35  51  69  93 127 167 204 241 284
#     4   9  16  28  46  71 101 130 159 193 235 287
#     4   9  17  29  46  69  94 121 158 201 237 278
#     4   9  15  24  44  72  95 118 152 193 235 282
#     4   9  16  29  49  73  98 125 158 199 243 285
#
# _framework density 19.046151999999999
#
# number of rings (size 3 to 8) (size 9 to 14) (size 15 to 20)
#    0.000    2.714    1.429    2.571    0.000    3.429 
#    0.000    5.000    0.000    1.286    0.000    6.000 
#    0.000    0.000    0.000    0.000    0.000    0.000 
#
# Total GULP energy -156080.568936 kJ/mol
# GULP energy per Si atom -5574.306033 kJ/mol
# Density = 1.900280 g / cm^3
# Si number density = 19.046152 Si / 1000 Ang^3
#
#
#
# Elastic Constant Matrix: (Units=GPa)
#
#
# Indices 1 2 3 4 5 6 
#
# 1 136.6777 -11.2304 45.1164 0.0174 -29.8810 0.0065
# 2 -11.2304 35.0095 -11.0842 -0.0077 1.0011 -0.0097
# 3 45.1164 -11.0842 90.6396 0.0096 -23.7616 0.0019
# 4 0.0174 -0.0077 0.0096 14.9815 0.0087 -2.6606
# 5 -29.8810 1.0011 -23.7616 0.0087 17.3912 0.0022
# 6 0.0065 -0.0097 0.0019 -2.6606 0.0022 15.3813
#
#
#
# Elastic Compliance Matrix: (Units=1/GPa)
#
#
# Indices 1 2 3 4 5 6 
#
# 1 0.012092 0.003190 -0.000359 -0.000026 0.020102 -0.000010
# 2 0.003190 0.030846 0.004917 0.000006 0.010424 0.000017
# 3 -0.000359 0.004917 0.018037 -0.000024 0.023745 -0.000006
# 4 -0.000026 0.000006 -0.000024 0.068865 -0.000113 0.011912
# 5 0.020102 0.010424 0.023745 -0.000113 0.123882 -0.000042
# 6 -0.000010 0.000017 -0.000006 0.011912 -0.000042 0.067074
#
#
# Mechanical properties :
#
#
# Convention : Reuss Voigt Hill
#
# Bulk Modulus (GPa) = 13.07678 34.21448 23.64563
# Shear Modulus (GPa) = 15.11535 25.51914 20.31724
#
# Velocity S-wave (km/s) = 2.82018 3.66438 3.26964
# Velocity P-wave (km/s) = 4.18154 5.99221 5.16681
#
# Compressibility (1/GPa) = 0.07647143
#
# Stress axis : x y z
#
# Youngs Moduli (GPa) = 82.70052 32.41948 55.44015
#
# Poissons Ratio (x) = -0.10343 0.01989
# Poissons Ratio (y) = -0.26385 -0.27258
# Poissons Ratio (z) = 0.02967 -0.15940
#
# Static dielectric constant tensor:
#      x y z
#    x 1.669500 -0.000020 0.015820 
#    y -0.000020 1.742110 0.000020 
#    z 0.015820 0.000020 1.623510 
# 
# From -- ./inp_files/295060.got.cif
#   From: 2010.05.17/outbox.cif.g08.bks.cpg/sg12_148_cif.got.tgz:295060.got - 2010.06.03 13:09:07.
