data_PCOD9173412
_publ_section_title
;
Structure prediction by ZEFSAII (Michael W. Deem and Ramdas Pophale) SiO2 
 PCOD9173412
Probable space group: C 2/M
;
_chemical_formula_sum "Si O2"
_cell_formula_units_Z 56
_cell_length_a 11.389866
_cell_length_b 18.312060
_cell_length_c 14.608618
_cell_angle_alpha 90.000000
_cell_angle_beta 130.400514
_cell_angle_gamma 90.000000
_cell_volume 2320.349414
_symmetry_space_group_name_H-M "C 2/M"
_symmetry_group_IT_number 12
_symmetry_cell_setting 'monoclinic'
loop_
_space_group_symop_operation_xyz
x,y,z
-x,y,-z
-x,-y,-z
x,-y,z
1/2+x,1/2+y,z
1/2-x,1/2+y,-z
1/2-x,1/2-y,-z
1/2+x,1/2-y,z
loop_
_atom_site_type_symbol
_atom_site_label
_atom_site_fract_x
_atom_site_fract_y
_atom_site_fract_z
Si Si1 0.102612 0.188691 0.897502
Si Si2 0.700895 0.128588 0.513003
Si Si3 0.806214 0.084499 0.756091
Si Si4 0.678548 0.082192 0.893319
Si Si5 0.164207 0.628027 0.243081
Si Si6 0.237193 0.000000 0.605876
Si Si7 0.068708 0.257098 0.336000
Si Si8 0.000000 0.699571 0.000000
O O1 0.952654 0.136789 0.822284
O O2 0.086114 0.232257 0.793498
O O3 0.240945 0.137071 0.997068
O O4 0.078695 0.247144 0.966036
O O5 0.698138 0.098466 0.614080
O O6 0.729048 0.064180 0.455045
O O7 0.844499 0.185911 0.583663
O O8 0.562287 0.181320 0.410221
O O9 0.730004 0.097215 0.815920
O O10 0.855016 0.000000 0.778296
O O11 0.494829 0.087991 0.805688
O O12 0.725461 0.000000 0.939879
O O13 0.288621 0.566424 0.329387
O O14 0.169393 0.701758 0.306896
O O15 0.121898 0.651270 0.119013
#
# Coordination Sequence:
#
# PCOD9173412 Si02
#       8
#     8   8   8   8   8   4   8   4
#     4  10  18  34  53  80 112 143 182 224 268 322
#     4   9  16  32  53  78 103 140 182 225 274 312
#     4  10  18  30  52  81 109 142 179 219 268 334
#     4  11  21  34  52  83 116 148 171 220 283 336
#     4  10  21  36  54  81 112 141 182 223 279 323
#     4  10  18  35  53  78 108 139 184 230 271 321
#     4   8  18  31  52  76 106 138 181 229 260 321
#     4  10  20  35  53  78 102 146 182 228 256 323
#
# _framework density 24.134295999999999
#
# number of rings (size 3 to 8) (size 9 to 14) (size 15 to 20)
#    0.000    2.286    2.857    0.429    0.000    3.714 
#    0.000    3.571    0.000    0.000    3.714    0.000 
#    0.000    5.714    0.000    0.000    0.000    0.000 
#
# Total GULP energy -156024.876927 kJ/mol
# GULP energy per Si atom -5572.317033 kJ/mol
# Density = 2.407936 g / cm^3
# Si number density = 24.134296 Si / 1000 Ang^3
#
#
#
# Elastic Constant Matrix: (Units=GPa)
#
#
# Indices 1 2 3 4 5 6 
#
# 1 20.4978 18.6313 14.3187 -0.0002 -1.9098 -0.0001
# 2 18.6313 178.9476 83.3272 0.0000 1.2602 0.0000
# 3 14.3187 83.3272 160.5463 -0.0002 -8.0181 -0.0001
# 4 -0.0002 0.0000 -0.0002 -737.9789 -0.0001 -361.0339
# 5 -1.9098 1.2602 -8.0181 -0.0001 20.9688 -0.0001
# 6 -0.0001 0.0000 -0.0001 -361.0339 -0.0001 -140.4905
#
#
#
# Elastic Compliance Matrix: (Units=1/GPa)
#
#
# Indices 1 2 3 4 5 6 
#
# 1 0.055054 -0.004721 -0.002238 0.000000 0.004442 0.000000
# 2 -0.004721 0.007853 -0.003772 0.000000 -0.002344 0.000000
# 3 -0.002238 -0.003772 0.008550 0.000000 0.003292 0.000000
# 4 0.000000 0.000000 0.000000 0.005268 0.000000 -0.013539
# 5 0.004442 -0.002344 0.003292 0.000000 0.049494 0.000000
# 6 0.000000 0.000000 0.000000 -0.013539 0.000000 0.027674
#
#
# Mechanical properties :
#
#
# Convention : Reuss Voigt Hill
#
# Bulk Modulus (GPa) = 20.00179 65.83847 42.92013
# Shear Modulus (GPa) = 26.03881 -155.25252 -64.60685
#
# Velocity S-wave (km/s) = 3.28825 -8.02921 -5.17956
# Velocity P-wave (km/s) = 4.76681 7.65626 4.23650
#
# Compressibility (1/GPa) = 0.04999552
#
# Stress axis : x y z
#
# Youngs Moduli (GPa) = 18.16394 127.34678 116.95459
#
# Poissons Ratio (x) = 0.60124 0.26173
# Poissons Ratio (y) = 0.08576 0.44111
# Poissons Ratio (z) = 0.04065 0.48031
#
# Static dielectric constant tensor:
#      x y z
#    x 1.968000 0.000000 0.040570 
#    y 0.000000 1.892130 0.000000 
#    z 0.040570 0.000000 1.985710 
# 
# From -- ./inp_files/146269.got.cif
#   From: 2010.05.17/outbox.cif.g08.bks.cpg/sg12_74_cif.got.tgz:146269.got - 2010.06.03 13:09:07.
