data_PCOD9173691
_publ_section_title
;
Structure prediction by ZEFSAII (Michael W. Deem and Ramdas Pophale) SiO2 
 PCOD9173691
Probable space group: C 2/M
;
_chemical_formula_sum "Si O2"
_cell_formula_units_Z 64
_cell_length_a 30.672974
_cell_length_b 7.370069
_cell_length_c 12.270155
_cell_angle_alpha 90.000000
_cell_angle_beta 92.262733
_cell_angle_gamma 90.000000
_cell_volume 2771.652199
_symmetry_space_group_name_H-M "C 2/M"
_symmetry_group_IT_number 12
_symmetry_cell_setting 'monoclinic'
loop_
_space_group_symop_operation_xyz
x,y,z
-x,y,-z
-x,-y,-z
x,-y,z
1/2+x,1/2+y,z
1/2-x,1/2+y,-z
1/2-x,1/2-y,-z
1/2+x,1/2-y,z
loop_
_atom_site_type_symbol
_atom_site_label
_atom_site_fract_x
_atom_site_fract_y
_atom_site_fract_z
Si Si1 0.912588 0.220532 0.240254
Si Si2 0.889633 0.222615 0.481263
Si Si3 0.000619 0.778079 0.125670
Si Si4 0.707261 0.715969 0.567400
Si Si5 0.240767 0.778283 0.803779
Si Si6 0.074932 0.794711 0.293494
Si Si7 0.839500 0.707651 0.819833
Si Si8 0.162367 0.780477 0.933881
O O1 0.907220 0.277874 0.364660
O O2 0.871797 0.276273 0.161811
O O3 0.956971 0.275339 0.185422
O O4 0.911980 0.000000 0.241868
O O5 0.838877 0.281799 0.483853
O O6 0.917935 0.287392 0.586445
O O7 0.890038 0.000000 0.485474
O O8 0.041907 0.715238 0.201319
O O9 0.001844 0.000000 0.121197
O O10 0.000000 0.717354 0.000000
O O11 0.702429 0.500000 0.575597
O O12 0.750000 0.750000 0.500000
O O13 0.716970 0.780450 0.690566
O O14 0.290599 0.715673 0.806608
O O15 0.210659 0.721481 0.901669
O O16 0.241913 0.000000 0.805793
O O17 0.122796 0.800596 0.244613
O O18 0.058841 0.000000 0.310192
O O19 0.838269 0.500000 0.781629
O O20 0.850379 0.713339 0.948765
O O21 0.161807 0.000000 0.938279
#
# Coordination Sequence:
#
# PCOD9173691 Si02
#       8
#     8   8   8   8   8   8   8   8
#     4   9  16  29  53  80 105 133 165 211 266 307
#     4   9  17  30  50  76 103 132 170 213 254 302
#     4   9  17  29  48  78 108 132 166 211 256 306
#     4  10  18  31  49  71 100 135 175 210 248 298
#     4   9  18  32  50  72  99 134 172 207 252 310
#     4  10  20  34  52  76 104 133 171 213 252 301
#     4  11  22  34  49  73 105 137 171 212 256 303
#     4  10  18  33  56  76  98 133 172 210 258 310
#
# _framework density 23.090919
#
# number of rings (size 3 to 8) (size 9 to 14) (size 15 to 20)
#    0.000    2.375    1.250    2.250    0.000    2.500 
#    0.000    4.375    0.000    4.125    0.000    0.875 
#    0.000    0.000    0.000    0.000    0.000    0.000 
#
# Total GULP energy -178855.972449 kJ/mol
# GULP energy per Si atom -5589.249139 kJ/mol
# Density = 2.303836 g / cm^3
# Si number density = 23.090919 Si / 1000 Ang^3
#
#
#
# Elastic Constant Matrix: (Units=GPa)
#
#
# Indices 1 2 3 4 5 6 
#
# 1 134.3382 2.2683 67.6556 0.0000 11.8149 0.0000
# 2 2.2683 82.9857 -1.9912 0.0000 4.4933 0.0000
# 3 67.6556 -1.9912 150.9497 0.0000 24.7895 0.0000
# 4 0.0000 0.0000 0.0000 -4.9028 0.0000 -3.0495
# 5 11.8149 4.4933 24.7895 0.0000 39.3811 0.0000
# 6 0.0000 0.0000 0.0000 -3.0495 0.0000 6.1675
#
#
#
# Elastic Compliance Matrix: (Units=1/GPa)
#
#
# Indices 1 2 3 4 5 6 
#
# 1 0.009626 -0.000358 -0.004296 0.000000 -0.000143 0.000000
# 2 -0.000358 0.012164 0.000593 0.000000 -0.001653 0.000000
# 3 -0.004296 0.000593 0.009321 0.000000 -0.004646 0.000000
# 4 0.000000 0.000000 0.000000 -0.155991 0.000000 -0.077129
# 5 -0.000143 -0.001653 -0.004646 0.000000 0.028549 0.000000
# 6 0.000000 0.000000 0.000000 -0.077129 0.000000 0.124005
#
#
# Mechanical properties :
#
#
# Convention : Reuss Voigt Hill
#
# Bulk Modulus (GPa) = 43.50139 56.01546 49.75842
# Shear Modulus (GPa) = 115.04991 28.15187 71.60089
#
# Velocity S-wave (km/s) = 7.06632 3.49546 5.57455
# Velocity P-wave (km/s) = 9.24431 6.37199 7.93913
#
# Compressibility (1/GPa) = 0.02298777
#
# Stress axis : x y z
#
# Youngs Moduli (GPa) = 103.88678 82.21110 107.28677
#
# Poissons Ratio (x) = 0.02947 0.46086
# Poissons Ratio (y) = 0.03724 -0.06358
# Poissons Ratio (z) = 0.44625 -0.04872
#
# Static dielectric constant tensor:
#      x y z
#    x 1.839560 0.000000 0.014810 
#    y 0.000000 1.857400 0.000000 
#    z 0.014810 0.000000 1.831020 
# 
# From -- ./inp_files/187537.got.cif
#   From: 2010.05.17/outbox.cif.g08.bks.cpg/sg12_94_cif.got.tgz:187537.got - 2010.06.03 13:09:07.
