data_PCOD9173740
_publ_section_title
;
Structure prediction by ZEFSAII (Michael W. Deem and Ramdas Pophale) SiO2 
 PCOD9173740
Probable space group: C 2/M
;
_chemical_formula_sum "Si O2"
_cell_formula_units_Z 64
_cell_length_a 20.662033
_cell_length_b 7.449963
_cell_length_c 18.789187
_cell_angle_alpha 90.000000
_cell_angle_beta 91.965809
_cell_angle_gamma 90.000000
_cell_volume 2890.543351
_symmetry_space_group_name_H-M "C 2/M"
_symmetry_group_IT_number 12
_symmetry_cell_setting 'monoclinic'
loop_
_space_group_symop_operation_xyz
x,y,z
-x,y,-z
-x,-y,-z
x,-y,z
1/2+x,1/2+y,z
1/2-x,1/2+y,-z
1/2-x,1/2-y,-z
1/2+x,1/2-y,z
loop_
_atom_site_type_symbol
_atom_site_label
_atom_site_fract_x
_atom_site_fract_y
_atom_site_fract_z
Si Si1 0.197760 0.793682 0.892023
Si Si2 0.005812 0.219585 0.661842
Si Si3 0.732157 0.787285 0.582047
Si Si4 0.167318 0.287868 0.049411
Si Si5 0.593845 0.706057 0.542314
Si Si6 0.524635 0.284504 0.077250
Si Si7 0.369873 0.280461 0.613648
Si Si8 0.924399 0.779766 0.193593
O O1 0.269193 0.715073 0.907669
O O2 0.145964 0.715868 0.835106
O O3 0.207677 0.000000 0.870766
O O4 0.165236 0.791250 0.969558
O O5 0.037556 0.283034 0.589098
O O6 0.050313 0.277166 0.728723
O O7 0.930483 0.271455 0.664488
O O8 0.007128 0.000000 0.660704
O O9 0.750000 0.750000 0.500000
O O10 0.661043 0.708055 0.589415
O O11 0.796210 0.721869 0.626048
O O12 0.725870 0.000000 0.591741
O O13 0.177271 0.500000 0.039322
O O14 0.100172 0.259214 0.086733
O O15 0.576022 0.500000 0.527512
O O16 0.610472 0.782259 0.465442
O O17 0.519642 0.500000 0.075877
O O18 0.477849 0.221920 0.137898
O O19 0.500000 0.216101 0.000000
O O20 0.366855 0.500000 0.612157
O O21 0.922808 0.000000 0.192826
#
# Coordination Sequence:
#
# PCOD9173740 Si02
#       8
#     8   8   8   8   8   8   8   8
#     4   9  17  32  49  68  95 122 151 188 232 276
#     4   9  16  27  46  70  91 117 160 199 226 268
#     4   9  16  27  45  68  94 121 150 188 231 273
#     4  10  19  29  48  74  95 117 149 190 231 277
#     4   9  16  27  46  71  95 119 151 194 235 271
#     4  10  18  31  50  69  93 122 152 192 233 274
#     4   8  14  25  43  68  94 118 149 193 232 258
#     4   9  17  30  48  67  89 123 160 192 228 273
#
# _framework density 22.141166999999999
#
# number of rings (size 3 to 8) (size 9 to 14) (size 15 to 20)
#    0.000    2.875    1.250    1.875    0.000    2.250 
#    0.000    1.250    0.000    8.250    0.000    0.000 
#    0.000    0.000    0.000    0.000    0.000    0.000 
#
# Total GULP energy -178470.287154 kJ/mol
# GULP energy per Si atom -5577.196474 kJ/mol
# Density = 2.209077 g / cm^3
# Si number density = 22.141167 Si / 1000 Ang^3
#
#
#
# Elastic Constant Matrix: (Units=GPa)
#
#
# Indices 1 2 3 4 5 6 
#
# 1 120.4531 -4.4241 17.1506 0.0000 38.5203 0.0000
# 2 -4.4241 71.6186 -0.7092 0.0000 0.6847 0.0000
# 3 17.1506 -0.7092 48.2773 0.0000 29.9345 0.0000
# 4 0.0000 0.0000 0.0000 0.5120 0.0000 3.2532
# 5 38.5203 0.6847 29.9345 0.0000 39.3910 0.0000
# 6 0.0000 0.0000 0.0000 3.2532 0.0000 11.9763
#
#
#
# Elastic Compliance Matrix: (Units=1/GPa)
#
#
# Indices 1 2 3 4 5 6 
#
# 1 0.013059 0.001036 0.006251 0.000000 -0.017538 0.000000
# 2 0.001036 0.014059 0.001169 0.000000 -0.002146 0.000000
# 3 0.006251 0.001169 0.042195 0.000000 -0.038198 0.000000
# 4 0.000000 0.000000 0.000000 -2.690272 0.000000 0.730785
# 5 -0.017538 -0.002146 -0.038198 0.000000 0.071602 0.000000
# 6 0.000000 0.000000 0.000000 0.730785 0.000000 -0.115012
#
#
# Mechanical properties :
#
#
# Convention : Reuss Voigt Hill
#
# Bulk Modulus (GPa) = 11.59756 29.37595 20.48675
# Shear Modulus (GPa) = -1.88499 25.59796 11.85649
#
# Velocity S-wave (km/s) = -0.92369 3.40387 2.31659
# Velocity P-wave (km/s) = 2.02775 5.36142 4.05319
#
# Compressibility (1/GPa) = 0.08622501
#
# Stress axis : x y z
#
# Youngs Moduli (GPa) = 76.57765 71.12899 23.69930
#
# Poissons Ratio (x) = -0.07371 -0.14814
# Poissons Ratio (y) = -0.07935 -0.02771
# Poissons Ratio (z) = -0.47866 -0.08316
#
# Static dielectric constant tensor:
#      x y z
#    x 1.836070 0.000000 0.048910 
#    y 0.000000 2.047560 0.000000 
#    z 0.048910 0.000000 1.810270 
# 
# From -- ./inp_files/319216.got.cif
#   From: 2010.05.17/outbox.cif.g08.bks.cpg/sg12_160_cif.got.tgz:319216.got - 2010.06.03 13:09:07.
