data_PCOD9173090
_publ_section_title
;
Structure prediction by ZEFSAII (Michael W. Deem and Ramdas Pophale) SiO2 
 PCOD9173090
Probable space group: C 2/M
;
_chemical_formula_sum "Si O2"
_cell_formula_units_Z 64
_cell_length_a 14.936450
_cell_length_b 7.612153
_cell_length_c 26.932685
_cell_angle_alpha 90.000000
_cell_angle_beta 79.296041
_cell_angle_gamma 90.000000
_cell_volume 3008.924526
_symmetry_space_group_name_H-M "C 2/M"
_symmetry_group_IT_number 12
_symmetry_cell_setting 'monoclinic'
loop_
_space_group_symop_operation_xyz
x,y,z
-x,y,-z
-x,-y,-z
x,-y,z
1/2+x,1/2+y,z
1/2-x,1/2+y,-z
1/2-x,1/2-y,-z
1/2+x,1/2-y,z
loop_
_atom_site_type_symbol
_atom_site_label
_atom_site_fract_x
_atom_site_fract_y
_atom_site_fract_z
Si Si1 0.985868 0.791646 0.882196
Si Si2 0.368787 0.794944 0.686804
Si Si3 0.691139 0.714336 0.751679
Si Si4 0.470854 0.215069 0.580111
Si Si5 0.518925 0.712684 0.228154
Si Si6 0.856263 0.710136 0.495854
Si Si7 0.191438 0.784960 0.863935
Si Si8 0.195205 0.707386 0.055115
O O1 0.956746 0.725642 0.830278
O O2 0.909958 0.760087 0.931071
O O3 0.087098 0.727254 0.883675
O O4 0.995133 0.000000 0.875319
O O5 0.267627 0.720313 0.705932
O O6 0.431425 0.720876 0.636535
O O7 0.419126 0.782859 0.734365
O O8 0.356109 0.000000 0.675781
O O9 0.692553 0.500000 0.751289
O O10 0.586815 0.764218 0.752655
O O11 0.715829 0.769076 0.805460
O O12 0.400866 0.268104 0.543523
O O13 0.572509 0.273424 0.553768
O O14 0.473705 0.000000 0.580819
O O15 0.524503 0.500000 0.229141
O O16 0.862689 0.500000 0.495437
O O17 0.750000 0.750000 0.500000
O O18 0.255260 0.717498 0.901088
O O19 0.193584 0.000000 0.864262
O O20 0.196853 0.500000 0.059892
O O21 0.250000 0.750000 0.000000
#
# Coordination Sequence:
#
# PCOD9173090 Si02
#       8
#     8   8   8   8   8   8   8   8
#     4   9  18  35  55  72  95 129 165 198 238 288
#     4  10  18  30  50  73  99 132 167 199 235 290
#     4   8  15  29  49  71  94 124 162 195 229 285
#     4   8  17  32  48  69  99 133 164 199 248 300
#     4   9  18  32  50  74 102 128 156 198 247 285
#     4   9  17  33  53  70  93 128 170 210 250 293
#     4   8  16  32  52  70  92 127 163 192 230 288
#     4  11  22  35  52  75 100 126 162 205 248 292
#
# _framework density 21.270059
#
# number of rings (size 3 to 8) (size 9 to 14) (size 15 to 20)
#    0.000    3.000    0.000    3.375    0.000    3.000 
#    0.000    8.125    0.000    2.250    0.000    0.000 
#    0.000    0.000    0.000    0.000    0.000    0.000 
#
# Total GULP energy -178489.456267 kJ/mol
# GULP energy per Si atom -5577.795508 kJ/mol
# Density = 2.122165 g / cm^3
# Si number density = 21.270059 Si / 1000 Ang^3
#
#
#
# Elastic Constant Matrix: (Units=GPa)
#
#
# Indices 1 2 3 4 5 6 
#
# 1 107.7461 -5.3736 47.7309 0.0000 -34.6876 0.0000
# 2 -5.3736 39.2788 -2.2578 0.0000 -1.9850 0.0000
# 3 47.7309 -2.2578 52.3802 0.0000 -36.3729 0.0000
# 4 0.0000 0.0000 0.0000 10.2705 0.0000 1.6618
# 5 -34.6876 -1.9850 -36.3729 0.0000 32.0567 0.0000
# 6 0.0000 0.0000 0.0000 1.6618 0.0000 16.7829
#
#
#
# Elastic Compliance Matrix: (Units=1/GPa)
#
#
# Indices 1 2 3 4 5 6 
#
# 1 0.015761 0.001741 -0.011172 0.000000 0.004487 0.000000
# 2 0.001741 0.026984 0.009642 0.000000 0.014495 0.000000
# 3 -0.011172 0.009642 0.102343 0.000000 0.104632 0.000000
# 4 0.000000 0.000000 0.000000 0.098952 0.000000 -0.009798
# 5 0.004487 0.014495 0.104632 0.000000 0.155667 0.000000
# 6 0.000000 0.000000 0.000000 -0.009798 0.000000 0.060555
#
#
# Mechanical properties :
#
#
# Convention : Reuss Voigt Hill
#
# Bulk Modulus (GPa) = 6.87231 31.06711 18.96971
# Shear Modulus (GPa) = 9.83588 22.44239 16.13914
#
# Velocity S-wave (km/s) = 2.15275 3.25178 2.75757
# Velocity P-wave (km/s) = 3.06873 5.36064 4.36770
#
# Compressibility (1/GPa) = 0.14551146
#
# Stress axis : x y z
#
# Youngs Moduli (GPa) = 63.44624 37.05903 9.77105
#
# Poissons Ratio (x) = -0.06452 0.10916
# Poissons Ratio (y) = -0.11045 -0.09421
# Poissons Ratio (z) = 0.70880 -0.35733
#
# Static dielectric constant tensor:
#      x y z
#    x 1.751350 0.000000 -0.001120 
#    y 0.000000 1.831610 0.000000 
#    z -0.001120 0.000000 1.743040 
# 
# From -- ./inp_files/359836.got.cif
#   From: 2010.05.17/outbox.cif.g08.bks.cpg/sg12_180_cif.got.tgz:359836.got - 2010.06.03 13:09:07.
