data_PCOD9173454
_publ_section_title
;
Structure prediction by ZEFSAII (Michael W. Deem and Ramdas Pophale) SiO2 
 PCOD9173454
Probable space group: C 2/M
;
_chemical_formula_sum "Si O2"
_cell_formula_units_Z 64
_cell_length_a 29.342226
_cell_length_b 14.888847
_cell_length_c 20.321967
_cell_angle_alpha 90.000000
_cell_angle_beta 159.356504
_cell_angle_gamma 90.000000
_cell_volume 3129.992093
_symmetry_space_group_name_H-M "C 2/M"
_symmetry_group_IT_number 12
_symmetry_cell_setting 'monoclinic'
loop_
_space_group_symop_operation_xyz
x,y,z
-x,y,-z
-x,-y,-z
x,-y,z
1/2+x,1/2+y,z
1/2-x,1/2+y,-z
1/2-x,1/2-y,-z
1/2+x,1/2-y,z
loop_
_atom_site_type_symbol
_atom_site_label
_atom_site_fract_x
_atom_site_fract_y
_atom_site_fract_z
Si Si1 0.581922 0.292524 0.460902
Si Si2 0.676401 0.398575 0.461445
Si Si3 0.837967 0.903223 0.902307
Si Si4 0.647265 0.902866 0.523723
Si Si5 0.045729 0.646658 0.130845
Si Si6 0.893653 0.896359 0.297219
Si Si7 0.704629 0.205070 0.132739
Si Si8 0.890382 0.153174 0.769511
O O1 0.626627 0.353717 0.460727
O O2 0.567875 0.189759 0.417051
O O3 0.456810 0.336225 0.325538
O O4 0.694990 0.294598 0.669673
O O5 0.627290 0.500000 0.387313
O O6 0.831256 0.401016 0.672967
O O7 0.634427 0.341453 0.341943
O O8 0.718477 0.905023 0.690671
O O9 0.824994 0.809655 0.923565
O O10 0.841080 0.000000 0.941438
O O11 0.969905 0.893713 0.037799
O O12 0.767027 0.893364 0.634881
O O13 0.582494 0.000000 0.425581
O O14 0.097223 0.747515 0.184914
O O15 0.000000 0.606581 0.000000
O O16 0.925783 0.659051 0.017359
O O17 0.769704 0.848850 0.161688
O O18 0.000000 0.897989 0.500000
O O19 0.871487 0.000000 0.247814
#
# Coordination Sequence:
#
# PCOD9173454 Si02
#       8
#     8   8   8   8   8   8   8   8
#     4  10  19  35  51  76 109 139 180 228 276 326
#     4  12  24  34  51  82 117 151 180 221 279 335
#     4   9  17  30  52  79 108 141 179 225 270 319
#     4  10  18  30  53  80 108 144 184 226 273 323
#     4  11  20  37  56  80 113 151 181 225 278 328
#     4   9  18  33  54  75  99 140 187 230 268 313
#     4   9  18  33  54  77 104 136 185 228 268 322
#     4  11  20  34  52  79 113 148 186 220 265 331
#
# _framework density 20.447334999999999
#
# number of rings (size 3 to 8) (size 9 to 14) (size 15 to 20)
#    0.000    1.875    2.500    3.750    0.000    2.250 
#    0.000    0.625    0.000    6.750    0.000    0.000 
#    0.000    0.000    0.000    0.000    0.000    0.000 
#
# Total GULP energy -178607.080936 kJ/mol
# GULP energy per Si atom -5581.471279 kJ/mol
# Density = 2.040080 g / cm^3
# Si number density = 20.447335 Si / 1000 Ang^3
#
#
#
# Elastic Constant Matrix: (Units=GPa)
#
#
# Indices 1 2 3 4 5 6 
#
# 1 80.2278 50.3517 24.7309 0.0000 29.4158 0.0000
# 2 50.3517 138.0094 14.5260 0.0000 26.2180 0.0000
# 3 24.7309 14.5260 33.6840 0.0000 6.3056 0.0000
# 4 0.0000 0.0000 0.0000 -31.0786 0.0000 4.9787
# 5 29.4158 26.2180 6.3056 0.0000 34.0300 0.0000
# 6 0.0000 0.0000 0.0000 4.9787 0.0000 6.3571
#
#
#
# Elastic Compliance Matrix: (Units=1/GPa)
#
#
# Indices 1 2 3 4 5 6 
#
# 1 0.025527 -0.004876 -0.013687 0.000000 -0.015773 0.000000
# 2 -0.004876 0.009632 0.000028 0.000000 -0.003211 0.000000
# 3 -0.013687 0.000028 0.038862 0.000000 0.004609 0.000000
# 4 0.000000 0.000000 0.000000 -0.028590 0.000000 0.022391
# 5 -0.015773 -0.003211 0.004609 0.000000 0.044640 0.000000
# 6 0.000000 0.000000 0.000000 0.022391 0.000000 0.139769
#
#
# Mechanical properties :
#
#
# Convention : Reuss Voigt Hill
#
# Bulk Modulus (GPa) = 27.06348 47.90428 37.48388
# Shear Modulus (GPa) = 17.90655 12.68255 15.29455
#
# Velocity S-wave (km/s) = 2.96250 2.49319 2.73792
# Velocity P-wave (km/s) = 4.99663 5.63622 5.32604
#
# Compressibility (1/GPa) = 0.03695016
#
# Stress axis : x y z
#
# Youngs Moduli (GPa) = 39.17404 103.81988 25.73228
#
# Poissons Ratio (x) = 0.50627 0.35218
# Poissons Ratio (y) = 0.19103 -0.00071
# Poissons Ratio (z) = 0.53616 -0.00286
#
# Static dielectric constant tensor:
#      x y z
#    x 1.689290 0.000000 -0.007900 
#    y 0.000000 1.780020 0.000000 
#    z -0.007900 0.000000 1.730500 
# 
# From -- ./inp_files/183799.got.cif
#   From: 2010.05.17/outbox.cif.g08.bks.cpg/sg12_92_cif.got.tgz:183799.got - 2010.06.03 13:09:07.
