data_PCOD9173748
_publ_section_title
;
Structure prediction by ZEFSAII (Michael W. Deem and Ramdas Pophale) SiO2 
 PCOD9173748
Probable space group: C 2/M
;
_chemical_formula_sum "Si O2"
_cell_formula_units_Z 64
_cell_length_a 25.697325
_cell_length_b 7.643980
_cell_length_c 18.235305
_cell_angle_alpha 90.000000
_cell_angle_beta 101.809316
_cell_angle_gamma 90.000000
_cell_volume 3506.142741
_symmetry_space_group_name_H-M "C 2/M"
_symmetry_group_IT_number 12
_symmetry_cell_setting 'monoclinic'
loop_
_space_group_symop_operation_xyz
x,y,z
-x,y,-z
-x,-y,-z
x,-y,z
1/2+x,1/2+y,z
1/2-x,1/2+y,-z
1/2-x,1/2-y,-z
1/2+x,1/2-y,z
loop_
_atom_site_type_symbol
_atom_site_label
_atom_site_fract_x
_atom_site_fract_y
_atom_site_fract_z
Si Si1 0.484542 0.785559 0.078088
Si Si2 0.085008 0.701967 0.192358
Si Si3 0.664836 0.205647 0.333162
Si Si4 0.284760 0.710647 0.340381
Si Si5 0.673666 0.706604 0.104588
Si Si6 0.290987 0.790738 0.178275
Si Si7 0.311950 0.292271 0.502394
Si Si8 0.636102 0.788113 0.932940
O O1 0.529732 0.722006 0.147291
O O2 0.425055 0.729384 0.080528
O O3 0.485487 0.000000 0.078618
O O4 0.500000 0.731907 0.000000
O O5 0.073379 0.500000 0.208062
O O6 0.117869 0.781550 0.269736
O O7 0.126080 0.706591 0.136126
O O8 0.723610 0.278176 0.330223
O O9 0.657290 0.220562 0.418292
O O10 0.667575 0.000000 0.315645
O O11 0.282156 0.500000 0.346031
O O12 0.305830 0.754200 0.266398
O O13 0.318586 0.772283 0.420726
O O14 0.670989 0.500000 0.120080
O O15 0.731159 0.775906 0.146154
O O16 0.665329 0.733581 0.015989
O O17 0.331998 0.724925 0.129115
O O18 0.288379 0.000000 0.168444
O O19 0.319455 0.500000 0.506078
O O20 0.250000 0.250000 0.500000
O O21 0.635393 0.000000 0.931572
#
# Coordination Sequence:
#
# PCOD9173748 Si02
#       8
#     8   8   8   8   8   8   8   8
#     4   9  16  29  52  71  83 114 160 197 232 270
#     4  10  18  31  50  70  91 121 157 191 229 276
#     4   9  17  28  44  68  94 120 150 185 229 273
#     4   9  17  29  45  66  92 123 152 181 222 274
#     4  11  21  31  44  68  95 122 155 188 232 276
#     4  10  21  32  45  67  94 123 155 191 229 272
#     4   9  17  28  43  65  93 124 154 183 221 270
#     4  10  20  35  50  65  88 121 161 197 230 272
#
# _framework density 18.253678000000001
#
# number of rings (size 3 to 8) (size 9 to 14) (size 15 to 20)
#    0.000    2.375    2.500    1.875    0.000    4.000 
#    0.000    1.250    0.000    0.000    0.000    0.875 
#    0.000    7.000    0.000    0.000    0.000    0.000 
#
# Total GULP energy -178423.017378 kJ/mol
# GULP energy per Si atom -5575.719293 kJ/mol
# Density = 1.821213 g / cm^3
# Si number density = 18.253678 Si / 1000 Ang^3
#
#
#
# Elastic Constant Matrix: (Units=GPa)
#
#
# Indices 1 2 3 4 5 6 
#
# 1 41.7498 -2.8519 30.9782 0.0000 -4.1494 0.0000
# 2 -2.8519 33.4605 -13.4208 0.0000 3.1707 0.0000
# 3 30.9782 -13.4208 145.5850 0.0000 10.4021 0.0000
# 4 0.0000 0.0000 0.0000 21.2470 0.0000 -1.8338
# 5 -4.1494 3.1707 10.4021 0.0000 20.5012 0.0000
# 6 0.0000 0.0000 0.0000 -1.8338 0.0000 4.0113
#
#
#
# Elastic Compliance Matrix: (Units=1/GPa)
#
#
# Indices 1 2 3 4 5 6 
#
# 1 0.030255 -0.001287 -0.007272 0.000000 0.010012 0.000000
# 2 -0.001287 0.031942 0.003725 0.000000 -0.007091 0.000000
# 3 -0.007272 0.003725 0.009241 0.000000 -0.006737 0.000000
# 4 0.000000 0.000000 0.000000 0.048999 0.000000 0.022401
# 5 0.010012 -0.007091 -0.006737 0.000000 0.055319 0.000000
# 6 0.000000 0.000000 0.000000 0.022401 0.000000 0.259534
#
#
# Mechanical properties :
#
#
# Convention : Reuss Voigt Hill
#
# Bulk Modulus (GPa) = 16.18877 27.80071 21.99474
# Shear Modulus (GPa) = 10.74004 22.89123 16.81564
#
# Velocity S-wave (km/s) = 2.42828 3.54511 3.03845
# Velocity P-wave (km/s) = 4.09269 5.65866 4.93814
#
# Compressibility (1/GPa) = 0.06177123
#
# Stress axis : x y z
#
# Youngs Moduli (GPa) = 33.05238 31.30650 108.21474
#
# Poissons Ratio (x) = 0.04028 0.78691
# Poissons Ratio (y) = 0.04253 -0.40310
# Poissons Ratio (z) = 0.24035 -0.11662
#
# Static dielectric constant tensor:
#      x y z
#    x 1.608250 0.000000 0.020240 
#    y 0.000000 1.692070 0.000000 
#    z 0.020240 0.000000 1.656190 
# 
# From -- ./inp_files/287645.got.cif
#   From: 2010.05.17/outbox.cif.g08.bks.cpg/sg12_144_cif.got.tgz:287645.got - 2010.06.03 13:09:07.
