data_PCOD9173386
_publ_section_title
;
Structure prediction by ZEFSAII (Michael W. Deem and Ramdas Pophale) SiO2 
 PCOD9173386
Probable space group: C 2/M
;
_chemical_formula_sum "Si O2"
_cell_formula_units_Z 64
_cell_length_a 25.162644
_cell_length_b 23.959444
_cell_length_c 12.613370
_cell_angle_alpha 90.000000
_cell_angle_beta 30.702892
_cell_angle_gamma 90.000000
_cell_volume 3882.695368
_symmetry_space_group_name_H-M "C 2/M"
_symmetry_group_IT_number 12
_symmetry_cell_setting 'monoclinic'
loop_
_space_group_symop_operation_xyz
x,y,z
-x,y,-z
-x,-y,-z
x,-y,z
1/2+x,1/2+y,z
1/2-x,1/2+y,-z
1/2-x,1/2-y,-z
1/2+x,1/2-y,z
loop_
_atom_site_type_symbol
_atom_site_label
_atom_site_fract_x
_atom_site_fract_y
_atom_site_fract_z
Si Si1 0.132846 0.064027 0.510216
Si Si2 0.112176 0.937678 0.068811
Si Si3 0.629805 0.214139 0.620643
Si Si4 0.203941 0.311654 0.071984
Si Si5 0.260432 0.668677 0.200222
Si Si6 0.606616 0.220316 0.039501
Si Si7 0.618905 0.396938 0.294463
Si Si8 0.749114 0.827775 0.614056
O O1 0.139148 0.072657 0.371336
O O2 0.197823 0.112241 0.458305
O O3 0.009991 0.071001 0.745755
O O4 0.162932 0.000000 0.483676
O O5 0.123762 0.932316 0.177287
O O6 0.141712 0.000000 0.985863
O O7 0.181663 0.890306 0.896128
O O8 0.692415 0.185460 0.417125
O O9 0.665278 0.180933 0.664415
O O10 0.667663 0.278869 0.556029
O O11 0.507144 0.215112 0.813358
O O12 0.110459 0.306628 0.149823
O O13 0.294884 0.349774 0.867540
O O14 0.250000 0.250000 0.000000
O O15 0.188465 0.330808 0.218620
O O16 0.350274 0.716071 0.031006
O O17 0.690519 0.188843 0.822573
O O18 0.500000 0.374397 0.500000
#
# Coordination Sequence:
#
# PCOD9173386 Si02
#       8
#     8   8   8   8   8   8   8   8
#     4  10  18  30  52  79 103 130 166 214 264 300
#     4   9  17  30  50  76 106 136 164 199 253 313
#     4  10  21  34  53  72  97 141 172 207 249 305
#     4   9  17  30  44  76 106 131 159 199 253 302
#     4   9  19  33  48  76 106 129 167 201 251 306
#     4  10  18  33  53  74 102 130 168 211 253 298
#     4   9  16  28  48  75 106 135 163 202 251 309
#     4  10  20  35  52  75 101 129 175 214 254 295
#
# _framework density 16.483395000000002
#
# number of rings (size 3 to 8) (size 9 to 14) (size 15 to 20)
#    0.000    2.500    1.250    1.500    0.000    3.000 
#    0.000    2.500    0.000    3.750    0.000    1.750 
#    0.000    0.000    0.000    0.000    0.000    0.000 
#
# Total GULP energy -178217.471104 kJ/mol
# GULP energy per Si atom -5569.295972 kJ/mol
# Density = 1.644588 g / cm^3
# Si number density = 16.483395 Si / 1000 Ang^3
#
#
#
# Elastic Constant Matrix: (Units=GPa)
#
#
# Indices 1 2 3 4 5 6 
#
# 1 99.1411 40.8027 8.5759 0.0001 -14.0411 -0.0001
# 2 40.8027 116.2105 23.5210 0.0001 -10.6852 -0.0001
# 3 8.5759 23.5210 8.2873 0.0001 -4.2394 -0.0002
# 4 0.0001 0.0001 0.0001 11.2860 -0.0001 -3.2178
# 5 -14.0411 -10.6852 -4.2394 -0.0001 24.1102 0.0001
# 6 -0.0001 -0.0001 -0.0002 -3.2178 0.0001 18.0028
#
#
#
# Elastic Compliance Matrix: (Units=1/GPa)
#
#
# Indices 1 2 3 4 5 6 
#
# 1 0.012480 -0.004311 0.002266 0.000000 0.005756 0.000000
# 2 -0.004311 0.021744 -0.058907 0.000000 -0.003232 0.000000
# 3 0.002266 -0.058907 0.299799 -0.000003 0.027928 0.000001
# 4 0.000000 0.000000 -0.000003 0.093363 0.000000 0.016688
# 5 0.005756 -0.003232 0.027928 0.000000 0.048307 0.000000
# 6 0.000000 0.000000 0.000001 0.016688 0.000000 0.058530
#
#
# Mechanical properties :
#
#
# Convention : Reuss Voigt Hill
#
# Bulk Modulus (GPa) = 4.71434 41.04871 22.88152
# Shear Modulus (GPa) = 6.87915 20.72909 13.80412
#
# Velocity S-wave (km/s) = 2.04510 3.55008 2.89702
# Velocity P-wave (km/s) = 2.90566 6.46229 5.01019
#
# Compressibility (1/GPa) = 0.21211885
#
# Stress axis : x y z
#
# Youngs Moduli (GPa) = 80.12699 45.98870 3.33557
#
# Poissons Ratio (x) = 0.19827 -0.00756
# Poissons Ratio (y) = 0.34545 0.19649
# Poissons Ratio (z) = -0.18157 2.70906
#
# Static dielectric constant tensor:
#      x y z
#    x 1.587840 0.000000 0.018380 
#    y 0.000000 1.556350 0.000000 
#    z 0.018380 0.000000 1.527390 
# 
# From -- ./inp_files/135407.got.cif
#   From: 2010.05.17/outbox.cif.g08.bks.cpg/sg12_68_cif.got.tgz:135407.got - 2010.06.03 13:09:07.
