data_PCOD9173142
_publ_section_title
;
Structure prediction by ZEFSAII (Michael W. Deem and Ramdas Pophale) SiO2 
 PCOD9173142
Probable space group: C 2/M
;
_chemical_formula_sum "Si O2"
_cell_formula_units_Z 56
_cell_length_a 13.354865
_cell_length_b 14.139574
_cell_length_c 22.614278
_cell_angle_alpha 90.000000
_cell_angle_beta 137.899760
_cell_angle_gamma 90.000000
_cell_volume 2862.937168
_symmetry_space_group_name_H-M "C 2/M"
_symmetry_group_IT_number 12
_symmetry_cell_setting 'monoclinic'
loop_
_space_group_symop_operation_xyz
x,y,z
-x,y,-z
-x,-y,-z
x,-y,z
1/2+x,1/2+y,z
1/2-x,1/2+y,-z
1/2-x,1/2-y,-z
1/2+x,1/2-y,z
loop_
_atom_site_type_symbol
_atom_site_label
_atom_site_fract_x
_atom_site_fract_y
_atom_site_fract_z
Si Si1 0.470459 0.890585 0.115319
Si Si2 0.947720 0.198647 0.387505
Si Si3 0.800075 0.887462 0.214618
Si Si4 0.719098 0.387394 0.578383
Si Si5 0.222434 0.607344 0.859679
Si Si6 0.839965 0.701584 0.953149
Si Si7 0.545171 0.109615 0.665072
O O1 0.640005 0.863541 0.175193
O O2 0.425597 0.886284 0.164035
O O3 0.452353 0.000000 0.088465
O O4 0.353794 0.827925 0.027053
O O5 0.922020 0.159220 0.310236
O O6 0.821232 0.157732 0.375985
O O7 0.102364 0.160704 0.482131
O O8 0.941605 0.311667 0.379407
O O9 0.786627 0.848109 0.142141
O O10 0.816873 0.000000 0.221465
O O11 0.690122 0.500000 0.569302
O O12 0.886583 0.375084 0.628489
O O13 0.279658 0.500000 0.890887
O O14 0.327212 0.688704 0.930986
O O15 0.173710 0.623674 0.770914
O O16 0.000000 0.664278 0.000000
O O17 0.550561 0.000000 0.648055
#
# Coordination Sequence:
#
# PCOD9173142 Si02
#       7
#     8   8   8   8   8   8   8
#     4   9  18  31  50  73  99 129 166 212 261 311
#     4  11  19  34  57  83 109 141 177 221 269 313
#     4  10  18  30  50  76 102 129 164 211 266 316
#     4  10  21  36  57  86 112 138 178 223 267 320
#     4  10  19  33  50  70  96 135 177 210 247 305
#     4  10  19  31  47  73 100 130 165 210 261 308
#     4  10  21  37  56  80 110 145 184 219 260 321
#
# _framework density 19.560331999999999
#
# number of rings (size 3 to 8) (size 9 to 14) (size 15 to 20)
#    0.000    2.000    1.429    3.857    0.000    4.286 
#    0.000    1.429    0.000    2.571    0.000    0.000 
#    0.000    0.000    0.000    0.000    0.000    0.000 
#
# Total GULP energy -156167.848703 kJ/mol
# GULP energy per Si atom -5577.423168 kJ/mol
# Density = 1.951581 g / cm^3
# Si number density = 19.560332 Si / 1000 Ang^3
#
#
#
# Elastic Constant Matrix: (Units=GPa)
#
#
# Indices 1 2 3 4 5 6 
#
# 1 14.0495 13.2036 -0.2494 0.0000 -3.3808 0.0000
# 2 13.2036 111.6407 42.2652 0.0000 -15.3114 0.0000
# 3 -0.2494 42.2652 82.4945 0.0000 -14.1540 0.0000
# 4 0.0000 0.0000 0.0000 25.5738 0.0000 -9.5052
# 5 -3.3808 -15.3114 -14.1540 0.0000 16.3347 0.0000
# 6 0.0000 0.0000 0.0000 -9.5052 0.0000 21.6760
#
#
#
# Elastic Compliance Matrix: (Units=1/GPa)
#
#
# Indices 1 2 3 4 5 6 
#
# 1 0.085494 -0.011371 0.008565 0.000000 0.014457 0.000000
# 2 -0.011371 0.013234 -0.005979 0.000000 0.004870 0.000000
# 3 0.008565 -0.005979 0.017095 0.000000 0.010981 0.000000
# 4 0.000000 0.000000 0.000000 0.046717 0.000000 0.020486
# 5 0.014457 0.004870 0.010981 0.000000 0.078292 0.000000
# 6 0.000000 0.000000 0.000000 0.020486 0.000000 0.055117
#
#
# Mechanical properties :
#
#
# Convention : Reuss Voigt Hill
#
# Bulk Modulus (GPa) = 10.17780 35.40262 22.79021
# Shear Modulus (GPa) = 14.43960 22.91459 18.67709
#
# Velocity S-wave (km/s) = 2.71995 3.42641 3.09341
# Velocity P-wave (km/s) = 3.88313 5.81310 4.94322
#
# Compressibility (1/GPa) = 0.09825303
#
# Stress axis : x y z
#
# Youngs Moduli (GPa) = 11.69672 75.56526 58.49583
#
# Poissons Ratio (x) = 0.85925 -0.50101
# Poissons Ratio (y) = 0.13300 0.34974
# Poissons Ratio (z) = -0.10018 0.45179
#
# Static dielectric constant tensor:
#      x y z
#    x 1.713130 0.000000 -0.017540 
#    y 0.000000 1.696370 0.000000 
#    z -0.017540 0.000000 1.692630 
# 
# From -- ./inp_files/339941.got.cif
#   From: 2010.05.17/outbox.cif.g08.bks.cpg/sg12_170_cif.got.tgz:339941.got - 2010.06.03 13:09:07.
