data_PCOD9173607
_publ_section_title
;
Structure prediction by ZEFSAII (Michael W. Deem and Ramdas Pophale) SiO2 
 PCOD9173607
Probable space group: C 2/M
;
_chemical_formula_sum "Si O2"
_cell_formula_units_Z 40
_cell_length_a 29.672096
_cell_length_b 7.545583
_cell_length_c 27.374758
_cell_angle_alpha 90.000000
_cell_angle_beta 22.557927
_cell_angle_gamma 90.000000
_cell_volume 2351.199565
_symmetry_space_group_name_H-M "C 2/M"
_symmetry_group_IT_number 12
_symmetry_cell_setting 'monoclinic'
loop_
_space_group_symop_operation_xyz
x,y,z
-x,y,-z
-x,-y,-z
x,-y,z
1/2+x,1/2+y,z
1/2-x,1/2+y,-z
1/2-x,1/2-y,-z
1/2+x,1/2-y,z
loop_
_atom_site_type_symbol
_atom_site_label
_atom_site_fract_x
_atom_site_fract_y
_atom_site_fract_z
Si Si1 0.482717 0.500000 0.099443
Si Si2 0.849773 0.214755 0.790898
Si Si3 0.195070 0.000000 0.808666
Si Si4 0.889176 0.210876 0.855813
Si Si5 0.076227 0.297173 0.072367
Si Si6 0.616862 0.711360 0.351890
O O1 0.368510 0.500000 0.179926
O O2 0.495561 0.670195 0.121360
O O3 0.593487 0.500000 0.951419
O O4 0.915043 0.275995 0.774872
O O5 0.900565 0.263128 0.687564
O O6 0.848958 0.000000 0.794784
O O7 0.711992 0.267230 0.930219
O O8 0.276670 0.171605 0.734629
O O9 0.947724 0.289528 0.845523
O O10 0.907132 0.000000 0.840270
O O11 0.750000 0.250000 0.000000
O O12 0.070051 0.500000 0.061899
O O13 0.500000 0.743695 0.500000
O O14 0.642848 0.500000 0.327449
#
# Coordination Sequence:
#
# PCOD9173607 Si02
#       6
#     4   8   4   8   8   8
#     4  11  22  34  52  74 104 146 171 208 252 298
#     4   8  15  27  45  72 102 133 160 202 255 307
#     4  11  23  36  52  76 103 139 182 206 249 306
#     4   9  15  24  42  68 101 133 162 195 253 313
#     4  10  18  31  47  70 104 136 165 206 251 306
#     4  10  20  36  56  76 105 134 170 218 261 298
#
# _framework density 17.012592999999999
#
# number of rings (size 3 to 8) (size 9 to 14) (size 15 to 20)
#    0.000    2.400    3.000    2.100    0.000    0.800 
#    1.800    2.000    0.000    0.000    0.000    1.400 
#    0.000    0.000    0.000    0.000    0.000    0.000 
#
# Total GULP energy -111436.039554 kJ/mol
# GULP energy per Si atom -5571.801978 kJ/mol
# Density = 1.697387 g / cm^3
# Si number density = 17.012593 Si / 1000 Ang^3
#
#
#
# Elastic Constant Matrix: (Units=GPa)
#
#
# Indices 1 2 3 4 5 6 
#
# 1 169.6202 42.1510 44.7322 0.0002 10.1547 -0.0001
# 2 42.1510 76.2582 18.8445 -0.0012 -4.0088 0.0002
# 3 44.7322 18.8445 46.4466 -0.0040 10.0729 0.0005
# 4 0.0002 -0.0012 -0.0040 8.3667 0.0003 -2.2553
# 5 10.1547 -4.0088 10.0729 0.0003 20.8752 -0.0002
# 6 -0.0001 0.0002 0.0005 -2.2553 -0.0002 21.1077
#
#
#
# Elastic Compliance Matrix: (Units=1/GPa)
#
#
# Indices 1 2 3 4 5 6 
#
# 1 0.008508 -0.003162 -0.006569 -0.000004 -0.001576 0.000000
# 2 -0.003162 0.016535 -0.005233 0.000000 0.007239 0.000000
# 3 -0.006569 -0.005233 0.032953 0.000016 -0.013710 0.000001
# 4 -0.000004 0.000000 0.000016 0.123066 -0.000008 0.013149
# 5 -0.001576 0.007239 -0.013710 -0.000008 0.056676 0.000000
# 6 0.000000 0.000000 0.000001 0.013149 0.000000 0.048781
#
#
# Mechanical properties :
#
#
# Convention : Reuss Voigt Hill
#
# Bulk Modulus (GPa) = 35.62839 55.97563 45.80201
# Shear Modulus (GPa) = 15.34661 22.50972 18.92816
#
# Velocity S-wave (km/s) = 3.00671 3.64142 3.33918
# Velocity P-wave (km/s) = 5.74818 7.11715 6.46898
#
# Compressibility (1/GPa) = 0.02806751
#
# Stress axis : x y z
#
# Youngs Moduli (GPa) = 117.53399 60.47800 30.34595
#
# Poissons Ratio (x) = 0.19125 0.19935
# Poissons Ratio (y) = 0.37168 0.15880
# Poissons Ratio (z) = 0.77211 0.31647
#
# Static dielectric constant tensor:
#      x y z
#    x 1.615430 0.000000 0.036000 
#    y 0.000000 1.628350 0.000000 
#    z 0.036000 0.000000 1.533900 
# 
# From -- ./inp_files/101136.got.cif
#   From: 2010.05.17/outbox.cif.g08.bks.cpg/sg12_51_cif.got.tgz:101136.got - 2010.06.03 13:09:07.
