data_PCOD9173292
_publ_section_title
;
Structure prediction by ZEFSAII (Michael W. Deem and Ramdas Pophale) SiO2 
 PCOD9173292
Probable space group: C 2/M
;
_chemical_formula_sum "Si O2"
_cell_formula_units_Z 56
_cell_length_a 18.530863
_cell_length_b 8.764755
_cell_length_c 23.278145
_cell_angle_alpha 90.000000
_cell_angle_beta 54.663337
_cell_angle_gamma 90.000000
_cell_volume 3084.255006
_symmetry_space_group_name_H-M "C 2/M"
_symmetry_group_IT_number 12
_symmetry_cell_setting 'monoclinic'
loop_
_space_group_symop_operation_xyz
x,y,z
-x,y,-z
-x,-y,-z
x,-y,z
1/2+x,1/2+y,z
1/2-x,1/2+y,-z
1/2-x,1/2-y,-z
1/2+x,1/2-y,z
loop_
_atom_site_type_symbol
_atom_site_label
_atom_site_fract_x
_atom_site_fract_y
_atom_site_fract_z
Si Si1 0.908666 0.315480 0.567728
Si Si2 0.238427 0.817267 0.568297
Si Si3 0.323185 0.318169 0.124792
Si Si4 0.286779 0.184359 0.719924
Si Si5 0.870735 0.681281 0.285039
Si Si6 0.485531 0.682043 0.137714
Si Si7 0.333804 0.818835 0.994324
O O1 0.915292 0.500000 0.564874
O O2 0.826759 0.276781 0.563938
O O3 0.878411 0.273202 0.646442
O O4 0.000000 0.253950 0.500000
O O5 0.250000 0.750000 0.500000
O O6 0.154832 0.749854 0.641386
O O7 0.231738 0.000000 0.569893
O O8 0.323269 0.500000 0.112704
O O9 0.236616 0.281733 0.203431
O O10 0.408342 0.286175 0.126060
O O11 0.328278 0.228458 0.063548
O O12 0.211005 0.265885 0.717650
O O13 0.274720 0.000000 0.718916
O O14 0.876122 0.500000 0.285734
O O15 0.954662 0.748526 0.212719
O O16 0.491655 0.500000 0.140017
O O17 0.576598 0.750781 0.073556
O O18 0.334301 0.000000 0.988334
O O19 0.250000 0.750000 0.000000
#
# Coordination Sequence:
#
# PCOD9173292 Si02
#       7
#     8   8   8   8   8   8   8
#     4   8  14  27  49  75 100 130 170 212 254 303
#     4  10  19  32  50  73 104 139 175 217 264 313
#     4   9  18  34  56  80 106 137 174 217 266 318
#     4   8  15  29  50  75 103 135 169 212 265 312
#     4  10  18  30  51  78 105 134 173 217 259 307
#     4  10  20  37  60  83 107 135 171 217 267 317
#     4  12  25  39  55  77 108 143 178 216 263 318
#
# _framework density 18.156735000000001
#
# number of rings (size 3 to 8) (size 9 to 14) (size 15 to 20)
#    0.000    2.429    0.000    5.571    0.000    4.571 
#    0.000    1.429    0.000   14.143    0.000    0.000 
#    0.000    0.000    0.000    0.000    0.000    0.000 
#
# Total GULP energy -156090.909051 kJ/mol
# GULP energy per Si atom -5574.675323 kJ/mol
# Density = 1.811541 g / cm^3
# Si number density = 18.156735 Si / 1000 Ang^3
#
#
#
# Elastic Constant Matrix: (Units=GPa)
#
#
# Indices 1 2 3 4 5 6 
#
# 1 45.4279 36.1589 67.2926 0.0000 -12.0587 0.0001
# 2 36.1589 79.7316 80.7411 0.0001 1.8260 0.0003
# 3 67.2926 80.7411 222.3773 0.0000 -16.5360 0.0000
# 4 0.0000 0.0001 0.0000 32.6337 0.0000 4.0471
# 5 -12.0587 1.8260 -16.5360 0.0000 26.4250 0.0000
# 6 0.0001 0.0003 0.0000 4.0471 0.0000 19.2139
#
#
#
# Elastic Compliance Matrix: (Units=1/GPa)
#
#
# Indices 1 2 3 4 5 6 
#
# 1 0.052488 -0.015226 -0.008910 0.000000 0.019428 0.000000
# 2 -0.015226 0.025257 -0.005464 0.000000 -0.012112 0.000000
# 3 -0.008910 -0.005464 0.009337 0.000000 0.002154 0.000000
# 4 0.000000 0.000000 0.000000 0.031465 0.000000 -0.006628
# 5 0.019428 -0.012112 0.002154 0.000000 0.048894 0.000000
# 6 0.000000 0.000000 0.000000 -0.006628 0.000000 0.053442
#
#
# Mechanical properties :
#
#
# Convention : Reuss Voigt Hill
#
# Bulk Modulus (GPa) = 35.86387 79.54689 57.70538
# Shear Modulus (GPa) = 17.27847 26.54413 21.91130
#
# Velocity S-wave (km/s) = 3.08819 3.82769 3.47765
# Velocity P-wave (km/s) = 5.70186 7.96500 6.92649
#
# Compressibility (1/GPa) = 0.02788322
#
# Stress axis : x y z
#
# Youngs Moduli (GPa) = 19.05191 39.59237 107.09827
#
# Poissons Ratio (x) = 0.60282 0.95429
# Poissons Ratio (y) = 0.29008 0.58517
# Poissons Ratio (z) = 0.16976 0.21633
#
# Static dielectric constant tensor:
#      x y z
#    x 1.615860 0.000000 -0.013290 
#    y 0.000000 1.599960 0.000000 
#    z -0.013290 0.000000 1.663230 
# 
# From -- ./inp_files/313778.got.cif
#   From: 2010.05.17/outbox.cif.g08.bks.cpg/sg12_157_cif.got.tgz:313778.got - 2010.06.03 13:09:07.
