data_PCOD9173898
_publ_section_title
;
Structure prediction by ZEFSAII (Michael W. Deem and Ramdas Pophale) SiO2 
 PCOD9173898
Probable space group: C 2/M
;
_chemical_formula_sum "Si O2"
_cell_formula_units_Z 52
_cell_length_a 5.512937
_cell_length_b 18.164615
_cell_length_c 24.860415
_cell_angle_alpha 90.000000
_cell_angle_beta 96.771365
_cell_angle_gamma 90.000000
_cell_volume 2472.165780
_symmetry_space_group_name_H-M "C 2/M"
_symmetry_group_IT_number 12
_symmetry_cell_setting 'monoclinic'
loop_
_space_group_symop_operation_xyz
x,y,z
-x,y,-z
-x,-y,-z
x,-y,z
1/2+x,1/2+y,z
1/2-x,1/2+y,-z
1/2-x,1/2-y,-z
1/2+x,1/2-y,z
loop_
_atom_site_type_symbol
_atom_site_label
_atom_site_fract_x
_atom_site_fract_y
_atom_site_fract_z
Si Si1 0.870929 0.909746 0.217815
Si Si2 0.467663 0.420054 0.062572
Si Si3 0.653979 0.088045 0.842956
Si Si4 0.600081 0.166255 0.622545
Si Si5 0.759579 0.275963 0.936987
Si Si6 0.123571 0.837491 0.666345
Si Si7 0.500000 0.795682 0.500000
O O1 0.617288 0.887603 0.181018
O O2 0.876087 0.860109 0.271498
O O3 0.120617 0.893086 0.191521
O O4 0.867208 0.000000 0.227329
O O5 0.403873 0.500000 0.083433
O O6 0.721528 0.395323 0.096103
O O7 0.253355 0.363179 0.065401
O O8 0.500000 0.423889 0.000000
O O9 0.633097 0.000000 0.841153
O O10 0.373786 0.131476 0.648156
O O11 0.622894 0.250693 0.647468
O O12 0.533848 0.165415 0.558072
O O13 0.867057 0.132601 0.637270
O O14 0.492714 0.251059 0.911463
O O15 0.750000 0.250000 0.000000
O O16 0.250000 0.750000 0.500000
#
# Coordination Sequence:
#
# PCOD9173898 Si02
#       7
#     8   8   8   8   8   8   4
#     4  10  20  37  58  77 105 145 183 227 279 328
#     4  10  20  38  65  92 113 144 195 244 286 348
#     4   9  20  37  56  81 107 134 178 234 282 324
#     4  10  19  30  51  81 111 142 175 227 276 314
#     4  10  20  38  58  77 113 151 171 214 271 342
#     4  10  18  31  51  74 104 139 181 226 260 312
#     4  12  16  30  48  80 114 148 182 218 280 336
#
# _framework density 21.034189000000001
#
# number of rings (size 3 to 8) (size 9 to 14) (size 15 to 20)
#    0.000    2.000    4.615    0.923    0.000    1.231 
#    0.000    3.846   20.308    0.000    0.000    5.923 
#    0.000    0.000    0.000    0.000    0.000    0.000 
#
# Total GULP energy -144842.373128 kJ/mol
# GULP energy per Si atom -5570.860505 kJ/mol
# Density = 2.098631 g / cm^3
# Si number density = 21.034189 Si / 1000 Ang^3
#
#
#
# Elastic Constant Matrix: (Units=GPa)
#
#
# Indices 1 2 3 4 5 6 
#
# 1 118.4018 9.4089 -10.2133 0.0000 13.6835 0.0000
# 2 9.4089 52.2800 8.9391 0.0000 6.2450 0.0000
# 3 -10.2133 8.9391 100.9461 0.0000 2.8011 0.0000
# 4 0.0000 0.0000 0.0000 15.7826 0.0000 -1.2119
# 5 13.6835 6.2450 2.8011 0.0000 31.0985 0.0000
# 6 0.0000 0.0000 0.0000 -1.2119 0.0000 13.9243
#
#
#
# Elastic Compliance Matrix: (Units=1/GPa)
#
#
# Indices 1 2 3 4 5 6 
#
# 1 0.009097 -0.001376 0.001149 0.000000 -0.003830 0.000000
# 2 -0.001376 0.020077 -0.001827 0.000000 -0.003262 0.000000
# 3 0.001149 -0.001827 0.010214 0.000000 -0.001058 0.000000
# 4 0.000000 0.000000 0.000000 0.063787 0.000000 0.005552
# 5 -0.003830 -0.003262 -0.001058 0.000000 0.034591 0.000000
# 6 0.000000 0.000000 0.000000 0.005552 0.000000 0.072300
#
#
# Mechanical properties :
#
#
# Convention : Reuss Voigt Hill
#
# Bulk Modulus (GPa) = 28.34513 31.98859 30.16686
# Shear Modulus (GPa) = 22.13031 29.72731 25.92881
#
# Velocity S-wave (km/s) = 3.24715 3.76345 3.51479
# Velocity P-wave (km/s) = 5.25010 5.84171 5.55379
#
# Compressibility (1/GPa) = 0.03527943
#
# Stress axis : x y z
#
# Youngs Moduli (GPa) = 109.92837 49.80726 97.90863
#
# Poissons Ratio (x) = 0.06854 -0.11245
# Poissons Ratio (y) = 0.15127 0.17884
# Poissons Ratio (z) = -0.12625 0.09098
#
# Static dielectric constant tensor:
#      x y z
#    x 1.812980 0.000000 -0.005150 
#    y 0.000000 1.775750 0.000000 
#    z -0.005150 0.000000 1.817040 
# 
# From -- ./inp_files/331284.got.cif
#   From: 2010.05.17/outbox.cif.g08.bks.cpg/sg12_166_cif.got.tgz:331284.got - 2010.06.03 13:09:07.
