data_PCOD9173337
_publ_section_title
;
Structure prediction by ZEFSAII (Michael W. Deem and Ramdas Pophale) SiO2 
 PCOD9173337
Probable space group: C 2/M
;
_chemical_formula_sum "Si O2"
_cell_formula_units_Z 64
_cell_length_a 11.956260
_cell_length_b 29.378121
_cell_length_c 10.545544
_cell_angle_alpha 90.000000
_cell_angle_beta 90.000082
_cell_angle_gamma 90.000000
_cell_volume 3704.148198
_symmetry_space_group_name_H-M "C 2/M"
_symmetry_group_IT_number 12
_symmetry_cell_setting 'monoclinic'
loop_
_space_group_symop_operation_xyz
x,y,z
-x,y,-z
-x,-y,-z
x,-y,z
1/2+x,1/2+y,z
1/2-x,1/2+y,-z
1/2-x,1/2-y,-z
1/2+x,1/2-y,z
loop_
_atom_site_type_symbol
_atom_site_label
_atom_site_fract_x
_atom_site_fract_y
_atom_site_fract_z
Si Si1 0.867038 0.386958 0.852800
Si Si2 0.132961 0.386958 0.852800
Si Si3 0.274849 0.300495 0.152782
Si Si4 0.750777 0.947031 0.640523
Si Si5 0.749222 0.552970 0.640522
Si Si6 0.774849 0.800495 0.847218
Si Si7 1.000000 0.948780 0.266771
Si Si8 0.500000 0.650017 0.151584
O O1 0.825871 0.335661 0.826238
O O2 0.804806 0.419299 0.753971
O O3 1.000000 0.391069 0.841458
O O4 0.835647 0.397218 1.000000
O O5 0.195193 0.419299 0.753972
O O6 0.174128 0.335661 0.826238
O O7 0.250000 0.250000 0.202466
O O8 0.388419 0.324664 0.200174
O O9 0.287500 0.296387 1.000000
O O10 0.719413 0.930171 0.500000
O O11 0.885217 0.945730 0.654860
O O12 0.717696 0.000000 0.650195
O O13 0.782302 0.500000 0.650195
O O14 0.614782 0.554271 0.654858
O O15 0.888419 0.824664 0.799826
O O16 1.000000 0.903648 0.181023
O O17 0.999999 0.000000 0.206760
O O18 0.500000 0.654230 0.000000
#
# Coordination Sequence:
#
# PCOD9173337 Si02
#       8
#     8   8   8   8   8   8   8   8
#     4  10  21  36  54  79 110 142 179 224 274 321
#     4  10  21  36  54  79 110 142 179 224 274 321
#     4   9  18  31  50  77 109 142 178 223 271 321
#     4  10  21  37  57  80 107 142 182 222 269 327
#     4  10  21  37  57  80 107 142 182 222 269 327
#     4   9  18  31  50  77 109 142 178 223 271 321
#     4  10  19  33  54  81 110 140 178 227 276 326
#     4  10  18  30  51  82 112 142 183 225 275 335
#
# _framework density 17.277925
#
# number of rings (size 3 to 8) (size 9 to 14) (size 15 to 20)
#    0.000    2.250    2.500    0.375    1.750    3.250 
#    0.000    5.000    0.000    0.750    0.000    0.000 
#    0.000    0.000    0.000    0.000    0.000    0.000 
#
# Total GULP energy -178259.447754 kJ/mol
# GULP energy per Si atom -5570.607742 kJ/mol
# Density = 1.723860 g / cm^3
# Si number density = 17.277925 Si / 1000 Ang^3
#
#
#
# Elastic Constant Matrix: (Units=GPa)
#
#
# Indices 1 2 3 4 5 6 
#
# 1 80.7492 51.5769 46.7537 0.0000 -0.0006 0.0000
# 2 51.5769 127.1126 57.6714 0.0000 -0.0007 0.0000
# 3 46.7537 57.6714 79.1463 0.0000 -0.0006 0.0000
# 4 0.0000 0.0000 0.0000 -7.0757 0.0000 0.0000
# 5 -0.0006 -0.0007 -0.0006 0.0000 7.5075 0.0000
# 6 0.0000 0.0000 0.0000 0.0000 0.0000 20.3557
#
#
#
# Elastic Compliance Matrix: (Units=1/GPa)
#
#
# Indices 1 2 3 4 5 6 
#
# 1 0.020191 -0.004155 -0.008900 0.000000 0.000000 0.000000
# 2 -0.004155 0.012607 -0.006732 0.000000 0.000000 0.000000
# 3 -0.008900 -0.006732 0.022798 0.000000 0.000001 0.000000
# 4 0.000000 0.000000 0.000000 -0.141329 0.000000 0.000000
# 5 0.000000 0.000000 0.000001 0.000000 0.133200 0.000000
# 6 0.000000 0.000000 0.000000 0.000000 0.000000 0.049126
#
#
# Mechanical properties :
#
#
# Convention : Reuss Voigt Hill
#
# Bulk Modulus (GPa) = 62.41300 66.55689 64.48494
# Shear Modulus (GPa) = 35.33403 12.89125 24.11264
#
# Velocity S-wave (km/s) = 4.52712 2.73447 3.73979
# Velocity P-wave (km/s) = 7.97043 6.96956 7.48674
#
# Compressibility (1/GPa) = 0.01602230
#
# Stress axis : x y z
#
# Youngs Moduli (GPa) = 49.52781 79.31928 43.86404
#
# Poissons Ratio (x) = 0.32955 0.39038
# Poissons Ratio (y) = 0.20577 0.29530
# Poissons Ratio (z) = 0.44079 0.53400
#
# Static dielectric constant tensor:
#      x y z
#    x 1.599680 0.000000 0.000000 
#    y 0.000000 1.587260 0.000000 
#    z 0.000000 0.000000 1.573700 
# 
# From -- ./inp_files/136679.got.cif
#   From: 2010.05.17/outbox.cif.g08.bks.cpg/sg12_69_cif.got.tgz:136679.got - 2010.06.03 13:09:07.
