data_PCOD9173849
_publ_section_title
;
Structure prediction by ZEFSAII (Michael W. Deem and Ramdas Pophale) SiO2 
 PCOD9173849
Probable space group: C 2/M
;
_chemical_formula_sum "Si O2"
_cell_formula_units_Z 48
_cell_length_a 10.049232
_cell_length_b 27.666762
_cell_length_c 10.127636
_cell_angle_alpha 90.000000
_cell_angle_beta 116.088863
_cell_angle_gamma 90.000000
_cell_volume 2528.892152
_symmetry_space_group_name_H-M "C 2/M"
_symmetry_group_IT_number 12
_symmetry_cell_setting 'monoclinic'
loop_
_space_group_symop_operation_xyz
x,y,z
-x,y,-z
-x,-y,-z
x,-y,z
1/2+x,1/2+y,z
1/2-x,1/2+y,-z
1/2-x,1/2-y,-z
1/2+x,1/2-y,z
loop_
_atom_site_type_symbol
_atom_site_label
_atom_site_fract_x
_atom_site_fract_y
_atom_site_fract_z
Si Si1 0.537732 0.765872 0.860333
Si Si2 0.119170 0.554312 0.169329
Si Si3 0.194346 0.826150 0.954883
Si Si4 0.000000 0.130464 0.500000
Si Si5 0.686579 0.154918 0.279049
Si Si6 0.000000 0.905484 0.000000
Si Si7 0.967936 0.947179 0.262422
O O1 0.565276 0.709545 0.843778
O O2 0.416860 0.799261 0.737139
O O3 0.500000 0.766235 0.000000
O O4 0.694428 0.793194 0.912012
O O5 0.093056 0.500000 0.214610
O O6 0.116433 0.601164 0.264442
O O7 0.287979 0.553063 0.187372
O O8 0.000000 0.560915 0.000000
O O9 0.282369 0.843728 0.865332
O O10 0.130756 0.869442 0.012305
O O11 0.153771 0.158353 0.583323
O O12 0.014747 0.095301 0.380297
O O13 0.026046 0.937041 0.141158
O O14 0.017137 0.000000 0.330845
#
# Coordination Sequence:
#
# PCOD9173849 Si02
#       7
#     8   8   8   4   8   4   8
#     4   9  18  30  52  77 107 137 179 224 270 316
#     4   9  16  28  48  76 103 126 167 224 273 308
#     4  10  18  31  50  81 107 138 172 223 277 315
#     4  10  19  36  54  76 104 144 184 218 257 318
#     4  10  19  33  52  75 105 141 185 223 259 317
#     4  12  19  32  52  82 110 134 171 226 274 320
#     4  10  21  34  53  80 107 141 176 219 274 326
#
# _framework density 18.980643000000001
#
# number of rings (size 3 to 8) (size 9 to 14) (size 15 to 20)
#    0.000    2.167    4.167    2.000    0.000    0.667 
#    0.000    0.833    0.000    1.000    0.000    1.167 
#    0.000    0.000    0.000    0.000    0.000    0.000 
#
# Total GULP energy -133642.177823 kJ/mol
# GULP energy per Si atom -5568.424076 kJ/mol
# Density = 1.893744 g / cm^3
# Si number density = 18.980643 Si / 1000 Ang^3
#
#
#
# Elastic Constant Matrix: (Units=GPa)
#
#
# Indices 1 2 3 4 5 6 
#
# 1 30.0521 6.9368 6.5488 0.0000 2.0531 0.0000
# 2 6.9368 91.7228 7.6191 0.0000 17.1282 0.0000
# 3 6.5488 7.6191 51.3778 0.0000 15.3327 0.0000
# 4 0.0000 0.0000 0.0000 26.3702 0.0000 18.3468
# 5 2.0531 17.1282 15.3327 0.0000 29.5143 0.0000
# 6 0.0000 0.0000 0.0000 18.3468 0.0000 22.0752
#
#
#
# Elastic Compliance Matrix: (Units=1/GPa)
#
#
# Indices 1 2 3 4 5 6 
#
# 1 0.034734 -0.002510 -0.004460 0.000000 0.001357 0.000000
# 2 -0.002510 0.012415 0.000683 0.000000 -0.007385 0.000000
# 3 -0.004460 0.000683 0.023618 0.000000 -0.012356 0.000000
# 4 0.000000 0.000000 0.000000 0.089911 0.000000 -0.074726
# 5 0.001357 -0.007385 -0.012356 0.000000 0.044492 0.000000
# 6 0.000000 0.000000 0.000000 -0.074726 0.000000 0.107405
#
#
# Mechanical properties :
#
#
# Convention : Reuss Voigt Hill
#
# Bulk Modulus (GPa) = 17.18451 23.92913 20.55682
# Shear Modulus (GPa) = 14.51183 25.72848 20.12016
#
# Velocity S-wave (km/s) = 2.76807 3.68572 3.25935
# Velocity P-wave (km/s) = 4.39199 5.54502 5.00184
#
# Compressibility (1/GPa) = 0.05819195
#
# Stress axis : x y z
#
# Youngs Moduli (GPa) = 28.79021 80.55091 42.34028
#
# Poissons Ratio (x) = 0.20217 0.18885
# Poissons Ratio (y) = 0.07226 -0.02890
# Poissons Ratio (z) = 0.12841 -0.05499
#
# Static dielectric constant tensor:
#      x y z
#    x 1.664220 0.000000 0.031510 
#    y 0.000000 1.756520 0.000000 
#    z 0.031510 0.000000 1.661590 
# 
# From -- ./inp_files/136780.got.cif
#   From: 2010.05.17/outbox.cif.g08.bks.cpg/sg12_69_cif.got.tgz:136780.got - 2010.06.03 13:09:07.
