data_PCOD9173208
_publ_section_title
;
Structure prediction by ZEFSAII (Michael W. Deem and Ramdas Pophale) SiO2 
 PCOD9173208
Probable space group: C 2/M
;
_chemical_formula_sum "Si O2"
_cell_formula_units_Z 56
_cell_length_a 14.091659
_cell_length_b 11.710170
_cell_length_c 26.901401
_cell_angle_alpha 90.000000
_cell_angle_beta 149.351766
_cell_angle_gamma 90.000000
_cell_volume 2262.929148
_symmetry_space_group_name_H-M "C 2/M"
_symmetry_group_IT_number 12
_symmetry_cell_setting 'monoclinic'
loop_
_space_group_symop_operation_xyz
x,y,z
-x,y,-z
-x,-y,-z
x,-y,z
1/2+x,1/2+y,z
1/2-x,1/2+y,-z
1/2-x,1/2-y,-z
1/2+x,1/2-y,z
loop_
_atom_site_type_symbol
_atom_site_label
_atom_site_fract_x
_atom_site_fract_y
_atom_site_fract_z
Si Si1 0.636437 0.866667 0.002324
Si Si2 0.587304 0.366871 0.782805
Si Si3 0.028304 0.875823 0.922656
Si Si4 0.358617 0.374071 0.302705
Si Si5 0.147918 0.123838 0.520615
Si Si6 0.619621 0.124644 0.503548
Si Si7 0.769720 0.835377 0.714772
O O1 0.765419 0.836471 0.108083
O O2 0.773007 0.873600 0.016357
O O3 0.564893 0.000000 0.975852
O O4 0.513902 0.751204 0.940299
O O5 0.615773 0.500000 0.788364
O O6 0.610117 0.320128 0.737510
O O7 0.384625 0.359648 0.716933
O O8 0.876225 0.882589 0.810138
O O9 0.017449 0.000000 0.944974
O O10 0.281058 0.500000 0.262830
O O11 0.539342 0.380878 0.419256
O O12 0.220463 0.299511 0.272908
O O13 0.000000 0.125338 0.500000
O O14 0.224579 0.253441 0.552619
O O15 0.249099 0.000000 0.571141
O O16 0.500000 0.121150 0.500000
O O17 0.447987 0.132351 0.386587
O O18 0.714739 0.000000 0.542172
#
# Coordination Sequence:
#
# PCOD9173208 Si02
#       7
#     8   8   8   8   8   8   8
#     4   8  15  28  47  71  98 128 168 218 259 297
#     4   9  17  32  53  75  99 133 178 219 255 305
#     4   9  16  27  46  71  98 132 170 207 258 317
#     4   9  18  31  50  76 102 131 173 218 257 306
#     4   8  14  26  45  67  92 125 162 201 248 298
#     4   9  16  26  44  70  97 127 163 203 250 301
#     4  10  18  30  51  73 100 133 172 214 260 308
#
# _framework density 24.746687000000001
#
# number of rings (size 3 to 8) (size 9 to 14) (size 15 to 20)
#    0.000    3.143    0.000    2.143    0.000    0.571 
#    0.000    2.857    0.000   27.429    0.000   14.000 
#    0.000    0.000    0.000    0.000    0.000    0.000 
#
# Total GULP energy -155947.799402 kJ/mol
# GULP energy per Si atom -5569.564264 kJ/mol
# Density = 2.469036 g / cm^3
# Si number density = 24.746687 Si / 1000 Ang^3
#
#
#
# Elastic Constant Matrix: (Units=GPa)
#
#
# Indices 1 2 3 4 5 6 
#
# 1 56.0637 11.8873 3.8950 0.0001 -15.9683 0.0000
# 2 11.8873 226.2856 36.7369 0.0000 7.0417 0.0000
# 3 3.8950 36.7369 90.9576 0.0000 -9.8442 0.0000
# 4 0.0001 0.0000 0.0000 21.0750 0.0000 -4.8246
# 5 -15.9683 7.0417 -9.8442 0.0000 27.6441 0.0000
# 6 0.0000 0.0000 0.0000 -4.8246 0.0000 19.1487
#
#
#
# Elastic Compliance Matrix: (Units=1/GPa)
#
#
# Indices 1 2 3 4 5 6 
#
# 1 0.022004 -0.001783 0.001251 0.000000 0.013610 0.000000
# 2 -0.001783 0.004978 -0.002270 0.000000 -0.003106 0.000000
# 3 0.001251 -0.002270 0.012479 0.000000 0.005745 0.000000
# 4 0.000000 0.000000 0.000000 0.050354 0.000000 0.012687
# 5 0.013610 -0.003106 0.005745 0.000000 0.046873 0.000000
# 6 0.000000 0.000000 0.000000 0.012687 0.000000 0.055419
#
#
# Mechanical properties :
#
#
# Convention : Reuss Voigt Hill
#
# Bulk Modulus (GPa) = 29.53588 53.14950 41.34269
# Shear Modulus (GPa) = 23.92366 34.95940 29.44153
#
# Velocity S-wave (km/s) = 3.11262 3.76265 3.45297
# Velocity P-wave (km/s) = 4.98789 6.35616 5.71314
#
# Compressibility (1/GPa) = 0.03385713
#
# Stress axis : x y z
#
# Youngs Moduli (GPa) = 45.44555 200.87996 80.13249
#
# Poissons Ratio (x) = 0.35807 -0.10022
# Poissons Ratio (y) = 0.08101 0.18194
# Poissons Ratio (z) = -0.05684 0.45609
#
# Static dielectric constant tensor:
#      x y z
#    x 1.979980 0.000000 -0.019750 
#    y 0.000000 2.044930 0.000000 
#    z -0.019750 0.000000 2.042190 
# 
# From -- ./inp_files/360826.got.cif
#   From: 2010.05.17/outbox.cif.g08.bks.cpg/sg12_181_cif.got.tgz:360826.got - 2010.06.03 13:09:07.
