data_PCOD9173590
_publ_section_title
;
Structure prediction by ZEFSAII (Michael W. Deem and Ramdas Pophale) SiO2 
 PCOD9173590
Probable space group: C 2/M
;
_chemical_formula_sum "Si O2"
_cell_formula_units_Z 48
_cell_length_a 13.393074
_cell_length_b 19.391096
_cell_length_c 18.251260
_cell_angle_alpha 90.000000
_cell_angle_beta 32.841837
_cell_angle_gamma 90.000000
_cell_volume 2570.588574
_symmetry_space_group_name_H-M "C 2/M"
_symmetry_group_IT_number 12
_symmetry_cell_setting 'monoclinic'
loop_
_space_group_symop_operation_xyz
x,y,z
-x,y,-z
-x,-y,-z
x,-y,z
1/2+x,1/2+y,z
1/2-x,1/2+y,-z
1/2-x,1/2-y,-z
1/2+x,1/2-y,z
loop_
_atom_site_type_symbol
_atom_site_label
_atom_site_fract_x
_atom_site_fract_y
_atom_site_fract_z
Si Si1 0.617762 0.648497 0.659689
Si Si2 0.449602 0.781453 0.209976
Si Si3 0.813457 0.811442 0.047807
Si Si4 0.101947 0.081107 0.828279
Si Si5 0.512059 0.149499 0.405555
Si Si6 0.176271 0.788738 0.256865
O O1 0.640197 0.726579 0.678852
O O2 0.588549 0.601256 0.749555
O O3 0.809704 0.628953 0.502333
O O4 0.442509 0.655861 0.714676
O O5 0.601142 0.827011 0.157561
O O6 0.303456 0.814419 0.244948
O O7 0.577380 0.732615 0.080572
O O8 0.795196 0.758028 0.126636
O O9 0.933733 0.880231 0.971533
O O10 0.300171 0.110904 0.733150
O O11 0.095938 0.000000 0.841235
O O12 0.500000 0.137320 0.500000
O O13 0.543635 0.230098 0.371533
#
# Coordination Sequence:
#
# PCOD9173590 Si02
#       6
#     8   8   8   8   8   8
#     4   9  19  31  48  75  96 133 166 197 249 293
#     4   9  16  29  48  69 100 124 158 206 253 291
#     4   9  18  29  45  72  93 132 168 197 245 291
#     4  10  20  35  50  68 104 140 164 201 240 290
#     4  10  18  31  46  71 104 129 161 201 247 296
#     4  11  17  29  53  71 103 127 159 210 252 297
#
# _framework density 18.672765999999999
#
# number of rings (size 3 to 8) (size 9 to 14) (size 15 to 20)
#    0.000    2.333    5.000    2.000    0.000    3.000 
#    0.000    1.667    0.000    2.000    0.000    0.000 
#    0.000    0.667    0.000    0.833    0.000    0.000 
#
# Total GULP energy -133606.450891 kJ/mol
# GULP energy per Si atom -5566.935454 kJ/mol
# Density = 1.863027 g / cm^3
# Si number density = 18.672766 Si / 1000 Ang^3
#
#
#
# Elastic Constant Matrix: (Units=GPa)
#
#
# Indices 1 2 3 4 5 6 
#
# 1 115.5831 16.0385 21.4307 0.0033 -33.2539 0.0009
# 2 16.0385 56.3500 19.0520 0.0077 -11.7390 -0.0020
# 3 21.4307 19.0520 85.2643 0.0185 -18.3048 0.0007
# 4 0.0033 0.0077 0.0185 10.0853 -0.0007 0.3601
# 5 -33.2539 -11.7390 -18.3048 -0.0007 19.6621 0.0002
# 6 0.0009 -0.0020 0.0007 0.3601 0.0002 14.1989
#
#
#
# Elastic Compliance Matrix: (Units=1/GPa)
#
#
# Indices 1 2 3 4 5 6 
#
# 1 0.017282 0.000958 0.002300 -0.000008 0.031942 -0.000001
# 2 0.000958 0.020725 -0.002334 -0.000011 0.011821 0.000003
# 3 0.002300 -0.002334 0.015257 -0.000026 0.016699 -0.000001
# 4 -0.000008 -0.000011 -0.000026 0.099244 -0.000041 -0.002517
# 5 0.031942 0.011821 0.016699 -0.000041 0.127485 -0.000002
# 6 -0.000001 0.000003 -0.000001 -0.002517 -0.000002 0.070492
#
#
# Mechanical properties :
#
#
# Convention : Reuss Voigt Hill
#
# Bulk Modulus (GPa) = 18.14520 41.13773 29.64147
# Shear Modulus (GPa) = 13.62362 22.16767 17.89564
#
# Velocity S-wave (km/s) = 2.70404 3.44926 3.09913
# Velocity P-wave (km/s) = 4.41448 6.15970 5.35862
#
# Compressibility (1/GPa) = 0.05511099
#
# Stress axis : x y z
#
# Youngs Moduli (GPa) = 57.86259 48.25024 65.54431
#
# Poissons Ratio (x) = -0.04621 -0.15072
# Poissons Ratio (y) = -0.05542 0.15298
# Poissons Ratio (z) = -0.13306 0.11262
#
# Static dielectric constant tensor:
#      x y z
#    x 1.773660 0.000000 -0.014140 
#    y 0.000000 1.599750 0.000000 
#    z -0.014140 0.000000 1.716950 
# 
# From -- ./inp_files/311931.got.cif
#   From: 2010.05.17/outbox.cif.g08.bks.cpg/sg12_156_cif.got.tgz:311931.got - 2010.06.03 13:09:07.
