data_PCOD9173795
_publ_section_title
;
Structure prediction by ZEFSAII (Michael W. Deem and Ramdas Pophale) SiO2 
 PCOD9173795
Probable space group: C 2/M
;
_chemical_formula_sum "Si O2"
_cell_formula_units_Z 64
_cell_length_a 20.948833
_cell_length_b 7.535126
_cell_length_c 22.992649
_cell_angle_alpha 90.000000
_cell_angle_beta 117.185322
_cell_angle_gamma 90.000000
_cell_volume 3228.506340
_symmetry_space_group_name_H-M "C 2/M"
_symmetry_group_IT_number 12
_symmetry_cell_setting 'monoclinic'
loop_
_space_group_symop_operation_xyz
x,y,z
-x,y,-z
-x,-y,-z
x,-y,z
1/2+x,1/2+y,z
1/2-x,1/2+y,-z
1/2-x,1/2-y,-z
1/2+x,1/2-y,z
loop_
_atom_site_type_symbol
_atom_site_label
_atom_site_fract_x
_atom_site_fract_y
_atom_site_fract_z
Si Si1 0.304787 0.204154 0.935408
Si Si2 0.505767 0.286175 0.409475
Si Si3 0.384705 0.716612 0.443572
Si Si4 0.656820 0.710456 0.919841
Si Si5 0.558733 0.782406 0.072407
Si Si6 0.420007 0.209708 0.677946
Si Si7 0.503369 0.214067 0.174908
Si Si8 0.234852 0.286850 0.426013
O O1 0.225430 0.280958 0.912496
O O2 0.363009 0.281282 0.915616
O O3 0.294225 0.000000 0.913121
O O4 0.340767 0.208175 0.014568
O O5 0.505543 0.500000 0.409943
O O6 0.568522 0.229681 0.480465
O O7 0.430560 0.226808 0.406506
O O8 0.525802 0.229310 0.353426
O O9 0.383968 0.500000 0.442988
O O10 0.303410 0.778033 0.417772
O O11 0.667743 0.500000 0.932730
O O12 0.580609 0.740091 0.858822
O O13 0.535690 0.724256 0.126869
O O14 0.559635 0.000000 0.072211
O O15 0.500000 0.728271 0.000000
O O16 0.453779 0.282274 0.751283
O O17 0.342393 0.283421 0.626487
O O18 0.409669 0.000000 0.683060
O O19 0.507602 0.000000 0.176450
O O20 0.233151 0.500000 0.419639
O O21 0.250000 0.250000 0.500000
#
# Coordination Sequence:
#
# PCOD9173795 Si02
#       8
#     8   8   8   8   8   8   8   8
#     4   9  17  31  51  75 100 124 159 205 246 287
#     4   9  16  30  51  72  96 128 161 196 241 292
#     4   8  15  28  49  74  97 123 160 201 241 287
#     4  10  19  30  48  76 103 126 159 203 246 294
#     4   9  15  28  53  75  91 125 173 205 234 286
#     4  10  21  33  48  73 102 130 163 204 253 301
#     4  10  20  35  51  68  98 136 167 203 250 296
#     4  10  18  31  50  74 100 127 164 205 247 293
#
# _framework density 19.823408000000001
#
# number of rings (size 3 to 8) (size 9 to 14) (size 15 to 20)
#    0.000    2.625    2.500    1.125    0.000    1.000 
#    0.000    4.375    0.000    4.500    0.000    0.000 
#    0.000    0.000    0.000    0.000    0.000    0.000 
#
# Total GULP energy -178497.289576 kJ/mol
# GULP energy per Si atom -5578.040299 kJ/mol
# Density = 1.977829 g / cm^3
# Si number density = 19.823408 Si / 1000 Ang^3
#
#
#
# Elastic Constant Matrix: (Units=GPa)
#
#
# Indices 1 2 3 4 5 6 
#
# 1 188.3803 1.2921 98.5785 0.0000 4.2967 0.0000
# 2 1.2921 51.2178 -0.4247 0.0000 0.3591 -0.0001
# 3 98.5785 -0.4247 138.2438 0.0000 1.3385 0.0000
# 4 0.0000 0.0000 0.0000 11.6996 0.0000 0.5592
# 5 4.2967 0.3591 1.3385 0.0000 24.3923 0.0000
# 6 0.0000 -0.0001 0.0000 0.5592 0.0000 9.4026
#
#
#
# Elastic Compliance Matrix: (Units=1/GPa)
#
#
# Indices 1 2 3 4 5 6 
#
# 1 0.008505 -0.000257 -0.006054 0.000000 -0.001162 0.000000
# 2 -0.000257 0.019535 0.000245 0.000000 -0.000256 0.000000
# 3 -0.006054 0.000245 0.011547 0.000000 0.000429 0.000000
# 4 0.000000 0.000000 0.000000 0.085717 0.000000 -0.005098
# 5 -0.001162 -0.000256 0.000429 0.000000 0.041182 0.000000
# 6 0.000000 0.000000 0.000000 -0.005098 0.000000 0.106657
#
#
# Mechanical properties :
#
#
# Convention : Reuss Voigt Hill
#
# Bulk Modulus (GPa) = 36.42150 64.08151 50.25151
# Shear Modulus (GPa) = 16.98229 27.65862 22.32046
#
# Velocity S-wave (km/s) = 2.93008 3.73936 3.35918
# Velocity P-wave (km/s) = 5.46443 7.14423 6.36004
#
# Compressibility (1/GPa) = 0.02745631
#
# Stress axis : x y z
#
# Youngs Moduli (GPa) = 117.58147 51.19077 86.60099
#
# Poissons Ratio (x) = 0.01314 0.52429
# Poissons Ratio (y) = 0.03017 -0.02126
# Poissons Ratio (z) = 0.71185 -0.01257
#
# Static dielectric constant tensor:
#      x y z
#    x 1.722950 0.000000 0.009160 
#    y 0.000000 1.777930 0.000000 
#    z 0.009160 0.000000 1.656910 
# 
# From -- ./inp_files/345612.got.cif
#   From: 2010.05.17/outbox.cif.g08.bks.cpg/sg12_173_cif.got.tgz:345612.got - 2010.06.03 13:09:07.
