data_PCOD9173273
_publ_section_title
;
Structure prediction by ZEFSAII (Michael W. Deem and Ramdas Pophale) SiO2 
 PCOD9173273
Probable space group: C 2/M
;
_chemical_formula_sum "Si O2"
_cell_formula_units_Z 48
_cell_length_a 18.560774
_cell_length_b 14.314494
_cell_length_c 14.257418
_cell_angle_alpha 90.000000
_cell_angle_beta 135.692640
_cell_angle_gamma 90.000000
_cell_volume 2645.963581
_symmetry_space_group_name_H-M "C 2/M"
_symmetry_group_IT_number 12
_symmetry_cell_setting 'monoclinic'
loop_
_space_group_symop_operation_xyz
x,y,z
-x,y,-z
-x,-y,-z
x,-y,z
1/2+x,1/2+y,z
1/2-x,1/2+y,-z
1/2-x,1/2-y,-z
1/2+x,1/2-y,z
loop_
_atom_site_type_symbol
_atom_site_label
_atom_site_fract_x
_atom_site_fract_y
_atom_site_fract_z
Si Si1 0.220663 0.602372 0.646203
Si Si2 0.831822 0.892371 0.949555
Si Si3 0.017932 0.716459 0.908571
Si Si4 0.613841 0.890106 0.830601
Si Si5 0.533299 0.241968 0.430370
Si Si6 0.350943 0.696365 0.628615
O O1 0.173020 0.500000 0.603837
O O2 0.279143 0.617410 0.798348
O O3 0.130660 0.675796 0.544561
O O4 0.306310 0.610192 0.644645
O O5 0.736487 0.877232 0.931772
O O6 0.869029 0.000000 0.993224
O O7 0.918380 0.813805 0.038233
O O8 0.076691 0.641321 0.898932
O O9 0.910135 0.737711 0.757384
O O10 0.000000 0.691148 0.000000
O O11 0.552850 0.823487 0.700104
O O12 0.591837 0.000000 0.792556
O O13 0.500000 0.281241 0.500000
O O14 0.572957 0.314603 0.388735
O O15 0.250000 0.750000 0.500000
#
# Coordination Sequence:
#
# PCOD9173273 Si02
#       6
#     8   8   8   8   8   8
#     4  10  18  30  51  77 105 135 168 214 266 310
#     4  10  20  33  52  79 107 137 174 215 263 314
#     4  11  21  35  54  77 108 142 175 216 265 316
#     4  10  21  35  52  77 107 140 179 219 263 313
#     4  10  18  31  54  78 102 134 174 220 266 307
#     4   9  20  35  49  75 107 137 173 211 258 316
#
# _framework density 18.140840000000001
#
# number of rings (size 3 to 8) (size 9 to 14) (size 15 to 20)
#    0.000    2.000    3.333    1.000    0.000    2.000 
#    0.000    0.000    0.000    0.500    0.000    0.000 
#    0.000    0.000    0.000    0.000    0.000    0.000 
#
# Total GULP energy -133756.234902 kJ/mol
# GULP energy per Si atom -5573.176454 kJ/mol
# Density = 1.809955 g / cm^3
# Si number density = 18.140840 Si / 1000 Ang^3
#
#
#
# Elastic Constant Matrix: (Units=GPa)
#
#
# Indices 1 2 3 4 5 6 
#
# 1 96.0929 9.1678 33.1966 0.0000 -26.4655 0.0000
# 2 9.1678 21.8920 0.6354 0.0000 4.2028 0.0000
# 3 33.1966 0.6354 66.7682 0.0000 -13.1499 0.0000
# 4 0.0000 0.0000 0.0000 11.1490 0.0000 2.7451
# 5 -26.4655 4.2028 -13.1499 0.0000 33.2240 0.0000
# 6 0.0000 0.0000 0.0000 2.7451 0.0000 20.2972
#
#
#
# Elastic Compliance Matrix: (Units=1/GPa)
#
#
# Indices 1 2 3 4 5 6 
#
# 1 0.016604 -0.009106 -0.005788 0.000000 0.012087 0.000000
# 2 -0.009106 0.051998 0.001419 0.000000 -0.013269 0.000000
# 3 -0.005788 0.001419 0.018327 0.000000 0.002463 0.000000
# 4 0.000000 0.000000 0.000000 0.092784 0.000000 -0.012549
# 5 0.012087 -0.013269 0.002463 0.000000 0.042381 0.000000
# 6 0.000000 0.000000 0.000000 -0.012549 0.000000 0.050965
#
#
# Mechanical properties :
#
#
# Convention : Reuss Voigt Hill
#
# Bulk Modulus (GPa) = 16.67245 30.08363 23.37804
# Shear Modulus (GPa) = 15.62493 22.38424 19.00459
#
# Velocity S-wave (km/s) = 2.93800 3.51652 3.24020
# Velocity P-wave (km/s) = 4.55188 5.75389 5.18782
#
# Compressibility (1/GPa) = 0.05997917
#
# Stress axis : x y z
#
# Youngs Moduli (GPa) = 60.22669 19.23143 54.56535
#
# Poissons Ratio (x) = 0.17512 0.31583
# Poissons Ratio (y) = 0.54841 -0.07743
# Poissons Ratio (z) = 0.34860 -0.02729
#
# Static dielectric constant tensor:
#      x y z
#    x 1.683670 0.000000 -0.015890 
#    y 0.000000 1.591500 0.000000 
#    z -0.015890 0.000000 1.619070 
# 
# From -- ./inp_files/157670.got.cif
#   From: 2010.05.17/outbox.cif.g08.bks.cpg/sg12_79_cif.got.tgz:157670.got - 2010.06.03 13:09:07.
