data_PCOD9173462
_publ_section_title
;
Structure prediction by ZEFSAII (Michael W. Deem and Ramdas Pophale) SiO2 
 PCOD9173462
Probable space group: C 2/M
;
_chemical_formula_sum "Si O2"
_cell_formula_units_Z 32
_cell_length_a 13.100180
_cell_length_b 15.461005
_cell_length_c 8.983511
_cell_angle_alpha 90.000000
_cell_angle_beta 46.750118
_cell_angle_gamma 90.000000
_cell_volume 1325.301096
_symmetry_space_group_name_H-M "C 2/M"
_symmetry_group_IT_number 12
_symmetry_cell_setting 'monoclinic'
loop_
_space_group_symop_operation_xyz
x,y,z
-x,y,-z
-x,-y,-z
x,-y,z
1/2+x,1/2+y,z
1/2-x,1/2+y,-z
1/2-x,1/2-y,-z
1/2+x,1/2-y,z
loop_
_atom_site_type_symbol
_atom_site_label
_atom_site_fract_x
_atom_site_fract_y
_atom_site_fract_z
Si Si1 0.283116 0.156751 0.895206
Si Si2 0.639437 0.280808 0.758886
Si Si3 0.063162 0.403152 0.769841
Si Si4 0.509823 0.401918 0.321796
O O1 0.254145 0.173539 0.749627
O O2 0.435195 0.122278 0.787764
O O3 0.250000 0.250000 0.000000
O O4 0.165253 0.099216 0.094904
O O5 0.661064 0.182401 0.681158
O O6 0.581930 0.343026 0.690908
O O7 0.500000 0.271914 0.000000
O O8 0.117806 0.500000 0.678242
O O9 0.000000 0.410313 0.000000
O O10 0.500000 0.368431 0.500000
O O11 0.458486 0.500000 0.375962
#
# Coordination Sequence:
#
# PCOD9173462 Si02
#       4
#     8   8   8   8
#     4  11  18  34  57  82 106 144 188 229 272 324
#     4   9  18  33  55  77 110 137 186 228 269 324
#     4  10  18  30  53  82 109 138 181 231 274 323
#     4  10  21  36  55  82 114 144 179 229 286 334
#
# _framework density 24.145455999999999
#
# number of rings (size 3 to 8) (size 9 to 14) (size 15 to 20)
#    0.000    2.000    7.500    0.750    0.000    5.500 
#    0.000    1.250    0.000    0.750    0.000    0.000 
#    0.000    0.000    0.000    0.000    0.000    0.000 
#
# Total GULP energy -89448.551148 kJ/mol
# GULP energy per Si atom -5590.534447 kJ/mol
# Density = 2.409050 g / cm^3
# Si number density = 24.145456 Si / 1000 Ang^3
#
#
#
# Elastic Constant Matrix: (Units=GPa)
#
#
# Indices 1 2 3 4 5 6 
#
# 1 141.4869 56.8040 64.9297 0.0000 28.6333 0.0000
# 2 56.8040 134.9418 19.8070 0.0000 40.3056 0.0000
# 3 64.9297 19.8070 66.1511 0.0000 17.5204 0.0000
# 4 0.0000 0.0000 0.0000 -5.9134 0.0000 21.2001
# 5 28.6333 40.3056 17.5204 0.0000 55.3809 0.0000
# 6 0.0000 0.0000 0.0000 21.2001 0.0000 -8.1577
#
#
#
# Elastic Compliance Matrix: (Units=1/GPa)
#
#
# Indices 1 2 3 4 5 6 
#
# 1 0.014949 -0.004203 -0.013291 0.000000 -0.000465 0.000000
# 2 -0.004203 0.010725 0.002626 0.000000 -0.006463 0.000000
# 3 -0.013291 0.002626 0.028446 0.000000 -0.004038 0.000000
# 4 0.000000 0.000000 0.000000 0.020333 0.000000 0.052841
# 5 -0.000465 -0.006463 -0.004038 0.000000 0.024279 0.000000
# 6 0.000000 0.000000 0.000000 0.052841 0.000000 0.014739
#
#
# Mechanical properties :
#
#
# Convention : Reuss Voigt Hill
#
# Bulk Modulus (GPa) = 41.01167 69.51791 55.26479
# Shear Modulus (GPa) = 33.03943 21.66457 27.35200
#
# Velocity S-wave (km/s) = 3.70313 2.99867 3.36936
# Velocity P-wave (km/s) = 5.94192 6.39086 6.17048
#
# Compressibility (1/GPa) = 0.02438331
#
# Stress axis : x y z
#
# Youngs Moduli (GPa) = 66.89549 93.24154 35.15440
#
# Poissons Ratio (x) = 0.39188 0.46724
# Poissons Ratio (y) = 0.28115 -0.09231
# Poissons Ratio (z) = 0.88911 -0.24483
#
# Static dielectric constant tensor:
#      x y z
#    x 1.931690 0.000000 -0.005030 
#    y 0.000000 1.947800 0.000000 
#    z -0.005030 0.000000 1.981690 
# 
# From -- ./inp_files/58233.got.cif
#   From: 2010.05.17/outbox.cif.g08.bks.cpg/sg12_30_cif.got.tgz:58233.got - 2010.06.03 13:09:07.
