data_PCOD9173540
_publ_section_title
;
Structure prediction by ZEFSAII (Michael W. Deem and Ramdas Pophale) SiO2 
 PCOD9173540
Probable space group: C 2/M
;
_chemical_formula_sum "Si O2"
_cell_formula_units_Z 28
_cell_length_a 11.866846
_cell_length_b 13.469699
_cell_length_c 8.271987
_cell_angle_alpha 90.000000
_cell_angle_beta 128.353786
_cell_angle_gamma 90.000000
_cell_volume 1036.875644
_symmetry_space_group_name_H-M "C 2/M"
_symmetry_group_IT_number 12
_symmetry_cell_setting 'monoclinic'
loop_
_space_group_symop_operation_xyz
x,y,z
-x,y,-z
-x,-y,-z
x,-y,z
1/2+x,1/2+y,z
1/2-x,1/2+y,-z
1/2-x,1/2-y,-z
1/2+x,1/2-y,z
loop_
_atom_site_type_symbol
_atom_site_label
_atom_site_fract_x
_atom_site_fract_y
_atom_site_fract_z
Si Si1 0.197806 0.832983 0.793541
Si Si2 0.333369 0.108932 0.297220
Si Si3 0.588720 0.342654 0.326796
Si Si4 0.500000 0.827146 0.000000
O O1 0.201692 0.712317 0.823388
O O2 0.144555 0.834454 0.558554
O O3 0.356017 0.879432 0.929938
O O4 0.073373 0.882722 0.790773
O O5 0.500000 0.118613 0.500000
O O6 0.214812 0.108032 0.335678
O O7 0.323129 0.000000 0.211925
O O8 0.555587 0.242300 0.196689
#
# Coordination Sequence:
#
# PCOD9173540 Si02
#       4
#     8   8   8   4
#     4  10  20  35  57  80 111 137 179 221 267 312
#     4  10  19  32  54  81 106 140 179 218 264 315
#     4  10  20  36  53  82 110 140 176 223 265 313
#     4  10  18  30  55  84 105 138 180 220 262 312
#
# _framework density 27.004200999999998
#
# number of rings (size 3 to 8) (size 9 to 14) (size 15 to 20)
#    0.000    2.000    2.857    4.286    0.000    0.000 
#    0.000   14.286    0.000    0.000    0.000   26.000 
#    0.000    0.000    0.000    0.000    0.000    0.000 
#
# Total GULP energy -78184.719892 kJ/mol
# GULP energy per Si atom -5584.622849 kJ/mol
# Density = 2.694274 g / cm^3
# Si number density = 27.004201 Si / 1000 Ang^3
#
#
#
# Elastic Constant Matrix: (Units=GPa)
#
#
# Indices 1 2 3 4 5 6 
#
# 1 315.6633 59.4266 78.5770 0.0000 48.5814 0.0000
# 2 59.4266 135.2290 39.1732 0.0000 6.4586 0.0000
# 3 78.5770 39.1732 91.6019 0.0000 27.2483 0.0000
# 4 0.0000 0.0000 0.0000 16.2076 0.0000 -8.2147
# 5 48.5814 6.4586 27.2483 0.0000 69.7457 0.0000
# 6 0.0000 0.0000 0.0000 -8.2147 0.0000 -16.7981
#
#
#
# Elastic Compliance Matrix: (Units=1/GPa)
#
#
# Indices 1 2 3 4 5 6 
#
# 1 0.004323 -0.001023 -0.002719 0.000000 -0.001854 0.000000
# 2 -0.001023 0.008714 -0.003192 0.000000 0.001153 0.000000
# 3 -0.002719 -0.003192 0.015799 0.000000 -0.003983 0.000000
# 4 0.000000 0.000000 0.000000 0.049444 0.000000 -0.024180
# 5 -0.001854 0.001153 -0.003983 0.000000 0.017078 0.000000
# 6 0.000000 0.000000 0.000000 -0.024180 0.000000 -0.047706
#
#
# Mechanical properties :
#
#
# Convention : Reuss Voigt Hill
#
# Bulk Modulus (GPa) = 66.81040 99.64975 83.23007
# Shear Modulus (GPa) = 75.17758 38.18552 56.68155
#
# Velocity S-wave (km/s) = 5.28201 3.76448 4.58644
# Velocity P-wave (km/s) = 7.87363 7.47507 7.67694
#
# Compressibility (1/GPa) = 0.01496773
#
# Stress axis : x y z
#
# Youngs Moduli (GPa) = 231.33358 114.75658 63.29633
#
# Poissons Ratio (x) = 0.11745 0.17210
# Poissons Ratio (y) = 0.23677 0.20201
# Poissons Ratio (z) = 0.62898 0.36625
#
# Static dielectric constant tensor:
#      x y z
#    x 2.116520 0.000000 -0.043090 
#    y 0.000000 2.043380 0.000000 
#    z -0.043090 0.000000 2.282750 
# 
# From -- ./inp_files/45110.got.cif
#   From: 2010.05.17/outbox.cif.g08.bks.cpg/sg12_23_cif.got.tgz:45110.got - 2010.06.03 13:09:07.
