data_PCOD9173524
_publ_section_title
;
Structure prediction by ZEFSAII (Michael W. Deem and Ramdas Pophale) SiO2 
 PCOD9173524
Probable space group: C 2/M
;
_chemical_formula_sum "Si O2"
_cell_formula_units_Z 56
_cell_length_a 29.104943
_cell_length_b 9.893851
_cell_length_c 20.282766
_cell_angle_alpha 90.000000
_cell_angle_beta 153.331602
_cell_angle_gamma 90.000000
_cell_volume 2621.425282
_symmetry_space_group_name_H-M "C 2/M"
_symmetry_group_IT_number 12
_symmetry_cell_setting 'monoclinic'
loop_
_space_group_symop_operation_xyz
x,y,z
-x,y,-z
-x,-y,-z
x,-y,z
1/2+x,1/2+y,z
1/2-x,1/2+y,-z
1/2-x,1/2-y,-z
1/2+x,1/2-y,z
loop_
_atom_site_type_symbol
_atom_site_label
_atom_site_fract_x
_atom_site_fract_y
_atom_site_fract_z
Si Si1 0.572793 0.346299 0.429566
Si Si2 0.339121 0.841571 0.853298
Si Si3 0.972859 0.342591 0.818691
Si Si4 0.688858 0.851075 0.833226
Si Si5 0.896028 0.277155 0.138676
Si Si6 0.275404 0.845435 0.621641
Si Si7 0.858127 0.661357 0.369262
O O1 0.600043 0.500000 0.484191
O O2 0.464577 0.345564 0.254275
O O3 0.663637 0.291434 0.498474
O O4 0.573609 0.247212 0.492898
O O5 0.334469 0.845121 0.768132
O O6 0.251933 0.735711 0.762867
O O7 0.320757 0.000000 0.851075
O O8 0.445090 0.794761 0.021812
O O9 0.956139 0.500000 0.812410
O O10 0.859085 0.279882 0.680205
O O11 0.030600 0.336586 0.823061
O O12 0.629794 0.853172 0.826631
O O13 0.621409 0.821751 0.682410
O O14 0.732830 0.000000 0.877344
O O15 0.786103 0.754050 0.966293
O O16 0.253522 0.000000 0.572323
O O17 0.858754 0.500000 0.384947
#
# Coordination Sequence:
#
# PCOD9173524 Si02
#       7
#     8   8   8   8   8   8   8
#     4  10  22  41  62  87 119 155 193 239 292 349
#     4   9  16  31  55  86 117 151 195 241 284 336
#     4  10  18  30  54  87 118 154 196 238 283 343
#     4  10  22  40  58  82 115 154 195 242 297 348
#     4  11  22  37  58  85 116 153 197 242 288 346
#     4   8  16  31  54  83 117 152 191 235 286 341
#     4  10  20  37  61  85 116 155 196 241 293 347
#
# _framework density 21.362423
#
# number of rings (size 3 to 8) (size 9 to 14) (size 15 to 20)
#    0.000    2.286    1.429    2.571    0.000    4.000 
#    0.000    4.286    0.000   13.714    0.000    0.000 
#    0.000    0.000    0.000    0.000    0.000    0.000 
#
# Total GULP energy -155875.700405 kJ/mol
# GULP energy per Si atom -5566.989300 kJ/mol
# Density = 2.131380 g / cm^3
# Si number density = 21.362423 Si / 1000 Ang^3
#
#
#
# Elastic Constant Matrix: (Units=GPa)
#
#
# Indices 1 2 3 4 5 6 
#
# 1 116.7062 25.1662 16.4468 0.0000 4.4352 0.0000
# 2 25.1662 64.4909 18.6347 0.0000 -1.1242 0.0000
# 3 16.4468 18.6347 76.3816 0.0000 0.2712 0.0000
# 4 0.0000 0.0000 0.0000 18.6441 0.0000 0.3081
# 5 4.4352 -1.1242 0.2712 0.0000 36.3377 0.0000
# 6 0.0000 0.0000 0.0000 0.3081 0.0000 14.2919
#
#
#
# Elastic Compliance Matrix: (Units=1/GPa)
#
#
# Indices 1 2 3 4 5 6 
#
# 1 0.009518 -0.003384 -0.001219 0.000000 -0.001257 0.000000
# 2 -0.003384 0.017896 -0.003641 0.000000 0.000994 0.000000
# 3 -0.001219 -0.003641 0.014243 0.000000 -0.000070 0.000000
# 4 0.000000 0.000000 0.000000 0.053655 0.000000 -0.001157
# 5 -0.001257 0.000994 -0.000070 0.000000 0.027704 0.000000
# 6 0.000000 0.000000 0.000000 -0.001157 0.000000 0.069995
#
#
# Mechanical properties :
#
#
# Convention : Reuss Voigt Hill
#
# Bulk Modulus (GPa) = 39.73178 42.00822 40.87000
# Shear Modulus (GPa) = 22.94746 27.01014 24.97880
#
# Velocity S-wave (km/s) = 3.28105 3.55966 3.42319
# Velocity P-wave (km/s) = 5.74395 6.04997 5.89895
#
# Compressibility (1/GPa) = 0.02516877
#
# Stress axis : x y z
#
# Youngs Moduli (GPa) = 105.06630 55.87890 70.20864
#
# Poissons Ratio (x) = 0.18908 0.08562
# Poissons Ratio (y) = 0.35551 0.25563
# Poissons Ratio (z) = 0.12812 0.20345
#
# Static dielectric constant tensor:
#      x y z
#    x 1.821590 0.000000 0.010630 
#    y 0.000000 1.749220 0.000000 
#    z 0.010630 0.000000 1.813600 
# 
# From -- ./inp_files/329661.got.cif
#   From: 2010.05.17/outbox.cif.g08.bks.cpg/sg12_165_cif.got.tgz:329661.got - 2010.06.03 13:09:07.
