data_PCOD9173500
_publ_section_title
;
Structure prediction by ZEFSAII (Michael W. Deem and Ramdas Pophale) SiO2 
 PCOD9173500
Probable space group: C 2/M
;
_chemical_formula_sum "Si O2"
_cell_formula_units_Z 48
_cell_length_a 18.275543
_cell_length_b 17.872425
_cell_length_c 9.060895
_cell_angle_alpha 90.000000
_cell_angle_beta 69.454924
_cell_angle_gamma 90.000000
_cell_volume 2771.306739
_symmetry_space_group_name_H-M "C 2/M"
_symmetry_group_IT_number 12
_symmetry_cell_setting 'monoclinic'
loop_
_space_group_symop_operation_xyz
x,y,z
-x,y,-z
-x,-y,-z
x,-y,z
1/2+x,1/2+y,z
1/2-x,1/2+y,-z
1/2-x,1/2-y,-z
1/2+x,1/2-y,z
loop_
_atom_site_type_symbol
_atom_site_label
_atom_site_fract_x
_atom_site_fract_y
_atom_site_fract_z
Si Si1 0.312561 0.589380 0.193348
Si Si2 0.308599 0.816971 0.909700
Si Si3 0.927370 0.222789 0.641960
Si Si4 0.901578 0.084206 0.840243
Si Si5 0.704646 0.674002 0.494787
Si Si6 0.271894 0.915067 0.190205
O O1 0.301095 0.500000 0.216699
O O2 0.237768 0.629506 0.170896
O O3 0.323787 0.630164 0.340633
O O4 0.382820 0.599568 0.025281
O O5 0.382767 0.780282 0.779628
O O6 0.250000 0.750000 0.000000
O O7 0.323700 0.864229 0.046368
O O8 0.948104 0.149541 0.725619
O O9 0.865671 0.195898 0.563067
O O10 0.000000 0.253589 0.500000
O O11 0.814741 0.084691 0.825859
O O12 0.933579 0.000000 0.800636
O O13 0.750000 0.750000 0.500000
O O14 0.760502 0.620840 0.357831
O O15 0.298743 0.000000 0.177820
#
# Coordination Sequence:
#
# PCOD9173500 Si02
#       6
#     8   8   8   8   8   8
#     4  10  18  30  54  81 104 131 175 225 260 298
#     4  11  16  33  55  76 100 138 182 218 251 303
#     4  11  22  34  52  78 109 140 174 215 263 313
#     4   8  16  31  50  72 102 141 175 204 251 314
#     4  11  19  32  53  81 108 133 171 220 261 303
#     4   9  17  29  51  78 101 131 177 217 254 304
#
# _framework density 17.320349
#
# number of rings (size 3 to 8) (size 9 to 14) (size 15 to 20)
#    0.000    2.000    6.667    2.000    0.000    1.000 
#    0.000    0.833    0.000    4.000    0.000    1.167 
#    0.000    0.000    0.000    0.000    0.000    0.000 
#
# Total GULP energy -133791.621829 kJ/mol
# GULP energy per Si atom -5574.650910 kJ/mol
# Density = 1.728093 g / cm^3
# Si number density = 17.320349 Si / 1000 Ang^3
#
#
#
# Elastic Constant Matrix: (Units=GPa)
#
#
# Indices 1 2 3 4 5 6 
#
# 1 8.7752 13.4313 20.5869 0.0000 -3.5820 0.0000
# 2 13.4313 107.9247 54.6541 0.0000 -0.0530 0.0000
# 3 20.5869 54.6541 117.0844 0.0000 1.6958 0.0000
# 4 0.0000 0.0000 0.0000 37.8235 0.0000 6.6657
# 5 -3.5820 -0.0530 1.6958 0.0000 31.3745 0.0000
# 6 0.0000 0.0000 0.0000 6.6657 0.0000 11.0410
#
#
#
# Elastic Compliance Matrix: (Units=1/GPa)
#
#
# Indices 1 2 3 4 5 6 
#
# 1 0.221852 -0.010009 -0.034730 0.000000 0.027189 0.000000
# 2 -0.010009 0.012589 -0.004104 0.000000 -0.000900 0.000000
# 3 -0.034730 -0.004104 0.016633 0.000000 -0.004871 0.000000
# 4 0.000000 0.000000 0.000000 0.029586 0.000000 -0.017862
# 5 0.027189 -0.000900 -0.004871 0.000000 0.035239 0.000000
# 6 0.000000 0.000000 0.000000 -0.017862 0.000000 0.101355
#
#
# Mechanical properties :
#
#
# Convention : Reuss Voigt Hill
#
# Bulk Modulus (GPa) = 6.51934 45.68100 26.10017
# Shear Modulus (GPa) = 8.83285 25.72193 17.27739
#
# Velocity S-wave (km/s) = 2.26070 3.85784 3.16178
# Velocity P-wave (km/s) = 3.25369 6.80260 5.33207
#
# Compressibility (1/GPa) = 0.15338980
#
# Stress axis : x y z
#
# Youngs Moduli (GPa) = 4.50752 79.43480 60.11965
#
# Poissons Ratio (x) = 0.79502 2.08796
# Poissons Ratio (y) = 0.04511 0.24671
# Poissons Ratio (z) = 0.15655 0.32597
#
# Static dielectric constant tensor:
#      x y z
#    x 1.601480 0.000000 0.000330 
#    y 0.000000 1.600450 0.000000 
#    z 0.000330 0.000000 1.612280 
# 
# From -- ./inp_files/86754.got.cif
#   From: 2010.05.17/outbox.cif.g08.bks.cpg/sg12_44_cif.got.tgz:86754.got - 2010.06.03 13:09:07.
