data_PCOD9173628
_publ_section_title
;
Structure prediction by ZEFSAII (Michael W. Deem and Ramdas Pophale) SiO2 
 PCOD9173628
Probable space group: C 2/M
;
_chemical_formula_sum "Si O2"
_cell_formula_units_Z 56
_cell_length_a 18.106767
_cell_length_b 18.747593
_cell_length_c 15.145658
_cell_angle_alpha 90.000000
_cell_angle_beta 40.502611
_cell_angle_gamma 90.000000
_cell_volume 3339.197933
_symmetry_space_group_name_H-M "C 2/M"
_symmetry_group_IT_number 12
_symmetry_cell_setting 'monoclinic'
loop_
_space_group_symop_operation_xyz
x,y,z
-x,y,-z
-x,-y,-z
x,-y,z
1/2+x,1/2+y,z
1/2-x,1/2+y,-z
1/2-x,1/2-y,-z
1/2+x,1/2-y,z
loop_
_atom_site_type_symbol
_atom_site_label
_atom_site_fract_x
_atom_site_fract_y
_atom_site_fract_z
Si Si1 0.948047 0.838314 0.949958
Si Si2 0.616465 0.184875 0.004516
Si Si3 0.177789 0.417430 0.589969
Si Si4 0.905428 0.583062 0.819357
Si Si5 0.746483 0.917569 0.204686
Si Si6 0.805047 0.168326 0.325309
Si Si7 0.343429 0.172416 0.229537
O O1 0.877648 0.769458 0.982585
O O2 0.060486 0.851025 0.791167
O O3 0.862621 0.902658 0.044595
O O4 0.000000 0.819097 0.000000
O O5 0.646422 0.134450 0.058827
O O6 0.480843 0.172675 0.113617
O O7 0.678471 0.169195 0.855328
O O8 0.210093 0.500000 0.546086
O O9 0.240559 0.363248 0.467433
O O10 0.198976 0.391967 0.671112
O O11 0.042031 0.411225 0.696557
O O12 0.876920 0.500000 0.863534
O O13 0.855572 0.600544 0.768631
O O14 0.754902 0.869720 0.283770
O O15 0.738548 0.000000 0.237476
O O16 0.801210 0.253016 0.310360
#
# Coordination Sequence:
#
# PCOD9173628 Si02
#       7
#     8   8   8   8   8   8   8
#     4   9  16  30  48  71  90 112 155 196 235 269
#     4   9  14  30  51  67  93 120 150 193 237 265
#     4  10  20  31  46  70  97 127 155 181 225 282
#     4   9  20  32  44  69  99 126 155 183 221 278
#     4  10  19  31  46  68  96 124 154 190 229 272
#     4  10  18  31  48  68  95 123 151 192 234 269
#     4   9  16  30  49  70  93 119 152 196 233 268
#
# _framework density 16.770495
#
# number of rings (size 3 to 8) (size 9 to 14) (size 15 to 20)
#    0.000    2.571    4.286    0.857    0.000    4.857 
#    0.000    5.000    0.000    0.000    0.000    0.000 
#    0.000    3.429    0.000    0.000    0.000    0.000 
#
# Total GULP energy -155892.282685 kJ/mol
# GULP energy per Si atom -5567.581524 kJ/mol
# Density = 1.673232 g / cm^3
# Si number density = 16.770495 Si / 1000 Ang^3
#
#
#
# Elastic Constant Matrix: (Units=GPa)
#
#
# Indices 1 2 3 4 5 6 
#
# 1 44.9706 26.5808 16.8176 0.0000 11.1834 0.0000
# 2 26.5808 52.3860 29.3786 0.0000 12.7667 0.0000
# 3 16.8176 29.3786 61.4808 0.0000 17.5997 0.0000
# 4 0.0000 0.0000 0.0000 17.1600 0.0000 9.2537
# 5 11.1834 12.7667 17.5997 0.0000 14.8332 0.0000
# 6 0.0000 0.0000 0.0000 9.2537 0.0000 21.2515
#
#
#
# Elastic Compliance Matrix: (Units=1/GPa)
#
#
# Indices 1 2 3 4 5 6 
#
# 1 0.033957 -0.014653 0.002168 0.000000 -0.015563 0.000000
# 2 -0.014653 0.033789 -0.010563 0.000000 -0.005501 0.000000
# 3 0.002168 -0.010563 0.028144 0.000000 -0.025937 0.000000
# 4 0.000000 0.000000 0.000000 0.076158 0.000000 -0.033162
# 5 -0.015563 -0.005501 -0.025937 0.000000 0.114658 0.000000
# 6 0.000000 0.000000 0.000000 -0.033162 0.000000 0.061496
#
#
# Mechanical properties :
#
#
# Convention : Reuss Voigt Hill
#
# Bulk Modulus (GPa) = 20.08259 33.82125 26.95192
# Shear Modulus (GPa) = 12.16855 16.38632 14.27744
#
# Velocity S-wave (km/s) = 2.69661 3.12924 2.92094
# Velocity P-wave (km/s) = 4.65795 5.76776 5.24231
#
# Compressibility (1/GPa) = 0.04979438
#
# Stress axis : x y z
#
# Youngs Moduli (GPa) = 29.44894 29.59587 35.53107
#
# Poissons Ratio (x) = 0.43368 -0.07705
# Poissons Ratio (y) = 0.43152 0.37531
# Poissons Ratio (z) = -0.06386 0.31262
#
# Static dielectric constant tensor:
#      x y z
#    x 1.565270 0.000000 0.002530 
#    y 0.000000 1.571170 0.000000 
#    z 0.002530 0.000000 1.583230 
# 
# From -- ./inp_files/226546.got.cif
#   From: 2010.05.17/outbox.cif.g08.bks.cpg/sg12_114_cif.got.tgz:226546.got - 2010.06.03 13:09:07.
