data_PCOD9173279
_publ_section_title
;
Structure prediction by ZEFSAII (Michael W. Deem and Ramdas Pophale) SiO2 
 PCOD9173279
Probable space group: C 2/M
;
_chemical_formula_sum "Si O2"
_cell_formula_units_Z 36
_cell_length_a 8.248399
_cell_length_b 20.878452
_cell_length_c 12.783637
_cell_angle_alpha 90.000000
_cell_angle_beta 64.187728
_cell_angle_gamma 90.000000
_cell_volume 1981.863373
_symmetry_space_group_name_H-M "C 2/M"
_symmetry_group_IT_number 12
_symmetry_cell_setting 'monoclinic'
loop_
_space_group_symop_operation_xyz
x,y,z
-x,y,-z
-x,-y,-z
x,-y,z
1/2+x,1/2+y,z
1/2-x,1/2+y,-z
1/2-x,1/2-y,-z
1/2+x,1/2-y,z
loop_
_atom_site_type_symbol
_atom_site_label
_atom_site_fract_x
_atom_site_fract_y
_atom_site_fract_z
Si Si1 0.447652 0.343918 0.795621
Si Si2 0.667835 0.789074 0.253414
Si Si3 0.669438 0.821989 0.027160
Si Si4 0.381038 0.576459 0.431747
Si Si5 0.500000 0.853072 0.500000
O O1 0.347487 0.286820 0.760996
O O2 0.626802 0.308646 0.785200
O O3 0.509140 0.399098 0.700364
O O4 0.326261 0.363503 0.928840
O O5 0.616839 0.828413 0.162708
O O6 0.552623 0.810348 0.385168
O O7 0.500000 0.827044 0.000000
O O8 0.750000 0.750000 0.000000
O O9 0.500000 0.595873 0.500000
O O10 0.363863 0.500000 0.437701
O O11 0.180349 0.606926 0.479363
#
# Coordination Sequence:
#
# PCOD9173279 Si02
#       5
#     8   8   8   8   4
#     4  10  20  33  55  80 113 141 182 228 272 336
#     4  10  20  32  52  87 112 144 172 225 289 327
#     4  10  18  30  51  77 111 145 173 218 271 334
#     4  10  23  39  58  78 109 154 190 227 268 323
#     4  10  23  36  60  82 113 142 182 234 276 336
#
# _framework density 18.164724
#
# number of rings (size 3 to 8) (size 9 to 14) (size 15 to 20)
#    0.000    2.000    0.000    6.333    7.778    1.778 
#    0.000    0.000    0.000   12.667    0.000    0.000 
#    0.000    0.000    0.000    0.000    0.000    0.000 
#
# Total GULP energy -100340.883648 kJ/mol
# GULP energy per Si atom -5574.493536 kJ/mol
# Density = 1.812338 g / cm^3
# Si number density = 18.164724 Si / 1000 Ang^3
#
#
#
# Elastic Constant Matrix: (Units=GPa)
#
#
# Indices 1 2 3 4 5 6 
#
# 1 72.7753 0.7654 34.9451 0.0000 0.7156 0.0000
# 2 0.7654 21.2254 13.6729 0.0000 0.6959 0.0000
# 3 34.9451 13.6729 149.1338 0.0000 -6.0690 0.0000
# 4 0.0000 0.0000 0.0000 14.8619 0.0000 -0.0492
# 5 0.7156 0.6959 -6.0690 0.0000 28.6898 0.0000
# 6 0.0000 0.0000 0.0000 -0.0492 0.0000 17.3883
#
#
#
# Elastic Compliance Matrix: (Units=1/GPa)
#
#
# Indices 1 2 3 4 5 6 
#
# 1 0.015600 0.001984 -0.003888 0.000000 -0.001260 0.000000
# 2 0.001984 0.050461 -0.005188 0.000000 -0.002371 0.000000
# 3 -0.003888 -0.005188 0.008172 0.000000 0.001951 0.000000
# 4 0.000000 0.000000 0.000000 0.067287 0.000000 0.000191
# 5 -0.001260 -0.002371 0.001951 0.000000 0.035357 0.000000
# 6 0.000000 0.000000 0.000000 0.000191 0.000000 0.057511
#
#
# Mechanical properties :
#
#
# Convention : Reuss Voigt Hill
#
# Bulk Modulus (GPa) = 16.65351 37.98904 27.32128
# Shear Modulus (GPa) = 18.61588 25.10474 21.86031
#
# Velocity S-wave (km/s) = 3.20478 3.72164 3.47284
# Velocity P-wave (km/s) = 4.78353 6.27905 5.58160
#
# Compressibility (1/GPa) = 0.06004739
#
# Stress axis : x y z
#
# Youngs Moduli (GPa) = 64.10426 19.81717 122.37574
#
# Poissons Ratio (x) = -0.03931 0.47585
# Poissons Ratio (y) = -0.12716 0.63485
# Poissons Ratio (z) = 0.24926 0.10281
#
# Static dielectric constant tensor:
#      x y z
#    x 1.668550 0.000000 0.011910 
#    y 0.000000 1.594350 0.000000 
#    z 0.011910 0.000000 1.683170 
# 
# From -- ./inp_files/119609.got.cif
#   From: 2010.05.17/outbox.cif.g08.bks.cpg/sg12_60_cif.got.tgz:119609.got - 2010.06.03 13:09:07.
