data_PCOD9173950
_publ_section_title
;
Structure prediction by ZEFSAII (Michael W. Deem and Ramdas Pophale) SiO2 
 PCOD9173950
Probable space group: C 2/M
;
_chemical_formula_sum "Si O2"
_cell_formula_units_Z 64
_cell_length_a 20.804616
_cell_length_b 7.839786
_cell_length_c 19.522371
_cell_angle_alpha 90.000000
_cell_angle_beta 93.050500
_cell_angle_gamma 90.000000
_cell_volume 3179.659757
_symmetry_space_group_name_H-M "C 2/M"
_symmetry_group_IT_number 12
_symmetry_cell_setting 'monoclinic'
loop_
_space_group_symop_operation_xyz
x,y,z
-x,y,-z
-x,-y,-z
x,-y,z
1/2+x,1/2+y,z
1/2-x,1/2+y,-z
1/2-x,1/2-y,-z
1/2+x,1/2-y,z
loop_
_atom_site_type_symbol
_atom_site_label
_atom_site_fract_x
_atom_site_fract_y
_atom_site_fract_z
Si Si1 0.444163 0.698334 0.909093
Si Si2 0.985538 0.205655 0.296703
Si Si3 0.383906 0.708578 0.763698
Si Si4 0.299446 0.702952 0.443161
Si Si5 0.368187 0.205149 0.193356
Si Si6 0.243440 0.704908 0.712271
Si Si7 0.944214 0.790946 0.445195
Si Si8 0.912344 0.697381 0.053381
O O1 0.460565 0.500000 0.898286
O O2 0.402665 0.758178 0.842224
O O3 0.512303 0.792484 0.920594
O O4 0.408274 0.713852 0.979647
O O5 0.934542 0.256552 0.236173
O O6 0.961313 0.265135 0.369245
O O7 0.056920 0.264307 0.280814
O O8 0.987030 0.000000 0.298824
O O9 0.382363 0.500000 0.761957
O O10 0.314521 0.769488 0.734942
O O11 0.303425 0.500000 0.441851
O O12 0.250000 0.750000 0.500000
O O13 0.275866 0.758872 0.366866
O O14 0.372271 0.767473 0.459715
O O15 0.310348 0.270912 0.237649
O O16 0.372913 0.269440 0.115634
O O17 0.362458 0.000000 0.188426
O O18 0.244444 0.500000 0.719658
O O19 0.000000 0.735465 0.500000
O O20 0.944231 0.000000 0.445888
O O21 0.895310 0.500000 0.042180
#
# Coordination Sequence:
#
# PCOD9173950 Si02
#       8
#     8   8   8   8   8   8   8   8
#     4  10  18  31  51  78 105 135 182 232 267 307
#     4  10  18  33  57  80 104 135 182 230 262 308
#     4   9  19  33  55  82 106 140 183 227 269 313
#     4  11  23  39  59  83 111 145 181 221 268 323
#     4  10  20  34  54  79 109 144 177 216 271 328
#     4  10  21  39  59  79 109 146 182 219 265 324
#     4   9  19  34  56  83 108 136 177 223 263 309
#     4  10  19  31  49  76 109 144 175 213 276 334
#
# _framework density 20.127939999999999
#
# number of rings (size 3 to 8) (size 9 to 14) (size 15 to 20)
#    0.000    2.125    2.500    1.875    1.750    0.500 
#    0.000    2.500    0.000    1.875    0.000    0.000 
#    0.000    0.000    0.000    0.000    0.000    0.000 
#
# Total GULP energy -178639.114488 kJ/mol
# GULP energy per Si atom -5582.472328 kJ/mol
# Density = 2.008213 g / cm^3
# Si number density = 20.127940 Si / 1000 Ang^3
#
#
#
# Elastic Constant Matrix: (Units=GPa)
#
#
# Indices 1 2 3 4 5 6 
#
# 1 158.8364 1.4655 74.7230 0.0000 -13.8979 0.0000
# 2 1.4655 24.8007 -2.3452 0.0000 -0.6502 0.0000
# 3 74.7230 -2.3452 127.9558 0.0000 -24.3509 0.0000
# 4 0.0000 0.0000 0.0000 1.2800 0.0000 -0.5007
# 5 -13.8979 -0.6502 -24.3509 0.0000 36.5847 0.0000
# 6 0.0000 0.0000 0.0000 -0.5007 0.0000 13.8210
#
#
#
# Elastic Compliance Matrix: (Units=1/GPa)
#
#
# Indices 1 2 3 4 5 6 
#
# 1 0.008706 -0.001002 -0.005125 0.000000 -0.000122 0.000000
# 2 -0.001002 0.040568 0.001596 0.000000 0.001402 0.000000
# 3 -0.005125 0.001596 0.011991 0.000000 0.006063 0.000000
# 4 0.000000 0.000000 0.000000 0.792496 0.000000 0.028712
# 5 -0.000122 0.001402 0.006063 0.000000 0.031348 0.000000
# 6 0.000000 0.000000 0.000000 0.028712 0.000000 0.073394
#
#
# Mechanical properties :
#
#
# Convention : Reuss Voigt Hill
#
# Bulk Modulus (GPa) = 19.15665 51.03109 35.09387
# Shear Modulus (GPa) = 5.07631 26.18709 15.63170
#
# Velocity S-wave (km/s) = 1.58981 3.61090 2.78981
# Velocity P-wave (km/s) = 3.59278 6.54165 5.27737
#
# Compressibility (1/GPa) = 0.05220119
#
# Stress axis : x y z
#
# Youngs Moduli (GPa) = 114.86911 24.64976 83.39324
#
# Poissons Ratio (x) = 0.02471 0.42743
# Poissons Ratio (y) = 0.11513 -0.13307
# Poissons Ratio (z) = 0.58876 -0.03933
#
# Static dielectric constant tensor:
#      x y z
#    x 1.696580 0.000000 -0.017230 
#    y 0.000000 1.746740 0.000000 
#    z -0.017230 0.000000 1.688380 
# 
# From -- ./inp_files/314147.got.cif
#   From: 2010.05.17/outbox.cif.g08.bks.cpg/sg12_158_cif.got.tgz:314147.got - 2010.06.03 13:09:07.
