data_PCOD9173124
_publ_section_title
;
Structure prediction by ZEFSAII (Michael W. Deem and Ramdas Pophale) SiO2 
 PCOD9173124
Probable space group: C 2/M
;
_chemical_formula_sum "Si O2"
_cell_formula_units_Z 56
_cell_length_a 29.693256
_cell_length_b 7.465730
_cell_length_c 22.154434
_cell_angle_alpha 90.000000
_cell_angle_beta 31.911643
_cell_angle_gamma 90.000000
_cell_volume 2596.132344
_symmetry_space_group_name_H-M "C 2/M"
_symmetry_group_IT_number 12
_symmetry_cell_setting 'monoclinic'
loop_
_space_group_symop_operation_xyz
x,y,z
-x,y,-z
-x,-y,-z
x,-y,z
1/2+x,1/2+y,z
1/2-x,1/2+y,-z
1/2-x,1/2-y,-z
1/2+x,1/2-y,z
loop_
_atom_site_type_symbol
_atom_site_label
_atom_site_fract_x
_atom_site_fract_y
_atom_site_fract_z
Si Si1 0.423130 0.791341 0.366002
Si Si2 0.769549 0.215653 0.194926
Si Si3 0.724830 0.289285 0.115037
Si Si4 0.779773 0.280510 0.616424
Si Si5 0.464184 0.718322 0.975048
Si Si6 0.880250 0.216502 0.283229
Si Si7 0.109613 0.295362 0.138156
O O1 0.364299 0.717094 0.485994
O O2 0.373389 0.780858 0.359381
O O3 0.516511 0.710396 0.248046
O O4 0.437452 0.000000 0.365001
O O5 0.717998 0.265672 0.193944
O O6 0.731280 0.277336 0.302036
O O7 0.772797 0.000000 0.193722
O O8 0.867346 0.279737 0.077397
O O9 0.723581 0.500000 0.101930
O O10 0.652391 0.205623 0.155683
O O11 0.817183 0.215678 0.988218
O O12 0.780365 0.500000 0.615306
O O13 0.697281 0.226756 0.671290
O O14 0.463407 0.500000 0.975214
O O15 0.530580 0.775896 0.848268
O O16 0.500000 0.770620 0.000000
O O17 0.880251 0.000000 0.284380
O O18 0.097852 0.500000 0.130371
#
# Coordination Sequence:
#
# PCOD9173124 Si02
#       7
#     8   8   8   8   8   8   8
#     4  10  20  34  51  72 100 132 167 206 247 289
#     4  10  18  31  52  75 101 134 169 201 241 290
#     4  10  20  34  54  78 101 123 156 206 258 301
#     4   9  18  32  50  72 100 136 173 203 232 285
#     4   9  15  26  47  73  99 128 164 203 236 275
#     4  10  18  30  50  75 101 132 171 207 241 284
#     4   9  19  36  55  74  98 128 163 202 247 300
#
# _framework density 21.570547999999999
#
# number of rings (size 3 to 8) (size 9 to 14) (size 15 to 20)
#    0.000    2.429    1.429    1.714    0.000    1.143 
#    0.000    2.143    0.000    5.143    0.000    0.000 
#    0.000    0.000    0.000    0.000    0.000    0.000 
#
# Total GULP energy -156407.357634 kJ/mol
# GULP energy per Si atom -5585.977058 kJ/mol
# Density = 2.152145 g / cm^3
# Si number density = 21.570548 Si / 1000 Ang^3
#
#
#
# Elastic Constant Matrix: (Units=GPa)
#
#
# Indices 1 2 3 4 5 6 
#
# 1 101.1858 -11.7999 41.5630 -0.0060 21.5925 0.0045
# 2 -11.7999 67.4787 3.7783 -0.0216 -4.3681 0.0218
# 3 41.5630 3.7783 97.8973 -0.0118 15.6481 0.0146
# 4 -0.0060 -0.0216 -0.0118 -11.1095 0.0031 6.5904
# 5 21.5925 -4.3681 15.6481 0.0031 22.7951 -0.0052
# 6 0.0045 0.0218 0.0146 6.5904 -0.0052 13.1747
#
#
#
# Elastic Compliance Matrix: (Units=1/GPa)
#
#
# Indices 1 2 3 4 5 6 
#
# 1 0.014066 0.002073 -0.004477 -0.000011 -0.009854 -0.000002
# 2 0.002073 0.015431 -0.001836 -0.000033 0.002254 -0.000007
# 3 -0.004477 -0.001836 0.012990 -0.000012 -0.005028 -0.000006
# 4 -0.000011 -0.000033 -0.000012 -0.069414 0.000030 0.034723
# 5 -0.009854 0.002254 -0.005028 0.000030 0.057086 0.000013
# 6 -0.000002 -0.000007 -0.000006 0.034723 0.000013 0.058533
#
#
# Mechanical properties :
#
#
# Convention : Reuss Voigt Hill
#
# Bulk Modulus (GPa) = 29.40596 37.07164 33.23880
# Shear Modulus (GPa) = 46.07948 20.50675 33.29311
#
# Velocity S-wave (km/s) = 4.62694 3.08666 3.93294
# Velocity P-wave (km/s) = 6.49668 5.47054 6.00557
#
# Compressibility (1/GPa) = 0.03400671
#
# Stress axis : x y z
#
# Youngs Moduli (GPa) = 71.09288 64.80638 76.98199
#
# Poissons Ratio (x) = -0.13431 0.34463
# Poissons Ratio (y) = -0.14734 0.14132
# Poissons Ratio (z) = 0.31827 0.11897
#
# Static dielectric constant tensor:
#      x y z
#    x 1.742570 -0.000010 -0.008840 
#    y -0.000010 1.842710 0.000010 
#    z -0.008840 0.000010 1.788740 
# 
# From -- ./inp_files/329444.got.cif
#   From: 2010.05.17/outbox.cif.g08.bks.cpg/sg12_165_cif.got.tgz:329444.got - 2010.06.03 13:09:07.
