data_PCOD9173854
_publ_section_title
;
Structure prediction by ZEFSAII (Michael W. Deem and Ramdas Pophale) SiO2 
 PCOD9173854
Probable space group: C 2/M
;
_chemical_formula_sum "Si O2"
_cell_formula_units_Z 64
_cell_length_a 12.084694
_cell_length_b 14.499145
_cell_length_c 17.977680
_cell_angle_alpha 90.000000
_cell_angle_beta 113.067442
_cell_angle_gamma 90.000000
_cell_volume 2898.147148
_symmetry_space_group_name_H-M "C 2/M"
_symmetry_group_IT_number 12
_symmetry_cell_setting 'monoclinic'
loop_
_space_group_symop_operation_xyz
x,y,z
-x,y,-z
-x,-y,-z
x,-y,z
1/2+x,1/2+y,z
1/2-x,1/2+y,-z
1/2-x,1/2-y,-z
1/2+x,1/2-y,z
loop_
_atom_site_type_symbol
_atom_site_label
_atom_site_fract_x
_atom_site_fract_y
_atom_site_fract_z
Si Si1 0.903408 0.104523 0.664264
Si Si2 0.003616 0.607553 0.583530
Si Si3 0.135201 0.387026 0.870914
Si Si4 0.263190 0.644676 0.483526
Si Si5 0.135822 0.888515 0.643602
Si Si6 0.857228 0.613089 0.801519
Si Si7 0.146164 0.606198 0.036088
Si Si8 0.227529 0.386600 0.739434
O O1 0.806417 0.099669 0.571756
O O2 0.840284 0.146181 0.720048
O O3 0.019984 0.148604 0.657091
O O4 0.936781 0.000000 0.694148
O O5 0.035346 0.500000 0.582441
O O6 0.867786 0.611040 0.577146
O O7 0.000000 0.650354 0.500000
O O8 0.107091 0.643993 0.664116
O O9 0.134956 0.500000 0.873687
O O10 0.214907 0.359132 0.821661
O O11 0.995231 0.359933 0.822107
O O12 0.177054 0.353652 0.963393
O O13 0.250000 0.750000 0.500000
O O14 0.355621 0.633012 0.440967
O O15 0.257749 0.857975 0.716283
O O16 0.130312 0.000000 0.645678
O O17 0.857995 0.500000 0.802959
O O18 0.819245 0.645116 0.874503
O O19 0.189309 0.500000 0.046939
O O20 0.000000 0.603602 0.000000
O O21 0.230107 0.500000 0.739454
#
# Coordination Sequence:
#
# PCOD9173854 Si02
#       8
#     8   8   8   8   8   8   8   8
#     4  10  20  36  52  67  91 127 168 201 231 276
#     4  10  18  31  51  69  88 118 156 198 238 277
#     4   8  12  19  36  65  98 125 150 186 234 284
#     4  12  24  35  49  69  95 121 152 201 251 294
#     4  10  20  34  53  70  91 128 170 201 226 280
#     4   8  13  23  41  66  93 124 160 193 230 275
#     4   7  10  17  32  59  96 129 148 177 233 284
#     4   9  16  27  46  69  91 121 160 196 233 277
#
# _framework density 22.083075999999998
#
# number of rings (size 3 to 8) (size 9 to 14) (size 15 to 20)
#    0.000    2.750    1.250    3.750    0.000    4.000 
#    0.000    0.000    0.000    0.750    0.000    5.250 
#    0.000    1.000    5.250    0.250    1.250    0.000 
#
# Total GULP energy -178551.538660 kJ/mol
# GULP energy per Si atom -5579.735583 kJ/mol
# Density = 2.203281 g / cm^3
# Si number density = 22.083076 Si / 1000 Ang^3
#
#
#
# Elastic Constant Matrix: (Units=GPa)
#
#
# Indices 1 2 3 4 5 6 
#
# 1 105.9731 8.5729 43.7302 0.0000 -44.9616 0.0000
# 2 8.5729 52.3667 3.8492 0.0000 -1.1266 0.0000
# 3 43.7302 3.8492 98.9593 0.0000 -51.7421 0.0000
# 4 0.0000 0.0000 0.0000 -18.3587 0.0000 11.7880
# 5 -44.9616 -1.1266 -51.7421 0.0000 43.3581 0.0000
# 6 0.0000 0.0000 0.0000 11.7880 0.0000 -4.4913
#
#
#
# Elastic Compliance Matrix: (Units=1/GPa)
#
#
# Indices 1 2 3 4 5 6 
#
# 1 0.018034 -0.002791 0.004998 0.000000 0.024592 0.000000
# 2 -0.002791 0.019600 -0.002064 0.000000 -0.004847 0.000000
# 3 0.004998 -0.002064 0.028345 0.000000 0.038955 0.000000
# 4 0.000000 0.000000 0.000000 0.079488 0.000000 0.208628
# 5 0.024592 -0.004847 0.038955 0.000000 0.094927 0.000000
# 6 0.000000 0.000000 0.000000 0.208628 0.000000 0.324918
#
#
# Mechanical properties :
#
#
# Convention : Reuss Voigt Hill
#
# Bulk Modulus (GPa) = 15.09063 41.06707 28.07885
# Shear Modulus (GPa) = 8.51624 17.51142 13.01383
#
# Velocity S-wave (km/s) = 1.96592 2.81904 2.43021
# Velocity P-wave (km/s) = 3.46432 5.40676 4.54062
#
# Compressibility (1/GPa) = 0.06626629
#
# Stress axis : x y z
#
# Youngs Moduli (GPa) = 55.45218 51.01949 35.27966
#
# Poissons Ratio (x) = 0.14237 -0.17632
# Poissons Ratio (y) = 0.15474 0.07280
# Poissons Ratio (z) = -0.27714 0.10528
#
# Static dielectric constant tensor:
#      x y z
#    x 1.829390 0.000000 -0.022890 
#    y 0.000000 1.832020 0.000000 
#    z -0.022890 0.000000 1.822830 
# 
# From -- ./inp_files/263933.got.cif
#   From: 2010.05.17/outbox.cif.g08.bks.cpg/sg12_132_cif.got.tgz:263933.got - 2010.06.03 13:09:07.
