data_PCOD9173005
_publ_section_title
;
Structure prediction by ZEFSAII (Michael W. Deem and Ramdas Pophale) SiO2 
 PCOD9173005
Probable space group: C 2/M
;
_chemical_formula_sum "Si O2"
_cell_formula_units_Z 40
_cell_length_a 8.405766
_cell_length_b 17.149776
_cell_length_c 12.291599
_cell_angle_alpha 90.000000
_cell_angle_beta 67.989471
_cell_angle_gamma 90.000000
_cell_volume 1642.773689
_symmetry_space_group_name_H-M "C 2/M"
_symmetry_group_IT_number 12
_symmetry_cell_setting 'monoclinic'
loop_
_space_group_symop_operation_xyz
x,y,z
-x,y,-z
-x,-y,-z
x,-y,z
1/2+x,1/2+y,z
1/2-x,1/2+y,-z
1/2-x,1/2-y,-z
1/2+x,1/2-y,z
loop_
_atom_site_type_symbol
_atom_site_label
_atom_site_fract_x
_atom_site_fract_y
_atom_site_fract_z
Si Si1 0.768832 0.095105 0.974570
Si Si2 0.087809 0.912576 0.772318
Si Si3 0.455892 0.093223 0.180036
Si Si4 0.629279 0.627914 0.367542
Si Si5 0.169699 0.706211 0.413213
O O1 0.653142 0.117961 0.899078
O O2 0.964203 0.118978 0.899403
O O3 0.777782 0.000000 0.974333
O O4 0.652402 0.120438 0.108121
O O5 0.218599 0.852719 0.684660
O O6 0.949051 0.919553 0.710706
O O7 0.154805 0.000000 0.779343
O O8 0.334578 0.114055 0.313305
O O9 0.463974 0.000000 0.176012
O O10 0.500000 0.609958 0.500000
O O11 0.614874 0.720582 0.353453
O O12 0.250000 0.750000 0.500000
O O13 0.000000 0.664862 0.500000
#
# Coordination Sequence:
#
# PCOD9173005 Si02
#       5
#     8   8   8   8   8
#     4   7  12  24  43  69 101 131 167 215 263 293
#     4  10  19  33  55  79 101 137 182 220 252 311
#     4   8  13  23  42  71 103 134 169 215 256 302
#     4  10  18  30  49  74 108 137 172 209 267 303
#     4  11  21  38  52  75 110 146 168 211 270 318
#
# _framework density 24.349060999999999
#
# number of rings (size 3 to 8) (size 9 to 14) (size 15 to 20)
#    0.000    2.800    4.000    3.000    0.000    2.000 
#    0.000    1.000    0.000    0.000    0.000    0.000 
#    0.000    4.800    0.000    0.000    0.000    0.000 
#
# Total GULP energy -111380.846081 kJ/mol
# GULP energy per Si atom -5569.042304 kJ/mol
# Density = 2.429364 g / cm^3
# Si number density = 24.349061 Si / 1000 Ang^3
#
#
#
# Elastic Constant Matrix: (Units=GPa)
#
#
# Indices 1 2 3 4 5 6 
#
# 1 62.1520 32.5646 78.6172 0.0000 -16.3706 0.0000
# 2 32.5646 57.7302 53.0487 0.0000 -13.2224 0.0000
# 3 78.6172 53.0487 267.1972 0.0000 -73.0408 0.0000
# 4 0.0000 0.0000 0.0000 53.3643 0.0000 -10.2207
# 5 -16.3706 -13.2224 -73.0408 0.0000 66.7551 0.0000
# 6 0.0000 0.0000 0.0000 -10.2207 0.0000 22.6521
#
#
#
# Elastic Compliance Matrix: (Units=1/GPa)
#
#
# Indices 1 2 3 4 5 6 
#
# 1 0.030803 -0.010983 -0.007722 0.000000 -0.003071 0.000000
# 2 -0.010983 0.025119 -0.001615 0.000000 0.000515 0.000000
# 3 -0.007722 -0.001615 0.008175 0.000000 0.006732 0.000000
# 4 0.000000 0.000000 0.000000 0.020512 0.000000 0.009255
# 5 -0.003071 0.000515 0.006732 0.000000 0.021695 0.000000
# 6 0.000000 0.000000 0.000000 0.009255 0.000000 0.048322
#
#
# Mechanical properties :
#
#
# Convention : Reuss Voigt Hill
#
# Bulk Modulus (GPa) = 42.62926 79.50448 61.06687
# Shear Modulus (GPa) = 24.62036 43.41092 34.01564
#
# Velocity S-wave (km/s) = 3.18330 4.22697 3.74170
# Velocity P-wave (km/s) = 5.57286 7.51970 6.61826
#
# Compressibility (1/GPa) = 0.02345807
#
# Stress axis : x y z
#
# Youngs Moduli (GPa) = 32.46444 39.81047 122.31970
#
# Poissons Ratio (x) = 0.43723 0.94455
# Poissons Ratio (y) = 0.35655 0.19751
# Poissons Ratio (z) = 0.25069 0.06428
#
# Static dielectric constant tensor:
#      x y z
#    x 2.110020 0.000000 -0.001910 
#    y 0.000000 1.877670 0.000000 
#    z -0.001910 0.000000 2.081130 
# 
# From -- ./inp_files/196773.got.cif
#   From: 2010.05.17/outbox.cif.g08.bks.cpg/sg12_99_cif.got.tgz:196773.got - 2010.06.03 13:09:07.
