data_PCOD9173591
_publ_section_title
;
Structure prediction by ZEFSAII (Michael W. Deem and Ramdas Pophale) SiO2 
 PCOD9173591
Probable space group: C 2/M
;
_chemical_formula_sum "Si O2"
_cell_formula_units_Z 42
_cell_length_a 27.792699
_cell_length_b 13.178780
_cell_length_c 5.515448
_cell_angle_alpha 90.000000
_cell_angle_beta 90.328285
_cell_angle_gamma 90.000000
_cell_volume 2020.131300
_symmetry_space_group_name_H-M "C 2/M"
_symmetry_group_IT_number 12
_symmetry_cell_setting 'monoclinic'
loop_
_space_group_symop_operation_xyz
x,y,z
-x,y,-z
-x,-y,-z
x,-y,z
1/2+x,1/2+y,z
1/2-x,1/2+y,-z
1/2-x,1/2-y,-z
1/2+x,1/2-y,z
loop_
_atom_site_type_symbol
_atom_site_label
_atom_site_fract_x
_atom_site_fract_y
_atom_site_fract_z
Si Si1 0.233313 0.380211 0.251983
Si Si2 0.690316 0.205926 0.749876
Si Si3 0.500000 0.500000 0.500000
Si Si4 0.446077 0.669748 0.777125
Si Si5 0.636499 0.500000 0.205118
Si Si6 0.363576 0.500000 0.296022
Si Si7 0.915861 0.215551 0.279007
O O1 0.238391 0.500000 0.253436
O O2 0.282472 0.314703 0.256182
O O3 0.205671 0.347972 0.499149
O O4 0.207171 0.347351 0.999583
O O5 0.633584 0.224297 0.753587
O O6 0.486211 0.588739 0.700123
O O7 0.397628 0.598746 0.795297
O O8 0.438921 0.739424 0.540018
O O9 0.446973 0.723974 0.036201
O O10 0.664981 0.500000 0.454783
O O11 0.663935 0.500000 0.956074
O O12 0.399742 0.596138 0.300850
#
# Coordination Sequence:
#
# PCOD9173591 Si02
#       7
#     8   8   2   8   4   4   8
#     4  10  21  38  54  78 106 144 176 226 289 339
#     4  10  21  35  56  78 106 138 187 230 275 323
#     4  10  20  34  44  70 108 154 190 218 252 350
#     4   9  18  28  44  62  95 134 177 214 253 292
#     4   7  12  23  32  52  76 112 154 196 222 282
#     4   8  14  22  38  57  86 112 154 198 252 260
#     4  10  18  31  46  71  94 132 181 226 249 302
#
# _framework density 20.790728000000001
#
# number of rings (size 3 to 8) (size 9 to 14) (size 15 to 20)
#    0.000    2.667    0.000    2.857    1.333    1.524 
#    0.000    0.000    0.000    0.000    0.000    0.000 
#    0.000    0.000    0.000   60.000    0.000    0.000 
#
# Total GULP energy -116913.105899 kJ/mol
# GULP energy per Si atom -5567.290757 kJ/mol
# Density = 2.074341 g / cm^3
# Si number density = 20.790728 Si / 1000 Ang^3
#
#
#
# Elastic Constant Matrix: (Units=GPa)
#
#
# Indices 1 2 3 4 5 6 
#
# 1 69.0356 22.0447 46.1352 0.0000 -9.3692 0.0000
# 2 22.0447 89.1458 39.9763 0.0000 -2.1254 0.0000
# 3 46.1352 39.9763 254.3226 0.0000 9.2072 0.0000
# 4 0.0000 0.0000 0.0000 16.8824 0.0000 0.2515
# 5 -9.3692 -2.1254 9.2072 0.0000 31.6980 0.0000
# 6 0.0000 0.0000 0.0000 0.2515 0.0000 21.6099
#
#
#
# Elastic Compliance Matrix: (Units=1/GPa)
#
#
# Indices 1 2 3 4 5 6 
#
# 1 0.018329 -0.003009 -0.003073 0.000000 0.006109 0.000000
# 2 -0.003009 0.012622 -0.001452 0.000000 0.000379 0.000000
# 3 -0.003073 -0.001452 0.004805 0.000000 -0.002401 0.000000
# 4 0.000000 0.000000 0.000000 0.059244 0.000000 -0.000690
# 5 0.006109 0.000379 -0.002401 0.000000 0.034076 0.000000
# 6 0.000000 0.000000 0.000000 -0.000690 0.000000 0.046283
#
#
# Mechanical properties :
#
#
# Convention : Reuss Voigt Hill
#
# Bulk Modulus (GPa) = 48.33807 69.86848 59.10327
# Shear Modulus (GPa) = 25.33937 34.32791 29.83364
#
# Velocity S-wave (km/s) = 3.49489 4.06780 3.79218
# Velocity P-wave (km/s) = 6.29174 7.46600 6.90388
#
# Compressibility (1/GPa) = 0.02068763
#
# Stress axis : x y z
#
# Youngs Moduli (GPa) = 54.55897 79.22856 208.13193
#
# Poissons Ratio (x) = 0.23838 0.63962
# Poissons Ratio (y) = 0.16415 0.30218
# Poissons Ratio (z) = 0.16767 0.11503
#
# Static dielectric constant tensor:
#      x y z
#    x 1.823000 0.000000 0.050530 
#    y 0.000000 1.712920 0.000000 
#    z 0.050530 0.000000 1.860170 
# 
# From -- ./inp_files/30793.got.cif
#   From: 2010.05.17/outbox.cif.g08.bks.cpg/sg12_16_cif.got.tgz:30793.got - 2010.06.03 13:09:07.
