data_PCOD9173701
_publ_section_title
;
Structure prediction by ZEFSAII (Michael W. Deem and Ramdas Pophale) SiO2 
 PCOD9173701
Probable space group: C 2/M
;
_chemical_formula_sum "Si O2"
_cell_formula_units_Z 56
_cell_length_a 15.080812
_cell_length_b 17.814582
_cell_length_c 14.801164
_cell_angle_alpha 90.000000
_cell_angle_beta 134.889630
_cell_angle_gamma 90.000000
_cell_volume 2817.190506
_symmetry_space_group_name_H-M "C 2/M"
_symmetry_group_IT_number 12
_symmetry_cell_setting 'monoclinic'
loop_
_space_group_symop_operation_xyz
x,y,z
-x,y,-z
-x,-y,-z
x,-y,z
1/2+x,1/2+y,z
1/2-x,1/2+y,-z
1/2-x,1/2-y,-z
1/2+x,1/2-y,z
loop_
_atom_site_type_symbol
_atom_site_label
_atom_site_fract_x
_atom_site_fract_y
_atom_site_fract_z
Si Si1 0.036290 0.147088 0.315012
Si Si2 0.410080 0.910817 0.349031
Si Si3 0.142870 0.170753 0.572587
Si Si4 0.091047 0.700264 0.806845
Si Si5 0.288396 0.416259 0.204038
Si Si6 0.144295 0.730809 0.039358
Si Si7 0.683900 0.309614 0.248777
O O1 0.136990 0.139613 0.466922
O O2 0.096235 0.151590 0.259862
O O3 0.973883 0.228743 0.286585
O O4 0.921390 0.090918 0.247475
O O5 0.500000 0.895551 0.500000
O O6 0.446733 0.871015 0.280220
O O7 0.279217 0.872083 0.280662
O O8 0.401731 0.000000 0.331851
O O9 0.185285 0.107386 0.673766
O O10 0.231801 0.243026 0.646507
O O11 0.000000 0.189714 0.500000
O O12 0.240499 0.714898 0.909198
O O13 0.061808 0.710799 0.891815
O O14 0.238803 0.500000 0.159927
O O15 0.200266 0.350822 0.103768
O O16 0.115425 0.770553 0.114434
#
# Coordination Sequence:
#
# PCOD9173701 Si02
#       7
#     8   8   8   8   8   8   8
#     4  10  19  28  49  76  98 128 159 204 260 293
#     4  10  20  33  50  72 101 135 166 201 242 289
#     4   9  17  30  48  70  95 134 173 203 238 282
#     4   9  17  33  51  70  94 125 170 205 233 292
#     4   9  18  32  49  73 103 132 166 202 240 294
#     4   8  17  32  52  70  90 128 168 203 241 283
#     4  10  18  31  49  73 100 124 162 209 253 297
#
# _framework density 19.877960000000002
#
# number of rings (size 3 to 8) (size 9 to 14) (size 15 to 20)
#    0.000    2.714    0.000    4.286    0.000    4.286 
#    0.000    0.000    0.000    5.143    0.000   13.000 
#    0.000    0.000    0.000    0.000    0.000    0.000 
#
# Total GULP energy -155968.202283 kJ/mol
# GULP energy per Si atom -5570.292939 kJ/mol
# Density = 1.983272 g / cm^3
# Si number density = 19.877960 Si / 1000 Ang^3
#
#
#
# Elastic Constant Matrix: (Units=GPa)
#
#
# Indices 1 2 3 4 5 6 
#
# 1 60.6585 7.5394 23.3054 0.0000 -37.6103 0.0000
# 2 7.5394 99.6439 41.3268 0.0000 -10.8115 0.0000
# 3 23.3054 41.3268 121.4978 0.0000 -31.5209 0.0000
# 4 0.0000 0.0000 0.0000 17.4135 0.0000 -29.5467
# 5 -37.6103 -10.8115 -31.5209 0.0000 31.6835 0.0000
# 6 0.0000 0.0000 0.0000 -29.5467 0.0000 89.4545
#
#
#
# Elastic Compliance Matrix: (Units=1/GPa)
#
#
# Indices 1 2 3 4 5 6 
#
# 1 0.072462 0.000431 0.011198 0.000000 0.097304 0.000000
# 2 0.000431 0.011687 -0.003896 0.000000 0.000623 0.000000
# 3 0.011198 -0.003896 0.014169 0.000000 0.026059 0.000000
# 4 0.000000 0.000000 0.000000 0.130646 0.000001 0.043152
# 5 0.097304 0.000623 0.026059 0.000001 0.173207 0.000000
# 6 0.000000 0.000000 0.000000 0.043152 0.000000 0.025432
#
#
# Mechanical properties :
#
#
# Convention : Reuss Voigt Hill
#
# Bulk Modulus (GPa) = 8.78870 47.34927 28.06898
# Shear Modulus (GPa) = 11.10955 41.68556 26.39755
#
# Velocity S-wave (km/s) = 2.36665 4.58435 3.64810
# Velocity P-wave (km/s) = 3.44948 7.20371 5.64767
#
# Compressibility (1/GPa) = 0.11378243
#
# Stress axis : x y z
#
# Youngs Moduli (GPa) = 13.80039 85.56773 70.57879
#
# Poissons Ratio (x) = -0.03684 -0.79036
# Poissons Ratio (y) = -0.00594 0.27499
# Poissons Ratio (z) = -0.15454 0.33338
#
# Static dielectric constant tensor:
#      x y z
#    x 1.825050 0.000000 0.015300 
#    y 0.000000 1.651110 0.000000 
#    z 0.015300 0.000000 1.819650 
# 
# From -- ./inp_files/216017.got.cif
#   From: 2010.05.17/outbox.cif.g08.bks.cpg/sg12_109_cif.got.tgz:216017.got - 2010.06.03 13:09:07.
