data_PCOD9173150
_publ_section_title
;
Structure prediction by ZEFSAII (Michael W. Deem and Ramdas Pophale) SiO2 
 PCOD9173150
Probable space group: C 2/M
;
_chemical_formula_sum "Si O2"
_cell_formula_units_Z 44
_cell_length_a 19.235164
_cell_length_b 8.605543
_cell_length_c 11.295226
_cell_angle_alpha 90.000000
_cell_angle_beta 87.000109
_cell_angle_gamma 90.000000
_cell_volume 1867.125658
_symmetry_space_group_name_H-M "C 2/M"
_symmetry_group_IT_number 12
_symmetry_cell_setting 'monoclinic'
loop_
_space_group_symop_operation_xyz
x,y,z
-x,y,-z
-x,-y,-z
x,-y,z
1/2+x,1/2+y,z
1/2-x,1/2+y,-z
1/2-x,1/2-y,-z
1/2+x,1/2-y,z
loop_
_atom_site_type_symbol
_atom_site_label
_atom_site_fract_x
_atom_site_fract_y
_atom_site_fract_z
Si Si1 0.569037 0.173794 0.409331
Si Si2 0.660142 0.319200 0.592088
Si Si3 0.978627 0.176822 0.235515
Si Si4 0.155916 0.823250 0.039109
Si Si5 0.500000 0.247940 0.000000
Si Si6 0.757526 0.185806 0.198121
O O1 0.500000 0.168607 0.500000
O O2 0.635350 0.224835 0.480082
O O3 0.544701 0.294956 0.312865
O O4 0.579415 0.000000 0.361322
O O5 0.673503 0.500000 0.559772
O O6 0.591275 0.315673 0.681673
O O7 0.719763 0.254980 0.674621
O O8 0.978653 0.306990 0.133014
O O9 0.978845 0.000000 0.186097
O O10 0.183470 0.729525 0.149573
O O11 0.180175 0.000000 0.052359
O O12 0.073720 0.821797 0.030548
O O13 0.190352 0.763090 0.913252
O O14 0.764468 0.000000 0.206354
#
# Coordination Sequence:
#
# PCOD9173150 Si02
#       6
#     8   8   8   8   4   8
#     4   9  18  31  47  72 105 135 169 216 265 308
#     4   9  16  30  53  76  99 133 176 218 257 302
#     4  10  18  30  50  76 104 136 174 213 256 307
#     4  10  19  32  51  76 106 140 176 214 256 307
#     4  12  21  34  57  82 109 142 179 216 255 312
#     4   9  18  33  51  75 106 138 175 216 259 307
#
# _framework density 23.565633999999999
#
# number of rings (size 3 to 8) (size 9 to 14) (size 15 to 20)
#    0.000    2.364    1.818    2.182    0.000    2.909 
#    0.000    2.727    0.000    1.091    0.000    0.000 
#    0.000    0.000    0.000    0.000    0.000    0.000 
#
# Total GULP energy -122583.082502 kJ/mol
# GULP energy per Si atom -5571.958296 kJ/mol
# Density = 2.351200 g / cm^3
# Si number density = 23.565634 Si / 1000 Ang^3
#
#
#
# Elastic Constant Matrix: (Units=GPa)
#
#
# Indices 1 2 3 4 5 6 
#
# 1 110.9163 12.6012 34.8535 0.0000 22.9310 0.0000
# 2 12.6012 37.9099 13.3886 0.0000 16.0590 0.0000
# 3 34.8535 13.3886 75.4537 0.0000 49.6279 0.0000
# 4 0.0000 0.0000 0.0000 2.1543 0.0000 6.1590
# 5 22.9310 16.0590 49.6279 0.0000 57.5619 0.0000
# 6 0.0000 0.0000 0.0000 6.1590 0.0000 8.2816
#
#
#
# Elastic Compliance Matrix: (Units=1/GPa)
#
#
# Indices 1 2 3 4 5 6 
#
# 1 0.010685 -0.002051 -0.004963 0.000000 0.000594 0.000000
# 2 -0.002051 0.030313 0.001371 0.000000 -0.008822 0.000000
# 3 -0.004963 0.001371 0.032923 0.000000 -0.026791 0.000000
# 4 0.000000 0.000000 0.000000 -0.412162 0.000000 0.306527
# 5 0.000594 -0.008822 -0.026791 0.000000 0.042695 0.000000
# 6 0.000000 0.000000 0.000000 0.306527 0.000000 -0.107216
#
#
# Mechanical properties :
#
#
# Convention : Reuss Voigt Hill
#
# Bulk Modulus (GPa) = 15.96513 38.44073 27.20293
# Shear Modulus (GPa) = -13.49170 24.49533 5.50181
#
# Velocity S-wave (km/s) = -2.39533 3.22755 1.52962
# Velocity P-wave (km/s) = 0.92772 5.49882 3.83252
#
# Compressibility (1/GPa) = 0.06263650
#
# Stress axis : x y z
#
# Youngs Moduli (GPa) = 93.58566 32.98931 30.37381
#
# Poissons Ratio (x) = 0.06765 0.15073
# Poissons Ratio (y) = 0.19192 -0.04164
# Poissons Ratio (z) = 0.46442 -0.04522
#
# Static dielectric constant tensor:
#      x y z
#    x 1.906200 0.000000 -0.054100 
#    y 0.000000 1.867280 0.000000 
#    z -0.054100 0.000000 1.949210 
# 
# From -- ./inp_files/163212.got.cif
#   From: 2010.05.17/outbox.cif.g08.bks.cpg/sg12_82_cif.got.tgz:163212.got - 2010.06.03 13:09:07.
