data_PCOD9173557
_publ_section_title
;
Structure prediction by ZEFSAII (Michael W. Deem and Ramdas Pophale) SiO2 
 PCOD9173557
Probable space group: C 2/M
;
_chemical_formula_sum "Si O2"
_cell_formula_units_Z 44
_cell_length_a 16.802115
_cell_length_b 28.967546
_cell_length_c 11.595626
_cell_angle_alpha 90.000000
_cell_angle_beta 159.539356
_cell_angle_gamma 90.000000
_cell_volume 1972.860790
_symmetry_space_group_name_H-M "C 2/M"
_symmetry_group_IT_number 12
_symmetry_cell_setting 'monoclinic'
loop_
_space_group_symop_operation_xyz
x,y,z
-x,y,-z
-x,-y,-z
x,-y,z
1/2+x,1/2+y,z
1/2-x,1/2+y,-z
1/2-x,1/2-y,-z
1/2+x,1/2-y,z
loop_
_atom_site_type_symbol
_atom_site_label
_atom_site_fract_x
_atom_site_fract_y
_atom_site_fract_z
Si Si1 0.330322 0.152476 0.054621
Si Si2 0.831741 0.419185 0.374306
Si Si3 0.422224 0.000000 0.676506
Si Si4 0.557565 0.623055 0.303522
Si Si5 0.724882 0.571247 0.741397
Si Si6 0.898900 0.706147 0.734057
O O1 0.533025 0.125439 0.394538
O O2 0.409963 0.199478 0.104907
O O3 0.119493 0.151150 0.855390
O O4 0.266232 0.120019 0.859725
O O5 0.000000 0.437054 0.500000
O O6 0.819474 0.458949 0.452445
O O7 0.595392 0.401692 0.000256
O O8 0.565038 0.960593 0.944482
O O9 0.664725 0.582873 0.528815
O O10 0.745797 0.659540 0.520803
O O11 0.500000 0.551771 0.500000
O O12 0.750000 0.750000 0.500000
O O13 0.000000 0.709603 0.000000
#
# Coordination Sequence:
#
# PCOD9173557 Si02
#       6
#     8   8   4   8   8   8
#     4   9  20  41  62  89 130 166 205 254 308 380
#     4   9  19  34  59  92 131 170 207 256 311 361
#     4  10  18  30  56  98 133 159 219 268 291 359
#     4  10  21  40  65  92 126 173 211 246 321 376
#     4   9  17  32  57  87 124 172 208 252 304 358
#     4  12  27  43  67  97 121 159 212 262 321 380
#
# _framework density 22.302636
#
# number of rings (size 3 to 8) (size 9 to 14) (size 15 to 20)
#    0.000    2.182    1.818    1.636    2.545    1.455 
#    0.000    0.000    0.000   17.455    0.000    0.000 
#    0.000    0.000    0.000    0.000    0.000    0.000 
#
# Total GULP energy -122490.419441 kJ/mol
# GULP energy per Si atom -5567.746338 kJ/mol
# Density = 2.225187 g / cm^3
# Si number density = 22.302636 Si / 1000 Ang^3
#
#
#
# Elastic Constant Matrix: (Units=GPa)
#
#
# Indices 1 2 3 4 5 6 
#
# 1 94.2179 28.3383 55.9468 0.0000 9.2337 -0.0002
# 2 28.3383 64.2234 40.7102 0.0014 6.0916 0.0012
# 3 55.9468 40.7102 154.3694 0.0008 -35.1977 0.0003
# 4 0.0000 0.0014 0.0008 -19.7171 -0.0007 -31.8766
# 5 9.2337 6.0916 -35.1977 -0.0007 35.5183 -0.0006
# 6 -0.0002 0.0012 0.0003 -31.8766 -0.0006 -43.9474
#
#
#
# Elastic Compliance Matrix: (Units=1/GPa)
#
#
# Indices 1 2 3 4 5 6 
#
# 1 0.017757 -0.000509 -0.009475 0.000000 -0.013918 0.000000
# 2 -0.000509 0.022291 -0.008443 -0.000003 -0.012058 0.000003
# 3 -0.009475 -0.008443 0.016834 0.000000 0.020593 0.000000
# 4 0.000000 -0.000003 0.000000 0.293763 0.000002 -0.213077
# 5 -0.013918 -0.012058 0.020593 0.000002 0.054248 -0.000002
# 6 0.000000 0.000003 0.000000 -0.213077 -0.000002 0.131798
#
#
# Mechanical properties :
#
#
# Convention : Reuss Voigt Hill
#
# Bulk Modulus (GPa) = 49.93124 62.53348 56.23236
# Shear Modulus (GPa) = 8.61740 6.89179 7.75459
#
# Velocity S-wave (km/s) = 1.96780 1.75978 1.86669
# Velocity P-wave (km/s) = 5.25353 5.67702 5.46938
#
# Compressibility (1/GPa) = 0.02002754
#
# Stress axis : x y z
#
# Youngs Moduli (GPa) = 56.31581 44.86088 59.40366
#
# Poissons Ratio (x) = 0.02284 0.56283
# Poissons Ratio (y) = 0.02867 0.50157
# Poissons Ratio (z) = 0.53358 0.37878
#
# Static dielectric constant tensor:
#      x y z
#    x 2.036020 0.000000 0.092850 
#    y 0.000000 1.778310 0.000000 
#    z 0.092850 0.000000 1.860340 
# 
# From -- ./inp_files/161147.got.cif
#   From: 2010.05.17/outbox.cif.g08.bks.cpg/sg12_81_cif.got.tgz:161147.got - 2010.06.03 13:09:07.
