data_PCOD9173494
_publ_section_title
;
Structure prediction by ZEFSAII (Michael W. Deem and Ramdas Pophale) SiO2 
 PCOD9173494
Probable space group: C 2/M
;
_chemical_formula_sum "Si O2"
_cell_formula_units_Z 64
_cell_length_a 17.172306
_cell_length_b 18.425420
_cell_length_c 12.194690
_cell_angle_alpha 90.000000
_cell_angle_beta 90.000482
_cell_angle_gamma 90.000000
_cell_volume 3858.484674
_symmetry_space_group_name_H-M "C 2/M"
_symmetry_group_IT_number 12
_symmetry_cell_setting 'monoclinic'
loop_
_space_group_symop_operation_xyz
x,y,z
-x,y,-z
-x,-y,-z
x,-y,z
1/2+x,1/2+y,z
1/2-x,1/2+y,-z
1/2-x,1/2-y,-z
1/2+x,1/2-y,z
loop_
_atom_site_type_symbol
_atom_site_label
_atom_site_fract_x
_atom_site_fract_y
_atom_site_fract_z
Si Si1 0.656293 0.237120 0.499999
Si Si2 0.322071 0.192854 0.125625
Si Si3 0.909244 0.800297 0.273720
Si Si4 0.722624 0.583946 0.261773
Si Si5 0.177926 0.307145 0.125621
Si Si6 0.798274 0.580992 0.499999
Si Si7 0.090754 0.199704 0.273715
Si Si8 0.777371 0.916054 0.261773
O O1 0.750000 0.250000 0.500000
O O2 0.619922 0.271789 0.608237
O O3 0.645499 0.150195 0.500002
O O4 0.619923 0.271786 0.391756
O O5 0.389625 0.235885 0.188464
O O6 0.290253 0.124249 0.193257
O O7 0.249998 0.249999 0.126021
O O8 0.340876 0.175339 0.000003
O O9 0.855773 0.869696 0.245647
O O10 0.999999 0.817340 0.275333
O O11 0.714161 0.500000 0.230734
O O12 0.746714 0.587064 0.389973
O O13 0.644223 0.630305 0.245644
O O14 0.110370 0.264115 0.188455
O O15 0.209744 0.375750 0.193256
O O16 0.833804 0.500000 0.499998
O O17 0.746718 0.587064 0.610027
O O18 0.785834 0.000000 0.230734
#
# Coordination Sequence:
#
# PCOD9173494 Si02
#       8
#     8   8   8   8   8   8   8   8
#     4  12  17  34  55  74 105 141 186 221 249 300
#     4   9  18  34  54  74  97 134 185 226 252 294
#     4  11  21  32  51  81 112 141 171 211 267 322
#     4  10  19  33  54  79 106 139 176 215 258 309
#     4   9  18  34  54  74  97 134 185 226 252 294
#     4  10  18  30  54  78 101 131 170 220 261 294
#     4  11  21  32  51  81 112 141 171 211 267 322
#     4  10  19  33  54  79 106 139 176 215 258 309
#
# _framework density 16.586822000000002
#
# number of rings (size 3 to 8) (size 9 to 14) (size 15 to 20)
#    0.000    1.750    5.000    1.125    0.000    1.500 
#    0.000    0.000    0.000    7.500    0.000    8.750 
#    0.000    0.000    0.000    0.000    0.000    0.000 
#
# Total GULP energy -178440.687450 kJ/mol
# GULP energy per Si atom -5576.271483 kJ/mol
# Density = 1.654907 g / cm^3
# Si number density = 16.586822 Si / 1000 Ang^3
#
#
#
# Elastic Constant Matrix: (Units=GPa)
#
#
# Indices 1 2 3 4 5 6 
#
# 1 29.0616 27.3240 21.1701 0.0000 -0.0016 0.0000
# 2 27.3240 146.7842 36.4292 0.0000 -0.0032 0.0000
# 3 21.1701 36.4292 109.8241 0.0000 -0.0048 0.0000
# 4 0.0000 0.0000 0.0000 0.4951 0.0000 -0.0001
# 5 -0.0016 -0.0032 -0.0048 0.0000 2.0787 0.0000
# 6 0.0000 0.0000 0.0000 -0.0001 0.0000 14.5849
#
#
#
# Elastic Compliance Matrix: (Units=1/GPa)
#
#
# Indices 1 2 3 4 5 6 
#
# 1 0.045618 -0.006876 -0.006513 0.000000 0.000010 0.000000
# 2 -0.006876 0.008460 -0.001481 0.000000 0.000004 0.000000
# 3 -0.006513 -0.001481 0.010852 0.000000 0.000018 0.000000
# 4 0.000000 0.000000 0.000000 2.019847 0.000000 0.000008
# 5 0.000010 0.000004 0.000018 0.000000 0.481080 0.000000
# 6 0.000000 0.000000 0.000000 0.000008 0.000000 0.068564
#
#
# Mechanical properties :
#
#
# Convention : Reuss Voigt Hill
#
# Bulk Modulus (GPa) = 28.41555 50.61293 39.51424
# Shear Modulus (GPa) = 1.86854 16.81484 9.34169
#
# Velocity S-wave (km/s) = 1.06253 3.18739 2.37576
# Velocity P-wave (km/s) = 4.32133 6.64275 5.60357
#
# Compressibility (1/GPa) = 0.03519200
#
# Stress axis : x y z
#
# Youngs Moduli (GPa) = 21.92096 118.20132 92.14756
#
# Poissons Ratio (x) = 0.81270 0.60015
# Poissons Ratio (y) = 0.15072 0.13646
# Poissons Ratio (z) = 0.14277 0.17505
#
# Static dielectric constant tensor:
#      x y z
#    x 1.529750 0.000000 0.000000 
#    y 0.000000 1.574340 0.000000 
#    z 0.000000 0.000000 1.564710 
# 
# From -- ./inp_files/146176.got.cif
#   From: 2010.05.17/outbox.cif.g08.bks.cpg/sg12_74_cif.got.tgz:146176.got - 2010.06.03 13:09:07.
