data_PCOD9173161
_publ_section_title
;
Structure prediction by ZEFSAII (Michael W. Deem and Ramdas Pophale) SiO2 
 PCOD9173161
Probable space group: C 2/M
;
_chemical_formula_sum "Si O2"
_cell_formula_units_Z 44
_cell_length_a 18.215157
_cell_length_b 15.700470
_cell_length_c 9.550060
_cell_angle_alpha 90.000000
_cell_angle_beta 141.690712
_cell_angle_gamma 90.000000
_cell_volume 1693.080785
_symmetry_space_group_name_H-M "C 2/M"
_symmetry_group_IT_number 12
_symmetry_cell_setting 'monoclinic'
loop_
_space_group_symop_operation_xyz
x,y,z
-x,y,-z
-x,-y,-z
x,-y,z
1/2+x,1/2+y,z
1/2-x,1/2+y,-z
1/2-x,1/2-y,-z
1/2+x,1/2-y,z
loop_
_atom_site_type_symbol
_atom_site_label
_atom_site_fract_x
_atom_site_fract_y
_atom_site_fract_z
Si Si1 0.318800 0.227584 0.356925
Si Si2 0.950643 0.297315 0.067750
Si Si3 0.153407 0.092686 0.622981
Si Si4 0.753790 0.590563 0.461758
Si Si5 0.646489 0.903538 0.842846
Si Si6 0.000000 0.862089 0.000000
O O1 0.398440 0.311635 0.452349
O O2 0.317808 0.174609 0.500499
O O3 0.334474 0.158027 0.259366
O O4 0.186234 0.266294 0.148804
O O5 0.948357 0.357278 0.198440
O O6 0.009317 0.203873 0.143094
O O7 0.000000 0.341900 0.000000
O O8 0.227167 0.092024 0.587026
O O9 0.088308 0.000000 0.519022
O O10 0.236038 0.090247 0.884273
O O11 0.813187 0.500000 0.517232
O O12 0.624215 0.590611 0.191797
O O13 0.615358 0.000000 0.758020
#
# Coordination Sequence:
#
# PCOD9173161 Si02
#       6
#     8   8   8   8   8   4
#     4  10  18  32  52  77 105 135 171 214 267 304
#     4   8  16  30  48  72 100 135 176 207 248 300
#     4   9  18  30  48  76 104 132 172 217 258 300
#     4  10  18  30  50  77 105 135 171 213 258 310
#     4  10  19  32  53  80 106 136 172 216 261 308
#     4   8  17  30  47  72 100 134 177 206 251 300
#
# _framework density 25.988128
#
# number of rings (size 3 to 8) (size 9 to 14) (size 15 to 20)
#    0.545    2.182    0.000    3.545    0.000    0.364 
#    0.000    0.000    0.000   10.909    0.000   30.545 
#    0.000    0.000    0.000    0.000    0.000    0.000 
#
# Total GULP energy -122695.437941 kJ/mol
# GULP energy per Si atom -5577.065361 kJ/mol
# Density = 2.592898 g / cm^3
# Si number density = 25.988128 Si / 1000 Ang^3
#
#
#
# Elastic Constant Matrix: (Units=GPa)
#
#
# Indices 1 2 3 4 5 6 
#
# 1 125.4034 55.3007 22.3406 0.0000 -30.4659 0.0000
# 2 55.3007 276.7384 40.5823 0.0000 -38.6856 0.0000
# 3 22.3406 40.5823 115.6735 0.0000 -26.2320 0.0000
# 4 0.0000 0.0000 0.0000 3.9711 0.0000 3.3144
# 5 -30.4659 -38.6856 -26.2320 0.0000 41.7990 0.0000
# 6 0.0000 0.0000 0.0000 3.3144 0.0000 2.2392
#
#
#
# Elastic Compliance Matrix: (Units=1/GPa)
#
#
# Indices 1 2 3 4 5 6 
#
# 1 0.009987 -0.001114 -0.000141 0.000000 0.006160 0.000000
# 2 -0.001114 0.004321 -0.000674 0.000000 0.002765 0.000000
# 3 -0.000141 -0.000674 0.010195 0.000000 0.005671 0.000000
# 4 0.000000 0.000000 0.000000 -1.069758 0.000000 1.583404
# 5 0.006160 0.002765 0.005671 0.000000 0.034532 0.000000
# 6 0.000000 0.000000 0.000000 1.583404 0.000000 -1.897100
#
#
# Mechanical properties :
#
#
# Convention : Reuss Voigt Hill
#
# Bulk Modulus (GPa) = 48.43749 83.80692 66.12221
# Shear Modulus (GPa) = -1.72587 36.24131 17.25772
#
# Velocity S-wave (km/s) = -0.81581 3.73840 2.57973
# Velocity P-wave (km/s) = 4.21798 7.13809 5.86275
#
# Compressibility (1/GPa) = 0.02064516
#
# Stress axis : x y z
#
# Youngs Moduli (GPa) = 100.12911 231.40454 98.08845
#
# Poissons Ratio (x) = 0.25777 0.01385
# Poissons Ratio (y) = 0.11154 0.06611
# Poissons Ratio (z) = 0.01414 0.15597
#
# Static dielectric constant tensor:
#      x y z
#    x 2.008660 0.000000 0.048120 
#    y 0.000000 2.086240 0.000000 
#    z 0.048120 0.000000 2.119890 
# 
# From -- ./inp_files/86037.got.cif
#   From: 2010.05.17/outbox.cif.g08.bks.cpg/sg12_44_cif.got.tgz:86037.got - 2010.06.03 13:09:07.
