data_PCOD9173866
_publ_section_title
;
Structure prediction by ZEFSAII (Michael W. Deem and Ramdas Pophale) SiO2 
 PCOD9173866
Probable space group: C 2/M
;
_chemical_formula_sum "Si O2"
_cell_formula_units_Z 56
_cell_length_a 25.741620
_cell_length_b 12.937114
_cell_length_c 15.462092
_cell_angle_alpha 90.000000
_cell_angle_beta 141.697644
_cell_angle_gamma 90.000000
_cell_volume 3191.545378
_symmetry_space_group_name_H-M "C 2/M"
_symmetry_group_IT_number 12
_symmetry_cell_setting 'monoclinic'
loop_
_space_group_symop_operation_xyz
x,y,z
-x,y,-z
-x,-y,-z
x,-y,z
1/2+x,1/2+y,z
1/2-x,1/2+y,-z
1/2-x,1/2-y,-z
1/2+x,1/2-y,z
loop_
_atom_site_type_symbol
_atom_site_label
_atom_site_fract_x
_atom_site_fract_y
_atom_site_fract_z
Si Si1 0.694203 0.878656 0.459870
Si Si2 0.625903 0.380778 0.219192
Si Si3 0.257070 0.883313 0.670732
Si Si4 0.075980 0.313239 0.040549
Si Si5 0.368656 0.380781 0.356815
Si Si6 0.041305 0.881112 0.688539
Si Si7 0.466935 0.259897 0.750821
O O1 0.775433 0.874046 0.627609
O O2 0.724218 0.845117 0.401995
O O3 0.612857 0.811585 0.378076
O O4 0.670207 0.000000 0.421708
O O5 0.606776 0.500000 0.173929
O O6 0.601748 0.300206 0.112347
O O7 0.573448 0.342861 0.234702
O O8 0.343877 0.881587 0.835674
O O9 0.193451 0.829936 0.654533
O O10 0.224447 0.000000 0.613341
O O11 0.000000 0.352088 0.000000
O O12 0.036552 0.303418 0.895192
O O13 0.340200 0.500000 0.305683
O O14 0.456503 0.385325 0.521352
O O15 0.388166 0.339118 0.286230
O O16 0.014929 0.814511 0.735833
O O17 0.062010 0.000000 0.739539
#
# Coordination Sequence:
#
# PCOD9173866 Si02
#       7
#     8   8   8   8   8   8   8
#     4  10  20  32  50  75 100 129 167 209 247 286
#     4  10  20  32  46  69 101 133 164 201 243 295
#     4  10  18  31  51  71  98 131 161 203 251 291
#     4  10  21  32  43  71 103 134 164 195 239 304
#     4   8  16  30  49  76  97 119 159 203 253 292
#     4   9  17  30  50  75 101 122 154 205 251 294
#     4  11  20  31  48  73 100 132 165 196 247 301
#
# _framework density 17.546358999999999
#
# number of rings (size 3 to 8) (size 9 to 14) (size 15 to 20)
#    0.000    2.286    2.857    2.571    2.000    6.286 
#    0.000    0.714    0.000    0.000    0.000    3.000 
#    0.000    0.000    0.000    0.000    0.000    0.000 
#
# Total GULP energy -155896.262406 kJ/mol
# GULP energy per Si atom -5567.723657 kJ/mol
# Density = 1.750642 g / cm^3
# Si number density = 17.546359 Si / 1000 Ang^3
#
#
#
# Elastic Constant Matrix: (Units=GPa)
#
#
# Indices 1 2 3 4 5 6 
#
# 1 94.9073 6.6777 15.8747 0.0000 -5.3394 0.0000
# 2 6.6777 46.0411 -13.9282 0.0000 -0.8825 0.0000
# 3 15.8747 -13.9282 62.4224 0.0000 3.9710 0.0000
# 4 0.0000 0.0000 0.0000 16.7074 0.0000 -0.5864
# 5 -5.3394 -0.8825 3.9710 0.0000 19.2978 0.0000
# 6 0.0000 0.0000 0.0000 -0.5864 0.0000 12.3884
#
#
#
# Elastic Compliance Matrix: (Units=1/GPa)
#
#
# Indices 1 2 3 4 5 6 
#
# 1 0.011585 -0.002758 -0.003807 0.000000 0.003863 0.000000
# 2 -0.002758 0.023948 0.006104 0.000000 -0.000924 0.000000
# 3 -0.003807 0.006104 0.018643 0.000000 -0.004611 0.000000
# 4 0.000000 0.000000 0.000000 0.059953 0.000000 0.002838
# 5 0.003863 -0.000924 -0.004611 0.000000 0.053795 0.000000
# 6 0.000000 0.000000 0.000000 0.002838 0.000000 0.080855
#
#
# Mechanical properties :
#
#
# Convention : Reuss Voigt Hill
#
# Bulk Modulus (GPa) = 18.77804 24.51324 21.64564
# Shear Modulus (GPa) = 18.69481 22.66181 20.67831
#
# Velocity S-wave (km/s) = 3.26767 3.59770 3.43665
# Velocity P-wave (km/s) = 4.99620 5.59096 5.30193
#
# Compressibility (1/GPa) = 0.05325371
#
# Stress axis : x y z
#
# Youngs Moduli (GPa) = 86.32020 41.75630 53.63847
#
# Poissons Ratio (x) = 0.11516 0.20421
# Poissons Ratio (y) = 0.23807 -0.32739
# Poissons Ratio (z) = 0.32864 -0.25487
#
# Static dielectric constant tensor:
#      x y z
#    x 1.644950 0.000000 -0.004730 
#    y 0.000000 1.655700 0.000000 
#    z -0.004730 0.000000 1.615260 
# 
# From -- ./inp_files/240466.got.cif
#   From: 2010.05.17/outbox.cif.g08.bks.cpg/sg12_121_cif.got.tgz:240466.got - 2010.06.03 13:09:07.
