data_PCOD9173597
_publ_section_title
;
Structure prediction by ZEFSAII (Michael W. Deem and Ramdas Pophale) SiO2 
 PCOD9173597
Probable space group: C 2/M
;
_chemical_formula_sum "Si O2"
_cell_formula_units_Z 56
_cell_length_a 11.382742
_cell_length_b 18.141934
_cell_length_c 15.345556
_cell_angle_alpha 90.000000
_cell_angle_beta 49.529699
_cell_angle_gamma 90.000000
_cell_volume 2410.742275
_symmetry_space_group_name_H-M "C 2/M"
_symmetry_group_IT_number 12
_symmetry_cell_setting 'monoclinic'
loop_
_space_group_symop_operation_xyz
x,y,z
-x,y,-z
-x,-y,-z
x,-y,z
1/2+x,1/2+y,z
1/2-x,1/2+y,-z
1/2-x,1/2-y,-z
1/2+x,1/2-y,z
loop_
_atom_site_type_symbol
_atom_site_label
_atom_site_fract_x
_atom_site_fract_y
_atom_site_fract_z
Si Si1 0.305805 0.641218 0.395572
Si Si2 0.115887 0.668408 0.777200
Si Si3 0.519178 0.765077 0.584605
Si Si4 0.812979 0.173143 0.205370
Si Si5 0.689536 0.916544 0.903139
Si Si6 0.285295 0.910425 0.914763
Si Si7 0.677682 0.422483 0.439347
O O1 0.409703 0.709734 0.379357
O O2 0.134187 0.670654 0.498633
O O3 0.336106 0.623977 0.280672
O O4 0.327208 0.578459 0.454429
O O5 0.088476 0.752438 0.822075
O O6 0.216483 0.635224 0.808780
O O7 0.221701 0.646063 0.644305
O O8 0.956650 0.625731 0.834202
O O9 0.500000 0.726262 0.500000
O O10 0.361386 0.796280 0.698302
O O11 0.813079 0.130009 0.113693
O O12 0.734251 0.000000 0.861641
O O13 0.500000 0.915184 0.000000
O O14 0.762797 0.896502 0.961072
O O15 0.290791 0.000000 0.900277
O O16 0.500000 0.422383 0.500000
O O17 0.749571 0.500000 0.372387
#
# Coordination Sequence:
#
# PCOD9173597 Si02
#       7
#     8   8   8   8   8   8   8
#     4  10  18  31  47  65 102 144 175 209 258 312
#     4  11  20  34  57  80 106 138 179 229 273 311
#     4   9  17  30  47  69  98 136 176 214 256 308
#     4  11  21  30  51  81 106 137 176 219 270 320
#     4   8  16  33  56  78 103 138 177 220 272 322
#     4  10  21  38  57  79 109 143 179 220 270 327
#     4  11  22  33  49  75 105 140 183 226 265 315
#
# _framework density 23.229358000000001
#
# number of rings (size 3 to 8) (size 9 to 14) (size 15 to 20)
#    0.000    2.000    0.000    7.714    0.000    1.143 
#    0.000    0.000    0.000    4.286    0.000    0.000 
#    0.000   23.429    0.000    0.000    0.000    0.000 
#
# Total GULP energy -156127.562384 kJ/mol
# GULP energy per Si atom -5575.984371 kJ/mol
# Density = 2.317649 g / cm^3
# Si number density = 23.229358 Si / 1000 Ang^3
#
#
#
# Elastic Constant Matrix: (Units=GPa)
#
#
# Indices 1 2 3 4 5 6 
#
# 1 80.8238 32.9721 38.4974 0.0000 37.9784 0.0000
# 2 32.9721 101.3949 25.6333 0.0000 27.9037 0.0000
# 3 38.4974 25.6333 65.8121 0.0000 49.3686 0.0000
# 4 0.0000 0.0000 0.0000 27.4956 0.0000 13.5612
# 5 37.9784 27.9037 49.3686 0.0000 64.0353 0.0000
# 6 0.0000 0.0000 0.0000 13.5612 0.0000 21.7059
#
#
#
# Elastic Compliance Matrix: (Units=1/GPa)
#
#
# Indices 1 2 3 4 5 6 
#
# 1 0.018982 -0.003224 -0.005826 0.000000 -0.005361 0.000000
# 2 -0.003224 0.011831 -0.000686 0.000000 -0.002715 0.000000
# 3 -0.005826 -0.000686 0.038072 0.000000 -0.025598 0.000000
# 4 0.000000 0.000000 0.000000 0.052568 0.000000 -0.032843
# 5 -0.005361 -0.002715 -0.025598 0.000000 0.039714 0.000000
# 6 0.000000 0.000000 0.000000 -0.032843 0.000000 0.066590
#
#
# Mechanical properties :
#
#
# Convention : Reuss Voigt Hill
#
# Bulk Modulus (GPa) = 20.23777 49.13737 34.68757
# Shear Modulus (GPa) = 18.96086 32.70922 25.83504
#
# Velocity S-wave (km/s) = 2.86010 3.75653 3.33854
# Velocity P-wave (km/s) = 4.43147 6.32570 5.46134
#
# Compressibility (1/GPa) = 0.04941257
#
# Stress axis : x y z
#
# Youngs Moduli (GPa) = 52.68056 84.52105 26.26610
#
# Poissons Ratio (x) = 0.27253 0.15303
# Poissons Ratio (y) = 0.16987 0.01801
# Poissons Ratio (z) = 0.30693 0.05796
#
# Static dielectric constant tensor:
#      x y z
#    x 1.964070 0.000000 0.017200 
#    y 0.000000 1.914500 0.000000 
#    z 0.017200 0.000000 1.898480 
# 
# From -- ./inp_files/206245.got.cif
#   From: 2010.05.17/outbox.cif.g08.bks.cpg/sg12_104_cif.got.tgz:206245.got - 2010.06.03 13:09:07.
