data_PCOD9173263
_publ_section_title
;
Structure prediction by ZEFSAII (Michael W. Deem and Ramdas Pophale) SiO2 
 PCOD9173263
Probable space group: C 2/M
;
_chemical_formula_sum "Si O2"
_cell_formula_units_Z 64
_cell_length_a 16.265943
_cell_length_b 9.226180
_cell_length_c 21.807491
_cell_angle_alpha 90.000000
_cell_angle_beta 118.338312
_cell_angle_gamma 90.000000
_cell_volume 2880.504592
_symmetry_space_group_name_H-M "C 2/M"
_symmetry_group_IT_number 12
_symmetry_cell_setting 'monoclinic'
loop_
_space_group_symop_operation_xyz
x,y,z
-x,y,-z
-x,-y,-z
x,-y,z
1/2+x,1/2+y,z
1/2-x,1/2+y,-z
1/2-x,1/2-y,-z
1/2+x,1/2-y,z
loop_
_atom_site_type_symbol
_atom_site_label
_atom_site_fract_x
_atom_site_fract_y
_atom_site_fract_z
Si Si1 0.776139 0.670228 0.917710
Si Si2 0.066002 0.665322 0.462166
Si Si3 0.385619 0.827560 0.202175
Si Si4 0.220291 0.173425 0.584157
Si Si5 0.936284 0.165884 0.039497
Si Si6 0.097310 0.673964 0.293149
Si Si7 0.596990 0.168924 0.158095
Si Si8 0.121634 0.328769 0.661567
O O1 0.768493 0.500000 0.927913
O O2 0.677288 0.743866 0.868762
O O3 0.832616 0.688052 0.873266
O O4 0.841893 0.748783 0.990387
O O5 0.097527 0.500000 0.464600
O O6 0.155630 0.761734 0.507976
O O7 0.000000 0.670183 0.500000
O O8 0.990284 0.700791 0.383233
O O9 0.491701 0.773286 0.247717
O O10 0.346222 0.810628 0.257444
O O11 0.386024 0.000000 0.188246
O O12 0.327713 0.224507 0.630147
O O13 0.171389 0.229141 0.629522
O O14 0.218557 0.000000 0.580719
O O15 0.004167 0.239995 0.112249
O O16 0.915855 0.000000 0.047348
O O17 0.000000 0.167872 0.000000
O O18 0.089465 0.500000 0.299537
O O19 0.138588 0.700863 0.239532
O O20 0.569348 0.000000 0.148606
O O21 0.132867 0.500000 0.648957
#
# Coordination Sequence:
#
# PCOD9173263 Si02
#       8
#     8   8   8   8   8   8   8   8
#     4  10  19  32  52  77 102 127 158 199 246 290
#     4   8  15  29  47  70  99 127 158 197 242 290
#     4  10  20  35  52  69  95 132 169 201 236 285
#     4  10  18  30  51  76  99 125 161 203 244 288
#     4   9  17  30  50  77 103 125 157 200 240 284
#     4   9  19  34  50  70  98 131 164 199 242 289
#     4   9  17  32  53  74  98 128 159 196 244 291
#     4   9  18  32  51  73  97 128 163 199 242 290
#
# _framework density 22.218328
#
# number of rings (size 3 to 8) (size 9 to 14) (size 15 to 20)
#    0.000    2.750    0.000    2.625    0.000    5.750 
#    0.000    4.375    0.000    0.000    0.000    0.000 
#    0.000    0.000    0.000    0.000    0.000    0.000 
#
# Total GULP energy -178712.114844 kJ/mol
# GULP energy per Si atom -5584.753589 kJ/mol
# Density = 2.216776 g / cm^3
# Si number density = 22.218328 Si / 1000 Ang^3
#
#
#
# Elastic Constant Matrix: (Units=GPa)
#
#
# Indices 1 2 3 4 5 6 
#
# 1 80.1627 31.6965 28.9074 0.0000 21.9583 0.0000
# 2 31.6965 73.8508 73.4758 0.0000 30.9374 0.0000
# 3 28.9074 73.4758 156.0146 0.0000 38.0859 0.0000
# 4 0.0000 0.0000 0.0000 31.8285 0.0000 13.6120
# 5 21.9583 30.9374 38.0859 0.0000 47.8759 0.0000
# 6 0.0000 0.0000 0.0000 13.6120 0.0000 8.2278
#
#
#
# Elastic Compliance Matrix: (Units=1/GPa)
#
#
# Indices 1 2 3 4 5 6 
#
# 1 0.015586 -0.005839 0.000851 0.000000 -0.004053 0.000000
# 2 -0.005839 0.030869 -0.011467 0.000000 -0.008147 0.000000
# 3 0.000851 -0.011467 0.012334 0.000000 -0.002792 0.000000
# 4 0.000000 0.000000 0.000000 0.107426 0.000000 -0.177726
# 5 -0.004053 -0.008147 -0.002792 0.000000 0.030232 0.000000
# 6 0.000000 0.000000 0.000000 -0.177726 0.000000 0.415569
#
#
# Mechanical properties :
#
#
# Convention : Reuss Voigt Hill
#
# Bulk Modulus (GPa) = 38.63978 64.24306 51.44142
# Shear Modulus (GPa) = 7.65050 29.31633 18.48341
#
# Velocity S-wave (km/s) = 1.85763 3.63639 2.88740
# Velocity P-wave (km/s) = 4.69359 6.82703 5.85824
#
# Compressibility (1/GPa) = 0.02588006
#
# Stress axis : x y z
#
# Youngs Moduli (GPa) = 64.15811 32.39548 81.07662
#
# Poissons Ratio (x) = 0.18915 -0.06901
# Poissons Ratio (y) = 0.37460 0.92970
# Poissons Ratio (z) = -0.05461 0.37148
#
# Static dielectric constant tensor:
#      x y z
#    x 1.911720 0.000000 -0.028990 
#    y 0.000000 1.742180 0.000000 
#    z -0.028990 0.000000 1.817250 
# 
# From -- ./inp_files/365241.got.cif
#   From: 2010.05.17/outbox.cif.g08.bks.cpg/sg12_183_cif.got.tgz:365241.got - 2010.06.03 13:09:07.
