data_PCOD9173929
_publ_section_title
;
Structure prediction by ZEFSAII (Michael W. Deem and Ramdas Pophale) SiO2 
 PCOD9173929
Probable space group: C 2/M
;
_chemical_formula_sum "Si O2"
_cell_formula_units_Z 48
_cell_length_a 23.692278
_cell_length_b 7.381610
_cell_length_c 12.751036
_cell_angle_alpha 90.000000
_cell_angle_beta 110.794656
_cell_angle_gamma 90.000000
_cell_volume 2084.728027
_symmetry_space_group_name_H-M "C 2/M"
_symmetry_group_IT_number 12
_symmetry_cell_setting 'monoclinic'
loop_
_space_group_symop_operation_xyz
x,y,z
-x,y,-z
-x,-y,-z
x,-y,z
1/2+x,1/2+y,z
1/2-x,1/2+y,-z
1/2-x,1/2-y,-z
1/2+x,1/2-y,z
loop_
_atom_site_type_symbol
_atom_site_label
_atom_site_fract_x
_atom_site_fract_y
_atom_site_fract_z
Si Si1 0.923685 0.278712 0.753911
Si Si2 0.231306 0.214818 0.107612
Si Si3 0.552909 0.779125 0.775550
Si Si4 0.154023 0.721704 0.681215
Si Si5 0.093686 0.293914 0.029120
Si Si6 0.820896 0.716219 0.534996
O O1 0.921855 0.500000 0.758731
O O2 0.929998 0.213354 0.877798
O O3 0.862606 0.216009 0.657326
O O4 0.982685 0.229830 0.726015
O O5 0.284935 0.278311 0.218494
O O6 0.166106 0.296967 0.086215
O O7 0.225047 0.000000 0.117823
O O8 0.250000 0.250000 0.000000
O O9 0.596415 0.718710 0.710912
O O10 0.556254 0.000000 0.776727
O O11 0.577560 0.715317 0.905136
O O12 0.153993 0.500000 0.681354
O O13 0.156328 0.782861 0.562925
O O14 0.070574 0.500000 0.009592
O O15 0.828622 0.500000 0.539180
O O16 0.750000 0.750000 0.500000
#
# Coordination Sequence:
#
# PCOD9173929 Si02
#       6
#     8   8   8   8   8   8
#     4   9  18  30  50  78 102 131 172 209 243 292
#     4  11  20  32  50  75 102 132 167 205 252 300
#     4   9  16  29  49  75 104 132 165 209 253 291
#     4   9  18  31  49  74 103 131 162 206 255 294
#     4  10  18  31  51  76 105 134 166 206 251 296
#     4  10  20  35  53  75 101 130 168 208 249 298
#
# _framework density 23.024588000000001
#
# number of rings (size 3 to 8) (size 9 to 14) (size 15 to 20)
#    0.000    2.333    1.667    2.000    0.000    2.667 
#    0.000    4.167    0.000    3.000    0.000    1.167 
#    0.000    0.000    0.000    0.000    0.000    0.000 
#
# Total GULP energy -134146.603930 kJ/mol
# GULP energy per Si atom -5589.441830 kJ/mol
# Density = 2.297218 g / cm^3
# Si number density = 23.024588 Si / 1000 Ang^3
#
#
#
# Elastic Constant Matrix: (Units=GPa)
#
#
# Indices 1 2 3 4 5 6 
#
# 1 147.3506 -5.0431 42.6558 0.0000 -12.0960 0.0000
# 2 -5.0431 84.9029 1.2123 0.0000 -1.5249 0.0000
# 3 42.6558 1.2123 114.2235 0.0000 -19.9327 0.0000
# 4 0.0000 0.0000 0.0000 0.9175 0.0000 7.3050
# 5 -12.0960 -1.5249 -19.9327 0.0000 36.1314 0.0000
# 6 0.0000 0.0000 0.0000 7.3050 0.0000 10.7892
#
#
#
# Elastic Compliance Matrix: (Units=1/GPa)
#
#
# Indices 1 2 3 4 5 6 
#
# 1 0.007670 0.000514 -0.002675 0.000000 0.001113 0.000000
# 2 0.000514 0.011822 -0.000222 0.000000 0.000549 0.000000
# 3 -0.002675 -0.000222 0.010621 0.000000 0.004954 0.000000
# 4 0.000000 0.000000 0.000000 -0.248230 0.000000 0.168068
# 5 0.001113 0.000549 0.004954 0.000000 0.030806 0.000000
# 6 0.000000 0.000000 0.000000 0.168068 0.000000 -0.021108
#
#
# Mechanical properties :
#
#
# Convention : Reuss Voigt Hill
#
# Bulk Modulus (GPa) = 39.45397 47.12523 43.28960
# Shear Modulus (GPa) = -25.61411 30.07773 2.23181
#
# Velocity S-wave (km/s) = -3.33899 3.61824 0.98561
# Velocity P-wave (km/s) = 1.51910 6.16176 4.48748
#
# Compressibility (1/GPa) = 0.02534599
#
# Stress axis : x y z
#
# Youngs Moduli (GPa) = 130.37762 84.59017 94.15507
#
# Poissons Ratio (x) = -0.04346 0.25191
# Poissons Ratio (y) = -0.06699 0.02086
# Poissons Ratio (z) = 0.34882 0.01874
#
# Static dielectric constant tensor:
#      x y z
#    x 1.799620 0.000000 0.006240 
#    y 0.000000 1.902340 0.000000 
#    z 0.006240 0.000000 1.835680 
# 
# From -- ./inp_files/164031.got.cif
#   From: 2010.05.17/outbox.cif.g08.bks.cpg/sg12_83_cif.got.tgz:164031.got - 2010.06.03 13:09:07.
