data_PCOD9173172
_publ_section_title
;
Structure prediction by ZEFSAII (Michael W. Deem and Ramdas Pophale) SiO2 
 PCOD9173172
Probable space group: C 2/M
;
_chemical_formula_sum "Si O2"
_cell_formula_units_Z 56
_cell_length_a 21.113944
_cell_length_b 8.482027
_cell_length_c 17.485135
_cell_angle_alpha 90.000000
_cell_angle_beta 89.890238
_cell_angle_gamma 90.000000
_cell_volume 3131.390349
_symmetry_space_group_name_H-M "C 2/M"
_symmetry_group_IT_number 12
_symmetry_cell_setting 'monoclinic'
loop_
_space_group_symop_operation_xyz
x,y,z
-x,y,-z
-x,-y,-z
x,-y,z
1/2+x,1/2+y,z
1/2-x,1/2+y,-z
1/2-x,1/2-y,-z
1/2+x,1/2-y,z
loop_
_atom_site_type_symbol
_atom_site_label
_atom_site_fract_x
_atom_site_fract_y
_atom_site_fract_z
Si Si1 0.126676 0.809581 0.177717
Si Si2 0.625903 0.311202 0.823810
Si Si3 0.322680 0.189374 0.331981
Si Si4 0.252184 0.810879 0.086068
Si Si5 0.822062 0.689937 0.499537
Si Si6 0.177505 0.310757 0.332979
Si Si7 0.999119 0.807352 0.911373
O O1 0.189175 0.758831 0.131160
O O2 0.135010 0.749545 0.263743
O O3 0.063899 0.756575 0.133359
O O4 0.126082 0.000000 0.179307
O O5 0.625994 0.500000 0.823891
O O6 0.635647 0.252637 0.737489
O O7 0.686073 0.251948 0.871395
O O8 0.561685 0.256838 0.865434
O O9 0.347311 0.240204 0.416284
O O10 0.249744 0.247724 0.323514
O O11 0.321263 0.000000 0.328469
O O12 0.253390 0.000000 0.086381
O O13 0.250000 0.750000 0.000000
O O14 0.822417 0.500000 0.499169
O O15 0.750000 0.750000 0.500000
O O16 0.847487 0.739764 0.582643
O O17 0.180519 0.500000 0.330706
O O18 0.998873 0.000000 0.912433
O O19 0.000000 0.756164 0.000000
#
# Coordination Sequence:
#
# PCOD9173172 Si02
#       7
#     8   8   8   8   8   8   8
#     4  10  20  35  55  77 104 139 176 214 263 319
#     4  11  21  34  55  80 106 135 175 222 265 313
#     4  10  18  31  50  75 108 142 175 211 260 315
#     4  11  22  35  54  78 105 135 171 216 268 319
#     4   8  16  28  45  71 104 139 172 210 254 308
#     4  10  18  30  50  78 108 137 174 217 262 307
#     4   9  19  37  57  75  99 138 181 218 260 317
#
# _framework density 17.883430000000001
#
# number of rings (size 3 to 8) (size 9 to 14) (size 15 to 20)
#    0.000    2.143    1.429    2.571    0.000    4.000 
#    0.000    1.429    0.000    3.857    0.000    6.000 
#    0.000    0.000    0.000    0.000    0.000    0.000 
#
# Total GULP energy -156153.131348 kJ/mol
# GULP energy per Si atom -5576.897548 kJ/mol
# Density = 1.784273 g / cm^3
# Si number density = 17.883430 Si / 1000 Ang^3
#
#
#
# Elastic Constant Matrix: (Units=GPa)
#
#
# Indices 1 2 3 4 5 6 
#
# 1 120.7273 21.0694 88.7053 0.0000 4.3942 0.0000
# 2 21.0694 22.3859 26.8006 0.0000 0.4814 0.0000
# 3 88.7053 26.8006 221.2809 0.0000 4.5486 0.0000
# 4 0.0000 0.0000 0.0000 30.1158 0.0000 0.8416
# 5 4.3942 0.4814 4.5486 0.0000 23.8085 0.0000
# 6 0.0000 0.0000 0.0000 0.8416 0.0000 17.9546
#
#
#
# Elastic Compliance Matrix: (Units=1/GPa)
#
#
# Indices 1 2 3 4 5 6 
#
# 1 0.012609 -0.006807 -0.004201 0.000000 -0.001387 0.000000
# 2 -0.006807 0.055923 -0.004063 0.000000 0.000902 0.000000
# 3 -0.004201 -0.004063 0.006704 0.000000 -0.000423 0.000000
# 4 0.000000 0.000000 0.000000 0.033249 0.000000 -0.001559
# 5 -0.001387 0.000902 -0.000423 0.000000 0.042320 0.000000
# 6 0.000000 0.000000 0.000000 -0.001559 0.000000 0.055769
#
#
# Mechanical properties :
#
#
# Convention : Reuss Voigt Hill
#
# Bulk Modulus (GPa) = 22.17676 70.83831 46.50754
# Shear Modulus (GPa) = 19.86118 29.56371 24.71244
#
# Velocity S-wave (km/s) = 3.33617 4.07029 3.72137
# Velocity P-wave (km/s) = 5.22185 7.86046 6.67287
#
# Compressibility (1/GPa) = 0.04509224
#
# Stress axis : x y z
#
# Youngs Moduli (GPa) = 79.31024 17.88187 149.16090
#
# Poissons Ratio (x) = 0.12173 0.62670
# Poissons Ratio (y) = 0.53989 0.60600
# Poissons Ratio (z) = 0.33322 0.07265
#
# Static dielectric constant tensor:
#      x y z
#    x 1.578600 0.000000 -0.005760 
#    y 0.000000 1.621270 0.000000 
#    z -0.005760 0.000000 1.647650 
# 
# From -- ./inp_files/280333.got.cif
#   From: 2010.05.17/outbox.cif.g08.bks.cpg/sg12_141_cif.got.tgz:280333.got - 2010.06.03 13:09:07.
