data_PCOD9173525
_publ_section_title
;
Structure prediction by ZEFSAII (Michael W. Deem and Ramdas Pophale) SiO2 
 PCOD9173525
Probable space group: C 2/M
;
_chemical_formula_sum "Si O2"
_cell_formula_units_Z 48
_cell_length_a 17.569134
_cell_length_b 15.183285
_cell_length_c 9.032168
_cell_angle_alpha 90.000000
_cell_angle_beta 48.828377
_cell_angle_gamma 90.000000
_cell_volume 1813.650939
_symmetry_space_group_name_H-M "C 2/M"
_symmetry_group_IT_number 12
_symmetry_cell_setting 'monoclinic'
loop_
_space_group_symop_operation_xyz
x,y,z
-x,y,-z
-x,-y,-z
x,-y,z
1/2+x,1/2+y,z
1/2-x,1/2+y,-z
1/2-x,1/2-y,-z
1/2+x,1/2-y,z
loop_
_atom_site_type_symbol
_atom_site_label
_atom_site_fract_x
_atom_site_fract_y
_atom_site_fract_z
Si Si1 0.423708 0.093327 0.280530
Si Si2 0.867626 0.780558 0.364156
Si Si3 0.572485 0.646604 0.099806
Si Si4 0.138376 0.655518 0.071558
Si Si5 0.782625 0.405390 0.746553
Si Si6 0.351063 0.601653 0.672625
O O1 0.410454 0.190218 0.234394
O O2 0.537603 0.097466 0.193738
O O3 0.342656 0.095895 0.517724
O O4 0.407215 0.000000 0.221574
O O5 0.750000 0.750000 0.500000
O O6 0.870776 0.819227 0.530032
O O7 0.955764 0.850292 0.200619
O O8 0.609043 0.747429 0.060238
O O9 0.587708 0.611402 0.250343
O O10 0.662670 0.602761 0.890266
O O11 0.173933 0.664305 0.195861
O O12 0.232890 0.614533 0.865443
O O13 0.803850 0.500000 0.790828
O O14 0.365244 0.500000 0.599672
#
# Coordination Sequence:
#
# PCOD9173525 Si02
#       6
#     8   8   8   8   8   8
#     4  10  20  36  57  83 118 160 204 248 301 370
#     4  11  25  42  59  83 118 164 210 260 322 381
#     4  10  20  36  60  88 122 159 203 256 308 370
#     4  10  18  32  57  90 125 157 197 251 309 368
#     4  10  18  30  54  87 119 151 192 243 301 362
#     4  11  22  38  64  96 128 163 208 263 320 377
#
# _framework density 26.465949999999999
#
# number of rings (size 3 to 8) (size 9 to 14) (size 15 to 20)
#    0.000    1.667    0.000    8.000    0.000    6.667 
#    0.000    7.500    0.000    7.000    0.000    0.000 
#    0.000    0.000    0.000    0.000    0.000    0.000 
#
# Total GULP energy -133711.797435 kJ/mol
# GULP energy per Si atom -5571.324893 kJ/mol
# Density = 2.640571 g / cm^3
# Si number density = 26.465950 Si / 1000 Ang^3
#
#
#
# Elastic Constant Matrix: (Units=GPa)
#
#
# Indices 1 2 3 4 5 6 
#
# 1 117.6032 31.1598 36.4262 0.0000 -19.3331 0.0000
# 2 31.1598 133.3510 6.7068 0.0000 10.1403 0.0000
# 3 36.4262 6.7068 153.2971 0.0000 -6.4702 0.0000
# 4 0.0000 0.0000 0.0000 2.2384 0.0000 -0.5471
# 5 -19.3331 10.1403 -6.4702 0.0000 45.3856 0.0000
# 6 0.0000 0.0000 0.0000 -0.5471 0.0000 -18.8450
#
#
#
# Elastic Compliance Matrix: (Units=1/GPa)
#
#
# Indices 1 2 3 4 5 6 
#
# 1 0.010724 -0.002764 -0.002222 0.000000 0.004869 0.000000
# 2 -0.002764 0.008367 0.000163 0.000000 -0.003024 0.000000
# 3 -0.002222 0.000163 0.007045 0.000000 0.000021 0.000000
# 4 0.000000 0.000000 0.000000 0.443596 0.000000 -0.012877
# 5 0.004869 -0.003024 0.000021 0.000000 0.024786 0.000000
# 6 0.000000 0.000000 0.000000 -0.012877 0.000000 -0.052691
#
#
# Mechanical properties :
#
#
# Convention : Reuss Voigt Hill
#
# Bulk Modulus (GPa) = 60.64333 61.42631 61.03482
# Shear Modulus (GPa) = 10.94163 27.75304 19.34734
#
# Velocity S-wave (km/s) = 2.03549 3.24177 2.70669
# Velocity P-wave (km/s) = 5.33739 6.10508 5.73410
#
# Compressibility (1/GPa) = 0.01648986
#
# Stress axis : x y z
#
# Youngs Moduli (GPa) = 93.24651 119.52180 141.94482
#
# Poissons Ratio (x) = 0.33041 0.31538
# Poissons Ratio (y) = 0.25777 -0.02317
# Poissons Ratio (z) = 0.20718 -0.01951
#
# Static dielectric constant tensor:
#      x y z
#    x 2.195600 0.000000 0.058190 
#    y 0.000000 2.133110 0.000000 
#    z 0.058190 0.000000 2.103580 
# 
# From -- ./inp_files/143574.got.cif
#   From: 2010.05.17/outbox.cif.g08.bks.cpg/sg12_72_cif.got.tgz:143574.got - 2010.06.03 13:09:07.
