data_PCOD9173999
_publ_section_title
;
Structure prediction by ZEFSAII (Michael W. Deem and Ramdas Pophale) SiO2 
 PCOD9173999
Probable space group: C 2/M
;
_chemical_formula_sum "Si O2"
_cell_formula_units_Z 56
_cell_length_a 23.206814
_cell_length_b 20.619230
_cell_length_c 8.320014
_cell_angle_alpha 90.000000
_cell_angle_beta 126.338204
_cell_angle_gamma 90.000000
_cell_volume 3206.974827
_symmetry_space_group_name_H-M "C 2/M"
_symmetry_group_IT_number 12
_symmetry_cell_setting 'monoclinic'
loop_
_space_group_symop_operation_xyz
x,y,z
-x,y,-z
-x,-y,-z
x,-y,z
1/2+x,1/2+y,z
1/2-x,1/2+y,-z
1/2-x,1/2-y,-z
1/2+x,1/2-y,z
loop_
_atom_site_type_symbol
_atom_site_label
_atom_site_fract_x
_atom_site_fract_y
_atom_site_fract_z
Si Si1 0.326957 0.786537 0.985678
Si Si2 0.966708 0.925155 0.187146
Si Si3 0.420873 0.686151 0.328211
Si Si4 0.216425 0.671112 0.758345
Si Si5 0.169284 0.280356 0.360486
Si Si6 0.179396 0.074083 0.244630
Si Si7 0.612080 0.346228 0.380654
O O1 0.259001 0.739014 0.847822
O O2 0.341225 0.813252 0.830354
O O3 0.385857 0.734943 0.145200
O O4 0.316029 0.835721 0.116560
O O5 0.932479 0.885775 0.277708
O O6 0.036763 0.884101 0.256735
O O7 0.985594 0.000000 0.251052
O O8 0.902848 0.924977 0.952608
O O9 0.500000 0.711172 0.500000
O O10 0.376667 0.677276 0.418384
O O11 0.164487 0.679037 0.517874
O O12 0.272515 0.616324 0.796175
O O13 0.250000 0.250000 0.500000
O O14 0.115912 0.218957 0.281749
O O15 0.173444 0.108130 0.408271
O O16 0.203199 0.000000 0.291321
#
# Coordination Sequence:
#
# PCOD9173999 Si02
#       7
#     8   8   8   8   8   8   8
#     4  10  18  32  53  70  94 126 161 219 263 293
#     4  10  21  34  45  64 101 148 182 206 239 289
#     4  10  20  31  48  69 101 132 172 214 251 292
#     4  10  19  32  52  72  93 125 173 211 262 300
#     4  10  18  31  52  73  90 119 172 218 258 299
#     4  11  21  33  48  68  99 137 179 212 244 298
#     4  11  19  30  47  67  95 129 178 212 246 290
#
# _framework density 17.461939999999998
#
# number of rings (size 3 to 8) (size 9 to 14) (size 15 to 20)
#    0.000    1.714    5.714    0.857    0.000    5.429 
#    0.000    0.000    0.000    0.000    0.000    0.000 
#    0.000    0.571    0.000    1.286    0.857    0.000 
#
# Total GULP energy -155910.576196 kJ/mol
# GULP energy per Si atom -5568.234864 kJ/mol
# Density = 1.742220 g / cm^3
# Si number density = 17.461940 Si / 1000 Ang^3
#
#
#
# Elastic Constant Matrix: (Units=GPa)
#
#
# Indices 1 2 3 4 5 6 
#
# 1 70.7033 43.1887 39.2560 0.0000 -24.7595 0.0000
# 2 43.1887 58.4134 23.3711 0.0000 -0.9184 0.0000
# 3 39.2560 23.3711 100.7573 0.0000 -24.7499 0.0000
# 4 0.0000 0.0000 0.0000 16.7965 0.0000 5.4020
# 5 -24.7595 -0.9184 -24.7499 0.0000 39.8289 0.0000
# 6 0.0000 0.0000 0.0000 5.4020 0.0000 18.9256
#
#
#
# Elastic Compliance Matrix: (Units=1/GPa)
#
#
# Indices 1 2 3 4 5 6 
#
# 1 0.042511 -0.029457 -0.004019 0.000000 0.023250 0.000000
# 2 -0.029457 0.039531 -0.002321 0.000000 -0.018843 0.000000
# 3 -0.004019 -0.002321 0.013456 0.000000 0.005810 0.000000
# 4 0.000000 0.000000 0.000000 0.065554 0.000000 -0.018711
# 5 0.023250 -0.018843 0.005810 0.000000 0.042737 0.000000
# 6 0.000000 0.000000 0.000000 -0.018711 0.000000 0.058179
#
#
# Mechanical properties :
#
#
# Convention : Reuss Voigt Hill
#
# Bulk Modulus (GPa) = 41.83431 49.05618 45.44525
# Shear Modulus (GPa) = 14.64001 23.38076 19.01038
#
# Velocity S-wave (km/s) = 2.89865 3.66314 3.30309
# Velocity P-wave (km/s) = 5.93400 6.78570 6.37409
#
# Compressibility (1/GPa) = 0.02390382
#
# Stress axis : x y z
#
# Youngs Moduli (GPa) = 23.52357 25.29631 74.31569
#
# Poissons Ratio (x) = 0.74516 0.29865
# Poissons Ratio (y) = 0.69294 0.17250
# Poissons Ratio (z) = 0.09453 0.05872
#
# Static dielectric constant tensor:
#      x y z
#    x 1.668030 0.000000 -0.046180 
#    y 0.000000 1.576790 0.000000 
#    z -0.046180 0.000000 1.684570 
# 
# From -- ./inp_files/98659.got.cif
#   From: 2010.05.17/outbox.cif.g08.bks.cpg/sg12_50_cif.got.tgz:98659.got - 2010.06.03 13:09:07.
