data_PCOD9173176
_publ_section_title
;
Structure prediction by ZEFSAII (Michael W. Deem and Ramdas Pophale) SiO2 
 PCOD9173176
Probable space group: C 2/M
;
_chemical_formula_sum "Si O2"
_cell_formula_units_Z 48
_cell_length_a 28.149969
_cell_length_b 14.282819
_cell_length_c 9.761716
_cell_angle_alpha 90.000000
_cell_angle_beta 145.417918
_cell_angle_gamma 90.000000
_cell_volume 2227.665227
_symmetry_space_group_name_H-M "C 2/M"
_symmetry_group_IT_number 12
_symmetry_cell_setting 'monoclinic'
loop_
_space_group_symop_operation_xyz
x,y,z
-x,y,-z
-x,-y,-z
x,-y,z
1/2+x,1/2+y,z
1/2-x,1/2+y,-z
1/2-x,1/2-y,-z
1/2+x,1/2-y,z
loop_
_atom_site_type_symbol
_atom_site_label
_atom_site_fract_x
_atom_site_fract_y
_atom_site_fract_z
Si Si1 0.220863 0.108269 0.681054
Si Si2 0.659617 0.388478 0.247592
Si Si3 0.179752 0.826038 0.868669
Si Si4 0.978885 0.612235 0.789237
Si Si5 0.297329 0.107163 0.381174
Si Si6 0.392406 0.769603 0.071505
O O1 0.159599 0.126847 0.408643
O O2 0.171756 0.120914 0.707234
O O3 0.249455 0.000000 0.738052
O O4 0.302054 0.175862 0.860580
O O5 0.645783 0.500000 0.187093
O O6 0.753964 0.363380 0.418853
O O7 0.605961 0.317055 0.031503
O O8 0.104218 0.775246 0.768152
O O9 0.250000 0.750000 0.000000
O O10 0.226574 0.886125 0.097382
O O11 0.984962 0.500000 0.782634
O O12 0.884485 0.651524 0.545194
O O13 0.039575 0.659730 0.824196
O O14 0.000000 0.629615 0.000000
O O15 0.319820 0.000000 0.457209
#
# Coordination Sequence:
#
# PCOD9173176 Si02
#       6
#     8   8   8   8   8   8
#     4  10  18  30  50  78 110 140 176 223 271 318
#     4   9  18  32  55  84 110 139 178 224 268 315
#     4   9  19  32  48  72 105 142 180 218 258 311
#     4  10  20  33  53  83 115 145 176 217 273 331
#     4   9  17  32  52  76 108 141 173 214 269 324
#     4  10  19  33  52  79 112 144 179 220 269 323
#
# _framework density 21.547222000000001
#
# number of rings (size 3 to 8) (size 9 to 14) (size 15 to 20)
#    0.000    2.500    0.000    2.500    0.000    6.000 
#    0.000    3.333    0.000   11.500    0.000   18.667 
#    0.000   37.333    0.000    0.000    0.000    0.000 
#
# Total GULP energy -133746.878823 kJ/mol
# GULP energy per Si atom -5572.786618 kJ/mol
# Density = 2.149818 g / cm^3
# Si number density = 21.547222 Si / 1000 Ang^3
#
#
#
# Elastic Constant Matrix: (Units=GPa)
#
#
# Indices 1 2 3 4 5 6 
#
# 1 130.6083 23.9999 47.4024 0.0000 -26.6214 0.0000
# 2 23.9999 76.8983 12.4648 0.0000 -6.9131 0.0000
# 3 47.4024 12.4648 26.7905 0.0000 -19.0476 0.0000
# 4 0.0000 0.0000 0.0000 11.4012 0.0000 -1.8308
# 5 -26.6214 -6.9131 -19.0476 0.0000 32.8842 0.0000
# 6 0.0000 0.0000 0.0000 -1.8308 0.0000 40.3360
#
#
#
# Elastic Compliance Matrix: (Units=1/GPa)
#
#
# Indices 1 2 3 4 5 6 
#
# 1 0.022664 -0.000394 -0.045790 0.000000 -0.008258 0.000000
# 2 -0.000394 0.014111 -0.006777 0.000000 -0.001278 0.000000
# 3 -0.045790 -0.006777 0.160038 0.000000 0.054205 0.000000
# 4 0.000000 0.000000 0.000000 0.088354 0.000000 0.004010
# 5 -0.008258 -0.001278 0.054205 0.000000 0.054854 0.000000
# 6 0.000000 0.000000 0.000000 0.004010 0.000000 0.024974
#
#
# Mechanical properties :
#
#
# Convention : Reuss Voigt Hill
#
# Bulk Modulus (GPa) = 11.00207 44.67016 27.83612
# Shear Modulus (GPa) = 9.97577 26.95292 18.46434
#
# Velocity S-wave (km/s) = 2.15401 3.54061 2.93050
# Velocity P-wave (km/s) = 3.36206 6.12298 4.93935
#
# Compressibility (1/GPa) = 0.09089198
#
# Stress axis : x y z
#
# Youngs Moduli (GPa) = 44.12191 70.86805 6.24850
#
# Poissons Ratio (x) = 0.02790 0.28612
# Poissons Ratio (y) = 0.01737 0.04235
# Poissons Ratio (z) = 2.02034 0.48030
#
# Static dielectric constant tensor:
#      x y z
#    x 1.804460 0.000000 -0.021900 
#    y 0.000000 1.819950 0.000000 
#    z -0.021900 0.000000 1.841350 
# 
# From -- ./inp_files/105059.got.cif
#   From: 2010.05.17/outbox.cif.g08.bks.cpg/sg12_53_cif.got.tgz:105059.got - 2010.06.03 13:09:07.
