data_PCOD9173781
_publ_section_title
;
Structure prediction by ZEFSAII (Michael W. Deem and Ramdas Pophale) SiO2 
 PCOD9173781
Probable space group: C 2/M
;
_chemical_formula_sum "Si O2"
_cell_formula_units_Z 56
_cell_length_a 18.622448
_cell_length_b 18.179195
_cell_length_c 19.109419
_cell_angle_alpha 90.000000
_cell_angle_beta 30.431161
_cell_angle_gamma 90.000000
_cell_volume 3276.730570
_symmetry_space_group_name_H-M "C 2/M"
_symmetry_group_IT_number 12
_symmetry_cell_setting 'monoclinic'
loop_
_space_group_symop_operation_xyz
x,y,z
-x,y,-z
-x,-y,-z
x,-y,z
1/2+x,1/2+y,z
1/2-x,1/2+y,-z
1/2-x,1/2-y,-z
1/2+x,1/2-y,z
loop_
_atom_site_type_symbol
_atom_site_label
_atom_site_fract_x
_atom_site_fract_y
_atom_site_fract_z
Si Si1 0.638069 0.342468 0.554398
Si Si2 0.842909 0.272332 0.658856
Si Si3 0.640959 0.755581 0.197772
Si Si4 0.567193 0.200028 0.111498
Si Si5 0.194320 0.205411 0.654854
Si Si6 0.777119 0.000000 0.737593
Si Si7 0.414600 0.500000 0.467921
Si Si8 0.386217 0.144947 0.149758
O O1 0.481993 0.305323 0.688205
O O2 0.731426 0.281797 0.434352
O O3 0.694686 0.344764 0.586267
O O4 0.633056 0.423208 0.526431
O O5 0.842916 0.293989 0.740263
O O6 0.773750 0.323062 0.656860
O O7 0.745406 0.199962 0.735702
O O8 0.000000 0.255632 0.500000
O O9 0.595120 0.807363 0.171040
O O10 0.785283 0.716189 0.051273
O O11 0.466138 0.272088 0.191380
O O12 0.473560 0.139776 0.149064
O O13 0.847502 0.000000 0.601514
O O14 0.677083 0.929670 0.826596
O O15 0.913554 0.000000 0.673034
O O16 0.500000 0.176930 0.000000
#
# Coordination Sequence:
#
# PCOD9173781 Si02
#       8
#     8   8   8   8   8   4   4   8
#     4  10  19  34  49  73  99 135 169 211 246 303
#     4  11  19  30  51  76  99 130 161 210 258 301
#     4  10  18  31  50  73 101 127 163 207 258 296
#     4   9  19  32  48  70  99 133 162 205 252 299
#     4   9  19  31  51  73 102 125 171 213 256 294
#     4  11  25  32  46  72  99 141 177 201 235 300
#     4  11  22  34  52  70 102 139 179 202 249 305
#     4  11  21  35  48  69 103 138 170 206 246 295
#
# _framework density 17.090205999999998
#
# number of rings (size 3 to 8) (size 9 to 14) (size 15 to 20)
#    0.000    1.857    2.857    2.786    2.000    0.000 
#    0.000    0.000    0.000    0.000    0.000    1.500 
#    0.000   10.286    0.000    0.000    0.000    0.000 
#
# Total GULP energy -155952.928979 kJ/mol
# GULP energy per Si atom -5569.747464 kJ/mol
# Density = 1.705131 g / cm^3
# Si number density = 17.090206 Si / 1000 Ang^3
#
#
#
# Elastic Constant Matrix: (Units=GPa)
#
#
# Indices 1 2 3 4 5 6 
#
# 1 144.3369 7.8987 13.1711 -0.0002 5.8849 0.0003
# 2 7.8987 31.8229 -4.0758 0.0028 -2.7586 -0.0007
# 3 13.1711 -4.0758 93.6545 0.0024 -1.0090 -0.0003
# 4 -0.0002 0.0028 0.0024 11.3893 -0.0009 -2.8213
# 5 5.8849 -2.7586 -1.0090 -0.0009 28.3800 -0.0001
# 6 0.0003 -0.0007 -0.0003 -2.8213 -0.0001 18.0144
#
#
#
# Elastic Compliance Matrix: (Units=1/GPa)
#
#
# Indices 1 2 3 4 5 6 
#
# 1 0.007216 -0.002086 -0.001124 0.000001 -0.001739 0.000000
# 2 -0.002086 0.032482 0.001746 -0.000008 0.003652 0.000000
# 3 -0.001124 0.001746 0.010920 -0.000003 0.000791 0.000000
# 4 0.000001 -0.000008 -0.000003 0.091345 0.000002 0.014306
# 5 -0.001739 0.003652 0.000791 0.000002 0.035980 0.000001
# 6 0.000000 0.000000 0.000000 0.014306 0.000001 0.057752
#
#
# Mechanical properties :
#
#
# Convention : Reuss Voigt Hill
#
# Bulk Modulus (GPa) = 20.96864 33.75579 27.36221
# Shear Modulus (GPa) = 19.64490 28.41144 24.02817
#
# Velocity S-wave (km/s) = 3.39408 4.08173 3.75368
# Velocity P-wave (km/s) = 5.25887 6.48139 5.90187
#
# Compressibility (1/GPa) = 0.04769027
#
# Stress axis : x y z
#
# Youngs Moduli (GPa) = 138.58327 30.78645 91.57361
#
# Poissons Ratio (x) = 0.06421 0.10296
# Poissons Ratio (y) = 0.28905 -0.15991
# Poissons Ratio (z) = 0.15581 -0.05376
#
# Static dielectric constant tensor:
#      x y z
#    x 1.684250 0.000000 0.004600 
#    y 0.000000 1.534510 0.000000 
#    z 0.004600 0.000000 1.612660 
# 
# From -- ./inp_files/317691.got.cif
#   From: 2010.05.17/outbox.cif.g08.bks.cpg/sg12_159_cif.got.tgz:317691.got - 2010.06.03 13:09:07.
