data_PCOD9173823
_publ_section_title
;
Structure prediction by ZEFSAII (Michael W. Deem and Ramdas Pophale) SiO2 
 PCOD9173823
Probable space group: C 2/M
;
_chemical_formula_sum "Si O2"
_cell_formula_units_Z 64
_cell_length_a 23.972654
_cell_length_b 8.965968
_cell_length_c 19.410303
_cell_angle_alpha 90.000000
_cell_angle_beta 59.670538
_cell_angle_gamma 90.000000
_cell_volume 3601.014327
_symmetry_space_group_name_H-M "C 2/M"
_symmetry_group_IT_number 12
_symmetry_cell_setting 'monoclinic'
loop_
_space_group_symop_operation_xyz
x,y,z
-x,y,-z
-x,-y,-z
x,-y,z
1/2+x,1/2+y,z
1/2-x,1/2+y,-z
1/2-x,1/2-y,-z
1/2+x,1/2-y,z
loop_
_atom_site_type_symbol
_atom_site_label
_atom_site_fract_x
_atom_site_fract_y
_atom_site_fract_z
Si Si1 0.575028 0.821017 0.582145
Si Si2 0.559103 0.327190 0.333510
Si Si3 0.191782 0.322625 0.235217
Si Si4 0.421146 0.178375 0.258208
Si Si5 0.804759 0.180380 0.918171
Si Si6 0.447879 0.671398 0.829758
Si Si7 0.787933 0.674842 0.277545
Si Si8 0.206194 0.826445 0.468809
O O1 0.506900 0.750995 0.601239
O O2 0.584659 0.779226 0.657319
O O3 0.637571 0.755594 0.505731
O O4 0.572613 0.000000 0.578672
O O5 0.562089 0.500000 0.353039
O O6 0.625280 0.242143 0.309376
O O7 0.556058 0.323356 0.251497
O O8 0.186632 0.500000 0.231672
O O9 0.200215 0.247107 0.155303
O O10 0.251725 0.272929 0.244153
O O11 0.489889 0.234898 0.188700
O O12 0.359463 0.229193 0.253249
O O13 0.419978 0.000000 0.258026
O O14 0.877247 0.220233 0.898869
O O15 0.800940 0.000000 0.917911
O O16 0.750000 0.250000 0.000000
O O17 0.458079 0.500000 0.843082
O O18 0.790546 0.500000 0.254193
O O19 0.745899 0.680097 0.373449
O O20 0.250000 0.750000 0.500000
O O21 0.195575 0.000000 0.493179
#
# Coordination Sequence:
#
# PCOD9173823 Si02
#       8
#     8   8   8   8   8   8   8   8
#     4  10  18  31  50  76 104 133 176 229 274 320
#     4   9  17  32  52  74 101 138 175 217 269 319
#     4  11  22  36  55  81 108 140 178 218 263 318
#     4   9  17  30  49  73 102 138 177 216 261 310
#     4  10  20  36  59  86 114 142 172 212 259 312
#     4   8  16  29  48  77 107 133 167 210 255 303
#     4  10  21  37  52  72 105 145 181 220 269 320
#     4  11  21  34  51  73 104 140 181 228 277 322
#
# _framework density 17.772769
#
# number of rings (size 3 to 8) (size 9 to 14) (size 15 to 20)
#    0.000    2.250    1.250    3.375    0.000    5.500 
#    0.000    0.625    0.000    4.500    0.000    5.250 
#    0.000    0.000    0.000    0.000    0.000    0.000 
#
# Total GULP energy -178531.081084 kJ/mol
# GULP energy per Si atom -5579.096284 kJ/mol
# Density = 1.773232 g / cm^3
# Si number density = 17.772769 Si / 1000 Ang^3
#
#
#
# Elastic Constant Matrix: (Units=GPa)
#
#
# Indices 1 2 3 4 5 6 
#
# 1 118.6448 45.8094 31.7503 0.0000 -25.4413 0.0000
# 2 45.8094 80.8741 24.5145 0.0000 -10.2991 -0.0003
# 3 31.7503 24.5145 40.7452 -0.0001 -22.6272 0.0000
# 4 0.0000 0.0000 -0.0001 24.8070 0.0000 -7.6231
# 5 -25.4413 -10.2991 -22.6272 0.0000 28.8083 0.0000
# 6 0.0000 -0.0003 0.0000 -7.6231 0.0000 31.0525
#
#
#
# Elastic Compliance Matrix: (Units=1/GPa)
#
#
# Indices 1 2 3 4 5 6 
#
# 1 0.012835 -0.005550 -0.002607 0.000000 0.007303 0.000000
# 2 -0.005550 0.017679 -0.009797 0.000000 -0.006276 0.000000
# 3 -0.002607 -0.009797 0.051870 0.000000 0.034936 0.000000
# 4 0.000000 0.000000 0.000000 0.043600 0.000000 0.010703
# 5 0.007303 -0.006276 0.034936 0.000000 0.066358 0.000000
# 6 0.000000 0.000000 0.000000 0.010703 0.000000 0.034831
#
#
# Mechanical properties :
#
#
# Convention : Reuss Voigt Hill
#
# Bulk Modulus (GPa) = 21.51641 49.37919 35.44780
# Shear Modulus (GPa) = 17.94860 26.14622 22.04741
#
# Velocity S-wave (km/s) = 3.18133 3.83970 3.52592
# Velocity P-wave (km/s) = 5.06233 6.89215 6.04685
#
# Compressibility (1/GPa) = 0.04647615
#
# Stress axis : x y z
#
# Youngs Moduli (GPa) = 77.91183 56.56412 19.27908
#
# Poissons Ratio (x) = 0.31393 0.05025
# Poissons Ratio (y) = 0.43241 0.18888
# Poissons Ratio (z) = 0.20308 0.55418
#
# Static dielectric constant tensor:
#      x y z
#    x 1.617590 0.000000 -0.007890 
#    y 0.000000 1.598000 0.000000 
#    z -0.007890 0.000000 1.598720 
# 
# From -- ./inp_files/323603.got.cif
#   From: 2010.05.17/outbox.cif.g08.bks.cpg/sg12_162_cif.got.tgz:323603.got - 2010.06.03 13:09:07.
