data_PCOD9173658
_publ_section_title
;
Structure prediction by ZEFSAII (Michael W. Deem and Ramdas Pophale) SiO2 
 PCOD9173658
Probable space group: C 2/M
;
_chemical_formula_sum "Si O2"
_cell_formula_units_Z 40
_cell_length_a 14.540122
_cell_length_b 20.832386
_cell_length_c 8.375630
_cell_angle_alpha 90.000000
_cell_angle_beta 131.030463
_cell_angle_gamma 90.000000
_cell_volume 1913.830979
_symmetry_space_group_name_H-M "C 2/M"
_symmetry_group_IT_number 12
_symmetry_cell_setting 'monoclinic'
loop_
_space_group_symop_operation_xyz
x,y,z
-x,y,-z
-x,-y,-z
x,-y,z
1/2+x,1/2+y,z
1/2-x,1/2+y,-z
1/2-x,1/2-y,-z
1/2+x,1/2-y,z
loop_
_atom_site_type_symbol
_atom_site_label
_atom_site_fract_x
_atom_site_fract_y
_atom_site_fract_z
Si Si1 0.311290 0.172550 0.367901
Si Si2 0.120940 0.286558 0.888415
Si Si3 0.883059 0.927218 0.982590
Si Si4 0.701290 0.814913 0.308517
Si Si5 0.522378 0.667492 0.344622
O O1 0.389815 0.179982 0.296250
O O2 0.219242 0.115773 0.217542
O O3 0.370630 0.165391 0.612191
O O4 0.236224 0.239179 0.319649
O O5 0.024237 0.229008 0.808268
O O6 0.250000 0.250000 0.000000
O O7 0.140740 0.329446 0.068677
O O8 0.844050 0.000000 0.968923
O O9 0.935225 0.890581 0.196648
O O10 0.000000 0.927911 0.000000
O O11 0.834270 0.846075 0.494205
O O12 0.500000 0.687236 0.500000
#
# Coordination Sequence:
#
# PCOD9173658 Si02
#       5
#     8   8   8   8   8
#     4  10  18  33  50  72 100 135 176 210 257 307
#     4  10  18  31  48  77 101 129 171 224 265 299
#     4  11  22  34  49  73 111 149 176 202 247 325
#     4  10  19  30  51  74  99 138 168 215 272 302
#     4  12  19  33  52  75 110 139 168 224 265 310
#
# _framework density 20.900485
#
# number of rings (size 3 to 8) (size 9 to 14) (size 15 to 20)
#    0.000    1.400   10.000    0.000    0.000    0.400 
#    0.000    0.000    0.000    0.000    0.000    2.800 
#    0.000    1.600    0.000    0.000    0.000    0.000 
#
# Total GULP energy -111424.095361 kJ/mol
# GULP energy per Si atom -5571.204768 kJ/mol
# Density = 2.085292 g / cm^3
# Si number density = 20.900485 Si / 1000 Ang^3
#
#
#
# Elastic Constant Matrix: (Units=GPa)
#
#
# Indices 1 2 3 4 5 6 
#
# 1 71.4407 2.8216 43.6714 0.0000 -25.8278 0.0000
# 2 2.8216 101.8146 52.3932 0.0000 6.5255 0.0000
# 3 43.6714 52.3932 182.8213 0.0000 -29.6478 0.0000
# 4 0.0000 0.0000 0.0000 21.4317 0.0000 4.3355
# 5 -25.8278 6.5255 -29.6478 0.0000 42.7782 0.0000
# 6 0.0000 0.0000 0.0000 4.3355 0.0000 15.2317
#
#
#
# Elastic Compliance Matrix: (Units=1/GPa)
#
#
# Indices 1 2 3 4 5 6 
#
# 1 0.019346 0.000545 -0.003264 0.000000 0.009335 0.000000
# 2 0.000545 0.012383 -0.004430 0.000000 -0.004630 0.000000
# 3 -0.003264 -0.004430 0.008234 0.000000 0.004412 0.000000
# 4 0.000000 0.000000 0.000000 0.049511 0.000000 -0.014093
# 5 0.009335 -0.004630 0.004412 0.000000 0.032777 0.000000
# 6 0.000000 0.000000 0.000000 -0.014093 0.000000 0.069664
#
#
# Mechanical properties :
#
#
# Convention : Reuss Voigt Hill
#
# Bulk Modulus (GPa) = 38.96087 61.53878 50.24982
# Shear Modulus (GPa) = 23.28103 33.03433 28.15768
#
# Velocity S-wave (km/s) = 3.34113 3.97993 3.67444
# Velocity P-wave (km/s) = 5.79360 7.11529 6.48819
#
# Compressibility (1/GPa) = 0.02566678
#
# Stress axis : x y z
#
# Youngs Moduli (GPa) = 51.68993 80.75635 121.44170
#
# Poissons Ratio (x) = -0.04401 0.39633
# Poissons Ratio (y) = -0.02817 0.53795
# Poissons Ratio (z) = 0.16869 0.35773
#
# Static dielectric constant tensor:
#      x y z
#    x 1.953020 0.000000 0.021260 
#    y 0.000000 1.715850 0.000000 
#    z 0.021260 0.000000 1.932640 
# 
# From -- ./inp_files/60212.got.cif
#   From: 2010.05.17/outbox.cif.g08.bks.cpg/sg12_31_cif.got.tgz:60212.got - 2010.06.03 13:09:07.
