data_PCOD9173588
_publ_section_title
;
Structure prediction by ZEFSAII (Michael W. Deem and Ramdas Pophale) SiO2 
 PCOD9173588
Probable space group: C 2/M
;
_chemical_formula_sum "Si O2"
_cell_formula_units_Z 56
_cell_length_a 15.156412
_cell_length_b 26.845359
_cell_length_c 14.348792
_cell_angle_alpha 90.000000
_cell_angle_beta 145.975287
_cell_angle_gamma 90.000000
_cell_volume 3266.782315
_symmetry_space_group_name_H-M "C 2/M"
_symmetry_group_IT_number 12
_symmetry_cell_setting 'monoclinic'
loop_
_space_group_symop_operation_xyz
x,y,z
-x,y,-z
-x,-y,-z
x,-y,z
1/2+x,1/2+y,z
1/2-x,1/2+y,-z
1/2-x,1/2-y,-z
1/2+x,1/2-y,z
loop_
_atom_site_type_symbol
_atom_site_label
_atom_site_fract_x
_atom_site_fract_y
_atom_site_fract_z
Si Si1 0.304727 0.331267 0.016905
Si Si2 0.462533 0.133867 0.702988
Si Si3 0.598415 0.632254 0.181111
Si Si4 0.691646 0.767643 0.078027
Si Si5 0.337412 0.798938 0.735946
Si Si6 0.868771 0.440755 0.463997
Si Si7 0.633804 0.211207 0.538058
O O1 0.465385 0.360477 0.142873
O O2 0.306457 0.297002 0.109868
O O3 0.283720 0.291150 0.914158
O O4 0.149325 0.365256 0.885826
O O5 0.361981 0.147971 0.707245
O O6 0.413910 0.085972 0.600617
O O7 0.429560 0.180314 0.604711
O O8 0.705402 0.583737 0.287934
O O9 0.720112 0.678297 0.295022
O O10 0.500000 0.631305 0.000000
O O11 0.701489 0.791877 0.188490
O O12 0.513662 0.776143 0.885005
O O13 0.205582 0.764483 0.573535
O O14 0.861306 0.500000 0.465755
O O15 0.000000 0.427849 0.500000
O O16 0.500000 0.215749 0.500000
#
# Coordination Sequence:
#
# PCOD9173588 Si02
#       7
#     8   8   8   8   8   8   8
#     4  10  18  31  51  72 106 138 172 202 247 297
#     4  10  20  33  51  73  97 136 170 210 256 305
#     4  11  19  31  53  77 102 133 169 210 255 306
#     4   9  18  30  47  73 105 145 170 204 239 283
#     4  10  18  31  46  70 104 140 176 202 235 294
#     4  10  22  40  56  73  99 129 169 221 273 316
#     4  11  20  30  44  69 108 141 170 201 238 296
#
# _framework density 17.142251000000002
#
# number of rings (size 3 to 8) (size 9 to 14) (size 15 to 20)
#    0.000    1.857    1.429    5.571    0.000    0.286 
#    5.143    0.714    0.000    0.000    0.000   10.000 
#    0.000    0.000    0.000    0.000    0.000    0.000 
#
# Total GULP energy -156166.035764 kJ/mol
# GULP energy per Si atom -5577.358420 kJ/mol
# Density = 1.710323 g / cm^3
# Si number density = 17.142251 Si / 1000 Ang^3
#
#
#
# Elastic Constant Matrix: (Units=GPa)
#
#
# Indices 1 2 3 4 5 6 
#
# 1 105.0394 36.6243 22.4616 0.0000 8.9035 0.0000
# 2 36.6243 68.3629 27.4455 0.0000 10.4968 0.0000
# 3 22.4616 27.4455 66.8342 0.0000 17.5826 0.0000
# 4 0.0000 0.0000 0.0000 14.8915 0.0000 2.1085
# 5 8.9035 10.4968 17.5826 0.0000 22.5455 0.0000
# 6 0.0000 0.0000 0.0000 2.1085 0.0000 22.6422
#
#
#
# Elastic Compliance Matrix: (Units=1/GPa)
#
#
# Indices 1 2 3 4 5 6 
#
# 1 0.011873 -0.005643 -0.001422 0.000000 -0.000952 0.000000
# 2 -0.005643 0.020384 -0.005742 0.000000 -0.002784 0.000000
# 3 -0.001422 -0.005742 0.021322 0.000000 -0.013393 0.000000
# 4 0.000000 0.000000 0.000000 0.068050 0.000000 -0.006337
# 5 -0.000952 -0.002784 -0.013393 0.000000 0.056472 0.000000
# 6 0.000000 0.000000 0.000000 -0.006337 0.000000 0.044755
#
#
# Mechanical properties :
#
#
# Convention : Reuss Voigt Hill
#
# Bulk Modulus (GPa) = 35.76075 45.92215 40.84145
# Shear Modulus (GPa) = 19.39556 22.26285 20.82920
#
# Velocity S-wave (km/s) = 3.36735 3.60767 3.48958
# Velocity P-wave (km/s) = 6.00210 6.64837 6.33348
#
# Compressibility (1/GPa) = 0.02796362
#
# Stress axis : x y z
#
# Youngs Moduli (GPa) = 84.22618 49.05872 46.90070
#
# Poissons Ratio (x) = 0.27686 0.06670
# Poissons Ratio (y) = 0.47533 0.26928
# Poissons Ratio (z) = 0.11979 0.28167
#
# Static dielectric constant tensor:
#      x y z
#    x 1.638520 0.000000 -0.023500 
#    y 0.000000 1.561310 0.000000 
#    z -0.023500 0.000000 1.624230 
# 
# From -- ./inp_files/219126.got.cif
#   From: 2010.05.17/outbox.cif.g08.bks.cpg/sg12_110_cif.got.tgz:219126.got - 2010.06.03 13:09:07.
