data_PCOD9173846
_publ_section_title
;
Structure prediction by ZEFSAII (Michael W. Deem and Ramdas Pophale) SiO2 
 PCOD9173846
Probable space group: C 2/M
;
_chemical_formula_sum "Si O2"
_cell_formula_units_Z 64
_cell_length_a 27.050335
_cell_length_b 13.889832
_cell_length_c 16.209744
_cell_angle_alpha 90.000000
_cell_angle_beta 34.140006
_cell_angle_gamma 90.000000
_cell_volume 3418.036102
_symmetry_space_group_name_H-M "C 2/M"
_symmetry_group_IT_number 12
_symmetry_cell_setting 'monoclinic'
loop_
_space_group_symop_operation_xyz
x,y,z
-x,y,-z
-x,-y,-z
x,-y,z
1/2+x,1/2+y,z
1/2-x,1/2+y,-z
1/2-x,1/2-y,-z
1/2+x,1/2-y,z
loop_
_atom_site_type_symbol
_atom_site_label
_atom_site_fract_x
_atom_site_fract_y
_atom_site_fract_z
Si Si1 0.246303 0.112771 0.526720
Si Si2 0.686207 0.615620 0.117302
Si Si3 0.102402 0.252541 0.679173
Si Si4 0.886824 0.389183 0.847309
Si Si5 0.870689 0.116585 0.619337
Si Si6 0.950953 0.387708 0.947058
Si Si7 0.210091 0.613612 0.727518
Si Si8 0.514481 0.707287 0.311997
O O1 0.155794 0.172608 0.657162
O O2 0.324492 0.174125 0.459935
O O3 0.271654 0.120558 0.394296
O O4 0.241820 0.000000 0.554690
O O5 0.684751 0.500000 0.116090
O O6 0.657614 0.644003 0.249597
O O7 0.608557 0.656237 0.167992
O O8 0.787632 0.643078 0.962407
O O9 0.034831 0.319750 0.821943
O O10 0.046885 0.202445 0.683638
O O11 0.898380 0.500000 0.806841
O O12 0.900632 0.385537 0.927824
O O13 0.959012 0.318063 0.710460
O O14 0.792712 0.150059 0.665810
O O15 0.960908 0.159858 0.460301
O O16 0.878020 0.000000 0.606011
O O17 0.977067 0.500000 0.925835
O O18 0.882900 0.350695 0.109673
O O19 0.205731 0.500000 0.753444
#
# Coordination Sequence:
#
# PCOD9173846 Si02
#       8
#     8   8   8   8   8   8   8   8
#     4  10  20  35  52  73 103 132 165 207 254 303
#     4  10  19  32  52  77 106 134 161 198 251 308
#     4  10  21  32  47  75 104 133 166 203 250 299
#     4   9  18  32  48  70 103 140 171 201 236 286
#     4  10  18  31  50  79 109 131 157 197 255 310
#     4   9  16  30  51  76 105 133 163 201 246 299
#     4   9  16  29  52  75 102 133 157 199 256 300
#     4  11  20  30  48  75 105 133 168 203 245 297
#
# _framework density 18.724201999999998
#
# number of rings (size 3 to 8) (size 9 to 14) (size 15 to 20)
#    0.000    2.250    2.500    1.500    0.000    2.500 
#    0.000    1.875    0.000    1.500    0.000    8.750 
#    0.000    0.000    0.000    0.000    0.000    0.000 
#
# Total GULP energy -178481.198557 kJ/mol
# GULP energy per Si atom -5577.537455 kJ/mol
# Density = 1.868159 g / cm^3
# Si number density = 18.724202 Si / 1000 Ang^3
#
#
#
# Elastic Constant Matrix: (Units=GPa)
#
#
# Indices 1 2 3 4 5 6 
#
# 1 66.4194 2.4936 9.3885 0.0000 -19.6634 0.0000
# 2 2.4936 46.2883 16.1430 0.0000 -4.0028 0.0000
# 3 9.3885 16.1430 72.7815 0.0000 -17.6155 0.0000
# 4 0.0000 0.0000 0.0000 29.0331 0.0000 -15.2005
# 5 -19.6634 -4.0028 -17.6155 0.0000 25.0380 0.0000
# 6 0.0000 0.0000 0.0000 -15.2005 0.0000 16.2695
#
#
#
# Elastic Compliance Matrix: (Units=1/GPa)
#
#
# Indices 1 2 3 4 5 6 
#
# 1 0.019745 -0.000153 0.001487 0.000000 0.016528 0.000000
# 2 -0.000153 0.023416 -0.005179 0.000000 -0.000020 0.000000
# 3 0.001487 -0.005179 0.017812 0.000000 0.012872 0.000000
# 4 0.000000 0.000000 0.000000 0.067425 0.000000 0.062994
# 5 0.016528 -0.000020 0.012872 0.000000 0.061972 0.000000
# 6 0.000000 0.000000 0.000000 0.062994 0.000000 0.120319
#
#
# Mechanical properties :
#
#
# Convention : Reuss Voigt Hill
#
# Bulk Modulus (GPa) = 18.76754 26.83772 22.80263
# Shear Modulus (GPa) = 14.87476 24.56572 19.72024
#
# Velocity S-wave (km/s) = 2.82159 3.62605 3.24882
# Velocity P-wave (km/s) = 4.54534 5.64759 5.12618
#
# Compressibility (1/GPa) = 0.05328348
#
# Stress axis : x y z
#
# Youngs Moduli (GPa) = 50.64700 42.70510 56.14189
#
# Poissons Ratio (x) = 0.00654 -0.08350
# Poissons Ratio (y) = 0.00775 0.29076
# Poissons Ratio (z) = -0.07533 0.22117
#
# Static dielectric constant tensor:
#      x y z
#    x 1.699740 0.000000 -0.030830 
#    y 0.000000 1.667430 0.000000 
#    z -0.030830 0.000000 1.654550 
# 
# From -- ./inp_files/296689.got.cif
#   From: 2010.05.17/outbox.cif.g08.bks.cpg/sg12_149_cif.got.tgz:296689.got - 2010.06.03 13:09:07.
