data_PCOD9173825
_publ_section_title
;
Structure prediction by ZEFSAII (Michael W. Deem and Ramdas Pophale) SiO2 
 PCOD9173825
Probable space group: C 2/M
;
_chemical_formula_sum "Si O2"
_cell_formula_units_Z 64
_cell_length_a 20.115490
_cell_length_b 22.499039
_cell_length_c 8.107411
_cell_angle_alpha 90.000000
_cell_angle_beta 60.111813
_cell_angle_gamma 90.000000
_cell_volume 3181.234069
_symmetry_space_group_name_H-M "C 2/M"
_symmetry_group_IT_number 12
_symmetry_cell_setting 'monoclinic'
loop_
_space_group_symop_operation_xyz
x,y,z
-x,y,-z
-x,-y,-z
x,-y,z
1/2+x,1/2+y,z
1/2-x,1/2+y,-z
1/2-x,1/2-y,-z
1/2+x,1/2-y,z
loop_
_atom_site_type_symbol
_atom_site_label
_atom_site_fract_x
_atom_site_fract_y
_atom_site_fract_z
Si Si1 0.245679 0.067408 0.947092
Si Si2 0.923883 0.093383 0.869111
Si Si3 0.919761 0.216095 0.696610
Si Si4 0.914870 0.091299 0.267521
Si Si5 0.814389 0.319347 0.359297
Si Si6 0.809078 0.696914 0.980025
Si Si7 0.857857 0.792713 0.435095
Si Si8 0.242565 0.565437 0.465669
O O1 0.283685 0.129632 0.962316
O O2 0.250874 0.072153 0.740617
O O3 0.274290 0.000000 0.955926
O O4 0.155144 0.069019 0.106462
O O5 0.920854 0.163774 0.830374
O O6 0.010644 0.072298 0.720726
O O7 0.920136 0.077062 0.067916
O O8 0.887800 0.278150 0.803508
O O9 0.862278 0.194416 0.622607
O O10 0.000000 0.220488 0.500000
O O11 0.914418 0.162957 0.276046
O O12 0.829815 0.072683 0.427990
O O13 0.870255 0.276529 0.389777
O O14 0.726756 0.306815 0.528450
O O15 0.817782 0.388418 0.387609
O O16 0.818347 0.302612 0.164680
O O17 0.750000 0.750000 0.000000
O O18 0.216762 0.500000 0.536648
#
# Coordination Sequence:
#
# PCOD9173825 Si02
#       8
#     8   8   8   8   8   8   8   8
#     4  10  21  37  58  83 114 151 194 237 284 341
#     4  10  18  32  51  77 113 150 191 228 278 333
#     4  12  22  34  53  82 117 148 189 237 290 339
#     4   9  18  29  49  76 111 153 187 227 269 337
#     4  10  20  32  54  78 104 143 188 237 286 334
#     4  12  22  36  57  84 111 149 190 242 290 339
#     4  10  18  31  50  76 106 138 182 232 285 326
#     4   9  19  34  52  78 113 152 193 234 279 338
#
# _framework density 20.117978000000001
#
# number of rings (size 3 to 8) (size 9 to 14) (size 15 to 20)
#    0.000    1.750    3.750    1.500    3.500    1.000 
#    0.000    2.500    0.000    0.750    0.000    0.000 
#    0.000    4.000    0.000    0.000    0.000    0.000 
#
# Total GULP energy -178156.119172 kJ/mol
# GULP energy per Si atom -5567.378724 kJ/mol
# Density = 2.007219 g / cm^3
# Si number density = 20.117978 Si / 1000 Ang^3
#
#
#
# Elastic Constant Matrix: (Units=GPa)
#
#
# Indices 1 2 3 4 5 6 
#
# 1 26.9061 20.7690 -0.5661 0.0000 4.8376 0.0000
# 2 20.7690 138.6852 21.5680 0.0000 -1.6063 0.0000
# 3 -0.5661 21.5680 39.3116 0.0000 -2.1771 0.0000
# 4 0.0000 0.0000 0.0000 17.7344 0.0000 2.0067
# 5 4.8376 -1.6063 -2.1771 0.0000 21.4781 0.0000
# 6 0.0000 0.0000 0.0000 2.0067 0.0000 11.5604
#
#
#
# Elastic Compliance Matrix: (Units=1/GPa)
#
#
# Indices 1 2 3 4 5 6 
#
# 1 0.044879 -0.007491 0.004189 0.000000 -0.010244 0.000000
# 2 -0.007491 0.009134 -0.005016 0.000000 0.001862 0.000000
# 3 0.004189 -0.005016 0.028336 0.000000 0.001554 0.000000
# 4 0.000000 0.000000 0.000000 0.057517 0.000000 -0.009984
# 5 -0.010244 0.001862 0.001554 0.000000 0.049163 0.000000
# 6 0.000000 0.000000 0.000000 -0.009984 0.000000 0.088235
#
#
# Mechanical properties :
#
#
# Convention : Reuss Voigt Hill
#
# Bulk Modulus (GPa) = 15.21786 32.04942 23.63364
# Shear Modulus (GPa) = 15.83255 21.03005 18.43130
#
# Velocity S-wave (km/s) = 2.80837 3.23667 3.03010
# Velocity P-wave (km/s) = 4.25401 5.47114 4.90051
#
# Compressibility (1/GPa) = 0.06571228
#
# Stress axis : x y z
#
# Youngs Moduli (GPa) = 22.28236 109.48062 35.29062
#
# Poissons Ratio (x) = 0.82011 -0.14782
# Poissons Ratio (y) = 0.16692 0.17702
# Poissons Ratio (z) = -0.09334 0.54916
#
# Static dielectric constant tensor:
#      x y z
#    x 1.771480 0.000000 -0.010610 
#    y 0.000000 1.824010 0.000000 
#    z -0.010610 0.000000 1.725270 
# 
# From -- ./inp_files/90371.got.cif
#   From: 2010.05.17/outbox.cif.g08.bks.cpg/sg12_46_cif.got.tgz:90371.got - 2010.06.03 13:09:07.
