data_PCOD9173570
_publ_section_title
;
Structure prediction by ZEFSAII (Michael W. Deem and Ramdas Pophale) SiO2 
 PCOD9173570
Probable space group: C 2/M
;
_chemical_formula_sum "Si O2"
_cell_formula_units_Z 56
_cell_length_a 11.619842
_cell_length_b 16.931298
_cell_length_c 13.799635
_cell_angle_alpha 90.000000
_cell_angle_beta 62.114176
_cell_angle_gamma 90.000000
_cell_volume 2399.672970
_symmetry_space_group_name_H-M "C 2/M"
_symmetry_group_IT_number 12
_symmetry_cell_setting 'monoclinic'
loop_
_space_group_symop_operation_xyz
x,y,z
-x,y,-z
-x,-y,-z
x,-y,z
1/2+x,1/2+y,z
1/2-x,1/2+y,-z
1/2-x,1/2-y,-z
1/2+x,1/2-y,z
loop_
_atom_site_type_symbol
_atom_site_label
_atom_site_fract_x
_atom_site_fract_y
_atom_site_fract_z
Si Si1 0.394350 0.337705 0.295977
Si Si2 0.366932 0.246346 0.109235
Si Si3 0.426429 0.408062 0.630208
Si Si4 0.455904 0.500000 0.166368
Si Si5 0.134525 0.407504 0.799821
Si Si6 0.858121 0.593429 0.596088
Si Si7 0.862215 0.636585 0.821737
Si Si8 0.792379 0.000000 0.032414
O O1 0.387204 0.275303 0.212587
O O2 0.512480 0.340675 0.324534
O O3 0.413374 0.420781 0.233819
O O4 0.255018 0.350813 0.402113
O O5 0.354547 0.151961 0.113988
O O6 0.230686 0.286660 0.131334
O O7 0.500000 0.270133 0.000000
O O8 0.500000 0.400653 0.500000
O O9 0.451841 0.500000 0.652948
O O10 0.271091 0.400510 0.688930
O O11 0.384045 0.500000 0.091558
O O12 0.611040 0.500000 0.094618
O O13 0.114532 0.500000 0.830281
O O14 0.012820 0.373214 0.788283
O O15 0.835479 0.500000 0.584954
O O16 0.854109 0.608222 0.713305
O O17 0.000000 0.613185 0.500000
O O18 0.794290 0.576004 0.921507
#
# Coordination Sequence:
#
# PCOD9173570 Si02
#       8
#     8   8   8   4   8   8   8   4
#     4  11  20  40  63 102 137 181 238 291 341 425
#     4  11  26  46  73 102 140 188 234 297 364 416
#     4  10  23  44  70  99 139 195 239 275 345 430
#     4  11  18  32  62  97 139 171 235 286 348 404
#     4  11  26  48  69  99 143 188 238 291 348 430
#     4  10  18  30  59  98 137 178 226 292 356 407
#     4  11  21  42  65 100 139 176 237 291 348 412
#     4  11  18  34  61  99 132 181 222 295 346 407
#
# _framework density 23.336511999999999
#
# number of rings (size 3 to 8) (size 9 to 14) (size 15 to 20)
#    0.000    1.286    5.714    0.857    4.000    0.857 
#    2.571    3.571    0.000    0.000    0.000    0.000 
#    0.000    0.000    0.000    0.000    0.000    0.000 
#
# Total GULP energy -156400.162990 kJ/mol
# GULP energy per Si atom -5585.720107 kJ/mol
# Density = 2.328340 g / cm^3
# Si number density = 23.336512 Si / 1000 Ang^3
#
#
#
# Elastic Constant Matrix: (Units=GPa)
#
#
# Indices 1 2 3 4 5 6 
#
# 1 144.8965 56.6655 47.5395 0.0000 -37.7515 0.0000
# 2 56.6655 102.4697 26.2652 0.0000 -11.2569 0.0000
# 3 47.5395 26.2652 94.8521 0.0000 -38.2253 0.0000
# 4 0.0000 0.0000 0.0000 12.5903 0.0000 -3.0018
# 5 -37.7515 -11.2569 -38.2253 0.0000 42.2332 0.0000
# 6 0.0000 0.0000 0.0000 -3.0018 0.0000 -4.3270
#
#
#
# Elastic Compliance Matrix: (Units=1/GPa)
#
#
# Indices 1 2 3 4 5 6 
#
# 1 0.011271 -0.005096 -0.001141 0.000000 0.007683 0.000000
# 2 -0.005096 0.012811 -0.002287 0.000000 -0.003211 0.000000
# 3 -0.001141 -0.002287 0.017460 0.000000 0.014173 0.000000
# 4 0.000000 0.000000 0.000000 0.068153 0.000000 -0.047281
# 5 0.007683 -0.003211 0.014173 0.000000 0.042518 0.000000
# 6 0.000000 0.000000 0.000000 -0.047281 0.000000 -0.198304
#
#
# Mechanical properties :
#
#
# Convention : Reuss Voigt Hill
#
# Bulk Modulus (GPa) = 40.82965 67.01765 53.92365
# Shear Modulus (GPa) = -239.48571 24.21583 -107.63494
#
# Velocity S-wave (km/s) = -10.14128 3.22480 -6.79876
# Velocity P-wave (km/s) = 10.93587 6.53039 6.20271
#
# Compressibility (1/GPa) = 0.02449201
#
# Stress axis : x y z
#
# Youngs Moduli (GPa) = 88.72538 78.06020 57.27427
#
# Poissons Ratio (x) = 0.39780 0.06537
# Poissons Ratio (y) = 0.45215 0.13100
# Poissons Ratio (z) = 0.10126 0.17854
#
# Static dielectric constant tensor:
#      x y z
#    x 1.978910 0.000000 -0.002110 
#    y 0.000000 1.884220 0.000000 
#    z -0.002110 0.000000 1.881200 
# 
# From -- ./inp_files/206608.got.cif
#   From: 2010.05.17/outbox.cif.g08.bks.cpg/sg12_104_cif.got.tgz:206608.got - 2010.06.03 13:09:07.
