data_PCOD9173129
_publ_section_title
;
Structure prediction by ZEFSAII (Michael W. Deem and Ramdas Pophale) SiO2 
 PCOD9173129
Probable space group: C 2/M
;
_chemical_formula_sum "Si O2"
_cell_formula_units_Z 48
_cell_length_a 34.371379
_cell_length_b 8.633889
_cell_length_c 23.467960
_cell_angle_alpha 90.000000
_cell_angle_beta 156.566293
_cell_angle_gamma 90.000000
_cell_volume 2769.624895
_symmetry_space_group_name_H-M "C 2/M"
_symmetry_group_IT_number 12
_symmetry_cell_setting 'monoclinic'
loop_
_space_group_symop_operation_xyz
x,y,z
-x,y,-z
-x,-y,-z
x,-y,z
1/2+x,1/2+y,z
1/2-x,1/2+y,-z
1/2-x,1/2-y,-z
1/2+x,1/2-y,z
loop_
_atom_site_type_symbol
_atom_site_label
_atom_site_fract_x
_atom_site_fract_y
_atom_site_fract_z
Si Si1 0.823288 0.816479 0.425884
Si Si2 0.772574 0.816331 0.592354
Si Si3 0.182342 0.813096 0.137589
Si Si4 0.845476 0.683952 0.276326
Si Si5 0.019419 0.316173 0.093101
Si Si6 0.010478 0.684057 0.420834
O O1 0.796722 0.758538 0.452811
O O2 0.747136 0.737425 0.279332
O O3 0.932106 0.769353 0.552040
O O4 0.810260 0.000000 0.404365
O O5 0.750000 0.750000 0.500000
O O6 0.883228 0.771453 0.757543
O O7 0.760319 0.000000 0.576588
O O8 0.242172 0.758238 0.161731
O O9 0.177464 0.000000 0.130472
O O10 0.075718 0.741590 0.001035
O O11 0.834829 0.500000 0.252139
O O12 0.917918 0.699810 0.428003
O O13 0.905400 0.744415 0.302212
O O14 0.033291 0.500000 0.119480
O O15 0.000000 0.287860 0.000000
O O16 0.004321 0.500000 0.400185
#
# Coordination Sequence:
#
# PCOD9173129 Si02
#       6
#     8   8   8   8   8   8
#     4  11  20  31  47  73 105 137 174 217 262 312
#     4  12  25  41  59  78 104 139 179 221 267 317
#     4  10  18  30  50  75 102 138 179 217 261 310
#     4   7  12  23  41  66  97 130 169 213 255 304
#     4  11  22  36  55  80 110 140 176 220 265 314
#     4   8  13  25  43  64  94 134 172 209 256 308
#
# _framework density 17.330866
#
# number of rings (size 3 to 8) (size 9 to 14) (size 15 to 20)
#    0.000    2.167    1.667    6.000    0.000    0.667 
#    0.000    7.500    0.000    0.000    0.000    1.167 
#    0.000    0.000    0.000    0.000    0.000    0.000 
#
# Total GULP energy -133775.433811 kJ/mol
# GULP energy per Si atom -5573.976409 kJ/mol
# Density = 1.729142 g / cm^3
# Si number density = 17.330866 Si / 1000 Ang^3
#
#
#
# Elastic Constant Matrix: (Units=GPa)
#
#
# Indices 1 2 3 4 5 6 
#
# 1 136.3229 16.0034 35.7142 0.0000 36.9604 0.0000
# 2 16.0034 40.6434 8.1921 0.0000 5.9471 0.0000
# 3 35.7142 8.1921 20.3389 0.0000 12.0675 0.0000
# 4 0.0000 0.0000 0.0000 15.5886 0.0000 -2.2436
# 5 36.9604 5.9471 12.0675 0.0000 30.7244 0.0000
# 6 0.0000 0.0000 0.0000 -2.2436 0.0000 18.5972
#
#
#
# Elastic Compliance Matrix: (Units=1/GPa)
#
#
# Indices 1 2 3 4 5 6 
#
# 1 0.015864 -0.000379 -0.021415 0.000000 -0.010600 0.000000
# 2 -0.000379 0.026823 -0.009555 0.000000 -0.000983 0.000000
# 3 -0.021415 -0.009555 0.096794 0.000000 -0.010406 0.000000
# 4 0.000000 0.000000 0.000000 0.065283 0.000000 0.007876
# 5 -0.010600 -0.000983 -0.010406 0.000000 0.049576 0.000000
# 6 0.000000 0.000000 0.000000 0.007876 0.000000 0.054722
#
#
# Mechanical properties :
#
#
# Convention : Reuss Voigt Hill
#
# Bulk Modulus (GPa) = 13.02374 35.23605 24.12990
# Shear Modulus (GPa) = 12.58324 22.14175 17.36250
#
# Velocity S-wave (km/s) = 2.69747 3.57822 3.16860
# Velocity P-wave (km/s) = 4.15125 6.11940 5.22876
#
# Compressibility (1/GPa) = 0.07678288
#
# Stress axis : x y z
#
# Youngs Moduli (GPa) = 63.03495 37.28114 10.33126
#
# Poissons Ratio (x) = 0.01413 0.22125
# Poissons Ratio (y) = 0.02390 0.09871
# Poissons Ratio (z) = 1.34990 0.35621
#
# Static dielectric constant tensor:
#      x y z
#    x 1.630170 0.000000 0.036520 
#    y 0.000000 1.576060 0.000000 
#    z 0.036520 0.000000 1.580590 
# 
# From -- ./inp_files/329127.got.cif
#   From: 2010.05.17/outbox.cif.g08.bks.cpg/sg12_165_cif.got.tgz:329127.got - 2010.06.03 13:09:07.
