data_PCOD9173793
_publ_section_title
;
Structure prediction by ZEFSAII (Michael W. Deem and Ramdas Pophale) SiO2 
 PCOD9173793
Probable space group: C 2/M
;
_chemical_formula_sum "Si O2"
_cell_formula_units_Z 48
_cell_length_a 23.239748
_cell_length_b 8.572383
_cell_length_c 29.820616
_cell_angle_alpha 90.000000
_cell_angle_beta 151.894165
_cell_angle_gamma 90.000000
_cell_volume 2798.751092
_symmetry_space_group_name_H-M "C 2/M"
_symmetry_group_IT_number 12
_symmetry_cell_setting 'monoclinic'
loop_
_space_group_symop_operation_xyz
x,y,z
-x,y,-z
-x,-y,-z
x,-y,z
1/2+x,1/2+y,z
1/2-x,1/2+y,-z
1/2-x,1/2-y,-z
1/2+x,1/2-y,z
loop_
_atom_site_type_symbol
_atom_site_label
_atom_site_fract_x
_atom_site_fract_y
_atom_site_fract_z
Si Si1 0.030179 0.310765 0.950056
Si Si2 0.451886 0.313745 0.716392
Si Si3 0.301583 0.810986 0.851828
Si Si4 0.112372 0.311837 0.908378
Si Si5 0.534040 0.814496 0.675798
Si Si6 0.208264 0.186158 0.519970
O O1 0.030347 0.500000 0.950397
O O2 0.900403 0.264108 0.882051
O O3 0.056638 0.259925 0.917900
O O4 0.136535 0.264672 0.058117
O O5 0.451844 0.500000 0.714707
O O6 0.533396 0.252935 0.813094
O O7 0.506395 0.251305 0.706739
O O8 0.312669 0.251957 0.624235
O O9 0.169503 0.737031 0.755704
O O10 0.290605 0.000000 0.843940
O O11 0.112756 0.500000 0.907168
O O12 0.250000 0.250000 0.000000
O O13 0.429994 0.745907 0.571391
O O14 0.522370 0.000000 0.669121
O O15 0.250000 0.250000 0.500000
O O16 0.211258 0.000000 0.522015
#
# Coordination Sequence:
#
# PCOD9173793 Si02
#       6
#     8   8   8   8   8   8
#     4   8  17  32  52  73  99 132 169 205 245 294
#     4  11  21  34  50  72 102 137 169 207 251 296
#     4   9  16  32  54  75  97 130 169 207 246 293
#     4  11  21  34  51  76 105 137 170 204 245 297
#     4  11  20  31  49  77 105 131 163 206 252 300
#     4  10  18  31  50  73  99 130 164 205 250 299
#
# _framework density 17.150507000000001
#
# number of rings (size 3 to 8) (size 9 to 14) (size 15 to 20)
#    0.000    2.000    0.000    9.000    0.000    1.333 
#    0.000    4.167    0.000    1.000    0.000    7.000 
#    0.000    0.000    0.000    0.000    0.000    0.000 
#
# Total GULP energy -133924.694117 kJ/mol
# GULP energy per Si atom -5580.195588 kJ/mol
# Density = 1.711147 g / cm^3
# Si number density = 17.150507 Si / 1000 Ang^3
#
#
#
# Elastic Constant Matrix: (Units=GPa)
#
#
# Indices 1 2 3 4 5 6 
#
# 1 72.8234 30.7491 64.5014 0.0000 3.7521 0.0000
# 2 30.7491 119.0168 59.1459 0.0000 4.3388 -0.0003
# 3 64.5014 59.1459 182.5498 -0.0001 16.2936 0.0000
# 4 0.0000 0.0000 -0.0001 32.6300 0.0000 4.7103
# 5 3.7521 4.3388 16.2936 0.0000 26.7262 0.0000
# 6 0.0000 -0.0003 0.0000 4.7103 0.0000 18.2261
#
#
#
# Elastic Compliance Matrix: (Units=1/GPa)
#
#
# Indices 1 2 3 4 5 6 
#
# 1 0.020443 -0.002002 -0.006713 0.000000 0.001547 0.000000
# 2 -0.002002 0.010214 -0.002622 0.000000 0.000221 0.000000
# 3 -0.006713 -0.002622 0.009071 0.000000 -0.004162 0.000000
# 4 0.000000 0.000000 0.000000 0.031834 0.000000 -0.008227
# 5 0.001547 0.000221 -0.004162 0.000000 0.039701 0.000000
# 6 0.000000 0.000000 0.000000 -0.008227 0.000000 0.056993
#
#
# Mechanical properties :
#
#
# Convention : Reuss Voigt Hill
#
# Bulk Modulus (GPa) = 58.63415 75.90921 67.27168
# Shear Modulus (GPa) = 25.43055 30.18268 27.80662
#
# Velocity S-wave (km/s) = 3.85487 4.19963 4.03094
# Velocity P-wave (km/s) = 7.35361 8.23848 7.80859
#
# Compressibility (1/GPa) = 0.01705491
#
# Stress axis : x y z
#
# Youngs Moduli (GPa) = 48.91621 97.90229 110.24502
#
# Poissons Ratio (x) = 0.19602 0.74004
# Poissons Ratio (y) = 0.09794 0.28903
# Poissons Ratio (z) = 0.32836 0.25667
#
# Static dielectric constant tensor:
#      x y z
#    x 1.561810 0.000000 0.017310 
#    y 0.000000 1.580780 0.000000 
#    z 0.017310 0.000000 1.592450 
# 
# From -- ./inp_files/365574.got.cif
#   From: 2010.05.17/outbox.cif.g08.bks.cpg/sg12_183_cif.got.tgz:365574.got - 2010.06.03 13:09:07.
