data_PCOD9173741
_publ_section_title
;
Structure prediction by ZEFSAII (Michael W. Deem and Ramdas Pophale) SiO2 
 PCOD9173741
Probable space group: C 2/M
;
_chemical_formula_sum "Si O2"
_cell_formula_units_Z 56
_cell_length_a 7.480628
_cell_length_b 29.683140
_cell_length_c 14.466859
_cell_angle_alpha 90.000000
_cell_angle_beta 64.611987
_cell_angle_gamma 90.000000
_cell_volume 2902.112592
_symmetry_space_group_name_H-M "C 2/M"
_symmetry_group_IT_number 12
_symmetry_cell_setting 'monoclinic'
loop_
_space_group_symop_operation_xyz
x,y,z
-x,y,-z
-x,-y,-z
x,-y,z
1/2+x,1/2+y,z
1/2-x,1/2+y,-z
1/2-x,1/2-y,-z
1/2+x,1/2-y,z
loop_
_atom_site_type_symbol
_atom_site_label
_atom_site_fract_x
_atom_site_fract_y
_atom_site_fract_z
Si Si1 0.062695 0.202473 0.128680
Si Si2 0.390810 0.049599 0.376985
Si Si3 0.679465 0.450256 0.615459
Si Si4 0.027553 0.358270 0.717831
Si Si5 0.637823 0.355388 0.682856
Si Si6 0.167004 0.694024 0.093535
Si Si7 0.277178 0.302551 0.517568
O O1 0.078861 0.256360 0.130963
O O2 0.023218 0.177170 0.233877
O O3 0.870023 0.192945 0.108321
O O4 0.258154 0.188488 0.027911
O O5 0.607583 0.050236 0.378571
O O6 0.235304 0.053842 0.495213
O O7 0.376867 0.092814 0.315347
O O8 0.368190 0.000000 0.339348
O O9 0.591531 0.500000 0.651060
O O10 0.567221 0.405347 0.671353
O O11 0.141954 0.321630 0.629734
O O12 0.813027 0.361715 0.717284
O O13 0.985012 0.341328 0.830022
O O14 0.739499 0.331918 0.571763
O O15 0.500000 0.308977 0.500000
O O16 0.250000 0.250000 0.500000
#
# Coordination Sequence:
#
# PCOD9173741 Si02
#       7
#     8   8   8   8   8   8   8
#     4   9  18  31  47  67  90 119 155 194 231 270
#     4   8  13  23  43  69  92 117 153 189 221 269
#     4   8  13  23  43  69  92 117 153 189 221 269
#     4  10  18  31  50  69  93 123 156 191 229 274
#     4  10  18  31  50  69  93 123 156 191 229 274
#     4   9  18  31  47  67  90 119 155 194 231 270
#     4  12  24  34  45  66  97 125 152 187 231 282
#
# _framework density 19.296285999999998
#
# number of rings (size 3 to 8) (size 9 to 14) (size 15 to 20)
#    0.000    2.571    1.429    3.000    0.000    3.429 
#    0.000    0.000    0.000    2.571    0.000    6.000 
#    0.000    0.000    0.000    9.714    0.000   10.286 
#
# Total GULP energy -156183.999874 kJ/mol
# GULP energy per Si atom -5577.999995 kJ/mol
# Density = 1.925237 g / cm^3
# Si number density = 19.296286 Si / 1000 Ang^3
#
#
#
# Elastic Constant Matrix: (Units=GPa)
#
#
# Indices 1 2 3 4 5 6 
#
# 1 38.5376 -2.6251 -1.8155 0.0000 -6.9311 0.0000
# 2 -2.6251 133.1453 56.8449 0.0000 -14.1417 0.0000
# 3 -1.8155 56.8449 88.4105 0.0000 -13.8512 0.0000
# 4 0.0000 0.0000 0.0000 26.0720 0.0000 10.4866
# 5 -6.9311 -14.1417 -13.8512 0.0000 14.4331 0.0000
# 6 0.0000 0.0000 0.0000 10.4866 0.0000 0.1012
#
#
#
# Elastic Compliance Matrix: (Units=1/GPa)
#
#
# Indices 1 2 3 4 5 6 
#
# 1 0.029380 0.001413 0.002498 0.000000 0.017891 0.000000
# 2 0.001413 0.010666 -0.005985 0.000000 0.005385 0.000000
# 3 0.002498 -0.005985 0.017042 0.000000 0.011690 0.000000
# 4 0.000000 0.000000 0.000000 -0.000943 0.000000 0.097704
# 5 0.017891 0.005385 0.011690 0.000000 0.094372 0.000000
# 6 0.000000 0.000000 0.000000 0.097704 0.000000 -0.242914
#
#
# Mechanical properties :
#
#
# Convention : Reuss Voigt Hill
#
# Bulk Modulus (GPa) = 18.88956 40.54468 29.71712
# Shear Modulus (GPa) = -70.81916 21.96719 -24.42599
#
# Velocity S-wave (km/s) = -6.06470 3.37770 -3.56172
# Velocity P-wave (km/s) = 6.26341 6.02238 1.21681
#
# Compressibility (1/GPa) = 0.05293930
#
# Stress axis : x y z
#
# Youngs Moduli (GPa) = 34.03645 93.75910 58.67962
#
# Poissons Ratio (x) = -0.13250 -0.14656
# Poissons Ratio (y) = -0.04810 0.35119
# Poissons Ratio (z) = -0.08501 0.56114
#
# Static dielectric constant tensor:
#      x y z
#    x 1.499300 0.000000 -0.324840 
#    y 0.000000 1.684000 0.000000 
#    z -0.324840 0.000000 1.253590 
# 
# From -- ./inp_files/185222.got.cif
#   From: 2010.05.17/outbox.cif.g08.bks.cpg/sg12_93_cif.got.tgz:185222.got - 2010.06.03 13:09:07.
