data_PCOD9173504
_publ_section_title
;
Structure prediction by ZEFSAII (Michael W. Deem and Ramdas Pophale) SiO2 
 PCOD9173504
Probable space group: C 2/M
;
_chemical_formula_sum "Si O2"
_cell_formula_units_Z 56
_cell_length_a 24.732929
_cell_length_b 13.934879
_cell_length_c 7.758505
_cell_angle_alpha 90.000000
_cell_angle_beta 107.079868
_cell_angle_gamma 90.000000
_cell_volume 2556.039525
_symmetry_space_group_name_H-M "C 2/M"
_symmetry_group_IT_number 12
_symmetry_cell_setting 'monoclinic'
loop_
_space_group_symop_operation_xyz
x,y,z
-x,y,-z
-x,-y,-z
x,-y,z
1/2+x,1/2+y,z
1/2-x,1/2+y,-z
1/2-x,1/2-y,-z
1/2+x,1/2-y,z
loop_
_atom_site_type_symbol
_atom_site_label
_atom_site_fract_x
_atom_site_fract_y
_atom_site_fract_z
Si Si1 0.313969 0.761879 0.515004
Si Si2 0.398984 0.390243 0.690670
Si Si3 0.182810 0.752128 0.892658
Si Si4 0.993003 0.753774 0.732876
Si Si5 0.588717 0.889821 0.950299
Si Si6 0.091130 0.107436 0.717987
Si Si7 0.907487 0.604325 0.637173
O O1 0.250000 0.750000 0.500000
O O2 0.346204 0.681650 0.659847
O O3 0.320198 0.753685 0.316486
O O4 0.342487 0.864361 0.573124
O O5 0.396194 0.500000 0.751817
O O6 0.452323 0.326344 0.803050
O O7 0.401046 0.396960 0.482306
O O8 0.145776 0.667140 0.946484
O O9 0.143878 0.848114 0.875417
O O10 0.250000 0.750000 0.000000
O O11 0.945531 0.688541 0.591173
O O12 0.035034 0.672353 0.842122
O O13 0.036624 0.826878 0.690283
O O14 0.589043 0.000000 0.885768
O O15 0.581233 0.895262 0.148764
O O16 0.079968 0.000000 0.767879
O O17 0.918447 0.500000 0.573164
#
# Coordination Sequence:
#
# PCOD9173504 Si02
#       7
#     8   8   8   8   8   8   8
#     4  10  21  37  58  83 111 144 184 232 279 326
#     4   9  18  33  54  80 110 146 185 222 269 332
#     4  10  21  37  58  83 111 144 184 232 279 326
#     4  10  18  30  54  82 107 137 181 231 271 317
#     4  10  21  37  57  80 110 150 188 223 271 330
#     4   9  18  33  54  80 110 146 185 222 269 332
#     4  10  21  37  57  80 110 150 188 223 271 330
#
# _framework density 21.908892999999999
#
# number of rings (size 3 to 8) (size 9 to 14) (size 15 to 20)
#    0.000    2.286    0.000    2.571    0.000    5.143 
#    0.000    2.857    0.000   52.286    0.000    0.000 
#    0.000    0.000    0.000    0.000    0.000    0.000 
#
# Total GULP energy -156038.010052 kJ/mol
# GULP energy per Si atom -5572.786073 kJ/mol
# Density = 2.185903 g / cm^3
# Si number density = 21.908893 Si / 1000 Ang^3
#
#
#
# Elastic Constant Matrix: (Units=GPa)
#
#
# Indices 1 2 3 4 5 6 
#
# 1 123.7673 56.2963 19.4818 0.0000 36.1818 0.0000
# 2 56.2963 198.9323 30.0152 0.0000 22.7732 0.0000
# 3 19.4818 30.0152 58.0547 0.0000 23.0640 0.0000
# 4 0.0000 0.0000 0.0000 19.7059 0.0000 -2.1226
# 5 36.1818 22.7732 23.0640 0.0000 39.7025 0.0000
# 6 0.0000 0.0000 0.0000 -2.1226 0.0000 8.2207
#
#
#
# Elastic Compliance Matrix: (Units=1/GPa)
#
#
# Indices 1 2 3 4 5 6 
#
# 1 0.011980 -0.002410 0.001318 0.000000 -0.010301 0.000000
# 2 -0.002410 0.006054 -0.002359 0.000000 0.000094 0.000000
# 3 0.001318 -0.002359 0.023325 0.000000 -0.013398 0.000000
# 4 0.000000 0.000000 0.000000 0.052198 0.000000 0.013478
# 5 -0.010301 0.000094 -0.013398 0.000000 0.042304 0.000000
# 6 0.000000 0.000000 0.000000 0.013478 0.000000 0.125124
#
#
# Mechanical properties :
#
#
# Convention : Reuss Voigt Hill
#
# Bulk Modulus (GPa) = 29.02065 65.81566 47.41816
# Shear Modulus (GPa) = 17.89732 31.85655 24.87694
#
# Velocity S-wave (km/s) = 2.86124 3.81733 3.37333
# Velocity P-wave (km/s) = 4.91838 7.03813 6.07148
#
# Compressibility (1/GPa) = 0.03445822
#
# Stress axis : x y z
#
# Youngs Moduli (GPa) = 83.47516 165.18206 42.87219
#
# Poissons Ratio (x) = 0.39806 -0.05651
# Poissons Ratio (y) = 0.20116 0.10112
# Poissons Ratio (z) = -0.11003 0.38959
#
# Static dielectric constant tensor:
#      x y z
#    x 1.636400 0.000000 -0.268260 
#    y 0.000000 1.894540 0.000000 
#    z -0.268260 0.000000 1.687190 
# 
# From -- ./inp_files/96974.got.cif
#   From: 2010.05.17/outbox.cif.g08.bks.cpg/sg12_49_cif.got.tgz:96974.got - 2010.06.03 13:09:07.
