data_PCOD9173646
_publ_section_title
;
Structure prediction by ZEFSAII (Michael W. Deem and Ramdas Pophale) SiO2 
 PCOD9173646
Probable space group: C 2/M
;
_chemical_formula_sum "Si O2"
_cell_formula_units_Z 48
_cell_length_a 15.697052
_cell_length_b 33.855642
_cell_length_c 5.168190
_cell_angle_alpha 90.000000
_cell_angle_beta 82.990080
_cell_angle_gamma 90.000000
_cell_volume 2726.020345
_symmetry_space_group_name_H-M "C 2/M"
_symmetry_group_IT_number 12
_symmetry_cell_setting 'monoclinic'
loop_
_space_group_symop_operation_xyz
x,y,z
-x,y,-z
-x,-y,-z
x,-y,z
1/2+x,1/2+y,z
1/2-x,1/2+y,-z
1/2-x,1/2-y,-z
1/2+x,1/2-y,z
loop_
_atom_site_type_symbol
_atom_site_label
_atom_site_fract_x
_atom_site_fract_y
_atom_site_fract_z
Si Si1 0.840775 0.191404 0.482474
Si Si2 0.591953 0.414168 0.113513
Si Si3 0.273116 0.351448 0.024935
Si Si4 0.000000 0.854338 0.500000
Si Si5 0.438750 0.500000 0.772610
Si Si6 0.401438 0.828425 0.061655
Si Si7 0.099722 0.723400 0.437782
O O1 0.781201 0.175314 0.276942
O O2 0.845971 0.238139 0.513881
O O3 0.936083 0.174590 0.370088
O O4 0.812381 0.173510 0.769716
O O5 0.566572 0.384818 0.351714
O O6 0.611722 0.458649 0.194514
O O7 0.500000 0.415472 0.000000
O O8 0.670283 0.391025 0.951446
O O9 0.174262 0.358467 0.984797
O O10 0.500000 0.500000 0.500000
O O11 0.500000 0.500000 0.000000
O O12 0.387942 0.810533 0.351410
O O13 0.500000 0.842514 0.000000
O O14 0.390438 0.793193 0.855286
O O15 0.000000 0.735343 0.500000
#
# Coordination Sequence:
#
# PCOD9173646 Si02
#       7
#     8   8   8   4   4   8   8
#     4  11  21  32  51  72 101 130 169 204 258 294
#     4  10  19  34  51  76 107 132 163 196 241 304
#     4  11  23  33  52  74  98 130 169 210 249 300
#     4  10  18  31  48  72 106 136 162 196 242 289
#     4  10  20  32  54  76 105 140 161 186 240 300
#     4  10  22  38  51  67  94 130 174 220 259 293
#     4  10  20  35  52  69  95 132 171 214 260 298
#
# _framework density 17.608086
#
# number of rings (size 3 to 8) (size 9 to 14) (size 15 to 20)
#    0.000    1.667    3.333    2.000    0.000    4.000 
#    0.000    0.000    0.000    0.000    0.000    0.583 
#    0.000    0.000    0.000   16.500    0.000    0.000 
#
# Total GULP energy -133705.367366 kJ/mol
# GULP energy per Si atom -5571.056974 kJ/mol
# Density = 1.756801 g / cm^3
# Si number density = 17.608086 Si / 1000 Ang^3
#
#
#
# Elastic Constant Matrix: (Units=GPa)
#
#
# Indices 1 2 3 4 5 6 
#
# 1 108.9546 41.6786 3.7721 0.0000 5.8939 0.0000
# 2 41.6786 42.6682 -4.2144 0.0000 -5.9946 0.0000
# 3 3.7721 -4.2144 73.7432 0.0000 5.3432 0.0000
# 4 0.0000 0.0000 0.0000 -13.4595 0.0000 -7.7452
# 5 5.8939 -5.9946 5.3432 0.0000 22.3921 0.0000
# 6 0.0000 0.0000 0.0000 -7.7452 0.0000 1.4277
#
#
#
# Elastic Compliance Matrix: (Units=1/GPa)
#
#
# Indices 1 2 3 4 5 6 
#
# 1 0.016274 -0.017224 -0.001193 0.000000 -0.008610 0.000000
# 2 -0.017224 0.042645 0.002201 0.000000 0.015425 0.000000
# 3 -0.001193 0.002201 0.013923 0.000000 -0.002419 0.000000
# 4 0.000000 0.000000 0.000000 -0.018025 0.000000 -0.097788
# 5 -0.008610 0.015425 -0.002419 0.000000 0.051631 0.000000
# 6 0.000000 0.000000 0.000000 -0.097788 0.000000 0.169935
#
#
# Mechanical properties :
#
#
# Convention : Reuss Voigt Hill
#
# Bulk Modulus (GPa) = 24.74669 34.20430 29.47549
# Shear Modulus (GPa) = 15.51420 14.34736 14.93078
#
# Velocity S-wave (km/s) = 2.97153 2.85760 2.91512
# Velocity P-wave (km/s) = 5.08507 5.50957 5.30157
#
# Compressibility (1/GPa) = 0.04040944
#
# Stress axis : x y z
#
# Youngs Moduli (GPa) = 61.44838 23.44920 71.82549
#
# Poissons Ratio (x) = 0.40388 0.08568
# Poissons Ratio (y) = 1.05837 -0.15805
# Poissons Ratio (z) = 0.07330 -0.05160
#
# Static dielectric constant tensor:
#      x y z
#    x 1.678760 0.000000 -0.010000 
#    y 0.000000 1.595120 0.000000 
#    z -0.010000 0.000000 1.553070 
# 
# From -- ./inp_files/12866.got.cif
#   From: 2010.05.17/outbox.cif.g08.bks.cpg/sg12_7_cif.got.tgz:12866.got - 2010.06.03 13:09:07.
