data_PCOD9173183
_publ_section_title
;
Structure prediction by ZEFSAII (Michael W. Deem and Ramdas Pophale) SiO2 
 PCOD9173183
Probable space group: C 2/M
;
_chemical_formula_sum "Si O2"
_cell_formula_units_Z 48
_cell_length_a 31.286341
_cell_length_b 19.864675
_cell_length_c 9.308727
_cell_angle_alpha 90.000000
_cell_angle_beta 29.299583
_cell_angle_gamma 90.000000
_cell_volume 2831.191803
_symmetry_space_group_name_H-M "C 2/M"
_symmetry_group_IT_number 12
_symmetry_cell_setting 'monoclinic'
loop_
_space_group_symop_operation_xyz
x,y,z
-x,y,-z
-x,-y,-z
x,-y,z
1/2+x,1/2+y,z
1/2-x,1/2+y,-z
1/2-x,1/2-y,-z
1/2+x,1/2-y,z
loop_
_atom_site_type_symbol
_atom_site_label
_atom_site_fract_x
_atom_site_fract_y
_atom_site_fract_z
Si Si1 0.648424 0.426483 0.842615
Si Si2 0.760937 0.791148 0.318904
Si Si3 0.561471 0.425748 0.485026
Si Si4 0.899425 0.898879 0.323025
Si Si5 0.590058 0.240011 0.659448
Si Si6 0.913154 0.228365 0.667905
O O1 0.678322 0.500000 0.803697
O O2 0.698985 0.363556 0.758464
O O3 0.656106 0.423160 0.647335
O O4 0.543477 0.420575 0.179431
O O5 0.750000 0.750000 0.500000
O O6 0.671230 0.797566 0.493552
O O7 0.829335 0.754981 0.010484
O O8 0.576160 0.500000 0.375968
O O9 0.615930 0.425106 0.473263
O O10 0.584880 0.353712 0.349259
O O11 0.896909 0.818242 0.334557
O O12 0.000000 0.918856 0.000000
O O13 0.587314 0.242090 0.493100
O O14 0.500000 0.218428 0.000000
O O15 0.000000 0.248356 0.500000
#
# Coordination Sequence:
#
# PCOD9173183 Si02
#       6
#     8   8   8   8   8   8
#     4  10  18  30  50  79 111 144 177 213 261 325
#     4  12  22  35  53  78 109 148 182 223 267 315
#     4   9  17  29  49  76 114 148 168 201 262 330
#     4   8  14  27  47  74 105 141 173 204 250 322
#     4  10  20  36  56  75 104 140 183 227 271 309
#     4  11  21  34  51  79 111 142 178 218 261 328
#
# _framework density 16.953990999999998
#
# number of rings (size 3 to 8) (size 9 to 14) (size 15 to 20)
#    0.000    2.000    3.333    3.000    0.000    3.000 
#    0.000    0.000    0.000    0.500    0.000    0.000 
#    0.000    2.667    0.000    0.000    0.000    0.000 
#
# Total GULP energy -133706.930533 kJ/mol
# GULP energy per Si atom -5571.122106 kJ/mol
# Density = 1.691540 g / cm^3
# Si number density = 16.953991 Si / 1000 Ang^3
#
#
#
# Elastic Constant Matrix: (Units=GPa)
#
#
# Indices 1 2 3 4 5 6 
#
# 1 151.8296 34.4651 59.8741 0.0000 9.2245 0.0000
# 2 34.4651 55.7414 16.7862 0.0000 -2.4504 0.0000
# 3 59.8741 16.7862 96.5191 0.0000 6.5190 0.0000
# 4 0.0000 0.0000 0.0000 7.7497 0.0000 -8.4640
# 5 9.2245 -2.4504 6.5190 0.0000 30.3113 0.0000
# 6 0.0000 0.0000 0.0000 -8.4640 0.0000 11.0015
#
#
#
# Elastic Compliance Matrix: (Units=1/GPa)
#
#
# Indices 1 2 3 4 5 6 
#
# 1 0.009788 -0.004609 -0.005118 0.000000 -0.002251 0.000000
# 2 -0.004609 0.021258 -0.001064 0.000000 0.003350 0.000000
# 3 -0.005118 -0.001064 0.013822 0.000000 -0.001501 0.000000
# 4 0.000000 0.000000 0.000000 0.807762 0.000000 0.621449
# 5 -0.002251 0.003350 -0.001501 0.000000 0.034270 0.000000
# 6 0.000000 0.000000 0.000000 0.621449 0.000000 0.569007
#
#
# Mechanical properties :
#
#
# Convention : Reuss Voigt Hill
#
# Bulk Modulus (GPa) = 42.94683 58.48233 50.71458
# Shear Modulus (GPa) = 3.36644 22.67680 13.02162
#
# Velocity S-wave (km/s) = 1.41065 3.66122 2.77439
# Velocity P-wave (km/s) = 5.29525 7.24171 6.34358
#
# Compressibility (1/GPa) = 0.02328460
#
# Stress axis : x y z
#
# Youngs Moduli (GPa) = 102.16921 47.04182 72.34890
#
# Poissons Ratio (x) = 0.21684 0.37028
# Poissons Ratio (y) = 0.47094 0.07697
# Poissons Ratio (z) = 0.52290 0.05005
#
# Static dielectric constant tensor:
#      x y z
#    x 1.621780 0.000000 0.051160 
#    y 0.000000 1.577970 0.000000 
#    z 0.051160 0.000000 1.605510 
# 
# From -- ./inp_files/113160.got.cif
#   From: 2010.05.17/outbox.cif.g08.bks.cpg/sg12_57_cif.got.tgz:113160.got - 2010.06.03 13:09:07.
