data_PCOD9173006
_publ_section_title
;
Structure prediction by ZEFSAII (Michael W. Deem and Ramdas Pophale) SiO2 
 PCOD9173006
Probable space group: C 2/M
;
_chemical_formula_sum "Si O2"
_cell_formula_units_Z 64
_cell_length_a 27.383636
_cell_length_b 7.492743
_cell_length_c 16.336919
_cell_angle_alpha 90.000000
_cell_angle_beta 64.598589
_cell_angle_gamma 90.000000
_cell_volume 3027.931216
_symmetry_space_group_name_H-M "C 2/M"
_symmetry_group_IT_number 12
_symmetry_cell_setting 'monoclinic'
loop_
_space_group_symop_operation_xyz
x,y,z
-x,y,-z
-x,-y,-z
x,-y,z
1/2+x,1/2+y,z
1/2-x,1/2+y,-z
1/2-x,1/2-y,-z
1/2+x,1/2-y,z
loop_
_atom_site_type_symbol
_atom_site_label
_atom_site_fract_x
_atom_site_fract_y
_atom_site_fract_z
Si Si1 0.779183 0.288012 0.593733
Si Si2 0.445731 0.298721 0.090528
Si Si3 0.954228 0.218027 0.268972
Si Si4 0.926883 0.218460 0.776406
Si Si5 0.112989 0.796018 0.015922
Si Si6 0.333298 0.705282 0.384318
Si Si7 0.829657 0.785368 0.732899
Si Si8 0.733820 0.787734 0.919356
O O1 0.775862 0.500000 0.582930
O O2 0.716575 0.219742 0.634879
O O3 0.810395 0.211760 0.492874
O O4 0.812488 0.257294 0.652650
O O5 0.423828 0.500000 0.122178
O O6 0.457435 0.225757 0.171472
O O7 0.408491 0.204359 0.050862
O O8 0.500000 0.311987 0.000000
O O9 0.894379 0.279838 0.339446
O O10 0.010153 0.275350 0.272447
O O11 0.955732 0.000000 0.273286
O O12 0.886178 0.277124 0.733178
O O13 0.925991 0.000000 0.776242
O O14 0.902789 0.274877 0.882892
O O15 0.176125 0.801118 0.955008
O O16 0.090978 0.000000 0.032989
O O17 0.339654 0.500000 0.353298
O O18 0.780394 0.722061 0.825506
O O19 0.831197 0.000000 0.737276
O O20 0.727755 0.000000 0.911333
O O21 0.750000 0.750000 0.000000
#
# Coordination Sequence:
#
# PCOD9173006 Si02
#       8
#     8   8   8   8   8   8   8   8
#     4  10  21  37  58  82 106 134 168 212 268 324
#     4   9  15  24  45  78 110 139 174 219 262 299
#     4   9  16  28  50  81 108 134 176 224 264 305
#     4   9  16  30  50  75 108 142 176 218 264 303
#     4  10  18  30  49  74 108 144 179 221 264 307
#     4   9  19  36  58  83 107 131 167 217 268 318
#     4  10  21  36  53  76 106 141 178 216 261 312
#     4  11  22  35  51  74 106 144 183 220 259 308
#
# _framework density 21.136544000000001
#
# number of rings (size 3 to 8) (size 9 to 14) (size 15 to 20)
#    0.000    2.375    2.500    0.750    1.750    1.500 
#    0.000    0.625    0.000    5.625    0.000    0.000 
#    0.000    0.000    0.000    0.000    0.000    0.000 
#
# Total GULP energy -178267.347753 kJ/mol
# GULP energy per Si atom -5570.854617 kJ/mol
# Density = 2.108844 g / cm^3
# Si number density = 21.136544 Si / 1000 Ang^3
#
#
#
# Elastic Constant Matrix: (Units=GPa)
#
#
# Indices 1 2 3 4 5 6 
#
# 1 223.2235 5.0572 77.0450 0.0000 3.9457 0.0000
# 2 5.0572 60.7417 -3.7094 -0.0002 -3.7074 0.0000
# 3 77.0450 -3.7094 83.3131 0.0000 2.3549 0.0000
# 4 0.0000 -0.0002 0.0000 2.1707 0.0000 -0.6567
# 5 3.9457 -3.7074 2.3549 0.0000 41.1030 0.0000
# 6 0.0000 0.0000 0.0000 -0.6567 0.0000 1.3611
#
#
#
# Elastic Compliance Matrix: (Units=1/GPa)
#
#
# Indices 1 2 3 4 5 6 
#
# 1 0.006637 -0.000952 -0.006170 0.000000 -0.000370 0.000000
# 2 -0.000952 0.016731 0.001583 0.000002 0.001510 0.000001
# 3 -0.006170 0.001583 0.017787 0.000000 -0.000284 0.000000
# 4 0.000000 0.000002 0.000000 0.539396 0.000000 0.260230
# 5 -0.000370 0.001510 -0.000284 0.000000 0.024517 0.000000
# 6 0.000000 0.000001 0.000000 0.260230 0.000000 0.860223
#
#
# Mechanical properties :
#
#
# Convention : Reuss Voigt Hill
#
# Bulk Modulus (GPa) = 33.24784 58.22931 45.73858
# Shear Modulus (GPa) = 3.36384 28.18601 15.77492
#
# Velocity S-wave (km/s) = 1.26291 3.65570 2.73488
# Velocity P-wave (km/s) = 4.22975 6.74001 5.62666
#
# Compressibility (1/GPa) = 0.03007714
#
# Stress axis : x y z
#
# Youngs Moduli (GPa) = 150.65919 59.76849 56.21997
#
# Poissons Ratio (x) = 0.05690 0.34688
# Poissons Ratio (y) = 0.14342 -0.08897
# Poissons Ratio (z) = 0.92958 -0.09459
#
# Static dielectric constant tensor:
#      x y z
#    x 1.724010 0.000000 0.001020 
#    y 0.000000 1.840530 0.000000 
#    z 0.001020 0.000000 1.715870 
# 
# From -- ./inp_files/243802.got.cif
#   From: 2010.05.17/outbox.cif.g08.bks.cpg/sg12_122_cif.got.tgz:243802.got - 2010.06.03 13:09:07.
