data_PCOD9173662
_publ_section_title
;
Structure prediction by ZEFSAII (Michael W. Deem and Ramdas Pophale) SiO2 
 PCOD9173662
Probable space group: C 2/M
;
_chemical_formula_sum "Si O2"
_cell_formula_units_Z 64
_cell_length_a 31.274145
_cell_length_b 7.685130
_cell_length_c 15.452202
_cell_angle_alpha 90.000000
_cell_angle_beta 100.024990
_cell_angle_gamma 90.000000
_cell_volume 3657.169228
_symmetry_space_group_name_H-M "C 2/M"
_symmetry_group_IT_number 12
_symmetry_cell_setting 'monoclinic'
loop_
_space_group_symop_operation_xyz
x,y,z
-x,y,-z
-x,-y,-z
x,-y,z
1/2+x,1/2+y,z
1/2-x,1/2+y,-z
1/2-x,1/2-y,-z
1/2+x,1/2-y,z
loop_
_atom_site_type_symbol
_atom_site_label
_atom_site_fract_x
_atom_site_fract_y
_atom_site_fract_z
Si Si1 0.122797 0.214188 0.254331
Si Si2 0.652344 0.204747 0.931597
Si Si3 0.817508 0.797337 0.576542
Si Si4 0.056441 0.790021 0.937583
Si Si5 0.189025 0.204027 0.130332
Si Si6 0.539062 0.712195 0.128977
Si Si7 0.225091 0.793080 0.611470
Si Si8 0.214169 0.289634 0.801779
O O1 0.143559 0.275549 0.351774
O O2 0.155049 0.273665 0.188756
O O3 0.074335 0.269051 0.211517
O O4 0.122972 0.000000 0.255046
O O5 0.600797 0.231933 0.909533
O O6 0.678712 0.273755 0.858229
O O7 0.660781 0.000000 0.940243
O O8 0.670178 0.280650 0.027651
O O9 0.804273 0.723739 0.478210
O O10 0.773273 0.785269 0.617493
O O11 0.827671 0.000000 0.566053
O O12 0.010903 0.731503 0.879699
O O13 0.056603 0.000000 0.937774
O O14 0.054846 0.735667 0.038159
O O15 0.237658 0.276270 0.155659
O O16 0.192824 0.000000 0.151871
O O17 0.538834 0.500000 0.129025
O O18 0.206623 0.759111 0.699614
O O19 0.230268 0.000000 0.601216
O O20 0.214170 0.500000 0.805741
#
# Coordination Sequence:
#
# PCOD9173662 Si02
#       8
#     8   8   8   8   8   8   8   8
#     4   9  14  25  48  70  88 118 152 178 217 270
#     4  11  22  32  44  65  93 122 154 190 227 263
#     4   9  17  30  47  67  94 122 148 183 229 275
#     4   9  16  29  47  66  88 115 152 188 218 264
#     4  10  18  31  49  64  86 124 160 184 214 259
#     4   8  14  25  46  70  87 111 150 188 218 261
#     4  10  19  29  45  69  92 118 153 192 225 260
#     4  10  21  35  47  61  88 127 160 187 223 266
#
# _framework density 17.499873999999998
#
# number of rings (size 3 to 8) (size 9 to 14) (size 15 to 20)
#    0.000    2.500    2.500    1.875    0.000    2.000 
#    0.000    1.250    0.000    0.000    0.000    0.875 
#    0.000    7.000    0.000    0.000    0.000    0.000 
#
# Total GULP energy -178417.704053 kJ/mol
# GULP energy per Si atom -5575.553252 kJ/mol
# Density = 1.746004 g / cm^3
# Si number density = 17.499874 Si / 1000 Ang^3
#
#
#
# Elastic Constant Matrix: (Units=GPa)
#
#
# Indices 1 2 3 4 5 6 
#
# 1 109.3401 -3.0822 61.3765 0.0000 20.3944 0.0000
# 2 -3.0822 27.6987 -7.8903 0.0000 1.6843 0.0000
# 3 61.3765 -7.8903 95.3176 0.0000 20.1668 0.0000
# 4 0.0000 0.0000 0.0000 11.2701 0.0000 -3.9976
# 5 20.3944 1.6843 20.1668 0.0000 32.0782 0.0000
# 6 0.0000 0.0000 0.0000 -3.9976 0.0000 13.2947
#
#
#
# Elastic Compliance Matrix: (Units=1/GPa)
#
#
# Indices 1 2 3 4 5 6 
#
# 1 0.014749 -0.000612 -0.008732 0.000000 -0.003855 0.000000
# 2 -0.000612 0.037561 0.004427 0.000000 -0.004366 0.000000
# 3 -0.008732 0.004427 0.017711 0.000000 -0.005815 0.000000
# 4 0.000000 0.000000 0.000000 0.099323 0.000000 0.029865
# 5 -0.003855 -0.004366 -0.005815 0.000000 0.037510 0.000000
# 6 0.000000 0.000000 0.000000 0.029865 0.000000 0.084198
#
#
# Mechanical properties :
#
#
# Convention : Reuss Voigt Hill
#
# Bulk Modulus (GPa) = 16.61473 37.01827 26.81650
# Shear Modulus (GPa) = 15.57875 23.45876 19.51875
#
# Velocity S-wave (km/s) = 2.98689 3.66527 3.34333
# Velocity P-wave (km/s) = 4.62711 6.25393 5.50099
#
# Compressibility (1/GPa) = 0.06018756
#
# Stress axis : x y z
#
# Youngs Moduli (GPa) = 67.79923 26.62310 56.46225
#
# Poissons Ratio (x) = 0.01629 0.49305
# Poissons Ratio (y) = 0.04148 -0.24997
# Poissons Ratio (z) = 0.59205 -0.11786
#
# Static dielectric constant tensor:
#      x y z
#    x 1.599410 0.000000 0.022330 
#    y 0.000000 1.647940 0.000000 
#    z 0.022330 0.000000 1.595130 
# 
# From -- ./inp_files/248424.got.cif
#   From: 2010.05.17/outbox.cif.g08.bks.cpg/sg12_125_cif.got.tgz:248424.got - 2010.06.03 13:09:07.
