data_PCOD9173109
_publ_section_title
;
Structure prediction by ZEFSAII (Michael W. Deem and Ramdas Pophale) SiO2 
 PCOD9173109
Probable space group: C 2/M
;
_chemical_formula_sum "Si O2"
_cell_formula_units_Z 48
_cell_length_a 24.372671
_cell_length_b 13.182773
_cell_length_c 18.774196
_cell_angle_alpha 90.000000
_cell_angle_beta 152.319702
_cell_angle_gamma 90.000000
_cell_volume 2802.154548
_symmetry_space_group_name_H-M "C 2/M"
_symmetry_group_IT_number 12
_symmetry_cell_setting 'monoclinic'
loop_
_space_group_symop_operation_xyz
x,y,z
-x,y,-z
-x,-y,-z
x,-y,z
1/2+x,1/2+y,z
1/2-x,1/2+y,-z
1/2-x,1/2-y,-z
1/2+x,1/2-y,z
loop_
_atom_site_type_symbol
_atom_site_label
_atom_site_fract_x
_atom_site_fract_y
_atom_site_fract_z
Si Si1 0.490124 0.881106 0.408447
Si Si2 0.301826 0.608708 0.530946
Si Si3 0.096287 0.317039 0.388668
Si Si4 0.346262 0.000000 0.749572
Si Si5 0.629393 0.000000 0.058223
Si Si6 0.852241 0.664318 0.036667
Si Si7 0.229616 0.115386 0.041008
O O1 0.500000 0.841559 0.500000
O O2 0.571111 0.827189 0.443052
O O3 0.355670 0.876047 0.226231
O O4 0.524349 0.000000 0.448270
O O5 0.362333 0.500000 0.609216
O O6 0.214738 0.629655 0.496827
O O7 0.387408 0.700920 0.615512
O O8 0.214725 0.593547 0.362568
O O9 0.981649 0.361535 0.217060
O O10 0.486478 0.000000 0.899520
O O11 0.322754 0.000000 0.806452
O O12 0.665821 0.901164 0.054713
O O13 0.759497 0.631975 0.991518
O O14 0.843100 0.785965 0.017991
O O15 0.185238 0.000000 0.000842
#
# Coordination Sequence:
#
# PCOD9173109 Si02
#       7
#     8   8   8   4   4   8   8
#     4   9  18  31  49  71  93 124 161 198 241 284
#     4   9  18  33  48  73  97 125 166 200 246 291
#     4  10  18  30  53  70  96 129 160 206 240 289
#     4   9  20  32  50  73  97 127 167 207 243 296
#     4  11  18  32  52  73 101 131 162 209 249 285
#     4  10  18  30  50  74  96 133 163 200 248 285
#     4   9  18  31  48  72  99 126 165 202 235 296
#
# _framework density 17.129676
#
# number of rings (size 3 to 8) (size 9 to 14) (size 15 to 20)
#    0.500    2.000    2.500    0.500    1.167    2.000 
#    0.000    0.000    0.000    0.500    0.000    2.333 
#    0.000    0.000    0.000    0.000    0.000    0.000 
#
# Total GULP energy -133618.084538 kJ/mol
# GULP energy per Si atom -5567.420189 kJ/mol
# Density = 1.709069 g / cm^3
# Si number density = 17.129676 Si / 1000 Ang^3
#
#
#
# Elastic Constant Matrix: (Units=GPa)
#
#
# Indices 1 2 3 4 5 6 
#
# 1 122.1636 32.2367 20.3199 0.0000 -13.0408 0.0000
# 2 32.2367 87.7468 0.8748 0.0000 3.1672 0.0000
# 3 20.3199 0.8748 21.7343 0.0000 -3.7788 0.0000
# 4 0.0000 0.0000 0.0000 16.9229 0.0000 -0.6605
# 5 -13.0408 3.1672 -3.7788 0.0000 17.8937 0.0000
# 6 0.0000 0.0000 0.0000 -0.6605 0.0000 6.8259
#
#
#
# Elastic Compliance Matrix: (Units=1/GPa)
#
#
# Indices 1 2 3 4 5 6 
#
# 1 0.011734 -0.004481 -0.009514 0.000000 0.007335 0.000000
# 2 -0.004481 0.013196 0.002786 0.000000 -0.005013 0.000000
# 3 -0.009514 0.002786 0.055541 0.000000 0.004302 0.000000
# 4 0.000000 0.000000 0.000000 0.059315 0.000000 0.005739
# 5 0.007335 -0.005013 0.004302 0.000000 0.063027 0.000000
# 6 0.000000 0.000000 0.000000 0.005739 0.000000 0.147057
#
#
# Mechanical properties :
#
#
# Convention : Reuss Voigt Hill
#
# Bulk Modulus (GPa) = 17.22556 37.61195 27.41876
# Shear Modulus (GPa) = 12.76687 20.20939 16.48813
#
# Velocity S-wave (km/s) = 2.73299 3.43853 3.10586
# Velocity P-wave (km/s) = 4.47625 6.14569 5.37617
#
# Compressibility (1/GPa) = 0.05805326
#
# Stress axis : x y z
#
# Youngs Moduli (GPa) = 85.22449 75.78230 18.00464
#
# Poissons Ratio (x) = 0.33956 0.17130
# Poissons Ratio (y) = 0.38186 -0.05017
# Poissons Ratio (z) = 0.81086 -0.21116
#
# Static dielectric constant tensor:
#      x y z
#    x 1.570590 0.000000 -0.000450 
#    y 0.000000 1.609270 0.000000 
#    z -0.000450 0.000000 1.566100 
# 
# From -- ./inp_files/325006.got.cif
#   From: 2010.05.17/outbox.cif.g08.bks.cpg/sg12_163_cif.got.tgz:325006.got - 2010.06.03 13:09:07.
