data_PCOD9173654
_publ_section_title
;
Structure prediction by ZEFSAII (Michael W. Deem and Ramdas Pophale) SiO2 
 PCOD9173654
Probable space group: C 2/M
;
_chemical_formula_sum "Si O2"
_cell_formula_units_Z 52
_cell_length_a 12.306203
_cell_length_b 26.014765
_cell_length_c 20.112747
_cell_angle_alpha 90.000000
_cell_angle_beta 28.380461
_cell_angle_gamma 90.000000
_cell_volume 3060.591036
_symmetry_space_group_name_H-M "C 2/M"
_symmetry_group_IT_number 12
_symmetry_cell_setting 'monoclinic'
loop_
_space_group_symop_operation_xyz
x,y,z
-x,y,-z
-x,-y,-z
x,-y,z
1/2+x,1/2+y,z
1/2-x,1/2+y,-z
1/2-x,1/2-y,-z
1/2+x,1/2-y,z
loop_
_atom_site_type_symbol
_atom_site_label
_atom_site_fract_x
_atom_site_fract_y
_atom_site_fract_z
Si Si1 0.905353 0.393475 0.707802
Si Si2 0.731344 0.673409 0.541843
Si Si3 0.087485 0.114243 0.747339
Si Si4 0.955819 0.500000 0.412603
Si Si5 0.541058 0.288577 0.113952
Si Si6 0.558430 0.732552 0.398042
Si Si7 0.000000 0.150080 0.000000
Si Si8 0.383131 0.500000 0.285810
O O1 0.773722 0.386346 0.707263
O O2 0.016489 0.449212 0.645652
O O3 0.102840 0.351217 0.602490
O O4 0.720103 0.384585 0.864795
O O5 0.692941 0.631648 0.620252
O O6 0.504674 0.695336 0.629177
O O7 0.874119 0.720994 0.494096
O O8 0.929053 0.162379 0.853106
O O9 0.998515 0.055536 0.789401
O O10 0.170527 0.500000 0.348418
O O11 0.732290 0.500000 0.579184
O O12 0.308245 0.257955 0.257551
O O13 0.522994 0.313911 0.051302
O O14 0.750000 0.250000 0.000000
O O15 0.500000 0.706734 0.500000
#
# Coordination Sequence:
#
# PCOD9173654 Si02
#       8
#     8   8   8   4   8   8   4   4
#     4  10  18  31  48  75 110 134 173 211 269 316
#     4  11  19  31  55  75 105 134 169 222 263 306
#     4  10  18  33  52  82 105 136 169 227 265 312
#     4   9  16  25  48  78 101 135 165 222 264 313
#     4  11  24  35  52  73 111 143 176 214 261 318
#     4  11  22  34  52  77 101 139 180 215 260 315
#     4  10  22  33  44  70 108 145 164 202 264 332
#     4   9  16  26  52  80 106 123 174 223 278 302
#
# _framework density 16.990182999999998
#
# number of rings (size 3 to 8) (size 9 to 14) (size 15 to 20)
#    0.000    1.692    6.154    0.462    4.308    0.308 
#    0.000    0.769    0.000    0.000    0.000    5.385 
#    0.000    0.000    0.000    0.000    0.000    0.000 
#
# Total GULP energy -144803.907886 kJ/mol
# GULP energy per Si atom -5569.381073 kJ/mol
# Density = 1.695151 g / cm^3
# Si number density = 16.990183 Si / 1000 Ang^3
#
#
#
# Elastic Constant Matrix: (Units=GPa)
#
#
# Indices 1 2 3 4 5 6 
#
# 1 29.3045 13.1028 24.7488 0.0016 2.1647 -0.0093
# 2 13.1028 92.1733 35.7827 0.0004 -8.9985 -0.0024
# 3 24.7488 35.7827 89.0617 -0.0269 10.7683 0.0254
# 4 0.0016 0.0004 -0.0269 29.2340 0.0169 3.1672
# 5 2.1647 -8.9985 10.7683 0.0169 17.2560 -0.0074
# 6 -0.0093 -0.0024 0.0254 3.1672 -0.0074 6.6221
#
#
#
# Elastic Compliance Matrix: (Units=1/GPa)
#
#
# Indices 1 2 3 4 5 6 
#
# 1 0.044857 -0.001661 -0.011912 -0.000027 0.000940 0.000122
# 2 -0.001661 0.015061 -0.007100 -0.000020 0.012493 0.000054
# 3 -0.011912 -0.007100 0.019099 0.000040 -0.014127 -0.000128
# 4 -0.000027 -0.000020 0.000040 0.036076 -0.000075 -0.017255
# 5 0.000940 0.012493 -0.014127 -0.000075 0.073163 0.000178
# 6 0.000122 0.000054 -0.000128 -0.017255 0.000178 0.159264
#
#
# Mechanical properties :
#
#
# Convention : Reuss Voigt Hill
#
# Bulk Modulus (GPa) = 26.54456 39.75645 33.15051
# Shear Modulus (GPa) = 12.45567 19.74943 16.10255
#
# Velocity S-wave (km/s) = 2.71054 3.41310 3.08190
# Velocity P-wave (km/s) = 5.04514 6.24362 5.67610
#
# Compressibility (1/GPa) = 0.03767250
#
# Stress axis : x y z
#
# Youngs Moduli (GPa) = 22.29289 66.39545 52.35864
#
# Poissons Ratio (x) = 0.11026 0.62368
# Poissons Ratio (y) = 0.03702 0.37176
# Poissons Ratio (z) = 0.26555 0.47143
#
# Static dielectric constant tensor:
#      x y z
#    x 1.600420 -0.000010 0.024820 
#    y -0.000010 1.607660 0.000010 
#    z 0.024820 0.000010 1.586600 
# 
# From -- ./inp_files/160870.got.cif
#   From: 2010.05.17/outbox.cif.g08.bks.cpg/sg12_81_cif.got.tgz:160870.got - 2010.06.03 13:09:07.
