data_PCOD9173698
_publ_section_title
;
Structure prediction by ZEFSAII (Michael W. Deem and Ramdas Pophale) SiO2 
 PCOD9173698
Probable space group: C 2/M
;
_chemical_formula_sum "Si O2"
_cell_formula_units_Z 44
_cell_length_a 13.287453
_cell_length_b 29.993059
_cell_length_c 10.674497
_cell_angle_alpha 90.000000
_cell_angle_beta 36.162052
_cell_angle_gamma 90.000000
_cell_volume 2510.234235
_symmetry_space_group_name_H-M "C 2/M"
_symmetry_group_IT_number 12
_symmetry_cell_setting 'monoclinic'
loop_
_space_group_symop_operation_xyz
x,y,z
-x,y,-z
-x,-y,-z
x,-y,z
1/2+x,1/2+y,z
1/2-x,1/2+y,-z
1/2-x,1/2-y,-z
1/2+x,1/2-y,z
loop_
_atom_site_type_symbol
_atom_site_label
_atom_site_fract_x
_atom_site_fract_y
_atom_site_fract_z
Si Si1 0.697944 0.885923 0.144992
Si Si2 0.784042 0.785789 0.358524
Si Si3 0.863061 0.205720 0.894076
Si Si4 0.494611 0.448899 0.158066
Si Si5 0.186864 0.385068 0.459771
Si Si6 0.000000 0.235862 0.500000
O O1 0.700069 0.883008 0.294616
O O2 0.503530 0.897580 0.308692
O O3 0.755774 0.838483 0.030870
O O4 0.835663 0.923138 0.970152
O O5 0.750000 0.750000 0.500000
O O6 0.721967 0.834401 0.462998
O O7 0.662180 0.767811 0.369865
O O8 0.988850 0.789756 0.149992
O O9 0.954302 0.205929 0.666179
O O10 0.750000 0.250000 0.000000
O O11 0.485524 0.500000 0.209324
O O12 0.330832 0.419391 0.358731
O O13 0.500000 0.449564 0.000000
#
# Coordination Sequence:
#
# PCOD9173698 Si02
#       6
#     8   8   8   8   8   4
#     4  10  19  31  50  72 101 138 171 207 261 316
#     4  10  19  33  49  71 104 137 175 212 250 307
#     4  11  21  33  51  74 104 143 178 215 260 311
#     4   9  18  31  48  73 102 134 173 214 259 311
#     4  10  18  31  49  72 102 136 171 208 257 312
#     4  10  22  34  48  74 104 140 180 218 258 304
#
# _framework density 17.528244999999998
#
# number of rings (size 3 to 8) (size 9 to 14) (size 15 to 20)
#    0.000    2.000    1.818    4.364    0.000    2.909 
#    0.000    3.636    0.000    0.000    0.000    0.636 
#    0.000    1.455    0.000    0.000    0.000    0.000 
#
# Total GULP energy -122639.857846 kJ/mol
# GULP energy per Si atom -5574.538993 kJ/mol
# Density = 1.748835 g / cm^3
# Si number density = 17.528245 Si / 1000 Ang^3
#
#
#
# Elastic Constant Matrix: (Units=GPa)
#
#
# Indices 1 2 3 4 5 6 
#
# 1 70.8867 36.1416 46.3123 0.0000 -24.3138 0.0000
# 2 36.1416 147.7411 61.8396 0.0000 -29.1096 0.0000
# 3 46.3123 61.8396 111.9458 0.0000 -33.6914 0.0000
# 4 0.0000 0.0000 0.0000 21.9362 0.0000 -3.7311
# 5 -24.3138 -29.1096 -33.6914 0.0000 41.0099 0.0000
# 6 0.0000 0.0000 0.0000 -3.7311 0.0000 20.7269
#
#
#
# Elastic Compliance Matrix: (Units=1/GPa)
#
#
# Indices 1 2 3 4 5 6 
#
# 1 0.020925 -0.001337 -0.005938 0.000000 0.006578 0.000000
# 2 -0.001337 0.009175 -0.003712 0.000000 0.002671 0.000000
# 3 -0.005938 -0.003712 0.015393 0.000000 0.006491 0.000000
# 4 0.000000 0.000000 0.000000 0.047027 0.000000 0.008465
# 5 0.006578 0.002671 0.006491 0.000000 0.035513 0.000000
# 6 0.000000 0.000000 0.000000 0.008465 0.000000 0.049770
#
#
# Mechanical properties :
#
#
# Convention : Reuss Voigt Hill
#
# Bulk Modulus (GPa) = 42.51730 68.79562 55.65646
# Shear Modulus (GPa) = 24.08277 29.15327 26.61802
#
# Velocity S-wave (km/s) = 3.71069 4.08268 3.90112
# Velocity P-wave (km/s) = 6.53208 7.84589 7.21894
#
# Compressibility (1/GPa) = 0.02351984
#
# Stress axis : x y z
#
# Youngs Moduli (GPa) = 47.79062 108.98589 64.96268
#
# Poissons Ratio (x) = 0.14573 0.38576
# Poissons Ratio (y) = 0.06390 0.24111
# Poissons Ratio (z) = 0.28379 0.40451
#
# Static dielectric constant tensor:
#      x y z
#    x 1.632130 0.000000 -0.013880 
#    y 0.000000 1.571610 0.000000 
#    z -0.013880 0.000000 1.636910 
# 
# From -- ./inp_files/150077.got.cif
#   From: 2010.05.17/outbox.cif.g08.bks.cpg/sg12_76_cif.got.tgz:150077.got - 2010.06.03 13:09:07.
