data_PCOD9173256
_publ_section_title
;
Structure prediction by ZEFSAII (Michael W. Deem and Ramdas Pophale) SiO2 
 PCOD9173256
Probable space group: C 2/M
;
_chemical_formula_sum "Si O2"
_cell_formula_units_Z 64
_cell_length_a 21.669490
_cell_length_b 15.618731
_cell_length_c 9.437746
_cell_angle_alpha 90.000000
_cell_angle_beta 82.391074
_cell_angle_gamma 90.000000
_cell_volume 3166.079310
_symmetry_space_group_name_H-M "C 2/M"
_symmetry_group_IT_number 12
_symmetry_cell_setting 'monoclinic'
loop_
_space_group_symop_operation_xyz
x,y,z
-x,y,-z
-x,-y,-z
x,-y,z
1/2+x,1/2+y,z
1/2-x,1/2+y,-z
1/2-x,1/2-y,-z
1/2+x,1/2-y,z
loop_
_atom_site_type_symbol
_atom_site_label
_atom_site_fract_x
_atom_site_fract_y
_atom_site_fract_z
Si Si1 0.205513 0.852379 0.808558
Si Si2 0.933758 0.249766 0.439408
Si Si3 0.065189 0.406934 0.394273
Si Si4 0.264585 0.330678 0.741429
Si Si5 0.628127 0.720655 0.076813
Si Si6 0.009760 0.305489 0.159905
Si Si7 0.661044 0.595048 0.528794
Si Si8 0.313107 0.905148 0.989156
O O1 0.229229 0.759855 0.745476
O O2 0.184737 0.905585 0.681784
O O3 0.261179 0.893663 0.882360
O O4 0.149345 0.833181 0.934615
O O5 0.901534 0.328537 0.535360
O O6 0.893188 0.165543 0.459689
O O7 0.000000 0.236734 0.500000
O O8 0.950253 0.279372 0.273870
O O9 0.095945 0.500000 0.385752
O O10 0.044292 0.376743 0.245372
O O11 0.000000 0.414085 0.500000
O O12 0.327874 0.310747 0.809932
O O13 0.283856 0.371894 0.589027
O O14 0.223055 0.392378 0.851730
O O15 0.556135 0.723921 0.138109
O O16 0.645175 0.820178 0.038619
O O17 0.000000 0.331521 0.000000
O O18 0.641393 0.500000 0.489949
O O19 0.341367 0.000000 0.973087
#
# Coordination Sequence:
#
# PCOD9173256 Si02
#       8
#     8   8   8   8   8   8   8   8
#     4   9  19  34  53  75 104 135 165 210 265 313
#     4   9  20  36  52  71 104 144 176 214 257 306
#     4   8  16  32  51  69  94 132 172 207 251 304
#     4   9  18  34  54  74 101 136 172 210 255 310
#     4   9  18  33  53  73  98 140 175 201 253 313
#     4  10  18  30  51  76 103 134 172 216 258 298
#     4  12  22  33  54  81 105 135 177 220 263 306
#     4   9  17  32  52  77 105 130 163 207 255 313
#
# _framework density 20.214276000000002
#
# number of rings (size 3 to 8) (size 9 to 14) (size 15 to 20)
#    0.000    2.875    0.000    4.875    0.000    1.000 
#    0.000    0.000    0.000   16.125    0.000    3.500 
#    0.000    0.000    0.000    0.000    0.000    0.000 
#
# Total GULP energy -178479.008569 kJ/mol
# GULP energy per Si atom -5577.469018 kJ/mol
# Density = 2.016827 g / cm^3
# Si number density = 20.214276 Si / 1000 Ang^3
#
#
#
# Elastic Constant Matrix: (Units=GPa)
#
#
# Indices 1 2 3 4 5 6 
#
# 1 16.7115 -0.2529 10.3756 0.0000 -3.0189 0.0000
# 2 -0.2529 97.3632 21.5759 0.0000 -3.1145 0.0000
# 3 10.3756 21.5759 102.7559 0.0000 -1.2399 0.0000
# 4 0.0000 0.0000 0.0000 -1.6570 0.0000 9.3565
# 5 -3.0189 -3.1145 -1.2399 0.0000 16.2385 0.0000
# 6 0.0000 0.0000 0.0000 9.3565 0.0000 10.5657
#
#
#
# Elastic Compliance Matrix: (Units=1/GPa)
#
#
# Indices 1 2 3 4 5 6 
#
# 1 0.066427 0.002116 -0.007004 0.000000 0.012220 0.000000
# 2 0.002116 0.010898 -0.002474 0.000000 0.002295 0.000000
# 3 -0.007004 -0.002474 0.010947 0.000000 -0.000941 0.000000
# 4 0.000000 0.000000 0.000000 -0.100576 0.000000 0.089066
# 5 0.012220 0.002295 -0.000941 0.000000 0.064222 0.000000
# 6 0.000000 0.000000 0.000000 0.089066 0.000000 0.015773
#
#
# Mechanical properties :
#
#
# Convention : Reuss Voigt Hill
#
# Bulk Modulus (GPa) = 13.59678 31.13644 22.36661
# Shear Modulus (GPa) = 46.75855 17.37158 32.06506
#
# Velocity S-wave (km/s) = 4.81473 2.93468 3.98711
# Velocity P-wave (km/s) = 6.13594 5.18843 5.68197
#
# Compressibility (1/GPa) = 0.07354685
#
# Stress axis : x y z
#
# Youngs Moduli (GPa) = 15.05408 91.75989 91.34757
#
# Poissons Ratio (x) = -0.19413 0.63981
# Poissons Ratio (y) = -0.03185 0.22601
# Poissons Ratio (z) = 0.10544 0.22703
#
# Static dielectric constant tensor:
#      x y z
#    x 1.745790 0.000000 -0.018890 
#    y 0.000000 1.723660 0.000000 
#    z -0.018890 0.000000 1.745580 
# 
# From -- ./inp_files/104576.got.cif
#   From: 2010.05.17/outbox.cif.g08.bks.cpg/sg12_53_cif.got.tgz:104576.got - 2010.06.03 13:09:07.
