data_PCOD9173882
_publ_section_title
;
Structure prediction by ZEFSAII (Michael W. Deem and Ramdas Pophale) SiO2 
 PCOD9173882
Probable space group: C 2/M
;
_chemical_formula_sum "Si O2"
_cell_formula_units_Z 64
_cell_length_a 16.116805
_cell_length_b 32.701609
_cell_length_c 8.270565
_cell_angle_alpha 90.000000
_cell_angle_beta 124.409575
_cell_angle_gamma 90.000000
_cell_volume 3596.228185
_symmetry_space_group_name_H-M "C 2/M"
_symmetry_group_IT_number 12
_symmetry_cell_setting 'monoclinic'
loop_
_space_group_symop_operation_xyz
x,y,z
-x,y,-z
-x,-y,-z
x,-y,z
1/2+x,1/2+y,z
1/2-x,1/2+y,-z
1/2-x,1/2-y,-z
1/2+x,1/2-y,z
loop_
_atom_site_type_symbol
_atom_site_label
_atom_site_fract_x
_atom_site_fract_y
_atom_site_fract_z
Si Si1 0.527868 0.172378 0.711930
Si Si2 0.283592 0.128470 0.957653
Si Si3 0.614221 0.045261 0.326592
Si Si4 0.004518 0.760310 0.822872
Si Si5 0.621188 0.954864 0.940132
Si Si6 0.798663 0.206600 0.514020
Si Si7 0.660680 0.867897 0.358700
Si Si8 0.608013 0.318009 0.711296
O O1 0.500000 0.160838 0.500000
O O2 0.501667 0.219920 0.710156
O O3 0.453712 0.146604 0.744661
O O4 0.642609 0.161028 0.875793
O O5 0.313927 0.129246 0.802150
O O6 0.167737 0.142066 0.836308
O O7 0.313322 0.083137 0.047940
O O8 0.495877 0.049716 0.236947
O O9 0.670058 0.086608 0.442298
O O10 0.647725 0.000000 0.418771
O O11 0.620925 0.045092 0.137096
O O12 0.908804 0.790195 0.709981
O O13 0.092460 0.787602 0.844238
O O14 0.000000 0.744559 0.000000
O O15 0.655550 0.000000 0.925807
O O16 0.750000 0.250000 0.500000
O O17 0.732254 0.168536 0.500597
O O18 0.819870 0.201919 0.345773
O O19 0.500000 0.324429 0.500000
#
# Coordination Sequence:
#
# PCOD9173882 Si02
#       8
#     8   8   8   8   8   8   8   8
#     4  12  23  32  47  74 108 133 169 214 249 304
#     4  10  19  33  54  74  99 138 173 206 254 307
#     4   8  13  23  43  73 104 131 164 203 242 296
#     4  11  23  38  53  69  97 136 174 215 255 303
#     4   8  13  23  45  76 104 129 162 201 246 300
#     4  10  19  33  53  73 102 135 166 210 258 298
#     4  10  18  31  51  73 101 137 172 206 248 304
#     4   9  21  38  52  73  99 131 175 219 258 297
#
# _framework density 17.796424999999999
#
# number of rings (size 3 to 8) (size 9 to 14) (size 15 to 20)
#    0.000    2.250    2.500    3.000    1.750    1.500 
#    0.000    0.000    0.000    1.875    0.000    2.625 
#    0.000    1.000    0.000    0.000    0.000    0.000 
#
# Total GULP energy -178175.907854 kJ/mol
# GULP energy per Si atom -5567.997120 kJ/mol
# Density = 1.775592 g / cm^3
# Si number density = 17.796425 Si / 1000 Ang^3
#
#
#
# Elastic Constant Matrix: (Units=GPa)
#
#
# Indices 1 2 3 4 5 6 
#
# 1 54.5849 35.7847 3.4729 0.0000 7.5597 0.0000
# 2 35.7847 144.4518 16.9536 0.0000 18.0535 0.0000
# 3 3.4729 16.9536 14.0072 0.0000 7.5135 0.0000
# 4 0.0000 0.0000 0.0000 17.2503 0.0000 9.0528
# 5 7.5597 18.0535 7.5135 0.0000 13.9078 0.0000
# 6 0.0000 0.0000 0.0000 9.0528 0.0000 13.4277
#
#
#
# Elastic Compliance Matrix: (Units=1/GPa)
#
#
# Indices 1 2 3 4 5 6 
#
# 1 0.022516 -0.005136 0.005100 0.000000 -0.008328 0.000000
# 2 -0.005136 0.009807 -0.007413 0.000000 -0.005933 0.000000
# 3 0.005100 -0.007413 0.106201 0.000000 -0.050523 0.000000
# 4 0.000000 0.000000 0.000000 0.089710 0.000000 -0.060482
# 5 -0.008328 -0.005933 -0.050523 0.000000 0.111425 0.000000
# 6 0.000000 0.000000 0.000000 -0.060482 0.000000 0.115250
#
#
# Mechanical properties :
#
#
# Convention : Reuss Voigt Hill
#
# Bulk Modulus (GPa) = 8.08893 36.16292 22.12593
# Shear Modulus (GPa) = 9.78447 19.37268 14.57857
#
# Velocity S-wave (km/s) = 2.34732 3.30293 2.86525
# Velocity P-wave (km/s) = 3.44988 5.90849 4.83797
#
# Compressibility (1/GPa) = 0.12362574
#
# Stress axis : x y z
#
# Youngs Moduli (GPa) = 44.41352 101.97249 9.41612
#
# Poissons Ratio (x) = 0.52369 -0.04803
# Poissons Ratio (y) = 0.22809 0.06981
# Poissons Ratio (z) = -0.22653 0.75597
#
# Static dielectric constant tensor:
#      x y z
#    x 1.642670 0.000000 -0.007090 
#    y 0.000000 1.657170 0.000000 
#    z -0.007090 0.000000 1.660770 
# 
# From -- ./inp_files/68265.got.cif
#   From: 2010.05.17/outbox.cif.g08.bks.cpg/sg12_35_cif.got.tgz:68265.got - 2010.06.03 13:09:07.
