data_PCOD9173876
_publ_section_title
;
Structure prediction by ZEFSAII (Michael W. Deem and Ramdas Pophale) SiO2 
 PCOD9173876
Probable space group: C 2/M
;
_chemical_formula_sum "Si O2"
_cell_formula_units_Z 64
_cell_length_a 12.237450
_cell_length_b 13.627883
_cell_length_c 22.449621
_cell_angle_alpha 90.000000
_cell_angle_beta 117.446983
_cell_angle_gamma 90.000000
_cell_volume 3322.509444
_symmetry_space_group_name_H-M "C 2/M"
_symmetry_group_IT_number 12
_symmetry_cell_setting 'monoclinic'
loop_
_space_group_symop_operation_xyz
x,y,z
-x,y,-z
-x,-y,-z
x,-y,z
1/2+x,1/2+y,z
1/2-x,1/2+y,-z
1/2-x,1/2-y,-z
1/2+x,1/2-y,z
loop_
_atom_site_type_symbol
_atom_site_label
_atom_site_fract_x
_atom_site_fract_y
_atom_site_fract_z
Si Si1 0.834132 0.889698 0.257318
Si Si2 0.285208 0.888225 0.519937
Si Si3 0.673411 0.761903 0.574836
Si Si4 0.677599 0.113245 0.818076
Si Si5 0.048068 0.804477 0.824842
Si Si6 0.997795 0.108154 0.591973
Si Si7 0.038183 0.117392 0.075954
Si Si8 0.269871 0.691514 0.722320
O O1 0.860784 0.864563 0.195450
O O2 0.959309 0.882956 0.328728
O O3 0.749337 0.805687 0.264103
O O4 0.786816 0.000000 0.252071
O O5 0.360868 0.834774 0.487168
O O6 0.273846 0.815231 0.573052
O O7 0.146291 0.888944 0.457493
O O8 0.320846 0.000000 0.542083
O O9 0.567625 0.692242 0.574048
O O10 0.726906 0.820476 0.644233
O O11 0.584184 0.191576 0.822318
O O12 0.816349 0.135782 0.876514
O O13 0.688854 0.132136 0.749867
O O14 0.648815 0.000000 0.823200
O O15 0.041805 0.831508 0.892603
O O16 0.912068 0.831208 0.767378
O O17 0.042714 0.000000 0.582847
O O18 0.020737 0.000000 0.077405
O O19 0.000000 0.147114 0.000000
#
# Coordination Sequence:
#
# PCOD9173876 Si02
#       8
#     8   8   8   8   8   8   8   8
#     4   9  17  29  47  72  95 118 157 203 242 281
#     4  10  20  32  48  69  90 119 159 198 241 291
#     4  10  19  31  49  68  93 121 155 200 242 285
#     4   9  19  34  51  73  99 127 160 194 230 276
#     4  10  18  31  51  72  98 130 161 193 230 275
#     4   9  17  31  51  70  89 118 157 200 244 288
#     4   9  18  33  53  77 103 129 157 191 231 272
#     4   9  19  32  47  69  95 125 158 195 240 283
#
# _framework density 19.262549
#
# number of rings (size 3 to 8) (size 9 to 14) (size 15 to 20)
#    0.000    2.625    0.000    1.875    0.000    3.500 
#    0.000    0.000    0.000    7.125    0.000    0.000 
#    0.000    0.000    0.000    0.000    0.000    0.000 
#
# Total GULP energy -178503.119712 kJ/mol
# GULP energy per Si atom -5578.222491 kJ/mol
# Density = 1.921871 g / cm^3
# Si number density = 19.262549 Si / 1000 Ang^3
#
#
#
# Elastic Constant Matrix: (Units=GPa)
#
#
# Indices 1 2 3 4 5 6 
#
# 1 39.2355 -1.3880 11.7089 0.0000 -18.4911 0.0000
# 2 -1.3880 43.5630 -1.7916 0.0000 -7.6672 0.0000
# 3 11.7089 -1.7916 96.3536 0.0000 -25.9608 0.0000
# 4 0.0000 0.0000 0.0000 18.7979 0.0000 4.0916
# 5 -18.4911 -7.6672 -25.9608 0.0000 22.0172 0.0000
# 6 0.0000 0.0000 0.0000 4.0916 0.0000 14.3553
#
#
#
# Elastic Compliance Matrix: (Units=1/GPa)
#
#
# Indices 1 2 3 4 5 6 
#
# 1 0.050370 0.012223 0.009748 0.000000 0.058054 0.000000
# 2 0.012223 0.028536 0.006579 0.000000 0.027960 0.000000
# 3 0.009748 0.006579 0.017791 0.000000 0.031456 0.000000
# 4 0.000000 0.000000 0.000000 0.056716 0.000000 -0.016165
# 5 0.058054 0.027960 0.031456 0.000000 0.141002 0.000000
# 6 0.000000 0.000000 0.000000 -0.016165 0.000000 0.074268
#
#
# Mechanical properties :
#
#
# Convention : Reuss Voigt Hill
#
# Bulk Modulus (GPa) = 6.50203 21.80118 14.15160
# Shear Modulus (GPa) = 13.77976 22.40893 18.09434
#
# Velocity S-wave (km/s) = 2.67753 3.41448 3.06821
# Velocity P-wave (km/s) = 3.59746 5.18530 4.46257
#
# Compressibility (1/GPa) = 0.15379823
#
# Stress axis : x y z
#
# Youngs Moduli (GPa) = 19.85293 35.04301 56.20673
#
# Poissons Ratio (x) = -0.42835 -0.54790
# Poissons Ratio (y) = -0.24267 -0.36976
# Poissons Ratio (z) = -0.19353 -0.23053
#
# Static dielectric constant tensor:
#      x y z
#    x 1.671980 0.000000 -0.001100 
#    y 0.000000 1.687510 0.000000 
#    z -0.001100 0.000000 1.690400 
# 
# From -- ./inp_files/305439.got.cif
#   From: 2010.05.17/outbox.cif.g08.bks.cpg/sg12_153_cif.got.tgz:305439.got - 2010.06.03 13:09:07.
