data_PCOD9173283
_publ_section_title
;
Structure prediction by ZEFSAII (Michael W. Deem and Ramdas Pophale) SiO2 
 PCOD9173283
Probable space group: C 2/M
;
_chemical_formula_sum "Si O2"
_cell_formula_units_Z 64
_cell_length_a 25.716772
_cell_length_b 15.191140
_cell_length_c 15.391059
_cell_angle_alpha 90.000000
_cell_angle_beta 28.309748
_cell_angle_gamma 90.000000
_cell_volume 2851.488838
_symmetry_space_group_name_H-M "C 2/M"
_symmetry_group_IT_number 12
_symmetry_cell_setting 'monoclinic'
loop_
_space_group_symop_operation_xyz
x,y,z
-x,y,-z
-x,-y,-z
x,-y,z
1/2+x,1/2+y,z
1/2-x,1/2+y,-z
1/2-x,1/2-y,-z
1/2+x,1/2-y,z
loop_
_atom_site_type_symbol
_atom_site_label
_atom_site_fract_x
_atom_site_fract_y
_atom_site_fract_z
Si Si1 0.694930 0.212883 0.895635
Si Si2 0.722862 0.100407 0.501293
Si Si3 0.824376 0.901934 0.051362
Si Si4 0.019633 0.403902 0.369778
Si Si5 0.124302 0.601910 0.838401
Si Si6 0.051388 0.725175 0.660078
Si Si7 0.271222 0.400953 0.937722
Si Si8 0.428787 0.598944 0.286794
O O1 0.731809 0.314102 0.831527
O O2 0.567549 0.213691 0.117498
O O3 0.768050 0.166394 0.862637
O O4 0.684670 0.159334 0.821967
O O5 0.685851 0.102805 0.656357
O O6 0.645706 0.167826 0.566365
O O7 0.851660 0.122524 0.318751
O O8 0.709778 0.000000 0.488548
O O9 0.942607 0.904104 0.922808
O O10 0.773991 0.000000 0.134035
O O11 0.841502 0.885673 0.921865
O O12 0.981636 0.500000 0.390212
O O13 0.148201 0.399574 0.157848
O O14 0.000000 0.404237 0.500000
O O15 0.966275 0.318939 0.406102
O O16 0.115935 0.500000 0.881812
O O17 0.000000 0.632331 0.000000
O O18 0.082729 0.826431 0.623845
O O19 0.294406 0.500000 0.871968
O O20 0.398317 0.500000 0.359834
#
# Coordination Sequence:
#
# PCOD9173283 Si02
#       8
#     8   8   8   8   8   8   8   8
#     4  10  18  30  51  78 102 129 166 205 249 302
#     4  10  19  32  52  77 104 133 163 202 253 302
#     4   9  18  33  52  72  97 134 176 212 241 282
#     4   9  18  32  50  77 108 129 155 205 261 306
#     4  10  19  31  49  76 109 132 153 200 262 308
#     4  10  18  31  54  77  99 131 169 202 247 307
#     4   9  17  30  52  76 100 131 166 205 253 302
#     4   9  19  34  52  72  99 134 173 211 242 282
#
# _framework density 22.444414999999999
#
# number of rings (size 3 to 8) (size 9 to 14) (size 15 to 20)
#    0.000    2.500    1.250    1.500    0.000    1.000 
#    2.250    0.000    0.000    1.500    0.000    0.000 
#    0.000    0.000    0.000    0.000    0.000    0.000 
#
# Total GULP energy -178630.679746 kJ/mol
# GULP energy per Si atom -5582.208742 kJ/mol
# Density = 2.239333 g / cm^3
# Si number density = 22.444415 Si / 1000 Ang^3
#
#
#
# Elastic Constant Matrix: (Units=GPa)
#
#
# Indices 1 2 3 4 5 6 
#
# 1 54.4948 20.2948 -0.0170 0.0000 -10.3065 0.0000
# 2 20.2948 116.0088 -13.8923 0.0000 -0.5799 0.0000
# 3 -0.0170 -13.8923 32.1347 0.0000 -9.4793 0.0000
# 4 0.0000 0.0000 0.0000 17.7090 0.0000 -16.6808
# 5 -10.3065 -0.5799 -9.4793 0.0000 24.4680 0.0000
# 6 0.0000 0.0000 0.0000 -16.6808 0.0000 49.4262
#
#
#
# Elastic Compliance Matrix: (Units=1/GPa)
#
#
# Indices 1 2 3 4 5 6 
#
# 1 0.021461 -0.003556 0.001260 0.000000 0.009444 0.000000
# 2 -0.003556 0.009764 0.004342 0.000000 0.000415 0.000000
# 3 0.001260 0.004342 0.037465 0.000000 0.015148 0.000000
# 4 0.000000 0.000000 0.000000 0.082785 0.000000 0.027939
# 5 0.009444 0.000415 0.015148 0.000000 0.050726 0.000000
# 6 0.000000 0.000000 0.000000 0.027939 0.000000 0.029661
#
#
# Mechanical properties :
#
#
# Convention : Reuss Voigt Hill
#
# Bulk Modulus (GPa) = 13.73986 23.93437 18.83711
# Shear Modulus (GPa) = 19.83861 31.40416 25.62139
#
# Velocity S-wave (km/s) = 2.97627 3.74464 3.38235
# Velocity P-wave (km/s) = 4.23626 5.42065 4.86464
#
# Compressibility (1/GPa) = 0.07278095
#
# Stress axis : x y z
#
# Youngs Moduli (GPa) = 46.59542 102.41457 26.69144
#
# Poissons Ratio (x) = 0.36423 -0.03362
# Poissons Ratio (y) = 0.16571 -0.11589
# Poissons Ratio (z) = -0.05869 -0.44467
#
# Static dielectric constant tensor:
#      x y z
#    x 1.834570 0.000000 -0.054460 
#    y 0.000000 1.856790 0.000000 
#    z -0.054460 0.000000 1.865720 
# 
# From -- ./inp_files/240651.got.cif
#   From: 2010.05.17/outbox.cif.g08.bks.cpg/sg12_121_cif.got.tgz:240651.got - 2010.06.03 13:09:07.
