data_PCOD9173437
_publ_section_title
;
Structure prediction by ZEFSAII (Michael W. Deem and Ramdas Pophale) SiO2 
 PCOD9173437
Probable space group: C 2/M
;
_chemical_formula_sum "Si O2"
_cell_formula_units_Z 56
_cell_length_a 22.380362
_cell_length_b 20.897619
_cell_length_c 17.810204
_cell_angle_alpha 90.000000
_cell_angle_beta 20.259913
_cell_angle_gamma 90.000000
_cell_volume 2884.426187
_symmetry_space_group_name_H-M "C 2/M"
_symmetry_group_IT_number 12
_symmetry_cell_setting 'monoclinic'
loop_
_space_group_symop_operation_xyz
x,y,z
-x,y,-z
-x,-y,-z
x,-y,z
1/2+x,1/2+y,z
1/2-x,1/2+y,-z
1/2-x,1/2-y,-z
1/2+x,1/2-y,z
loop_
_atom_site_type_symbol
_atom_site_label
_atom_site_fract_x
_atom_site_fract_y
_atom_site_fract_z
Si Si1 0.495164 0.635064 0.184916
Si Si2 0.714084 0.926023 0.413792
Si Si3 0.541141 0.825669 0.222301
Si Si4 0.045362 0.720732 0.827430
Si Si5 0.716503 0.278921 0.307735
Si Si6 0.938879 0.817385 0.733254
Si Si7 0.806118 0.630806 0.715920
O O1 0.359413 0.589382 0.304428
O O2 0.466608 0.705765 0.183889
O O3 0.486080 0.642160 0.285257
O O4 0.688644 0.620755 0.927485
O O5 0.549876 0.880569 0.623420
O O6 0.777115 0.904959 0.256946
O O7 0.668713 0.000000 0.468532
O O8 0.426499 0.817014 0.282413
O O9 0.548658 0.757868 0.257148
O O10 0.738725 0.836269 0.965516
O O11 0.185641 0.719405 0.727100
O O12 0.862844 0.698195 0.077535
O O13 0.544042 0.317722 0.531573
O O14 0.683571 0.206053 0.319690
O O15 0.000000 0.607648 0.500000
#
# Coordination Sequence:
#
# PCOD9173437 Si02
#       7
#     8   8   8   8   8   8   8
#     4  10  20  35  53  78 105 145 185 231 274 322
#     4  12  24  39  57  75 106 156 202 228 262 324
#     4  10  20  34  53  84 109 143 179 230 286 329
#     4   9  18  31  53  80 114 140 172 224 281 330
#     4  10  18  30  52  85 112 145 171 218 282 346
#     4  10  19  32  57  82 113 137 175 229 295 342
#     4  11  22  35  53  77 115 147 187 232 275 319
#
# _framework density 19.414607
#
# number of rings (size 3 to 8) (size 9 to 14) (size 15 to 20)
#    0.000    1.714    2.857    2.143    6.000    3.714 
#    0.000    2.143    0.000    0.000    0.000   10.000 
#    0.000    0.000    0.000    0.000    0.000    0.000 
#
# Total GULP energy -156332.864606 kJ/mol
# GULP energy per Si atom -5583.316593 kJ/mol
# Density = 1.937042 g / cm^3
# Si number density = 19.414607 Si / 1000 Ang^3
#
#
#
# Elastic Constant Matrix: (Units=GPa)
#
#
# Indices 1 2 3 4 5 6 
#
# 1 70.7976 7.1189 7.6259 0.0019 2.5031 -0.0003
# 2 7.1189 46.4156 14.4187 -0.0009 3.7003 0.0002
# 3 7.6259 14.4187 107.6156 0.0088 1.7315 -0.0029
# 4 0.0019 -0.0009 0.0088 8.4820 0.0044 -3.6807
# 5 2.5031 3.7003 1.7315 0.0044 30.0827 -0.0027
# 6 -0.0003 0.0002 -0.0029 -3.6807 -0.0027 0.4996
#
#
#
# Elastic Compliance Matrix: (Units=1/GPa)
#
#
# Indices 1 2 3 4 5 6 
#
# 1 0.014430 -0.001906 -0.000752 0.000001 -0.000923 0.000007
# 2 -0.001906 0.022936 -0.002898 0.000005 -0.002496 -0.000005
# 3 -0.000752 -0.002898 0.009736 -0.000006 -0.000141 0.000009
# 4 0.000001 0.000005 -0.000006 -0.053668 -0.000028 -0.395364
# 5 -0.000923 -0.002496 -0.000141 -0.000028 0.033634 -0.000025
# 6 0.000007 -0.000005 0.000009 -0.395364 -0.000025 -0.911098
#
#
# Mechanical properties :
#
#
# Convention : Reuss Voigt Hill
#
# Bulk Modulus (GPa) = 27.78541 31.46176 29.62358
# Shear Modulus (GPa) = -5.80773 20.85723 7.52475
#
# Velocity S-wave (km/s) = -1.73145 3.28122 1.97085
# Velocity P-wave (km/s) = 3.21643 5.53132 4.52443
#
# Compressibility (1/GPa) = 0.03599011
#
# Stress axis : x y z
#
# Youngs Moduli (GPa) = 69.29971 43.59966 102.70969
#
# Poissons Ratio (x) = 0.08310 0.07727
# Poissons Ratio (y) = 0.13208 0.29764
# Poissons Ratio (z) = 0.05214 0.12634
#
# Static dielectric constant tensor:
#      x y z
#    x 1.742010 0.000000 -0.035870 
#    y 0.000000 1.619930 0.000000 
#    z -0.035870 0.000000 1.753840 
# 
# From -- ./inp_files/98047.got.cif
#   From: 2010.05.17/outbox.cif.g08.bks.cpg/sg12_50_cif.got.tgz:98047.got - 2010.06.03 13:09:07.
