data_PCOD9173534
_publ_section_title
;
Structure prediction by ZEFSAII (Michael W. Deem and Ramdas Pophale) SiO2 
 PCOD9173534
Probable space group: C 2/M
;
_chemical_formula_sum "Si O2"
_cell_formula_units_Z 34
_cell_length_a 8.777360
_cell_length_b 14.439700
_cell_length_c 11.065073
_cell_angle_alpha 90.000000
_cell_angle_beta 82.591715
_cell_angle_gamma 90.000000
_cell_volume 1390.707793
_symmetry_space_group_name_H-M "C 2/M"
_symmetry_group_IT_number 12
_symmetry_cell_setting 'monoclinic'
loop_
_space_group_symop_operation_xyz
x,y,z
-x,y,-z
-x,-y,-z
x,-y,z
1/2+x,1/2+y,z
1/2-x,1/2+y,-z
1/2-x,1/2-y,-z
1/2+x,1/2-y,z
loop_
_atom_site_type_symbol
_atom_site_label
_atom_site_fract_x
_atom_site_fract_y
_atom_site_fract_z
Si Si1 0.000000 0.000000 0.000000
Si Si2 0.489397 0.146591 0.132026
Si Si3 0.448962 0.351161 0.376933
Si Si4 0.413620 0.142469 0.624273
Si Si5 0.637793 0.652454 0.133918
O O1 0.123876 0.917495 0.024527
O O2 0.555872 0.101846 0.246466
O O3 0.578030 0.244999 0.109593
O O4 0.307764 0.161411 0.169636
O O5 0.500000 0.100874 0.000000
O O6 0.500000 0.392438 0.500000
O O7 0.514450 0.246025 0.372024
O O8 0.266530 0.352762 0.383896
O O9 0.526909 0.390725 0.248580
O O10 0.500000 0.100737 0.500000
#
# Coordination Sequence:
#
# PCOD9173534 Si02
#       5
#     2   8   8   8   8
#     4  12  28  40  60  84 132 158 204 252 316 356
#     4  11  21  36  66  90 120 161 210 248 298 363
#     4  10  18  32  57  86 119 159 200 246 301 361
#     4  10  18  30  54  92 125 149 195 257 306 346
#     4  11  23  40  62  90 124 161 203 251 305 360
#
# _framework density 24.447982
#
# number of rings (size 3 to 8) (size 9 to 14) (size 15 to 20)
#    0.000    1.412    1.176   10.588    3.294    0.000 
#    0.000    1.176    0.000    0.000    0.000    3.294 
#    0.000    0.000    0.000    0.000    0.000    0.000 
#
# Total GULP energy -94810.800918 kJ/mol
# GULP energy per Si atom -5577.105936 kJ/mol
# Density = 2.439234 g / cm^3
# Si number density = 24.447982 Si / 1000 Ang^3
#
#
#
# Elastic Constant Matrix: (Units=GPa)
#
#
# Indices 1 2 3 4 5 6 
#
# 1 240.0560 11.1604 58.7856 0.0000 31.6875 0.0000
# 2 11.1604 130.5637 2.4674 0.0000 13.2508 0.0000
# 3 58.7856 2.4674 184.6414 0.0000 14.1646 0.0000
# 4 0.0000 0.0000 0.0000 -41.3139 0.0000 8.7611
# 5 31.6875 13.2508 14.1646 0.0000 56.4295 0.0000
# 6 0.0000 0.0000 0.0000 8.7611 0.0000 -24.4007
#
#
#
# Elastic Compliance Matrix: (Units=1/GPa)
#
#
# Indices 1 2 3 4 5 6 
#
# 1 0.004811 -0.000149 -0.001351 0.000000 -0.002327 0.000000
# 2 -0.000149 0.007851 0.000079 0.000000 -0.001780 0.000000
# 3 -0.001351 0.000079 0.005902 0.000000 -0.000741 0.000000
# 4 0.000000 0.000000 0.000000 -0.026200 0.000000 -0.009407
# 5 -0.002327 -0.001780 -0.000741 0.000000 0.019632 0.000000
# 6 0.000000 0.000000 0.000000 -0.009407 0.000000 -0.044360
#
#
# Mechanical properties :
#
#
# Convention : Reuss Voigt Hill
#
# Bulk Modulus (GPa) = 63.61014 77.78753 70.69884
# Shear Modulus (GPa) = -205.91922 30.33284 -87.79319
#
# Velocity S-wave (km/s) = -9.18751 3.52619 -5.99901
# Velocity P-wave (km/s) = 9.29904 6.96171 4.35928
#
# Compressibility (1/GPa) = 0.01572077
#
# Stress axis : x y z
#
# Youngs Moduli (GPa) = 207.87044 127.37268 169.43767
#
# Poissons Ratio (x) = 0.01904 0.22893
# Poissons Ratio (y) = 0.03108 -0.01342
# Poissons Ratio (z) = 0.28085 -0.01009
#
# Static dielectric constant tensor:
#      x y z
#    x 1.894240 0.000000 -0.049150 
#    y 0.000000 2.066830 0.000000 
#    z -0.049150 0.000000 2.115050 
# 
# From -- ./inp_files/118634.got.cif
#   From: 2010.05.17/outbox.cif.g08.bks.cpg/sg12_60_cif.got.tgz:118634.got - 2010.06.03 13:09:07.
