data_PCOD9173960
_publ_section_title
;
Structure prediction by ZEFSAII (Michael W. Deem and Ramdas Pophale) SiO2 
 PCOD9173960
Probable space group: C 2/M
;
_chemical_formula_sum "Si O2"
_cell_formula_units_Z 48
_cell_length_a 21.015005
_cell_length_b 7.489714
_cell_length_c 21.193237
_cell_angle_alpha 90.000000
_cell_angle_beta 32.867269
_cell_angle_gamma 90.000000
_cell_volume 1810.287783
_symmetry_space_group_name_H-M "C 2/M"
_symmetry_group_IT_number 12
_symmetry_cell_setting 'monoclinic'
loop_
_space_group_symop_operation_xyz
x,y,z
-x,y,-z
-x,-y,-z
x,-y,z
1/2+x,1/2+y,z
1/2-x,1/2+y,-z
1/2-x,1/2-y,-z
1/2+x,1/2-y,z
loop_
_atom_site_type_symbol
_atom_site_label
_atom_site_fract_x
_atom_site_fract_y
_atom_site_fract_z
Si Si1 0.765781 0.217096 0.730296
Si Si2 0.072707 0.301607 0.139544
Si Si3 0.870551 0.213303 0.767937
Si Si4 0.927469 0.792537 0.492319
Si Si5 0.695171 0.712302 0.613480
Si Si6 0.486786 0.219366 0.083872
O O1 0.771850 0.268380 0.799203
O O2 0.887249 0.276293 0.595856
O O3 0.648071 0.278503 0.794411
O O4 0.763508 0.000000 0.730552
O O5 0.116203 0.500000 0.091372
O O6 0.933818 0.295234 0.272342
O O7 0.068154 0.213811 0.073482
O O8 0.135193 0.251578 0.153081
O O9 0.988616 0.281650 0.633235
O O10 0.874078 0.000000 0.763557
O O11 0.796454 0.789029 0.573029
O O12 0.961752 0.000000 0.469814
O O13 0.682601 0.500000 0.632182
O O14 0.750000 0.750000 0.500000
O O15 0.492579 0.000000 0.080844
O O16 0.500000 0.269447 0.000000
#
# Coordination Sequence:
#
# PCOD9173960 Si02
#       6
#     8   8   8   8   8   8
#     4   9  17  32  53  79 109 144 185 222 262 319
#     4  11  21  35  55  79 109 141 181 229 274 320
#     4  10  20  32  52  80 113 148 180 216 263 325
#     4  10  18  31  51  78 109 145 184 218 258 314
#     4  12  22  32  50  78 112 147 183 220 264 317
#     4   9  18  34  58  83 103 133 184 236 275 319
#
# _framework density 26.51512
#
# number of rings (size 3 to 8) (size 9 to 14) (size 15 to 20)
#    0.000    1.833    3.333    2.500    0.000    2.000 
#    0.000    1.667    0.000    4.000    0.000    0.000 
#    0.000    0.000    0.000    0.000    0.000    0.000 
#
# Total GULP energy -133881.016202 kJ/mol
# GULP energy per Si atom -5578.375675 kJ/mol
# Density = 2.645477 g / cm^3
# Si number density = 26.515120 Si / 1000 Ang^3
#
#
#
# Elastic Constant Matrix: (Units=GPa)
#
#
# Indices 1 2 3 4 5 6 
#
# 1 164.3012 16.2903 32.0248 0.0003 55.7217 -0.0004
# 2 16.2903 88.0150 -3.6671 0.0007 5.5327 -0.0003
# 3 32.0248 -3.6671 95.0087 0.0003 44.1644 0.0000
# 4 0.0003 0.0007 0.0003 5.3697 -0.0002 7.7730
# 5 55.7217 5.5327 44.1644 -0.0002 60.4955 0.0001
# 6 -0.0004 -0.0003 0.0000 7.7730 0.0001 19.3318
#
#
#
# Elastic Compliance Matrix: (Units=1/GPa)
#
#
# Indices 1 2 3 4 5 6 
#
# 1 0.009042 -0.001058 0.001117 -0.000003 -0.009047 0.000001
# 2 -0.001058 0.011676 0.001288 -0.000005 -0.001033 0.000002
# 3 0.001117 0.001288 0.016244 -0.000004 -0.013005 0.000002
# 4 -0.000003 -0.000005 -0.000004 0.445581 0.000008 -0.179162
# 5 -0.009047 -0.001033 -0.013005 0.000008 0.034452 -0.000004
# 6 0.000001 0.000002 0.000002 -0.179162 -0.000004 0.123766
#
#
# Mechanical properties :
#
#
# Convention : Reuss Voigt Hill
#
# Bulk Modulus (GPa) = 25.21795 48.51344 36.86570
# Shear Modulus (GPa) = 7.67710 37.21786 22.44748
#
# Velocity S-wave (km/s) = 1.70342 3.75059 2.91278
# Velocity P-wave (km/s) = 3.66064 6.09033 5.02456
#
# Compressibility (1/GPa) = 0.03965429
#
# Stress axis : x y z
#
# Youngs Moduli (GPa) = 110.59748 85.64459 61.56089
#
# Poissons Ratio (x) = 0.09064 -0.06875
# Poissons Ratio (y) = 0.11704 -0.07927
# Poissons Ratio (z) = -0.12351 -0.11028
#
# Static dielectric constant tensor:
#      x y z
#    x 2.291220 0.000000 0.168990 
#    y 0.000000 1.995760 0.000000 
#    z 0.168990 0.000000 2.297040 
# 
# From -- ./inp_files/323506.got.cif
#   From: 2010.05.17/outbox.cif.g08.bks.cpg/sg12_162_cif.got.tgz:323506.got - 2010.06.03 13:09:07.
