data_PCOD9173533
_publ_section_title
;
Structure prediction by ZEFSAII (Michael W. Deem and Ramdas Pophale) SiO2 
 PCOD9173533
Probable space group: C 2/M
;
_chemical_formula_sum "Si O2"
_cell_formula_units_Z 64
_cell_length_a 14.290034
_cell_length_b 29.520285
_cell_length_c 9.000851
_cell_angle_alpha 90.000000
_cell_angle_beta 50.653505
_cell_angle_gamma 90.000000
_cell_volume 2936.296969
_symmetry_space_group_name_H-M "C 2/M"
_symmetry_group_IT_number 12
_symmetry_cell_setting 'monoclinic'
loop_
_space_group_symop_operation_xyz
x,y,z
-x,y,-z
-x,-y,-z
x,-y,z
1/2+x,1/2+y,z
1/2-x,1/2+y,-z
1/2-x,1/2-y,-z
1/2+x,1/2-y,z
loop_
_atom_site_type_symbol
_atom_site_label
_atom_site_fract_x
_atom_site_fract_y
_atom_site_fract_z
Si Si1 0.880371 0.549125 0.025613
Si Si2 0.692452 0.876230 0.118156
Si Si3 0.358080 0.949748 0.610611
Si Si4 0.888262 0.839407 0.715965
Si Si5 0.962710 0.217655 0.208160
Si Si6 0.984324 0.324142 0.193075
Si Si7 0.286362 0.549948 0.531299
Si Si8 0.223630 0.849745 0.474011
O O1 0.879337 0.500000 0.956090
O O2 0.766698 0.552607 0.250096
O O3 0.877051 0.587336 0.910687
O O4 0.000000 0.552827 0.000000
O O5 0.702084 0.904170 0.260866
O O6 0.602262 0.833916 0.178207
O O7 0.821009 0.868424 0.909674
O O8 0.500000 0.946861 0.500000
O O9 0.325308 0.951611 0.470615
O O10 0.314257 0.000000 0.708768
O O11 0.942774 0.798583 0.759162
O O12 0.789761 0.832551 0.684524
O O13 0.000000 0.856247 0.500000
O O14 0.949281 0.271284 0.238040
O O15 0.845007 0.187314 0.359403
O O16 0.000000 0.208770 0.000000
O O17 0.865908 0.351546 0.363762
O O18 0.000000 0.334218 0.000000
O O19 0.348948 0.500000 0.452406
O O20 0.337800 0.600299 0.450133
#
# Coordination Sequence:
#
# PCOD9173533 Si02
#       8
#     8   8   8   8   8   8   8   8
#     4  10  18  30  54  89 122 159 201 243 302 366
#     4  12  21  36  63  91 128 160 208 256 304 373
#     4  10  21  35  52  87 134 169 196 241 309 374
#     4  10  23  42  63  88 118 163 204 259 309 361
#     4  10  25  43  63  90 120 165 212 254 311 369
#     4  11  21  39  63  98 123 158 204 261 311 366
#     4  10  20  34  56  86 122 160 201 246 297 361
#     4  11  20  42  67  88 126 163 202 255 316 366
#
# _framework density 21.79616
#
# number of rings (size 3 to 8) (size 9 to 14) (size 15 to 20)
#    0.000    1.500    2.500    3.375    1.750    2.500 
#    0.000    5.625    0.000   11.250    0.000    0.000 
#    0.000    0.000    0.000    0.000    0.000    0.000 
#
# Total GULP energy -178256.512411 kJ/mol
# GULP energy per Si atom -5570.516013 kJ/mol
# Density = 2.174655 g / cm^3
# Si number density = 21.796160 Si / 1000 Ang^3
#
#
#
# Elastic Constant Matrix: (Units=GPa)
#
#
# Indices 1 2 3 4 5 6 
#
# 1 45.1917 3.6836 2.8623 0.0000 9.6193 0.0000
# 2 3.6836 136.3420 53.0693 0.0000 -6.0440 0.0000
# 3 2.8623 53.0693 77.9734 0.0000 -1.2124 0.0000
# 4 0.0000 0.0000 0.0000 43.7013 0.0000 27.8676
# 5 9.6193 -6.0440 -1.2124 0.0000 27.9088 0.0000
# 6 0.0000 0.0000 0.0000 27.8676 0.0000 25.5540
#
#
#
# Elastic Compliance Matrix: (Units=1/GPa)
#
#
# Indices 1 2 3 4 5 6 
#
# 1 0.024032 -0.000858 -0.000430 0.000000 -0.008488 0.000000
# 2 -0.000858 0.010107 -0.006813 0.000000 0.002188 0.000000
# 3 -0.000430 -0.006813 0.017469 0.000000 -0.000568 0.000000
# 4 0.000000 0.000000 0.000000 0.075127 0.000000 -0.081929
# 5 -0.008488 0.002188 -0.000568 0.000000 0.039206 0.000000
# 6 0.000000 0.000000 0.000000 -0.081929 0.000000 0.128479
#
#
# Mechanical properties :
#
#
# Convention : Reuss Voigt Hill
#
# Bulk Modulus (GPa) = 28.24495 42.08195 35.16345
# Shear Modulus (GPa) = 15.50756 32.75896 24.13326
#
# Velocity S-wave (km/s) = 2.67025 3.88102 3.33111
# Velocity P-wave (km/s) = 4.74277 6.27949 5.56444
#
# Compressibility (1/GPa) = 0.03540456
#
# Stress axis : x y z
#
# Youngs Moduli (GPa) = 41.61164 98.94519 57.24464
#
# Poissons Ratio (x) = 0.08490 0.02462
# Poissons Ratio (y) = 0.03571 0.39001
# Poissons Ratio (z) = 0.01790 0.67412
#
# Static dielectric constant tensor:
#      x y z
#    x 1.836210 0.000000 0.014030 
#    y 0.000000 1.856060 0.000000 
#    z 0.014030 0.000000 1.832280 
# 
# From -- ./inp_files/68595.got.cif
#   From: 2010.05.17/outbox.cif.g08.bks.cpg/sg12_35_cif.got.tgz:68595.got - 2010.06.03 13:09:07.
