data_PCOD9173567
_publ_section_title
;
Structure prediction by ZEFSAII (Michael W. Deem and Ramdas Pophale) SiO2 
 PCOD9173567
Probable space group: C 2/M
;
_chemical_formula_sum "Si O2"
_cell_formula_units_Z 56
_cell_length_a 26.845357
_cell_length_b 18.773328
_cell_length_c 8.133591
_cell_angle_alpha 90.000000
_cell_angle_beta 36.430673
_cell_angle_gamma 90.000000
_cell_volume 2434.273219
_symmetry_space_group_name_H-M "C 2/M"
_symmetry_group_IT_number 12
_symmetry_cell_setting 'monoclinic'
loop_
_space_group_symop_operation_xyz
x,y,z
-x,y,-z
-x,-y,-z
x,-y,z
1/2+x,1/2+y,z
1/2-x,1/2+y,-z
1/2-x,1/2-y,-z
1/2+x,1/2-y,z
loop_
_atom_site_type_symbol
_atom_site_label
_atom_site_fract_x
_atom_site_fract_y
_atom_site_fract_z
Si Si1 0.826782 0.419827 0.628432
Si Si2 0.438535 0.690714 0.854354
Si Si3 0.508850 0.835601 0.777582
Si Si4 0.843315 0.419177 0.187865
Si Si5 0.312857 0.677313 0.496108
Si Si6 0.281488 0.706274 0.071343
Si Si7 0.553983 0.418031 0.685651
O O1 0.826533 0.500000 0.691891
O O2 0.837223 0.422390 0.402841
O O3 0.743508 0.375563 0.881420
O O4 0.904171 0.374099 0.491509
O O5 0.497996 0.756833 0.738285
O O6 0.492949 0.619064 0.715354
O O7 0.372040 0.684178 0.180809
O O8 0.378313 0.709076 0.862801
O O9 0.500000 0.831461 0.000000
O O10 0.431759 0.882410 0.916114
O O11 0.838707 0.500000 0.138330
O O12 0.767505 0.371666 0.324516
O O13 0.277549 0.755309 0.634648
O O14 0.369114 0.635561 0.481116
O O15 0.250000 0.750000 0.000000
O O16 0.577280 0.500000 0.587395
O O17 0.500000 0.419451 0.000000
#
# Coordination Sequence:
#
# PCOD9173567 Si02
#       7
#     8   8   8   8   8   8   8
#     4  10  21  38  59  86 120 155 192 240 297 353
#     4  11  20  36  62  86 117 154 195 247 296 351
#     4  10  18  32  56  90 119 147 192 241 295 353
#     4  10  18  30  58  93 122 149 188 244 301 351
#     4  11  19  37  60  89 120 153 197 246 296 352
#     4  12  25  40  60  86 117 159 206 243 287 349
#     4   9  19  33  57  94 124 148 188 247 307 357
#
# _framework density 23.004812999999999
#
# number of rings (size 3 to 8) (size 9 to 14) (size 15 to 20)
#    0.000    1.571    2.857    5.143    0.000    2.857 
#    0.000    4.286    0.000    1.714    0.000    0.000 
#    0.000    0.000    0.000    0.000    0.000    0.000 
#
# Total GULP energy -156699.212580 kJ/mol
# GULP energy per Si atom -5596.400449 kJ/mol
# Density = 2.295245 g / cm^3
# Si number density = 23.004813 Si / 1000 Ang^3
#
#
#
# Elastic Constant Matrix: (Units=GPa)
#
#
# Indices 1 2 3 4 5 6 
#
# 1 117.9260 50.9678 23.3387 0.0000 -34.6166 0.0000
# 2 50.9678 160.8184 20.0145 0.0000 -29.9863 0.0000
# 3 23.3387 20.0145 37.2481 0.0000 -8.7368 0.0000
# 4 0.0000 0.0000 0.0000 16.4159 0.0000 -12.9078
# 5 -34.6166 -29.9863 -8.7368 0.0000 30.0857 0.0000
# 6 0.0000 0.0000 0.0000 -12.9078 0.0000 11.4618
#
#
#
# Elastic Compliance Matrix: (Units=1/GPa)
#
#
# Indices 1 2 3 4 5 6 
#
# 1 0.013917 -0.001328 -0.004895 0.000000 0.013269 0.000000
# 2 -0.001328 0.007985 -0.002093 0.000000 0.005824 0.000000
# 3 -0.004895 -0.002093 0.031365 0.000000 0.001390 0.000000
# 4 0.000000 0.000000 0.000000 0.532027 0.000000 0.599149
# 5 0.013269 0.005824 0.001390 0.000000 0.054714 0.000000
# 6 0.000000 0.000000 0.000000 0.599149 0.000000 0.761984
#
#
# Mechanical properties :
#
#
# Convention : Reuss Voigt Hill
#
# Bulk Modulus (GPa) = 27.29482 56.07050 41.68266
# Shear Modulus (GPa) = 3.49446 26.37076 14.93261
#
# Velocity S-wave (km/s) = 1.23382 3.38940 2.55052
# Velocity P-wave (km/s) = 3.73100 6.30426 5.17996
#
# Compressibility (1/GPa) = 0.03663699
#
# Stress axis : x y z
#
# Youngs Moduli (GPa) = 71.85296 125.23024 31.88311
#
# Poissons Ratio (x) = 0.16625 0.15606
# Poissons Ratio (y) = 0.09539 0.06673
# Poissons Ratio (z) = 0.35169 0.26210
#
# Static dielectric constant tensor:
#      x y z
#    x 1.897040 0.000000 0.066380 
#    y 0.000000 1.805870 0.000000 
#    z 0.066380 0.000000 1.862610 
# 
# From -- ./inp_files/105941.got.cif
#   From: 2010.05.17/outbox.cif.g08.bks.cpg/sg12_53_cif.got.tgz:105941.got - 2010.06.03 13:09:07.
