data_PCOD9173104
_publ_section_title
;
Structure prediction by ZEFSAII (Michael W. Deem and Ramdas Pophale) SiO2 
 PCOD9173104
Probable space group: C 2/M
;
_chemical_formula_sum "Si O2"
_cell_formula_units_Z 64
_cell_length_a 20.268557
_cell_length_b 24.883643
_cell_length_c 9.616022
_cell_angle_alpha 90.000000
_cell_angle_beta 45.551567
_cell_angle_gamma 90.000000
_cell_volume 3462.247075
_symmetry_space_group_name_H-M "C 2/M"
_symmetry_group_IT_number 12
_symmetry_cell_setting 'monoclinic'
loop_
_space_group_symop_operation_xyz
x,y,z
-x,y,-z
-x,-y,-z
x,-y,z
1/2+x,1/2+y,z
1/2-x,1/2+y,-z
1/2-x,1/2-y,-z
1/2+x,1/2-y,z
loop_
_atom_site_type_symbol
_atom_site_label
_atom_site_fract_x
_atom_site_fract_y
_atom_site_fract_z
Si Si1 0.106546 0.608018 0.858939
Si Si2 0.807821 0.723594 0.219792
Si Si3 0.445219 0.739141 0.220255
Si Si4 0.416622 0.061511 0.815061
Si Si5 0.896608 0.800200 0.863014
Si Si6 0.631894 0.936355 0.520505
Si Si7 0.215287 0.365934 0.172036
Si Si8 0.883720 0.742389 0.593998
O O1 0.161343 0.662641 0.805893
O O2 0.138289 0.579892 0.671503
O O3 0.104466 0.567442 0.990677
O O4 0.000000 0.624294 0.000000
O O5 0.845121 0.760006 0.293644
O O6 0.699470 0.725328 0.354433
O O7 0.850860 0.751144 0.018174
O O8 0.507269 0.690247 0.193129
O O9 0.442044 0.773401 0.368515
O O10 0.500000 0.757136 0.000000
O O11 0.525019 0.076292 0.632547
O O12 0.342317 0.099879 0.853638
O O13 0.405635 0.000000 0.784665
O O14 0.912938 0.778724 0.682773
O O15 0.819454 0.847108 0.981814
O O16 0.704554 0.901683 0.326126
O O17 0.644451 0.000000 0.484379
O O18 0.157636 0.311732 0.282830
#
# Coordination Sequence:
#
# PCOD9173104 Si02
#       8
#     8   8   8   8   8   8   8   8
#     4  10  18  30  50  74 103 140 174 208 259 314
#     4  10  19  33  52  78 109 141 180 217 251 309
#     4  10  21  34  50  72 104 140 174 208 255 306
#     4  10  20  34  51  72 102 138 179 223 264 310
#     4  10  21  35  50  74 108 139 176 218 257 310
#     4  10  21  34  49  73 104 137 177 222 264 309
#     4  11  21  33  50  72 100 139 177 211 257 307
#     4  11  21  35  53  76 108 141 176 219 258 305
#
# _framework density 18.485105999999998
#
# number of rings (size 3 to 8) (size 9 to 14) (size 15 to 20)
#    0.000    1.750    0.000    6.750    0.000    9.500 
#    0.000    0.000    0.000    0.000    0.000    0.000 
#    0.000   92.000    0.000    0.000    0.000    1.000 
#
# Total GULP energy -178142.614423 kJ/mol
# GULP energy per Si atom -5566.956701 kJ/mol
# Density = 1.844303 g / cm^3
# Si number density = 18.485106 Si / 1000 Ang^3
#
#
#
# Elastic Constant Matrix: (Units=GPa)
#
#
# Indices 1 2 3 4 5 6 
#
# 1 82.8129 32.0073 40.7666 0.0000 11.0762 0.0000
# 2 32.0073 82.2306 23.2448 0.0000 -4.1695 0.0000
# 3 40.7666 23.2448 93.3560 0.0000 23.3813 0.0000
# 4 0.0000 0.0000 0.0000 15.0525 0.0000 -4.3596
# 5 11.0762 -4.1695 23.3813 0.0000 29.6288 0.0000
# 6 0.0000 0.0000 0.0000 -4.3596 0.0000 27.7774
#
#
#
# Elastic Compliance Matrix: (Units=1/GPa)
#
#
# Indices 1 2 3 4 5 6 
#
# 1 0.017198 -0.005290 -0.005479 0.000000 -0.002850 0.000000
# 2 -0.005290 0.015469 -0.003218 0.000000 0.006694 0.000000
# 3 -0.005479 -0.003218 0.016833 0.000000 -0.011688 0.000000
# 4 0.000000 0.000000 0.000000 0.069598 0.000000 0.010923
# 5 -0.002850 0.006694 -0.011688 0.000000 0.044982 0.000000
# 6 0.000000 0.000000 0.000000 0.010923 0.000000 0.037715
#
#
# Mechanical properties :
#
#
# Convention : Reuss Voigt Hill
#
# Bulk Modulus (GPa) = 46.45610 50.04852 48.25231
# Shear Modulus (GPa) = 21.10195 25.31715 23.20955
#
# Velocity S-wave (km/s) = 3.38237 3.70482 3.54726
# Velocity P-wave (km/s) = 6.35925 6.74053 6.55267
#
# Compressibility (1/GPa) = 0.02152570
#
# Stress axis : x y z
#
# Youngs Moduli (GPa) = 58.14476 64.64507 59.40704
#
# Poissons Ratio (x) = 0.34197 0.32551
# Poissons Ratio (y) = 0.30758 0.19118
# Poissons Ratio (z) = 0.31859 0.20804
#
# Static dielectric constant tensor:
#      x y z
#    x 1.724320 0.000000 -0.018450 
#    y 0.000000 1.600140 0.000000 
#    z -0.018450 0.000000 1.754460 
# 
# From -- ./inp_files/90650.got.cif
#   From: 2010.05.17/outbox.cif.g08.bks.cpg/sg12_46_cif.got.tgz:90650.got - 2010.06.03 13:09:07.
