data_PCOD9173852
_publ_section_title
;
Structure prediction by ZEFSAII (Michael W. Deem and Ramdas Pophale) SiO2 
 PCOD9173852
Probable space group: C 2/M
;
_chemical_formula_sum "Si O2"
_cell_formula_units_Z 56
_cell_length_a 22.041087
_cell_length_b 22.650156
_cell_length_c 8.889836
_cell_angle_alpha 90.000000
_cell_angle_beta 50.617511
_cell_angle_gamma 90.000000
_cell_volume 3430.336543
_symmetry_space_group_name_H-M "C 2/M"
_symmetry_group_IT_number 12
_symmetry_cell_setting 'monoclinic'
loop_
_space_group_symop_operation_xyz
x,y,z
-x,y,-z
-x,-y,-z
x,-y,z
1/2+x,1/2+y,z
1/2-x,1/2+y,-z
1/2-x,1/2-y,-z
1/2+x,1/2-y,z
loop_
_atom_site_type_symbol
_atom_site_label
_atom_site_fract_x
_atom_site_fract_y
_atom_site_fract_z
Si Si1 0.622668 0.363001 0.615179
Si Si2 0.555987 0.750105 0.541034
Si Si3 0.213531 0.297441 0.337730
Si Si4 0.555389 0.790124 0.058667
Si Si5 0.484621 0.567637 0.701201
Si Si6 0.209075 0.672881 0.685825
Si Si7 0.127446 0.840470 0.963757
O O1 0.585253 0.302818 0.603757
O O2 0.565852 0.414925 0.654336
O O3 0.713382 0.367420 0.419643
O O4 0.621573 0.356605 0.796468
O O5 0.500000 0.725444 0.500000
O O6 0.637040 0.780572 0.363779
O O7 0.503254 0.798409 0.710409
O O8 0.189808 0.324828 0.537417
O O9 0.257604 0.237210 0.318452
O O10 0.279766 0.335104 0.150097
O O11 0.629020 0.832469 0.906450
O O12 0.589157 0.724307 0.036765
O O13 0.500000 0.787981 0.000000
O O14 0.500000 0.574272 0.500000
O O15 0.462847 0.500000 0.767148
O O16 0.419105 0.612792 0.863914
#
# Coordination Sequence:
#
# PCOD9173852 Si02
#       7
#     8   8   8   8   8   8   8
#     4  10  18  32  47  65  90 120 158 194 223 263
#     4  11  19  27  41  67 100 128 153 183 223 267
#     4   8  15  28  42  63  90 121 154 189 219 260
#     4  11  15  26  45  66  93 127 159 179 214 270
#     4  11  23  36  49  68  93 118 147 190 239 279
#     4   8  15  26  44  64  86 120 157 189 220 256
#     4  10  18  31  51  65  85 122 162 191 223 263
#
# _framework density 16.324929000000001
#
# number of rings (size 3 to 8) (size 9 to 14) (size 15 to 20)
#    0.000    2.143    4.286    2.571    0.000    1.143 
#    2.571    2.143    0.000    0.000    0.000    0.000 
#    0.000    2.286    0.000    0.143    0.000    0.000 
#
# Total GULP energy -155914.007144 kJ/mol
# GULP energy per Si atom -5568.357398 kJ/mol
# Density = 1.628777 g / cm^3
# Si number density = 16.324929 Si / 1000 Ang^3
#
#
#
# Elastic Constant Matrix: (Units=GPa)
#
#
# Indices 1 2 3 4 5 6 
#
# 1 69.9106 17.0888 30.3257 0.0000 -22.3503 0.0000
# 2 17.0888 38.7240 28.0010 0.0000 -11.0312 0.0000
# 3 30.3257 28.0010 70.8342 0.0000 -26.8815 0.0000
# 4 0.0000 0.0000 0.0000 8.1103 0.0000 -1.6774
# 5 -22.3503 -11.0312 -26.8815 0.0000 25.1709 0.0000
# 6 0.0000 0.0000 0.0000 -1.6774 0.0000 11.8323
#
#
#
# Elastic Compliance Matrix: (Units=1/GPa)
#
#
# Indices 1 2 3 4 5 6 
#
# 1 0.020730 -0.003605 -0.001789 0.000000 0.014916 0.000000
# 2 -0.003605 0.036801 -0.013617 0.000000 -0.001616 0.000000
# 3 -0.001789 -0.013617 0.029256 0.000000 0.023688 0.000000
# 4 0.000000 0.000000 0.000000 0.127025 0.000000 0.018007
# 5 0.014916 -0.001616 0.023688 0.000000 0.077563 0.000000
# 6 0.000000 0.000000 0.000000 0.018007 0.000000 0.087067
#
#
# Mechanical properties :
#
#
# Convention : Reuss Voigt Hill
#
# Bulk Modulus (GPa) = 20.50706 36.69998 28.60352
# Shear Modulus (GPa) = 11.55484 15.95959 13.75721
#
# Velocity S-wave (km/s) = 2.66334 3.13008 2.90610
# Velocity P-wave (km/s) = 4.69542 5.96599 5.36842
#
# Compressibility (1/GPa) = 0.04876369
#
# Stress axis : x y z
#
# Youngs Moduli (GPa) = 48.23909 27.17319 34.18119
#
# Poissons Ratio (x) = 0.09797 0.06115
# Poissons Ratio (y) = 0.17391 0.46546
# Poissons Ratio (z) = 0.08630 0.37003
#
# Static dielectric constant tensor:
#      x y z
#    x 1.587290 0.000000 -0.009200 
#    y 0.000000 1.523820 0.000000 
#    z -0.009200 0.000000 1.631780 
# 
# From -- ./inp_files/99476.got.cif
#   From: 2010.05.17/outbox.cif.g08.bks.cpg/sg12_50_cif.got.tgz:99476.got - 2010.06.03 13:09:07.
