data_PCOD9173631
_publ_section_title
;
Structure prediction by ZEFSAII (Michael W. Deem and Ramdas Pophale) SiO2 
 PCOD9173631
Probable space group: C 2/M
;
_chemical_formula_sum "Si O2"
_cell_formula_units_Z 48
_cell_length_a 25.311683
_cell_length_b 14.807436
_cell_length_c 23.852684
_cell_angle_alpha 90.000000
_cell_angle_beta 160.236220
_cell_angle_gamma 90.000000
_cell_volume 3023.003356
_symmetry_space_group_name_H-M "C 2/M"
_symmetry_group_IT_number 12
_symmetry_cell_setting 'monoclinic'
loop_
_space_group_symop_operation_xyz
x,y,z
-x,y,-z
-x,-y,-z
x,-y,z
1/2+x,1/2+y,z
1/2-x,1/2+y,-z
1/2-x,1/2-y,-z
1/2+x,1/2-y,z
loop_
_atom_site_type_symbol
_atom_site_label
_atom_site_fract_x
_atom_site_fract_y
_atom_site_fract_z
Si Si1 0.564263 0.210829 0.397117
Si Si2 0.936333 0.106926 0.996822
Si Si3 0.933542 0.807838 0.760823
Si Si4 0.562969 0.105516 0.625474
Si Si5 0.865996 0.330915 0.097370
Si Si6 0.953397 0.900172 0.239344
O O1 0.748394 0.202547 0.571758
O O2 0.515852 0.171410 0.408533
O O3 0.471004 0.152303 0.256958
O O4 0.513926 0.315286 0.336545
O O5 0.749657 0.117974 0.813157
O O6 0.971213 0.000000 0.036110
O O7 0.000000 0.137790 0.000000
O O8 0.015654 0.155879 0.128258
O O9 0.019646 0.712752 0.834070
O O10 0.992235 0.874764 0.769807
O O11 0.500000 0.121205 0.500000
O O12 0.529301 0.000000 0.605815
O O13 0.750000 0.250000 0.000000
O O14 0.736242 0.401008 0.948601
O O15 0.011701 0.000000 0.312758
#
# Coordination Sequence:
#
# PCOD9173631 Si02
#       6
#     8   8   8   8   8   8
#     4  10  19  32  49  71 100 129 161 201 243 290
#     4  10  19  30  45  68  98 128 159 194 235 287
#     4  10  18  31  48  68  97 130 161 199 243 289
#     4  10  20  33  50  73  99 128 162 197 237 289
#     4   8  16  30  46  65  89 120 159 196 234 277
#     4  10  19  32  50  70  95 129 167 204 243 286
#
# _framework density 15.878249
#
# number of rings (size 3 to 8) (size 9 to 14) (size 15 to 20)
#    0.000    2.667    0.000    6.500    0.000    4.667 
#    0.000    2.500    0.000    0.500    0.000    0.000 
#    0.000    6.000    0.000    0.000    0.000    0.000 
#
# Total GULP energy -133659.910934 kJ/mol
# GULP energy per Si atom -5569.162956 kJ/mol
# Density = 1.584211 g / cm^3
# Si number density = 15.878249 Si / 1000 Ang^3
#
#
#
# Elastic Constant Matrix: (Units=GPa)
#
#
# Indices 1 2 3 4 5 6 
#
# 1 110.6447 46.7023 47.8333 -0.0002 0.3643 -0.0001
# 2 46.7023 70.3837 33.7341 0.0009 -1.9999 0.0006
# 3 47.8333 33.7341 118.5471 -0.0007 -1.5690 0.0001
# 4 -0.0002 0.0009 -0.0007 15.1079 -0.0002 -4.4975
# 5 0.3643 -1.9999 -1.5690 -0.0002 27.2148 0.0000
# 6 -0.0001 0.0006 0.0001 -4.4975 0.0000 14.3105
#
#
#
# Elastic Compliance Matrix: (Units=1/GPa)
#
#
# Indices 1 2 3 4 5 6 
#
# 1 0.013660 -0.007460 -0.003401 0.000001 -0.000927 0.000001
# 2 -0.007460 0.020550 -0.002818 -0.000002 0.001448 -0.000002
# 3 -0.003401 -0.002818 0.010616 0.000001 0.000450 0.000000
# 4 0.000001 -0.000002 0.000001 0.073022 0.000001 0.022950
# 5 -0.000927 0.001448 0.000450 0.000001 0.036890 0.000000
# 6 0.000001 -0.000002 0.000000 0.022950 0.000000 0.077091
#
#
# Mechanical properties :
#
#
# Convention : Reuss Voigt Hill
#
# Bulk Modulus (GPa) = 57.25330 61.79055 59.52192
# Shear Modulus (GPa) = 18.86713 22.74703 20.80708
#
# Velocity S-wave (km/s) = 3.45082 3.78906 3.62389
# Velocity P-wave (km/s) = 7.21204 7.62511 7.42145
#
# Compressibility (1/GPa) = 0.01746624
#
# Stress axis : x y z
#
# Youngs Moduli (GPa) = 73.20457 48.66176 94.19900
#
# Poissons Ratio (x) = 0.36303 0.32039
# Poissons Ratio (y) = 0.54613 0.26549
# Poissons Ratio (z) = 0.24899 0.13715
#
# Static dielectric constant tensor:
#      x y z
#    x 1.517580 0.000000 0.004970 
#    y 0.000000 1.554040 0.000000 
#    z 0.004970 0.000000 1.555470 
# 
# From -- ./inp_files/347479.got.cif
#   From: 2010.05.17/outbox.cif.g08.bks.cpg/sg12_174_cif.got.tgz:347479.got - 2010.06.03 13:09:07.
