data_PCOD9173779
_publ_section_title
;
Structure prediction by ZEFSAII (Michael W. Deem and Ramdas Pophale) SiO2 
 PCOD9173779
Probable space group: C 2/M
;
_chemical_formula_sum "Si O2"
_cell_formula_units_Z 56
_cell_length_a 22.720159
_cell_length_b 7.292458
_cell_length_c 27.112390
_cell_angle_alpha 90.000000
_cell_angle_beta 31.801056
_cell_angle_gamma 90.000000
_cell_volume 2367.228608
_symmetry_space_group_name_H-M "C 2/M"
_symmetry_group_IT_number 12
_symmetry_cell_setting 'monoclinic'
loop_
_space_group_symop_operation_xyz
x,y,z
-x,y,-z
-x,-y,-z
x,-y,z
1/2+x,1/2+y,z
1/2-x,1/2+y,-z
1/2-x,1/2-y,-z
1/2+x,1/2-y,z
loop_
_atom_site_type_symbol
_atom_site_label
_atom_site_fract_x
_atom_site_fract_y
_atom_site_fract_z
Si Si1 0.213065 0.723084 0.737873
Si Si2 0.514071 0.776237 0.047606
Si Si3 0.733859 0.219681 0.952536
Si Si4 0.531546 0.288692 0.251192
Si Si5 0.879252 0.776999 0.447170
Si Si6 0.324201 0.220955 0.346038
Si Si7 0.953774 0.222797 0.585428
O O1 0.211356 0.500000 0.739705
O O2 0.220715 0.777877 0.675209
O O3 0.326467 0.781550 0.683869
O O4 0.098307 0.782194 0.844223
O O5 0.517485 0.000000 0.044962
O O6 0.500000 0.721562 0.000000
O O7 0.623126 0.716519 0.001784
O O8 0.847366 0.290090 0.845680
O O9 0.732651 0.000000 0.948457
O O10 0.750000 0.250000 0.000000
O O11 0.549691 0.500000 0.253041
O O12 0.447696 0.207135 0.351417
O O13 0.451907 0.282267 0.260280
O O14 0.756701 0.713286 0.551957
O O15 0.960255 0.725818 0.434142
O O16 0.872010 0.000000 0.449065
O O17 0.322648 0.000000 0.347884
O O18 0.000000 0.283459 0.500000
O O19 0.953079 0.000000 0.585191
#
# Coordination Sequence:
#
# PCOD9173779 Si02
#       7
#     8   8   8   8   8   8   8
#     4   9  16  25  43  69  95 123 158 200 245 292
#     4   9  18  30  46  71 101 130 165 213 264 303
#     4  10  21  37  55  76 103 136 174 214 257 307
#     4  10  21  33  48  72 101 131 163 202 248 292
#     4   9  17  28  44  69 102 131 159 198 245 294
#     4  10  18  31  50  73 100 132 166 199 238 293
#     4   9  14  23  40  66  97 124 152 193 244 293
#
# _framework density 23.656354
#
# number of rings (size 3 to 8) (size 9 to 14) (size 15 to 20)
#    0.000    2.571    1.429    1.286    2.000    1.714 
#    0.000    0.000    0.000    0.429    0.000    3.000 
#    0.000    0.000    0.000    0.000    0.000    0.000 
#
# Total GULP energy -156321.883858 kJ/mol
# GULP energy per Si atom -5582.924424 kJ/mol
# Density = 2.360251 g / cm^3
# Si number density = 23.656354 Si / 1000 Ang^3
#
#
#
# Elastic Constant Matrix: (Units=GPa)
#
#
# Indices 1 2 3 4 5 6 
#
# 1 121.9739 -1.3244 78.2874 0.0371 -20.4749 -0.0360
# 2 -1.3244 102.0703 6.9182 0.0337 1.2281 -0.0071
# 3 78.2874 6.9182 207.9142 0.0135 -29.2404 -0.0085
# 4 0.0371 0.0337 0.0135 -6.4073 -0.0160 -4.0829
# 5 -20.4749 1.2281 -29.2404 -0.0160 47.7699 0.0259
# 6 -0.0360 -0.0071 -0.0085 -4.0829 0.0259 4.3804
#
#
#
# Elastic Compliance Matrix: (Units=1/GPa)
#
#
# Indices 1 2 3 4 5 6 
#
# 1 0.011071 0.000376 -0.003846 0.000005 0.002381 0.000074
# 2 0.000376 0.009843 -0.000527 0.000026 -0.000415 0.000044
# 3 -0.003846 -0.000527 0.006615 0.000003 0.002414 -0.000031
# 4 0.000005 0.000026 0.000003 -0.097916 0.000020 -0.091264
# 5 0.002381 -0.000415 0.002414 0.000020 0.023443 -0.000097
# 6 0.000074 0.000044 -0.000031 -0.091264 -0.000097 0.143225
#
#
# Mechanical properties :
#
#
# Convention : Reuss Voigt Hill
#
# Bulk Modulus (GPa) = 51.19547 66.63564 58.91555
# Shear Modulus (GPa) = 45.13176 32.35375 38.74276
#
# Velocity S-wave (km/s) = 4.37258 3.70220 4.05128
# Velocity P-wave (km/s) = 6.86884 6.81941 6.84417
#
# Compressibility (1/GPa) = 0.01953298
#
# Stress axis : x y z
#
# Youngs Moduli (GPa) = 90.32656 101.59744 151.17188
#
# Poissons Ratio (x) = -0.03817 0.58144
# Poissons Ratio (y) = -0.03393 0.07971
# Poissons Ratio (z) = 0.34742 0.05357
#
# Static dielectric constant tensor:
#      x y z
#    x 1.887890 -0.000010 0.008730 
#    y -0.000010 1.952840 0.000010 
#    z 0.008730 0.000010 1.860900 
# 
# From -- ./inp_files/164837.got.cif
#   From: 2010.05.17/outbox.cif.g08.bks.cpg/sg12_83_cif.got.tgz:164837.got - 2010.06.03 13:09:07.
