data_PCOD9173986
_publ_section_title
;
Structure prediction by ZEFSAII (Michael W. Deem and Ramdas Pophale) SiO2 
 PCOD9173986
Probable space group: C 2/M
;
_chemical_formula_sum "Si O2"
_cell_formula_units_Z 64
_cell_length_a 15.430950
_cell_length_b 7.378960
_cell_length_c 28.846764
_cell_angle_alpha 90.000000
_cell_angle_beta 59.724306
_cell_angle_gamma 90.000000
_cell_volume 2836.627667
_symmetry_space_group_name_H-M "C 2/M"
_symmetry_group_IT_number 12
_symmetry_cell_setting 'monoclinic'
loop_
_space_group_symop_operation_xyz
x,y,z
-x,y,-z
-x,-y,-z
x,-y,z
1/2+x,1/2+y,z
1/2-x,1/2+y,-z
1/2-x,1/2-y,-z
1/2+x,1/2-y,z
loop_
_atom_site_type_symbol
_atom_site_label
_atom_site_fract_x
_atom_site_fract_y
_atom_site_fract_z
Si Si1 0.683271 0.781912 0.739620
Si Si2 0.456872 0.708312 0.394999
Si Si3 0.388895 0.290805 0.509465
Si Si4 0.544146 0.711015 0.200972
Si Si5 0.389817 0.278221 0.717840
Si Si6 0.220959 0.720231 0.624820
Si Si7 0.596168 0.286951 0.003429
Si Si8 0.177296 0.780314 0.080817
O O1 0.571884 0.721879 0.781584
O O2 0.773505 0.727293 0.748715
O O3 0.713656 0.720105 0.679734
O O4 0.680916 0.000000 0.739603
O O5 0.481382 0.500000 0.401982
O O6 0.402683 0.791074 0.454572
O O7 0.555711 0.785789 0.344028
O O8 0.377090 0.714212 0.375430
O O9 0.500000 0.288793 0.500000
O O10 0.355402 0.500000 0.511736
O O11 0.313860 0.215436 0.568218
O O12 0.571458 0.500000 0.197689
O O13 0.558103 0.786241 0.249095
O O14 0.616359 0.786043 0.141906
O O15 0.397157 0.500000 0.713713
O O16 0.222901 0.500000 0.625315
O O17 0.575145 0.500000 0.015333
O O18 0.704901 0.268674 0.949461
O O19 0.500000 0.214741 0.000000
O O20 0.622742 0.214932 0.048059
O O21 0.173795 0.000000 0.080451
#
# Coordination Sequence:
#
# PCOD9173986 Si02
#       8
#     8   8   8   8   8   8   8   8
#     4  10  20  34  52  73  99 134 173 211 256 307
#     4  10  18  31  52  71  92 128 168 202 250 314
#     4   9  17  29  47  71  94 121 163 208 249 302
#     4  10  20  36  54  75 106 137 171 215 257 299
#     4   9  18  33  52  72  97 133 172 208 251 308
#     4  10  19  31  48  71  98 123 158 212 259 298
#     4   9  18  34  55  79 109 142 174 209 251 299
#     4   9  19  34  53  78 107 140 174 211 255 298
#
# _framework density 22.562002
#
# number of rings (size 3 to 8) (size 9 to 14) (size 15 to 20)
#    0.000    2.500    1.250    1.125    0.000    4.750 
#    0.000    1.250    0.000    3.000    0.000    0.000 
#    0.000    0.000    0.000    0.000    0.000    0.000 
#
# Total GULP energy -178551.997573 kJ/mol
# GULP energy per Si atom -5579.749924 kJ/mol
# Density = 2.251065 g / cm^3
# Si number density = 22.562002 Si / 1000 Ang^3
#
#
#
# Elastic Constant Matrix: (Units=GPa)
#
#
# Indices 1 2 3 4 5 6 
#
# 1 96.7597 -7.9629 25.0841 0.0000 -20.9444 0.0001
# 2 -7.9629 78.2678 -1.2706 0.0003 5.7872 0.0003
# 3 25.0841 -1.2706 126.2803 0.0001 -26.2432 0.0001
# 4 0.0000 0.0003 0.0001 -17.4185 0.0000 -44.9403
# 5 -20.9444 5.7872 -26.2432 0.0000 20.6102 0.0001
# 6 0.0001 0.0003 0.0001 -44.9403 0.0001 -1.5373
#
#
#
# Elastic Compliance Matrix: (Units=1/GPa)
#
#
# Indices 1 2 3 4 5 6 
#
# 1 0.013263 0.000344 0.000204 0.000000 0.013641 0.000000
# 2 0.000344 0.013125 -0.000856 0.000000 -0.004426 0.000000
# 3 0.000204 -0.000856 0.010828 0.000000 0.014235 0.000000
# 4 0.000000 0.000000 0.000000 0.000771 0.000000 -0.022551
# 5 0.013641 -0.004426 0.014235 0.000000 0.081750 0.000000
# 6 0.000000 0.000000 0.000000 -0.022551 0.000000 0.008740
#
#
# Mechanical properties :
#
#
# Convention : Reuss Voigt Hill
#
# Bulk Modulus (GPa) = 27.32270 37.00100 32.16185
# Shear Modulus (GPa) = 35.38714 19.36135 27.37424
#
# Velocity S-wave (km/s) = 3.96465 2.93258 3.48701
# Velocity P-wave (km/s) = 5.75276 5.28223 5.52251
#
# Compressibility (1/GPa) = 0.03659960
#
# Stress axis : x y z
#
# Youngs Moduli (GPa) = 75.39739 76.19042 92.35267
#
# Poissons Ratio (x) = -0.02621 -0.01881
# Poissons Ratio (y) = -0.02594 0.07906
# Poissons Ratio (z) = -0.01536 0.06522
#
# Static dielectric constant tensor:
#      x y z
#    x 1.808730 0.000000 0.010510 
#    y 0.000000 1.918140 0.000000 
#    z 0.010510 0.000000 1.851150 
# 
# From -- ./inp_files/375019.got.cif
#   From: 2010.05.17/outbox.cif.g08.bks.cpg/sg12_188_cif.got.tgz:375019.got - 2010.06.03 13:09:07.
