data_PCOD9173510
_publ_section_title
;
Structure prediction by ZEFSAII (Michael W. Deem and Ramdas Pophale) SiO2 
 PCOD9173510
Probable space group: C 2/M
;
_chemical_formula_sum "Si O2"
_cell_formula_units_Z 40
_cell_length_a 22.411440
_cell_length_b 13.790584
_cell_length_c 13.763368
_cell_angle_alpha 90.000000
_cell_angle_beta 23.805073
_cell_angle_gamma 90.000000
_cell_volume 1716.945877
_symmetry_space_group_name_H-M "C 2/M"
_symmetry_group_IT_number 12
_symmetry_cell_setting 'monoclinic'
loop_
_space_group_symop_operation_xyz
x,y,z
-x,y,-z
-x,-y,-z
x,-y,z
1/2+x,1/2+y,z
1/2-x,1/2+y,-z
1/2-x,1/2-y,-z
1/2+x,1/2-y,z
loop_
_atom_site_type_symbol
_atom_site_label
_atom_site_fract_x
_atom_site_fract_y
_atom_site_fract_z
Si Si1 0.180550 0.000000 0.243326
Si Si2 0.675946 0.290667 0.244783
Si Si3 0.824852 0.108294 0.250222
Si Si4 0.646691 0.388941 0.020552
Si Si5 0.674820 0.000000 0.753115
Si Si6 0.181015 0.195305 0.468341
O O1 0.227726 0.896352 0.130349
O O2 0.247335 0.000000 0.254343
O O3 0.000000 0.000000 0.500000
O O4 0.500000 0.285693 0.500000
O O5 0.745323 0.193376 0.099283
O O6 0.708498 0.295912 0.311587
O O7 0.805079 0.101498 0.163540
O O8 0.731592 0.198881 0.428891
O O9 0.794415 0.000000 0.335264
O O10 0.000000 0.128336 0.000000
O O11 0.638899 0.500000 0.070646
O O12 0.487266 0.337190 0.264064
O O13 0.729047 0.897855 0.629572
O O14 0.500000 0.000000 0.000000
#
# Coordination Sequence:
#
# PCOD9173510 Si02
#       6
#     4   8   8   8   4   8
#     4   8  16  34  54  74 105 145 178 221 279 326
#     4   9  19  35  57  79 106 143 183 226 276 331
#     4   9  19  36  54  73 106 144 177 218 273 331
#     4  10  20  35  55  78 108 141 180 225 277 330
#     4  10  18  30  54  84 107 139 186 233 271 320
#     4  10  19  34  55  78 110 143 178 228 275 330
#
# _framework density 23.297180000000001
#
# number of rings (size 3 to 8) (size 9 to 14) (size 15 to 20)
#    0.000    2.600    1.000    0.600    0.000    2.000 
#    1.800    0.000    0.000    0.000    0.000    0.000 
#    0.000    0.000    0.000    0.000    0.000    0.000 
#
# Total GULP energy -111546.150405 kJ/mol
# GULP energy per Si atom -5577.307520 kJ/mol
# Density = 2.324416 g / cm^3
# Si number density = 23.297180 Si / 1000 Ang^3
#
#
#
# Elastic Constant Matrix: (Units=GPa)
#
#
# Indices 1 2 3 4 5 6 
#
# 1 83.5120 58.0422 12.2462 -0.0001 9.6050 0.0000
# 2 58.0422 319.5362 100.4797 -0.0002 -13.8860 0.0000
# 3 12.2462 100.4797 61.1345 -0.0004 -10.1417 0.0000
# 4 -0.0001 -0.0002 -0.0004 22.8555 0.0002 -9.4982
# 5 9.6050 -13.8860 -10.1417 0.0002 35.2710 0.0000
# 6 0.0000 0.0000 0.0000 -9.4982 0.0000 45.2764
#
#
#
# Elastic Compliance Matrix: (Units=1/GPa)
#
#
# Indices 1 2 3 4 5 6 
#
# 1 0.014669 -0.003516 0.002046 0.000000 -0.004791 0.000000
# 2 -0.003516 0.007330 -0.011241 0.000000 0.000611 0.000000
# 3 0.002046 -0.011241 0.035280 0.000000 0.005161 0.000000
# 4 0.000000 0.000000 0.000000 0.047932 0.000000 0.010055
# 5 -0.004791 0.000611 0.005161 0.000000 0.031381 0.000000
# 6 0.000000 0.000000 0.000000 0.010055 0.000000 0.024196
#
#
# Mechanical properties :
#
#
# Convention : Reuss Voigt Hill
#
# Bulk Modulus (GPa) = 31.39195 89.52432 60.45813
# Shear Modulus (GPa) = 25.40284 40.24155 32.82220
#
# Velocity S-wave (km/s) = 3.30568 4.16061 3.75753
# Velocity P-wave (km/s) = 5.29847 7.84802 6.69572
#
# Compressibility (1/GPa) = 0.03185530
#
# Stress axis : x y z
#
# Youngs Moduli (GPa) = 68.17082 136.43351 28.34503
#
# Poissons Ratio (x) = 0.47970 -0.05799
# Poissons Ratio (y) = 0.23969 0.31863
# Poissons Ratio (z) = -0.13946 1.53367
#
# Static dielectric constant tensor:
#      x y z
#    x 1.854960 0.000000 0.071000 
#    y 0.000000 1.937170 0.000000 
#    z 0.071000 0.000000 1.900370 
# 
# From -- ./inp_files/268256.got.cif
#   From: 2010.05.17/outbox.cif.g08.bks.cpg/sg12_135_cif.got.tgz:268256.got - 2010.06.03 13:09:07.
