data_PCOD9173021
_publ_section_title
;
Structure prediction by ZEFSAII (Michael W. Deem and Ramdas Pophale) SiO2 
 PCOD9173021
Probable space group: C 2/M
;
_chemical_formula_sum "Si O2"
_cell_formula_units_Z 48
_cell_length_a 26.777336
_cell_length_b 10.584341
_cell_length_c 19.202774
_cell_angle_alpha 90.000000
_cell_angle_beta 29.425019
_cell_angle_gamma 90.000000
_cell_volume 2673.793735
_symmetry_space_group_name_H-M "C 2/M"
_symmetry_group_IT_number 12
_symmetry_cell_setting 'monoclinic'
loop_
_space_group_symop_operation_xyz
x,y,z
-x,y,-z
-x,-y,-z
x,-y,z
1/2+x,1/2+y,z
1/2-x,1/2+y,-z
1/2-x,1/2-y,-z
1/2+x,1/2-y,z
loop_
_atom_site_type_symbol
_atom_site_label
_atom_site_fract_x
_atom_site_fract_y
_atom_site_fract_z
Si Si1 0.734453 0.136965 0.465062
Si Si2 0.917345 0.219140 0.154039
Si Si3 0.775906 0.350720 0.217806
Si Si4 0.953257 0.148332 0.479792
Si Si5 0.932940 0.348361 0.919339
Si Si6 0.491334 0.853312 0.323805
O O1 0.750000 0.250000 0.500000
O O2 0.827873 0.139126 0.297513
O O3 0.626730 0.151899 0.557505
O O4 0.732584 0.000000 0.503628
O O5 0.856270 0.318859 0.180483
O O6 0.979234 0.283195 0.141688
O O7 0.000000 0.160169 0.000000
O O8 0.764818 0.500000 0.225233
O O9 0.663604 0.305230 0.371670
O O10 0.827558 0.306183 0.083202
O O11 0.006824 0.246843 0.363098
O O12 0.000000 0.151345 0.500000
O O13 0.956280 0.000000 0.452501
O O14 0.943109 0.500000 0.915425
O O15 0.945285 0.322824 0.823008
O O16 0.511276 0.000000 0.320531
#
# Coordination Sequence:
#
# PCOD9173021 Si02
#       6
#     8   8   8   8   8   8
#     4  11  22  34  50  76 110 144 175 210 252 305
#     4  10  18  30  49  75 107 142 173 206 250 305
#     4   9  17  30  51  76 104 139 173 210 253 300
#     4  10  21  37  57  79 101 129 171 221 269 314
#     4   9  17  30  49  77 108 137 173 208 245 304
#     4  10  20  35  54  76 104 136 173 216 258 305
#
# _framework density 17.952020999999998
#
# number of rings (size 3 to 8) (size 9 to 14) (size 15 to 20)
#    0.000    2.167    3.333    0.500    0.000    4.000 
#    0.000    0.833    0.000    1.000    0.000    0.000 
#    0.000    0.000    0.000    0.000    0.000    0.000 
#
# Total GULP energy -133675.168846 kJ/mol
# GULP energy per Si atom -5569.798702 kJ/mol
# Density = 1.791116 g / cm^3
# Si number density = 17.952021 Si / 1000 Ang^3
#
#
#
# Elastic Constant Matrix: (Units=GPa)
#
#
# Indices 1 2 3 4 5 6 
#
# 1 33.0511 25.7613 9.0049 -0.0004 20.6339 -0.0001
# 2 25.7613 68.7752 26.4580 -0.0019 28.6715 -0.0007
# 3 9.0049 26.4580 77.6533 -0.0017 27.0859 -0.0004
# 4 -0.0004 -0.0019 -0.0017 -47.6194 0.0005 -45.4676
# 5 20.6339 28.6715 27.0859 0.0005 24.6743 0.0001
# 6 -0.0001 -0.0007 -0.0004 -45.4676 0.0001 -15.7566
#
#
#
# Elastic Compliance Matrix: (Units=1/GPa)
#
#
# Indices 1 2 3 4 5 6 
#
# 1 0.083986 -0.000857 0.023826 0.000000 -0.095392 -0.000003
# 2 -0.000857 0.028634 0.002753 0.000000 -0.035578 -0.000002
# 3 0.023826 0.002753 0.027941 0.000000 -0.053795 -0.000002
# 4 0.000000 0.000000 0.000000 0.011964 -0.000001 -0.034524
# 5 -0.095392 -0.035578 -0.053795 -0.000001 0.220695 0.000007
# 6 -0.000003 -0.000002 -0.000002 -0.034524 0.000007 0.036158
#
#
# Mechanical properties :
#
#
# Convention : Reuss Voigt Hill
#
# Bulk Modulus (GPa) = 5.20819 33.54756 19.37787
# Shear Modulus (GPa) = 11.85014 0.14334 5.99674
#
# Velocity S-wave (km/s) = 2.57203 0.28288 1.82967
# Velocity P-wave (km/s) = 3.42460 4.33989 3.90913
#
# Compressibility (1/GPa) = 0.19200532
#
# Stress axis : x y z
#
# Youngs Moduli (GPa) = 11.90671 34.92322 35.78982
#
# Poissons Ratio (x) = 0.02993 -0.85273
# Poissons Ratio (y) = 0.01021 -0.09853
# Poissons Ratio (z) = -0.28369 -0.09615
#
# Static dielectric constant tensor:
#      x y z
#    x 1.579310 0.000000 0.008150 
#    y 0.000000 1.616170 0.000000 
#    z 0.008150 0.000000 1.681960 
# 
# From -- ./inp_files/165167.got.cif
#   From: 2010.05.17/outbox.cif.g08.bks.cpg/sg12_83_cif.got.tgz:165167.got - 2010.06.03 13:09:07.
