data_PCOD9173955
_publ_section_title
;
Structure prediction by ZEFSAII (Michael W. Deem and Ramdas Pophale) SiO2 
 PCOD9173955
Probable space group: C 2/M
;
_chemical_formula_sum "Si O2"
_cell_formula_units_Z 64
_cell_length_a 19.773920
_cell_length_b 13.648334
_cell_length_c 20.795891
_cell_angle_alpha 90.000000
_cell_angle_beta 43.868068
_cell_angle_gamma 90.000000
_cell_volume 3889.405931
_symmetry_space_group_name_H-M "C 2/M"
_symmetry_group_IT_number 12
_symmetry_cell_setting 'monoclinic'
loop_
_space_group_symop_operation_xyz
x,y,z
-x,y,-z
-x,-y,-z
x,-y,z
1/2+x,1/2+y,z
1/2-x,1/2+y,-z
1/2-x,1/2-y,-z
1/2+x,1/2-y,z
loop_
_atom_site_type_symbol
_atom_site_label
_atom_site_fract_x
_atom_site_fract_y
_atom_site_fract_z
Si Si1 0.747022 0.796885 0.603737
Si Si2 0.617685 0.107214 0.913296
Si Si3 0.580876 0.114377 0.796790
Si Si4 0.318412 0.615718 0.929094
Si Si5 0.165535 0.117109 0.586835
Si Si6 0.877644 0.715079 0.967199
Si Si7 0.392508 0.615488 0.605820
Si Si8 0.438321 0.381818 0.720514
O O1 0.645721 0.844487 0.695715
O O2 0.788740 0.854260 0.513405
O O3 0.721815 0.685730 0.599668
O O4 0.822461 0.817609 0.610094
O O5 0.639986 0.122967 0.823780
O O6 0.658042 0.000000 0.906400
O O7 0.500000 0.099308 0.000000
O O8 0.642657 0.193503 0.944125
O O9 0.481267 0.171928 0.876018
O O10 0.559149 0.000000 0.803549
O O11 0.325665 0.500000 0.929467
O O12 0.371829 0.673868 0.949060
O O13 0.367623 0.647346 0.827517
O O14 0.207361 0.652384 0.008182
O O15 0.050390 0.144850 0.660363
O O16 0.172872 0.000000 0.593346
O O17 0.500000 0.617305 0.500000
O O18 0.359741 0.500000 0.626143
O O19 0.403752 0.648028 0.672662
O O20 0.437595 0.500000 0.718496
#
# Coordination Sequence:
#
# PCOD9173955 Si02
#       8
#     8   8   8   8   8   8   8   8
#     4  11  21  31  53  83 102 135 172 210 256 307
#     4   8  15  28  46  67  92 120 149 191 246 293
#     4  10  19  31  50  76 104 126 158 207 253 302
#     4  10  20  32  49  71  95 131 173 206 244 299
#     4  10  20  36  52  74 108 140 172 210 252 302
#     4  10  19  32  48  70 100 132 161 202 254 304
#     4  10  18  31  51  78 108 131 159 212 265 302
#     4   9  18  32  52  74 101 132 166 211 259 302
#
# _framework density 16.454954000000001
#
# number of rings (size 3 to 8) (size 9 to 14) (size 15 to 20)
#    0.000    2.250    1.250    3.750    1.750    0.000 
#    0.000    0.000    0.000    4.500    0.000    0.000 
#    0.000    0.000    0.000    0.000    0.000    0.000 
#
# Total GULP energy -178307.634184 kJ/mol
# GULP energy per Si atom -5572.113568 kJ/mol
# Density = 1.641750 g / cm^3
# Si number density = 16.454954 Si / 1000 Ang^3
#
#
#
# Elastic Constant Matrix: (Units=GPa)
#
#
# Indices 1 2 3 4 5 6 
#
# 1 81.7166 45.2915 15.0765 0.0000 -0.6680 0.0000
# 2 45.2915 72.0274 7.7774 0.0000 0.4392 0.0000
# 3 15.0765 7.7774 56.4385 0.0000 -8.2612 0.0000
# 4 0.0000 0.0000 0.0000 14.3927 0.0000 5.6297
# 5 -0.6680 0.4392 -8.2612 0.0000 22.4235 0.0000
# 6 0.0000 0.0000 0.0000 5.6297 0.0000 29.7906
#
#
#
# Elastic Compliance Matrix: (Units=1/GPa)
#
#
# Indices 1 2 3 4 5 6 
#
# 1 0.019472 -0.011847 -0.003647 0.000000 -0.000531 0.000000
# 2 -0.011847 0.021325 0.000120 0.000000 -0.000726 0.000000
# 3 -0.003647 0.000120 0.019723 0.000000 0.007156 0.000000
# 4 0.000000 0.000000 0.000000 0.075026 0.000000 -0.014178
# 5 -0.000531 -0.000726 0.007156 0.000000 0.047231 0.000000
# 6 0.000000 0.000000 0.000000 -0.014178 0.000000 0.036247
#
#
# Mechanical properties :
#
#
# Convention : Reuss Voigt Hill
#
# Bulk Modulus (GPa) = 33.58877 38.49704 36.04290
# Shear Modulus (GPa) = 19.25322 22.79048 21.02185
#
# Velocity S-wave (km/s) = 3.42432 3.72563 3.57815
# Velocity P-wave (km/s) = 6.00762 6.47713 6.24679
#
# Compressibility (1/GPa) = 0.02977186
#
# Stress axis : x y z
#
# Youngs Moduli (GPa) = 51.35484 46.89362 50.70104
#
# Poissons Ratio (x) = 0.55557 0.18490
# Poissons Ratio (y) = 0.60842 -0.00608
# Poissons Ratio (z) = 0.18729 -0.00562
#
# Static dielectric constant tensor:
#      x y z
#    x 1.600540 0.000000 -0.005590 
#    y 0.000000 1.533660 0.000000 
#    z -0.005590 0.000000 1.571750 
# 
# From -- ./inp_files/321266.got.cif
#   From: 2010.05.17/outbox.cif.g08.bks.cpg/sg12_161_cif.got.tgz:321266.got - 2010.06.03 13:09:07.
