data_PCOD9173136
_publ_section_title
;
Structure prediction by ZEFSAII (Michael W. Deem and Ramdas Pophale) SiO2 
 PCOD9173136
Probable space group: C 2/M
;
_chemical_formula_sum "Si O2"
_cell_formula_units_Z 64
_cell_length_a 22.403015
_cell_length_b 17.723973
_cell_length_c 21.689274
_cell_angle_alpha 90.000000
_cell_angle_beta 21.838356
_cell_angle_gamma 90.000000
_cell_volume 3203.635015
_symmetry_space_group_name_H-M "C 2/M"
_symmetry_group_IT_number 12
_symmetry_cell_setting 'monoclinic'
loop_
_space_group_symop_operation_xyz
x,y,z
-x,y,-z
-x,-y,-z
x,-y,z
1/2+x,1/2+y,z
1/2-x,1/2+y,-z
1/2-x,1/2-y,-z
1/2+x,1/2-y,z
loop_
_atom_site_type_symbol
_atom_site_label
_atom_site_fract_x
_atom_site_fract_y
_atom_site_fract_z
Si Si1 0.973119 0.726078 0.618147
Si Si2 0.150850 0.729307 0.900673
Si Si3 0.296826 0.177380 0.915465
Si Si4 0.013784 0.165785 0.847944
Si Si5 0.018272 0.415202 0.056453
Si Si6 0.397837 0.086259 0.352717
Si Si7 0.722811 0.183779 0.633509
Si Si8 0.672638 0.083749 0.433525
O O1 0.831830 0.753193 0.708067
O O2 0.886459 0.706770 0.767123
O O3 0.107836 0.788259 0.503393
O O4 0.062639 0.649798 0.512220
O O5 0.153201 0.649717 0.935163
O O6 0.000000 0.721106 0.000000
O O7 0.090627 0.800123 0.997033
O O8 0.425548 0.122777 0.824181
O O9 0.250000 0.250000 0.000000
O O10 0.124844 0.139051 0.065449
O O11 0.116638 0.239440 0.727545
O O12 0.141133 0.105845 0.749669
O O13 0.046536 0.500000 0.053245
O O14 0.866078 0.374239 0.234542
O O15 0.000000 0.423771 0.000000
O O16 0.277245 0.139833 0.430985
O O17 0.359688 0.085742 0.461755
O O18 0.391092 0.000000 0.337653
O O19 0.638335 0.000000 0.443255
#
# Coordination Sequence:
#
# PCOD9173136 Si02
#       8
#     8   8   8   8   8   8   8   8
#     4   9  20  33  54  80 102 139 178 214 270 317
#     4   9  18  36  57  79 102 131 179 225 261 315
#     4  10  18  30  50  75 104 139 177 214 250 314
#     4   9  18  31  53  77  98 138 176 210 262 311
#     4   9  18  34  54  74 102 138 172 216 269 310
#     4  10  20  31  47  73 106 144 175 214 265 307
#     4  10  18  32  51  74 105 134 179 217 257 313
#     4   9  19  34  51  75 109 140 173 216 265 320
#
# _framework density 19.977307
#
# number of rings (size 3 to 8) (size 9 to 14) (size 15 to 20)
#    0.000    2.625    1.250    0.375    1.750    2.000 
#    0.000   13.125    0.000    6.000    0.000    0.000 
#    0.000    0.000    0.000    0.000    0.000    0.000 
#
# Total GULP energy -178167.708058 kJ/mol
# GULP energy per Si atom -5567.740877 kJ/mol
# Density = 1.993184 g / cm^3
# Si number density = 19.977307 Si / 1000 Ang^3
#
#
#
# Elastic Constant Matrix: (Units=GPa)
#
#
# Indices 1 2 3 4 5 6 
#
# 1 37.9769 23.8706 17.4172 0.0004 -17.3988 -0.0006
# 2 23.8706 112.0575 52.0060 -0.0058 -24.6484 -0.0009
# 3 17.4172 52.0060 94.6536 -0.0024 -36.0172 0.0027
# 4 0.0004 -0.0058 -0.0024 39.7032 0.0008 -13.7738
# 5 -17.3988 -24.6484 -36.0172 0.0008 38.1740 0.0000
# 6 -0.0006 -0.0009 0.0027 -13.7738 0.0000 21.5479
#
#
#
# Elastic Compliance Matrix: (Units=1/GPa)
#
#
# Indices 1 2 3 4 5 6 
#
# 1 0.035413 -0.005219 0.001889 -0.000001 0.014553 0.000000
# 2 -0.005219 0.012888 -0.006021 0.000003 0.000262 0.000003
# 3 0.001889 -0.006021 0.019304 -0.000001 0.015187 -0.000003
# 4 -0.000001 0.000003 -0.000001 0.032364 -0.000001 0.020687
# 5 0.014553 0.000262 0.015187 -0.000001 0.047326 -0.000002
# 6 0.000000 0.000003 -0.000003 0.020687 -0.000002 0.059632
#
#
# Mechanical properties :
#
#
# Convention : Reuss Voigt Hill
#
# Bulk Modulus (GPa) = 20.44896 47.91953 34.18424
# Shear Modulus (GPa) = 20.66704 29.97797 25.32251
#
# Velocity S-wave (km/s) = 3.21989 3.87796 3.56415
# Velocity P-wave (km/s) = 4.90734 6.64007 5.83834
#
# Compressibility (1/GPa) = 0.04890225
#
# Stress axis : x y z
#
# Youngs Moduli (GPa) = 28.23796 77.59311 51.80217
#
# Poissons Ratio (x) = 0.40499 -0.09784
# Poissons Ratio (y) = 0.14738 0.31190
# Poissons Ratio (z) = -0.05334 0.46718
#
# Static dielectric constant tensor:
#      x y z
#    x 1.897380 0.000010 -0.008130 
#    y 0.000010 1.726880 0.000000 
#    z -0.008130 0.000000 1.728300 
# 
# From -- ./inp_files/350015.got.cif
#   From: 2010.05.17/outbox.cif.g08.bks.cpg/sg12_176_cif.got.tgz:350015.got - 2010.06.03 13:09:07.
