data_PCOD9173288
_publ_section_title
;
Structure prediction by ZEFSAII (Michael W. Deem and Ramdas Pophale) SiO2 
 PCOD9173288
Probable space group: C 2/M
;
_chemical_formula_sum "Si O2"
_cell_formula_units_Z 56
_cell_length_a 32.787175
_cell_length_b 9.803827
_cell_length_c 19.161859
_cell_angle_alpha 90.000000
_cell_angle_beta 31.481800
_cell_angle_gamma 90.000000
_cell_volume 3216.600903
_symmetry_space_group_name_H-M "C 2/M"
_symmetry_group_IT_number 12
_symmetry_cell_setting 'monoclinic'
loop_
_space_group_symop_operation_xyz
x,y,z
-x,y,-z
-x,-y,-z
x,-y,z
1/2+x,1/2+y,z
1/2-x,1/2+y,-z
1/2-x,1/2-y,-z
1/2+x,1/2-y,z
loop_
_atom_site_type_symbol
_atom_site_label
_atom_site_fract_x
_atom_site_fract_y
_atom_site_fract_z
Si Si1 0.011365 0.843865 0.900932
Si Si2 0.933745 0.161599 0.878068
Si Si3 0.177111 0.839708 0.082613
Si Si4 0.559126 0.837118 0.610591
Si Si5 0.154893 0.652362 0.688086
Si Si6 0.727800 0.849210 0.427625
Si Si7 0.487389 0.341916 0.600545
O O1 0.078326 0.738562 0.784097
O O2 0.938508 0.822105 0.954783
O O3 0.038028 0.000000 0.849585
O O4 0.000000 0.829430 0.000000
O O5 0.856399 0.194278 0.946113
O O6 0.002331 0.255183 0.746155
O O7 0.948836 0.000000 0.841604
O O8 0.101927 0.820625 0.243175
O O9 0.197771 0.000000 0.053761
O O10 0.250000 0.750000 0.000000
O O11 0.649397 0.818277 0.499581
O O12 0.539533 0.766404 0.565897
O O13 0.543438 0.000000 0.634936
O O14 0.136425 0.500000 0.738591
O O15 0.206570 0.734435 0.668461
O O16 0.200916 0.642772 0.547786
O O17 0.757591 0.000000 0.364047
O O18 0.500000 0.327090 0.500000
O O19 0.506943 0.500000 0.590591
#
# Coordination Sequence:
#
# PCOD9173288 Si02
#       7
#     8   8   8   8   8   8   8
#     4  10  20  34  52  72  99 137 175 213 260 312
#     4   9  18  33  52  73  99 133 175 213 254 312
#     4   9  18  33  54  79 102 132 172 214 261 311
#     4  10  18  30  51  78 104 129 167 215 258 303
#     4  10  19  31  48  71  98 129 166 208 251 296
#     4   9  18  31  47  71 100 128 161 206 254 299
#     4   9  19  36  55  76 106 141 175 213 259 317
#
# _framework density 17.409682
#
# number of rings (size 3 to 8) (size 9 to 14) (size 15 to 20)
#    0.000    2.571    1.429    1.714    0.000    4.571 
#    0.000    1.429    0.000    5.143    0.000    0.000 
#    0.000    0.000    0.000    0.000    0.000    0.000 
#
# Total GULP energy -155896.800003 kJ/mol
# GULP energy per Si atom -5567.742857 kJ/mol
# Density = 1.737006 g / cm^3
# Si number density = 17.409682 Si / 1000 Ang^3
#
#
#
# Elastic Constant Matrix: (Units=GPa)
#
#
# Indices 1 2 3 4 5 6 
#
# 1 150.1130 67.7731 37.0469 -0.0003 -13.7340 0.0001
# 2 67.7731 79.0219 26.7483 0.0012 -15.4797 -0.0013
# 3 37.0469 26.7483 16.3248 0.0000 -7.4221 -0.0008
# 4 -0.0003 0.0012 0.0000 0.5317 0.0002 21.6592
# 5 -13.7340 -15.4797 -7.4221 0.0002 25.3276 0.0003
# 6 0.0001 -0.0013 -0.0008 21.6592 0.0003 -20.9061
#
#
#
# Elastic Compliance Matrix: (Units=1/GPa)
#
#
# Indices 1 2 3 4 5 6 
#
# 1 0.015635 -0.003399 -0.031153 -0.000001 -0.002728 0.000001
# 2 -0.003399 0.029563 -0.038477 -0.000001 0.004950 -0.000002
# 3 -0.031153 -0.038477 0.203776 0.000006 0.019307 0.000001
# 4 -0.000001 -0.000001 0.000006 0.043533 0.000000 0.045101
# 5 -0.002728 0.004950 0.019307 0.000000 0.046686 -0.000001
# 6 0.000001 -0.000002 0.000001 0.045101 -0.000001 -0.001107
#
#
# Mechanical properties :
#
#
# Convention : Reuss Voigt Hill
#
# Bulk Modulus (GPa) = 9.71646 56.51069 33.11357
# Shear Modulus (GPa) = 9.64417 8.58340 9.11379
#
# Velocity S-wave (km/s) = 2.35618 2.22282 2.29047
# Velocity P-wave (km/s) = 3.60490 6.25442 5.10456
#
# Compressibility (1/GPa) = 0.10291814
#
# Stress axis : x y z
#
# Youngs Moduli (GPa) = 63.96030 33.82572 4.90735
#
# Poissons Ratio (x) = 0.11496 0.15288
# Poissons Ratio (y) = 0.21738 0.18882
# Poissons Ratio (z) = 1.99253 1.30150
#
# Static dielectric constant tensor:
#      x y z
#    x 1.622040 0.000000 0.013230 
#    y 0.000000 1.600970 0.000000 
#    z 0.013230 0.000000 1.586110 
# 
# From -- ./inp_files/292389.got.cif
#   From: 2010.05.17/outbox.cif.g08.bks.cpg/sg12_147_cif.got.tgz:292389.got - 2010.06.03 13:09:07.
