data_PCOD9173745
_publ_section_title
;
Structure prediction by ZEFSAII (Michael W. Deem and Ramdas Pophale) SiO2 
 PCOD9173745
Probable space group: C 2/M
;
_chemical_formula_sum "Si O2"
_cell_formula_units_Z 48
_cell_length_a 24.956296
_cell_length_b 8.467674
_cell_length_c 24.345476
_cell_angle_alpha 90.000000
_cell_angle_beta 34.837202
_cell_angle_gamma 90.000000
_cell_volume 2938.909206
_symmetry_space_group_name_H-M "C 2/M"
_symmetry_group_IT_number 12
_symmetry_cell_setting 'monoclinic'
loop_
_space_group_symop_operation_xyz
x,y,z
-x,y,-z
-x,-y,-z
x,-y,z
1/2+x,1/2+y,z
1/2-x,1/2+y,-z
1/2-x,1/2-y,-z
1/2+x,1/2-y,z
loop_
_atom_site_type_symbol
_atom_site_label
_atom_site_fract_x
_atom_site_fract_y
_atom_site_fract_z
Si Si1 0.461811 0.807982 0.770207
Si Si2 0.654752 0.190026 0.553216
Si Si3 0.208824 0.690260 0.166075
Si Si4 0.122787 0.688319 0.349985
Si Si5 0.668490 0.810984 0.027782
Si Si6 0.415859 0.686640 0.501610
O O1 0.563805 0.755870 0.664938
O O2 0.381891 0.757042 0.793664
O O3 0.426346 0.760643 0.860794
O O4 0.461901 0.000000 0.768981
O O5 0.750000 0.250000 0.500000
O O6 0.639884 0.254809 0.504418
O O7 0.654551 0.000000 0.551761
O O8 0.208502 0.500000 0.165219
O O9 0.191736 0.740270 0.243053
O O10 0.301568 0.747942 0.056771
O O11 0.130402 0.500000 0.350840
O O12 0.134341 0.771342 0.398774
O O13 0.016843 0.726965 0.419234
O O14 0.670855 0.000000 0.024443
O O15 0.750000 0.750000 0.000000
O O16 0.432144 0.500000 0.485078
#
# Coordination Sequence:
#
# PCOD9173745 Si02
#       6
#     8   8   8   8   8   8
#     4   8  15  29  45  62  91 126 157 190 233 283
#     4  11  21  36  52  69  94 129 167 203 240 283
#     4   9  16  28  45  68  94 126 157 186 234 288
#     4  10  18  31  50  69  96 133 161 191 242 293
#     4   9  16  26  41  64  91 123 156 189 231 282
#     4  11  21  32  46  71  98 124 163 203 240 284
#
# _framework density 16.33259
#
# number of rings (size 3 to 8) (size 9 to 14) (size 15 to 20)
#    0.000    2.333    1.667    5.000    0.000    1.333 
#    0.000    2.500    0.000    0.000    0.000    1.167 
#    0.000    9.333    0.000    0.000    0.000    0.000 
#
# Total GULP energy -133729.163532 kJ/mol
# GULP energy per Si atom -5572.048480 kJ/mol
# Density = 1.629542 g / cm^3
# Si number density = 16.332590 Si / 1000 Ang^3
#
#
#
# Elastic Constant Matrix: (Units=GPa)
#
#
# Indices 1 2 3 4 5 6 
#
# 1 76.7731 3.4292 57.3408 -0.0020 13.8068 0.0019
# 2 3.4292 18.0935 10.3052 -0.0030 2.6029 0.0032
# 3 57.3408 10.3052 124.5729 -0.0018 31.6679 0.0023
# 4 -0.0020 -0.0030 -0.0018 22.7135 0.0016 3.9393
# 5 13.8068 2.6029 31.6679 0.0016 28.2111 -0.0019
# 6 0.0019 0.0032 0.0023 3.9393 -0.0019 21.5257
#
#
#
# Elastic Compliance Matrix: (Units=1/GPa)
#
#
# Indices 1 2 3 4 5 6 
#
# 1 0.019901 0.001518 -0.009479 0.000001 0.000761 -0.000001
# 2 0.001518 0.058117 -0.005533 0.000009 0.000106 -0.000010
# 3 -0.009479 -0.005533 0.016147 0.000001 -0.012976 -0.000001
# 4 0.000001 0.000009 0.000001 0.045470 -0.000005 -0.008321
# 5 0.000761 0.000106 -0.012976 -0.000005 0.049630 0.000007
# 6 -0.000001 -0.000010 -0.000001 -0.008321 0.000007 0.047979
#
#
# Mechanical properties :
#
#
# Convention : Reuss Voigt Hill
#
# Bulk Modulus (GPa) = 14.88647 40.17665 27.53156
# Shear Modulus (GPa) = 17.44436 24.38103 20.91270
#
# Velocity S-wave (km/s) = 3.27168 3.86785 3.58219
# Velocity P-wave (km/s) = 4.83800 6.67828 5.83120
#
# Compressibility (1/GPa) = 0.06717511
#
# Stress axis : x y z
#
# Youngs Moduli (GPa) = 50.24954 17.20662 61.93068
#
# Poissons Ratio (x) = -0.02611 0.58706
# Poissons Ratio (y) = -0.07626 0.34268
# Poissons Ratio (z) = 0.47633 0.09521
#
# Static dielectric constant tensor:
#      x y z
#    x 1.519580 0.000000 0.042080 
#    y 0.000000 1.555670 0.000000 
#    z 0.042080 0.000000 1.588520 
# 
# From -- ./inp_files/345402.got.cif
#   From: 2010.05.17/outbox.cif.g08.bks.cpg/sg12_173_cif.got.tgz:345402.got - 2010.06.03 13:09:07.
