data_PCOD9173218
_publ_section_title
;
Structure prediction by ZEFSAII (Michael W. Deem and Ramdas Pophale) SiO2 
 PCOD9173218
Probable space group: C 2/M
;
_chemical_formula_sum "Si O2"
_cell_formula_units_Z 64
_cell_length_a 31.901026
_cell_length_b 7.873642
_cell_length_c 15.254989
_cell_angle_alpha 90.000000
_cell_angle_beta 118.917373
_cell_angle_gamma 90.000000
_cell_volume 3353.961304
_symmetry_space_group_name_H-M "C 2/M"
_symmetry_group_IT_number 12
_symmetry_cell_setting 'monoclinic'
loop_
_space_group_symop_operation_xyz
x,y,z
-x,y,-z
-x,-y,-z
x,-y,z
1/2+x,1/2+y,z
1/2-x,1/2+y,-z
1/2-x,1/2-y,-z
1/2+x,1/2-y,z
loop_
_atom_site_type_symbol
_atom_site_label
_atom_site_fract_x
_atom_site_fract_y
_atom_site_fract_z
Si Si1 0.424884 0.707427 0.772876
Si Si2 0.299083 0.202677 0.942200
Si Si3 0.612548 0.702507 0.080353
Si Si4 0.035670 0.206076 0.860111
Si Si5 0.892421 0.701038 0.361124
Si Si6 0.481574 0.198332 0.348296
Si Si7 0.309876 0.795488 0.150026
Si Si8 0.910723 0.804402 0.567451
O O1 0.422723 0.500000 0.767529
O O2 0.398415 0.768154 0.833350
O O3 0.481388 0.749644 0.833659
O O4 0.404416 0.769584 0.658798
O O5 0.334998 0.264829 0.904253
O O6 0.243931 0.253334 0.874632
O O7 0.301606 0.000000 0.946878
O O8 0.315016 0.268051 0.054991
O O9 0.605144 0.500000 0.077193
O O10 0.574020 0.766165 0.970045
O O11 0.043423 0.283848 0.771967
O O12 0.038253 0.000000 0.855022
O O13 0.895044 0.500000 0.346638
O O14 0.944153 0.767289 0.381400
O O15 0.849958 0.770455 0.257386
O O16 0.886000 0.724861 0.457869
O O17 0.532071 0.291447 0.391314
O O18 0.492670 0.000000 0.377232
O O19 0.313578 0.000000 0.151043
O O20 0.896347 0.000000 0.554862
#
# Coordination Sequence:
#
# PCOD9173218 Si02
#       8
#     8   8   8   8   8   8   8   8
#     4   8  16  31  48  68  96 130 166 201 236 277
#     4  10  20  34  52  76 103 125 153 196 239 283
#     4  10  18  30  51  73  96 130 165 195 237 292
#     4   9  17  29  47  72  99 128 165 203 234 274
#     4  10  20  33  50  71  96 128 163 197 239 291
#     4  10  19  31  47  69 101 135 161 192 240 291
#     4   9  19  36  54  72  98 130 158 188 237 296
#     4  10  20  33  49  70  97 129 167 207 238 271
#
# _framework density 19.081914999999999
#
# number of rings (size 3 to 8) (size 9 to 14) (size 15 to 20)
#    0.000    2.500    0.000    3.375    0.000    6.500 
#    0.000    3.125    0.000    4.500    0.000    0.000 
#    0.000    0.000    0.000    0.000    0.000    0.000 
#
# Total GULP energy -178546.348508 kJ/mol
# GULP energy per Si atom -5579.573391 kJ/mol
# Density = 1.903848 g / cm^3
# Si number density = 19.081915 Si / 1000 Ang^3
#
#
#
# Elastic Constant Matrix: (Units=GPa)
#
#
# Indices 1 2 3 4 5 6 
#
# 1 69.7213 -7.0174 28.1776 0.0000 -24.9761 0.0000
# 2 -7.0174 16.7714 -2.9196 0.0000 -2.8291 0.0000
# 3 28.1776 -2.9196 82.2112 0.0000 -12.1162 0.0000
# 4 0.0000 0.0000 0.0000 21.9255 0.0000 -1.8618
# 5 -24.9761 -2.8291 -12.1162 0.0000 23.1900 0.0000
# 6 0.0000 0.0000 0.0000 -1.8618 0.0000 16.8843
#
#
#
# Elastic Compliance Matrix: (Units=1/GPa)
#
#
# Indices 1 2 3 4 5 6 
#
# 1 0.028914 0.016427 -0.004812 0.000000 0.030631 0.000000
# 2 0.016427 0.071171 0.000850 0.000000 0.026819 0.000000
# 3 -0.004812 0.000850 0.014187 0.000000 0.002333 0.000000
# 4 0.000000 0.000000 0.000000 0.046040 0.000000 0.005077
# 5 0.030631 0.026819 0.002333 0.000000 0.080603 0.000000
# 6 0.000000 0.000000 0.000000 0.005077 0.000000 0.059786
#
#
# Mechanical properties :
#
#
# Convention : Reuss Voigt Hill
#
# Bulk Modulus (GPa) = 7.18387 22.79835 14.99111
# Shear Modulus (GPa) = 15.51966 22.43086 18.97526
#
# Velocity S-wave (km/s) = 2.85497 3.43228 3.15685
# Velocity P-wave (km/s) = 3.82632 5.26127 4.60009
#
# Compressibility (1/GPa) = 0.13920069
#
# Stress axis : x y z
#
# Youngs Moduli (GPa) = 34.58547 14.05074 70.48579
#
# Poissons Ratio (x) = -0.23081 0.33921
# Poissons Ratio (y) = -0.56814 -0.05989
# Poissons Ratio (z) = 0.16644 -0.01194
#
# Static dielectric constant tensor:
#      x y z
#    x 1.644210 0.000000 -0.020150 
#    y 0.000000 1.682830 0.000000 
#    z -0.020150 0.000000 1.690970 
# 
# From -- ./inp_files/249161.got.cif
#   From: 2010.05.17/outbox.cif.g08.bks.cpg/sg12_125_cif.got.tgz:249161.got - 2010.06.03 13:09:07.
