data_PCOD9173890
_publ_section_title
;
Structure prediction by ZEFSAII (Michael W. Deem and Ramdas Pophale) SiO2 
 PCOD9173890
Probable space group: C 2/M
;
_chemical_formula_sum "Si O2"
_cell_formula_units_Z 64
_cell_length_a 21.968358
_cell_length_b 20.752012
_cell_length_c 17.719022
_cell_angle_alpha 90.000000
_cell_angle_beta 29.263958
_cell_angle_gamma 90.000000
_cell_volume 3948.742032
_symmetry_space_group_name_H-M "C 2/M"
_symmetry_group_IT_number 12
_symmetry_cell_setting 'monoclinic'
loop_
_space_group_symop_operation_xyz
x,y,z
-x,y,-z
-x,-y,-z
x,-y,z
1/2+x,1/2+y,z
1/2-x,1/2+y,-z
1/2-x,1/2-y,-z
1/2+x,1/2-y,z
loop_
_atom_site_type_symbol
_atom_site_label
_atom_site_fract_x
_atom_site_fract_y
_atom_site_fract_z
Si Si1 0.350670 0.922611 0.377217
Si Si2 0.890556 0.138474 0.292612
Si Si3 0.996298 0.329738 0.681364
Si Si4 0.582845 0.749074 0.099365
Si Si5 0.230361 0.727739 0.355587
Si Si6 0.428344 0.838576 0.154431
Si Si7 0.074655 0.926155 0.991517
Si Si8 0.211132 0.326450 0.210348
O O1 0.215152 0.891068 0.540006
O O2 0.438413 0.890033 0.347003
O O3 0.397028 0.896364 0.245885
O O4 0.348815 0.000000 0.383642
O O5 0.820801 0.176103 0.299553
O O6 0.985709 0.191351 0.222596
O O7 0.977998 0.083209 0.164023
O O8 0.910472 0.295236 0.836343
O O9 0.914942 0.345167 0.695944
O O10 0.104827 0.279678 0.539984
O O11 0.519495 0.790431 0.101277
O O12 0.709237 0.720333 0.930218
O O13 0.303880 0.795413 0.275660
O O14 0.197515 0.706973 0.306239
O O15 0.500000 0.856602 0.000000
O O16 0.104158 0.000000 0.945188
O O17 0.198332 0.886725 0.873627
O O18 0.000000 0.899536 0.000000
#
# Coordination Sequence:
#
# PCOD9173890 Si02
#       8
#     8   8   8   8   8   8   8   8
#     4  10  21  35  50  71 103 139 168 200 243 294
#     4   9  17  31  53  71  96 125 165 206 250 283
#     4  10  21  33  46  72 105 133 164 193 246 306
#     4   9  18  31  52  75  97 125 158 212 254 293
#     4  10  18  31  51  74 100 127 158 206 255 296
#     4  10  18  32  55  77  97 125 164 213 259 290
#     4  10  19  30  47  70  95 126 169 206 233 273
#     4  11  19  31  50  72 100 132 162 199 247 302
#
# _framework density 16.207692999999999
#
# number of rings (size 3 to 8) (size 9 to 14) (size 15 to 20)
#    0.000    2.125    2.500    1.875    0.000    3.750 
#    0.000    0.000    0.000    2.250    0.000    0.000 
#    0.000    3.000    0.000    0.000    0.000    0.000 
#
# Total GULP energy -178254.327826 kJ/mol
# GULP energy per Si atom -5570.447745 kJ/mol
# Density = 1.617080 g / cm^3
# Si number density = 16.207693 Si / 1000 Ang^3
#
#
#
# Elastic Constant Matrix: (Units=GPa)
#
#
# Indices 1 2 3 4 5 6 
#
# 1 67.8916 9.8756 15.1974 0.0005 8.0477 -0.0004
# 2 9.8756 50.0542 19.3181 0.0005 13.5610 -0.0005
# 3 15.1974 19.3181 55.3566 0.0001 19.0417 -0.0004
# 4 0.0005 0.0005 0.0001 7.6674 0.0000 7.9499
# 5 8.0477 13.5610 19.0417 0.0000 21.2500 0.0000
# 6 -0.0004 -0.0005 -0.0004 7.9499 0.0000 7.6453
#
#
#
# Elastic Compliance Matrix: (Units=1/GPa)
#
#
# Indices 1 2 3 4 5 6 
#
# 1 0.015894 -0.001288 -0.003074 0.000018 -0.002443 -0.000018
# 2 -0.001288 0.025068 -0.004423 0.000037 -0.011546 -0.000038
# 3 -0.003074 -0.004423 0.027583 0.000013 -0.020730 -0.000013
# 4 0.000018 0.000037 0.000013 -1.669005 -0.000045 1.735498
# 5 -0.002443 -0.011546 -0.020730 -0.000045 0.073929 0.000044
# 6 -0.000018 -0.000038 -0.000013 1.735498 0.000044 -1.673841
#
#
# Mechanical properties :
#
#
# Convention : Reuss Voigt Hill
#
# Bulk Modulus (GPa) = 19.61692 29.12053 24.36873
# Shear Modulus (GPa) = -1.57937 15.90661 7.16362
#
# Velocity S-wave (km/s) = -0.98822 3.13617 2.10463
# Velocity P-wave (km/s) = 3.29054 5.57855 4.57973
#
# Compressibility (1/GPa) = 0.05097639
#
# Stress axis : x y z
#
# Youngs Moduli (GPa) = 62.91544 39.89221 36.25463
#
# Poissons Ratio (x) = 0.05137 0.11144
# Poissons Ratio (y) = 0.08101 0.16034
# Poissons Ratio (z) = 0.19339 0.17643
#
# Static dielectric constant tensor:
#      x y z
#    x 1.549950 0.000000 0.008120 
#    y 0.000000 1.525300 0.000000 
#    z 0.008120 0.000000 1.552770 
# 
# From -- ./inp_files/159243.got.cif
#   From: 2010.05.17/outbox.cif.g08.bks.cpg/sg12_80_cif.got.tgz:159243.got - 2010.06.03 13:09:07.
