data_PCOD9173432
_publ_section_title
;
Structure prediction by ZEFSAII (Michael W. Deem and Ramdas Pophale) SiO2 
 PCOD9173432
Probable space group: C 2/M
;
_chemical_formula_sum "Si O2"
_cell_formula_units_Z 64
_cell_length_a 23.542850
_cell_length_b 14.380625
_cell_length_c 19.272016
_cell_angle_alpha 90.000000
_cell_angle_beta 149.112720
_cell_angle_gamma 90.000000
_cell_volume 3349.485795
_symmetry_space_group_name_H-M "C 2/M"
_symmetry_group_IT_number 12
_symmetry_cell_setting 'monoclinic'
loop_
_space_group_symop_operation_xyz
x,y,z
-x,y,-z
-x,-y,-z
x,-y,z
1/2+x,1/2+y,z
1/2-x,1/2+y,-z
1/2-x,1/2-y,-z
1/2+x,1/2-y,z
loop_
_atom_site_type_symbol
_atom_site_label
_atom_site_fract_x
_atom_site_fract_y
_atom_site_fract_z
Si Si1 0.820469 0.603768 0.323843
Si Si2 0.113310 0.198920 0.583347
Si Si3 0.996039 0.792869 0.187524
Si Si4 0.199212 0.107870 0.799581
Si Si5 0.531053 0.389098 0.366485
Si Si6 0.259970 0.390865 0.918626
Si Si7 0.396311 0.107517 0.116098
Si Si8 0.584471 0.606178 0.151261
O O1 0.867647 0.500000 0.382147
O O2 0.890841 0.690043 0.424508
O O3 0.790510 0.617218 0.211207
O O4 0.706040 0.608101 0.246419
O O5 0.204364 0.168283 0.735087
O O6 0.116171 0.152861 0.511479
O O7 0.000000 0.163475 0.500000
O O8 0.987897 0.683913 0.195560
O O9 0.042294 0.845538 0.303005
O O10 0.064068 0.822217 0.191343
O O11 0.870204 0.830392 0.043182
O O12 0.092746 0.134966 0.734668
O O13 0.182994 0.000000 0.762253
O O14 0.305937 0.113598 0.959796
O O15 0.539182 0.500000 0.372627
O O16 0.290159 0.500000 0.961042
O O17 0.169091 0.367630 0.881597
O O18 0.433137 0.000000 0.159977
O O19 0.561464 0.500000 0.152060
O O20 0.500000 0.624485 0.000000
#
# Coordination Sequence:
#
# PCOD9173432 Si02
#       8
#     8   8   8   8   8   8   8   8
#     4  10  21  36  55  80 112 143 179 225 269 323
#     4  10  21  34  52  75 106 145 186 221 265 317
#     4  12  20  31  56  80 109 142 178 222 276 326
#     4   9  17  31  49  73 107 141 173 218 269 317
#     4  10  20  33  51  77 105 137 182 228 265 310
#     4  10  18  30  52  83 114 138 169 223 284 332
#     4  10  21  32  49  81 117 145 174 217 277 339
#     4  10  20  35  56  84 111 137 176 226 275 320
#
# _framework density 19.107410999999999
#
# number of rings (size 3 to 8) (size 9 to 14) (size 15 to 20)
#    0.000    1.875    2.500    2.625    3.500    1.750 
#    0.000    1.250    0.000    1.875    0.000    0.000 
#    0.000    0.000    0.000    0.000    0.000    0.000 
#
# Total GULP energy -178695.600434 kJ/mol
# GULP energy per Si atom -5584.237514 kJ/mol
# Density = 1.906392 g / cm^3
# Si number density = 19.107411 Si / 1000 Ang^3
#
#
#
# Elastic Constant Matrix: (Units=GPa)
#
#
# Indices 1 2 3 4 5 6 
#
# 1 74.7792 40.7958 32.5161 0.0000 -20.6358 0.0000
# 2 40.7958 95.7177 28.0129 0.0000 -19.4723 0.0000
# 3 32.5161 28.0129 19.5277 0.0000 -13.5811 0.0000
# 4 0.0000 0.0000 0.0000 33.1698 0.0000 2.6116
# 5 -20.6358 -19.4723 -13.5811 0.0000 19.8227 0.0000
# 6 0.0000 0.0000 0.0000 2.6116 0.0000 28.6968
#
#
#
# Elastic Compliance Matrix: (Units=1/GPa)
#
#
# Indices 1 2 3 4 5 6 
#
# 1 0.050911 0.005364 -0.099223 0.000000 -0.009711 0.000000
# 2 0.005364 0.018573 -0.036299 0.000000 -0.001041 0.000000
# 3 -0.099223 -0.036299 0.328290 0.000000 0.085970 0.000000
# 4 0.000000 0.000000 0.000000 0.030365 0.000000 -0.002763
# 5 -0.009711 -0.001041 0.085970 0.000000 0.098216 0.000000
# 6 0.000000 0.000000 0.000000 -0.002763 0.000000 0.035099
#
#
# Mechanical properties :
#
#
# Convention : Reuss Voigt Hill
#
# Bulk Modulus (GPa) = 7.27490 43.63046 25.45268
# Shear Modulus (GPa) = 5.76310 22.25118 14.00714
#
# Velocity S-wave (km/s) = 1.73859 3.41622 2.71047
# Velocity P-wave (km/s) = 2.80106 6.20038 4.81096
#
# Compressibility (1/GPa) = 0.13745891
#
# Stress axis : x y z
#
# Youngs Moduli (GPa) = 19.64204 53.84239 3.04609
#
# Poissons Ratio (x) = -0.28883 0.30224
# Poissons Ratio (y) = -0.10537 0.11057
# Poissons Ratio (z) = 1.94894 1.95443
#
# Static dielectric constant tensor:
#      x y z
#    x 1.647930 0.000000 -0.005510 
#    y 0.000000 1.697730 0.000000 
#    z -0.005510 0.000000 1.678090 
# 
# From -- ./inp_files/290160.got.cif
#   From: 2010.05.17/outbox.cif.g08.bks.cpg/sg12_146_cif.got.tgz:290160.got - 2010.06.03 13:09:07.
