data_PCOD9173836
_publ_section_title
;
Structure prediction by ZEFSAII (Michael W. Deem and Ramdas Pophale) SiO2 
 PCOD9173836
Probable space group: C 2/M
;
_chemical_formula_sum "Si O2"
_cell_formula_units_Z 48
_cell_length_a 26.247690
_cell_length_b 11.154384
_cell_length_c 23.659079
_cell_angle_alpha 90.000000
_cell_angle_beta 22.052320
_cell_angle_gamma 90.000000
_cell_volume 2600.699711
_symmetry_space_group_name_H-M "C 2/M"
_symmetry_group_IT_number 12
_symmetry_cell_setting 'monoclinic'
loop_
_space_group_symop_operation_xyz
x,y,z
-x,y,-z
-x,-y,-z
x,-y,z
1/2+x,1/2+y,z
1/2-x,1/2+y,-z
1/2-x,1/2-y,-z
1/2+x,1/2-y,z
loop_
_atom_site_type_symbol
_atom_site_label
_atom_site_fract_x
_atom_site_fract_y
_atom_site_fract_z
Si Si1 0.068352 0.238824 0.818941
Si Si2 0.771135 0.137667 0.135529
Si Si3 0.467167 0.000000 0.129692
Si Si4 0.218518 0.500000 0.792162
Si Si5 0.734817 0.137672 0.473857
Si Si6 0.791914 0.257194 0.684099
Si Si7 0.989745 0.357921 0.388193
O O1 0.069826 0.378719 0.800087
O O2 0.144880 0.155564 0.695723
O O3 0.153058 0.231090 0.790284
O O4 0.912164 0.206329 0.987104
O O5 0.715523 0.152250 0.256333
O O6 0.646561 0.179879 0.224536
O O7 0.799959 0.000000 0.092918
O O8 0.377733 0.000000 0.164389
O O9 0.621063 0.000000 0.947277
O O10 0.299282 0.623993 0.703016
O O11 0.750000 0.250000 0.500000
O O12 0.595878 0.153973 0.581040
O O13 0.739262 0.000000 0.491349
O O14 0.911207 0.286252 0.517860
O O15 0.987484 0.500000 0.405249
#
# Coordination Sequence:
#
# PCOD9173836 Si02
#       7
#     8   8   4   4   8   8   8
#     4  10  20  33  55  80 109 140 186 226 263 314
#     4  11  20  31  51  78 112 148 178 214 263 318
#     4   9  16  30  49  74 111 146 179 220 263 308
#     4   9  16  28  46  73 108 149 184 215 250 301
#     4  10  22  41  64  84 103 133 180 232 280 330
#     4  10  18  31  50  77 110 150 184 215 250 312
#     4   9  20  37  53  76 110 144 177 218 272 323
#
# _framework density 18.456571
#
# number of rings (size 3 to 8) (size 9 to 14) (size 15 to 20)
#    0.000    2.167    1.667    2.000    1.167    4.000 
#    1.500    3.333    0.000    0.000    0.000    0.000 
#    0.000    0.000    0.000    0.000    0.000    0.000 
#
# Total GULP energy -133800.044229 kJ/mol
# GULP energy per Si atom -5575.001843 kJ/mol
# Density = 1.841456 g / cm^3
# Si number density = 18.456571 Si / 1000 Ang^3
#
#
#
# Elastic Constant Matrix: (Units=GPa)
#
#
# Indices 1 2 3 4 5 6 
#
# 1 49.1316 28.9890 27.8508 0.0001 -11.1730 0.0000
# 2 28.9890 79.7052 20.3614 0.0003 -9.2872 -0.0002
# 3 27.8508 20.3614 54.1003 0.0003 -29.2650 -0.0003
# 4 0.0001 0.0003 0.0003 24.4990 -0.0002 7.7462
# 5 -11.1730 -9.2872 -29.2650 -0.0002 24.6453 0.0001
# 6 0.0000 -0.0002 -0.0003 7.7462 0.0001 26.9948
#
#
#
# Elastic Compliance Matrix: (Units=1/GPa)
#
#
# Indices 1 2 3 4 5 6 
#
# 1 0.034863 -0.008627 -0.022114 0.000000 -0.013705 0.000000
# 2 -0.008627 0.016081 -0.001255 0.000000 0.000659 0.000000
# 3 -0.022114 -0.001255 0.068952 0.000000 0.071378 0.000000
# 4 0.000000 0.000000 0.000000 0.044891 0.000000 -0.012881
# 5 -0.013705 0.000659 0.071378 0.000000 0.119369 0.000000
# 6 0.000000 0.000000 0.000000 -0.012881 0.000000 0.040740
#
#
# Mechanical properties :
#
#
# Convention : Reuss Voigt Hill
#
# Bulk Modulus (GPa) = 17.88767 37.48216 27.68492
# Shear Modulus (GPa) = 12.26927 22.27688 17.27307
#
# Velocity S-wave (km/s) = 2.58110 3.47794 3.06253
# Velocity P-wave (km/s) = 4.31226 6.03991 5.24767
#
# Compressibility (1/GPa) = 0.05590443
#
# Stress axis : x y z
#
# Youngs Moduli (GPa) = 28.68397 62.18397 14.50288
#
# Poissons Ratio (x) = 0.53648 0.32071
# Poissons Ratio (y) = 0.24747 0.01820
# Poissons Ratio (z) = 0.63431 0.07802
#
# Static dielectric constant tensor:
#      x y z
#    x 1.633400 0.000000 -0.023300 
#    y 0.000000 1.652360 0.000000 
#    z -0.023300 0.000000 1.635150 
# 
# From -- ./inp_files/109517.got.cif
#   From: 2010.05.17/outbox.cif.g08.bks.cpg/sg12_55_cif.got.tgz:109517.got - 2010.06.03 13:09:07.
