data_PCOD9173071
_publ_section_title
;
Structure prediction by ZEFSAII (Michael W. Deem and Ramdas Pophale) SiO2 
 PCOD9173071
Probable space group: C 2/M
;
_chemical_formula_sum "Si O2"
_cell_formula_units_Z 48
_cell_length_a 18.989451
_cell_length_b 8.675050
_cell_length_c 25.008175
_cell_angle_alpha 90.000000
_cell_angle_beta 41.732856
_cell_angle_gamma 90.000000
_cell_volume 2742.317993
_symmetry_space_group_name_H-M "C 2/M"
_symmetry_group_IT_number 12
_symmetry_cell_setting 'monoclinic'
loop_
_space_group_symop_operation_xyz
x,y,z
-x,y,-z
-x,-y,-z
x,-y,z
1/2+x,1/2+y,z
1/2-x,1/2+y,-z
1/2-x,1/2-y,-z
1/2+x,1/2-y,z
loop_
_atom_site_type_symbol
_atom_site_label
_atom_site_fract_x
_atom_site_fract_y
_atom_site_fract_z
Si Si1 0.663517 0.685518 0.008537
Si Si2 0.069115 0.315737 0.837687
Si Si3 0.625156 0.321558 0.913995
Si Si4 0.632196 0.815192 0.577060
Si Si5 0.085933 0.813905 0.494873
Si Si6 0.325412 0.812736 0.331909
O O1 0.664243 0.500000 0.008314
O O2 0.547260 0.743136 0.091089
O O3 0.750000 0.750000 0.000000
O O4 0.681404 0.734801 0.936344
O O5 0.058283 0.500000 0.841829
O O6 0.134339 0.270719 0.853910
O O7 0.125038 0.259909 0.751725
O O8 0.653517 0.500000 0.888400
O O9 0.500000 0.317940 0.000000
O O10 0.750000 0.750000 0.500000
O O11 0.564831 0.749712 0.566241
O O12 0.609438 0.769892 0.651414
O O13 0.634071 0.000000 0.573024
O O14 0.203589 0.763945 0.409610
O O15 0.000000 0.765720 0.500000
O O16 0.086276 0.000000 0.497635
O O17 0.323887 0.000000 0.331107
#
# Coordination Sequence:
#
# PCOD9173071 Si02
#       6
#     8   8   8   8   8   8
#     4  10  20  34  51  71  96 124 157 196 237 279
#     4  10  18  30  50  72  96 126 158 191 232 283
#     4   8  16  31  48  67  93 122 153 192 233 274
#     4   9  16  29  48  68  93 124 160 196 232 280
#     4   9  17  31  50  70  95 126 159 196 238 280
#     4   8  16  30  47  69  96 125 155 193 239 280
#
# _framework density 17.503440000000001
#
# number of rings (size 3 to 8) (size 9 to 14) (size 15 to 20)
#    0.000    3.000    0.000    3.500    0.000    4.000 
#    0.000   10.000    0.000    4.000    0.000    0.000 
#    0.000    0.000    0.000    0.000    0.000    0.000 
#
# Total GULP energy -133616.236549 kJ/mol
# GULP energy per Si atom -5567.343190 kJ/mol
# Density = 1.746360 g / cm^3
# Si number density = 17.503440 Si / 1000 Ang^3
#
#
#
# Elastic Constant Matrix: (Units=GPa)
#
#
# Indices 1 2 3 4 5 6 
#
# 1 166.7138 34.7170 63.5554 0.0000 41.2372 0.0000
# 2 34.7170 33.0446 23.8453 0.0000 12.4705 0.0000
# 3 63.5554 23.8453 97.7884 0.0000 39.7442 0.0000
# 4 0.0000 0.0000 0.0000 17.4754 0.0000 7.7597
# 5 41.2372 12.4705 39.7442 0.0000 31.0381 0.0000
# 6 0.0000 0.0000 0.0000 7.7597 0.0000 29.3638
#
#
#
# Elastic Compliance Matrix: (Units=1/GPa)
#
#
# Indices 1 2 3 4 5 6 
#
# 1 0.010054 -0.006151 -0.001272 0.000000 -0.009258 0.000000
# 2 -0.006151 0.041201 -0.005510 0.000000 -0.001325 0.000000
# 3 -0.001272 -0.005510 0.022541 0.000000 -0.024960 0.000000
# 4 0.000000 0.000000 0.000000 0.064831 0.000000 -0.017132
# 5 -0.009258 -0.001325 -0.024960 0.000000 0.077012 0.000000
# 6 0.000000 0.000000 0.000000 -0.017132 0.000000 0.038583
#
#
# Mechanical properties :
#
#
# Convention : Reuss Voigt Hill
#
# Bulk Modulus (GPa) = 20.86392 60.19801 40.53096
# Shear Modulus (GPa) = 16.88820 27.27073 22.07947
#
# Velocity S-wave (km/s) = 3.10957 3.95146 3.55552
# Velocity P-wave (km/s) = 4.98381 7.43542 6.32945
#
# Compressibility (1/GPa) = 0.04792964
#
# Stress axis : x y z
#
# Youngs Moduli (GPa) = 99.46199 24.27110 44.36403
#
# Poissons Ratio (x) = 0.14930 0.05642
# Poissons Ratio (y) = 0.61184 0.24445
# Poissons Ratio (z) = 0.12649 0.13373
#
# Static dielectric constant tensor:
#      x y z
#    x 1.628540 0.000000 0.028910 
#    y 0.000000 1.593890 0.000000 
#    z 0.028910 0.000000 1.598770 
# 
# From -- ./inp_files/341899.got.cif
#   From: 2010.05.17/outbox.cif.g08.bks.cpg/sg12_171_cif.got.tgz:341899.got - 2010.06.03 13:09:07.
