data_PCOD9173152
_publ_section_title
;
Structure prediction by ZEFSAII (Michael W. Deem and Ramdas Pophale) SiO2 
 PCOD9173152
Probable space group: C 2/M
;
_chemical_formula_sum "Si O2"
_cell_formula_units_Z 64
_cell_length_a 25.510786
_cell_length_b 7.636868
_cell_length_c 16.106739
_cell_angle_alpha 90.000000
_cell_angle_beta 72.036857
_cell_angle_gamma 90.000000
_cell_volume 2984.995938
_symmetry_space_group_name_H-M "C 2/M"
_symmetry_group_IT_number 12
_symmetry_cell_setting 'monoclinic'
loop_
_space_group_symop_operation_xyz
x,y,z
-x,y,-z
-x,-y,-z
x,-y,z
1/2+x,1/2+y,z
1/2-x,1/2+y,-z
1/2-x,1/2-y,-z
1/2+x,1/2-y,z
loop_
_atom_site_type_symbol
_atom_site_label
_atom_site_fract_x
_atom_site_fract_y
_atom_site_fract_z
Si Si1 0.937055 0.285258 0.372707
Si Si2 0.936646 0.285708 0.691971
Si Si3 0.632411 0.210861 0.434270
Si Si4 0.738460 0.201955 0.123705
Si Si5 0.633177 0.206302 0.746532
Si Si6 0.374651 0.789214 0.887125
Si Si7 0.361725 0.707363 0.072107
Si Si8 0.242495 0.792603 0.305154
O O1 0.938115 0.500000 0.372697
O O2 0.899641 0.228857 0.468410
O O3 0.909084 0.224138 0.300757
O O4 0.000287 0.229760 0.349644
O O5 0.935821 0.500000 0.691837
O O6 0.899114 0.227022 0.633288
O O7 0.912259 0.228540 0.792576
O O8 0.696320 0.261477 0.396442
O O9 0.630198 0.000000 0.435262
O O10 0.687596 0.280848 0.098245
O O11 0.799423 0.282965 0.091158
O O12 0.722657 0.207024 0.228648
O O13 0.743521 0.000000 0.094765
O O14 0.615924 0.227278 0.850888
O O15 0.695867 0.275791 0.707201
O O16 0.637259 0.000000 0.727724
O O17 0.372225 0.000000 0.882450
O O18 0.392732 0.744774 0.971390
O O19 0.356669 0.500000 0.084394
O O20 0.246233 0.000000 0.287889
#
# Coordination Sequence:
#
# PCOD9173152 Si02
#       8
#     8   8   8   8   8   8   8   8
#     4   9  18  33  56  79  98 131 177 219 256 296
#     4   9  17  31  53  81 106 128 165 216 263 301
#     4  10  18  32  55  81 106 130 165 214 262 308
#     4   9  17  31  49  73 104 134 168 209 254 303
#     4   9  19  36  53  73 103 137 176 215 249 294
#     4  10  18  30  50  76 105 132 163 209 260 305
#     4  10  20  32  50  75 103 137 173 206 251 307
#     4  10  19  30  48  75 108 140 168 204 253 305
#
# _framework density 21.440567000000001
#
# number of rings (size 3 to 8) (size 9 to 14) (size 15 to 20)
#    0.000    2.500    1.250    1.500    0.000    3.500 
#    0.000    1.250    0.000    7.500    0.000    0.000 
#    0.000    0.000    0.000    0.000    0.000    0.000 
#
# Total GULP energy -178605.974576 kJ/mol
# GULP energy per Si atom -5581.436706 kJ/mol
# Density = 2.139177 g / cm^3
# Si number density = 21.440567 Si / 1000 Ang^3
#
#
#
# Elastic Constant Matrix: (Units=GPa)
#
#
# Indices 1 2 3 4 5 6 
#
# 1 9.2261 10.3809 -17.2672 0.0000 19.1231 0.0000
# 2 10.3809 42.8927 1.6871 0.0000 -1.7478 0.0000
# 3 -17.2672 1.6871 71.5864 0.0000 8.3586 0.0000
# 4 0.0000 0.0000 0.0000 14.1697 0.0000 -2.7338
# 5 19.1231 -1.7478 8.3586 0.0000 14.8158 0.0000
# 6 0.0000 0.0000 0.0000 -2.7338 0.0000 1.8557
#
#
#
# Elastic Compliance Matrix: (Units=1/GPa)
#
#
# Indices 1 2 3 4 5 6 
#
# 1 -0.031572 0.010202 -0.013654 0.000000 0.049658 0.000000
# 2 0.010202 0.020189 0.003473 0.000000 -0.012745 0.000000
# 3 -0.013654 0.003473 0.009087 0.000000 0.012907 0.000000
# 4 0.000000 0.000000 0.000000 0.098598 0.000000 0.145253
# 5 0.049658 -0.012745 0.012907 0.000000 -0.005385 0.000000
# 6 0.000000 0.000000 0.000000 0.145253 0.000000 0.752859
#
#
# Mechanical properties :
#
#
# Convention : Reuss Voigt Hill
#
# Bulk Modulus (GPa) = -443.39776 12.58963 -215.40407
# Shear Modulus (GPa) = 5.93132 14.76185 10.34659
#
# Velocity S-wave (km/s) = 1.66505 2.62678 2.19913
# Velocity P-wave (km/s) = 14.26729 3.88389 9.70750
#
# Compressibility (1/GPa) = -0.00225531
#
# Stress axis : x y z
#
# Youngs Moduli (GPa) = -31.67333 49.53183 110.05051
#
# Poissons Ratio (x) = -0.50531 1.50264
# Poissons Ratio (y) = 0.32312 -0.38222
# Poissons Ratio (z) = -0.43247 -0.17203
#
# Static dielectric constant tensor:
#      x y z
#    x 1.765660 0.000000 -0.002820 
#    y 0.000000 1.815930 0.000000 
#    z -0.002820 0.000000 1.781250 
# 
# From -- ./inp_files/243739.got.cif
#   From: 2010.05.17/outbox.cif.g08.bks.cpg/sg12_122_cif.got.tgz:243739.got - 2010.06.03 13:09:07.
