data_PCOD9173727
_publ_section_title
;
Structure prediction by ZEFSAII (Michael W. Deem and Ramdas Pophale) SiO2 
 PCOD9173727
Probable space group: C 2/M
;
_chemical_formula_sum "Si O2"
_cell_formula_units_Z 58
_cell_length_a 22.737332
_cell_length_b 13.704221
_cell_length_c 8.873371
_cell_angle_alpha 90.000000
_cell_angle_beta 110.777156
_cell_angle_gamma 90.000000
_cell_volume 2585.109032
_symmetry_space_group_name_H-M "C 2/M"
_symmetry_group_IT_number 12
_symmetry_cell_setting 'monoclinic'
loop_
_space_group_symop_operation_xyz
x,y,z
-x,y,-z
-x,-y,-z
x,-y,z
1/2+x,1/2+y,z
1/2-x,1/2+y,-z
1/2-x,1/2-y,-z
1/2+x,1/2-y,z
loop_
_atom_site_type_symbol
_atom_site_label
_atom_site_fract_x
_atom_site_fract_y
_atom_site_fract_z
Si Si1 0.762598 0.887683 0.664937
Si Si2 0.062827 0.188746 0.938229
Si Si3 0.887712 0.387682 0.475939
Si Si4 0.930155 0.609216 0.173736
Si Si5 0.696108 0.889503 0.136436
Si Si6 0.311634 0.616298 0.051781
Si Si7 0.867447 0.753413 0.696651
Si Si8 0.500000 0.500000 0.000000
O O1 0.687950 0.872250 0.601946
O O2 0.810537 0.826672 0.604492
O O3 0.772804 0.000000 0.635584
O O4 0.785987 0.872374 0.858171
O O5 0.090038 0.198985 0.134043
O O6 0.037432 0.295441 0.868757
O O7 0.122764 0.171431 0.884348
O O8 0.024920 0.088113 0.908279
O O9 0.897892 0.500000 0.540000
O O10 0.920751 0.381805 0.344044
O O11 0.906363 0.299164 0.601711
O O12 0.956704 0.500000 0.164971
O O13 0.859890 0.609595 0.037193
O O14 0.759045 0.848113 0.119590
O O15 0.669959 0.832489 0.252990
O O16 0.708989 0.000000 0.192433
O O17 0.320363 0.500000 0.081206
#
# Coordination Sequence:
#
# PCOD9173727 Si02
#       8
#     8   8   8   8   8   8   8   2
#     4   9  17  27  42  65 108 157 195 218 254 324
#     4  10  22  36  62  81 109 142 193 247 296 340
#     4  10  18  31  49  76 120 159 184 214 270 338
#     4   9  18  33  55  85 117 153 181 223 284 354
#     4   9  16  27  46  76 118 151 187 226 267 331
#     4   9  15  28  48  78 108 154 194 226 269 338
#     4  10  20  29  49  80 110 155 189 232 271 337
#     4  12  24  48  66  90 104 144 196 268 304 330
#
# _framework density 22.436191000000001
#
# number of rings (size 3 to 8) (size 9 to 14) (size 15 to 20)
#    0.000    2.483    2.069    0.828    2.897    2.207 
#    0.000    0.345    1.517    1.655    0.000    1.931 
#    0.000    0.000    0.000    0.000    0.000    0.000 
#
# Total GULP energy -161604.546672 kJ/mol
# GULP energy per Si atom -5572.570575 kJ/mol
# Density = 2.238513 g / cm^3
# Si number density = 22.436191 Si / 1000 Ang^3
#
#
#
# Elastic Constant Matrix: (Units=GPa)
#
#
# Indices 1 2 3 4 5 6 
#
# 1 60.9460 33.0245 8.4392 0.0000 -1.2436 0.0000
# 2 33.0245 156.8848 16.1534 0.0000 -4.2675 0.0000
# 3 8.4392 16.1534 36.1420 0.0000 -6.0154 0.0000
# 4 0.0000 0.0000 0.0000 27.9430 0.0000 -16.8041
# 5 -1.2436 -4.2675 -6.0154 0.0000 16.1713 0.0000
# 6 0.0000 0.0000 0.0000 -16.8041 0.0000 17.4467
#
#
#
# Elastic Compliance Matrix: (Units=1/GPa)
#
#
# Indices 1 2 3 4 5 6 
#
# 1 0.018782 -0.003677 -0.002839 0.000000 -0.000582 0.000000
# 2 -0.003677 0.007409 -0.002318 0.000000 0.000810 0.000000
# 3 -0.002839 -0.002318 0.031158 0.000000 0.010760 0.000000
# 4 0.000000 0.000000 0.000000 0.085050 0.000000 0.081917
# 5 -0.000582 0.000810 0.010760 0.000000 0.066010 0.000000
# 6 0.000000 0.000000 0.000000 0.081917 0.000000 0.136217
#
#
# Mechanical properties :
#
#
# Convention : Reuss Voigt Hill
#
# Bulk Modulus (GPa) = 25.20094 41.02301 33.11197
# Shear Modulus (GPa) = 13.31485 25.40256 19.35871
#
# Velocity S-wave (km/s) = 2.43873 3.36849 2.94059
# Velocity P-wave (km/s) = 4.38025 5.78385 5.13028
#
# Compressibility (1/GPa) = 0.03968106
#
# Stress axis : x y z
#
# Youngs Moduli (GPa) = 53.24334 134.97407 32.09402
#
# Poissons Ratio (x) = 0.49631 0.09111
# Poissons Ratio (y) = 0.19578 0.07439
# Poissons Ratio (z) = 0.15116 0.31285
#
# Static dielectric constant tensor:
#      x y z
#    x 1.861670 0.000000 0.045910 
#    y 0.000000 1.863030 0.000000 
#    z 0.045910 0.000000 1.837760 
# 
# From -- ./inp_files/96389.got.cif
#   From: 2010.05.17/outbox.cif.g08.bks.cpg/sg12_49_cif.got.tgz:96389.got - 2010.06.03 13:09:07.
