data_PCOD9173863
_publ_section_title
;
Structure prediction by ZEFSAII (Michael W. Deem and Ramdas Pophale) SiO2 
 PCOD9173863
Probable space group: C 2/M
;
_chemical_formula_sum "Si O2"
_cell_formula_units_Z 48
_cell_length_a 15.123864
_cell_length_b 7.438584
_cell_length_c 21.472699
_cell_angle_alpha 90.000000
_cell_angle_beta 65.928166
_cell_angle_gamma 90.000000
_cell_volume 2205.601259
_symmetry_space_group_name_H-M "C 2/M"
_symmetry_group_IT_number 12
_symmetry_cell_setting 'monoclinic'
loop_
_space_group_symop_operation_xyz
x,y,z
-x,y,-z
-x,-y,-z
x,-y,z
1/2+x,1/2+y,z
1/2-x,1/2+y,-z
1/2-x,1/2-y,-z
1/2+x,1/2-y,z
loop_
_atom_site_type_symbol
_atom_site_label
_atom_site_fract_x
_atom_site_fract_y
_atom_site_fract_z
Si Si1 0.061564 0.720350 0.892551
Si Si2 0.002290 0.783181 0.336854
Si Si3 0.146019 0.285480 0.998575
Si Si4 0.622555 0.790353 0.740662
Si Si5 0.639312 0.285754 0.513729
Si Si6 0.323975 0.280590 0.632897
O O1 0.061315 0.500000 0.891457
O O2 0.127301 0.776483 0.932700
O O3 0.100530 0.785014 0.814964
O O4 0.949977 0.777011 0.936516
O O5 0.967897 0.721875 0.279565
O O6 0.929239 0.716128 0.411868
O O7 0.108309 0.730436 0.329086
O O8 0.998094 0.000000 0.337198
O O9 0.138384 0.500000 0.998478
O O10 0.250000 0.250000 0.000000
O O11 0.715415 0.715738 0.676890
O O12 0.645126 0.000000 0.743963
O O13 0.621755 0.500000 0.516737
O O14 0.750000 0.250000 0.500000
O O15 0.630317 0.218021 0.445579
O O16 0.323015 0.500000 0.628628
#
# Coordination Sequence:
#
# PCOD9173863 Si02
#       6
#     8   8   8   8   8   8
#     4   8  17  33  52  73 102 137 164 194 241 299
#     4  10  20  33  50  73 100 129 164 210 256 292
#     4   9  17  33  55  78 102 130 166 201 240 288
#     4  10  19  34  53  72  98 133 170 201 239 297
#     4  10  18  31  51  71  94 127 167 209 251 293
#     4   9  18  32  50  70  95 130 167 200 245 303
#
# _framework density 21.762774
#
# number of rings (size 3 to 8) (size 9 to 14) (size 15 to 20)
#    0.000    2.667    1.667    1.500    0.000    3.333 
#    0.000    6.667    0.000    2.000    0.000    0.000 
#    0.000    0.000    0.000    0.000    0.000    0.000 
#
# Total GULP energy -133920.547616 kJ/mol
# GULP energy per Si atom -5580.022817 kJ/mol
# Density = 2.171324 g / cm^3
# Si number density = 21.762774 Si / 1000 Ang^3
#
#
#
# Elastic Constant Matrix: (Units=GPa)
#
#
# Indices 1 2 3 4 5 6 
#
# 1 107.9361 -10.7475 33.4742 0.0000 23.5497 0.0000
# 2 -10.7475 64.6839 6.9020 0.0000 -3.2797 0.0001
# 3 33.4742 6.9020 129.1543 0.0000 28.6020 0.0000
# 4 0.0000 0.0000 0.0000 1.8954 0.0000 4.0948
# 5 23.5497 -3.2797 28.6020 0.0000 20.3528 0.0000
# 6 0.0000 0.0001 0.0000 4.0948 0.0000 23.4894
#
#
#
# Elastic Compliance Matrix: (Units=1/GPa)
#
#
# Indices 1 2 3 4 5 6 
#
# 1 0.012515 0.001398 -0.000234 0.000000 -0.013926 0.000000
# 2 0.001398 0.016114 -0.002091 0.000000 0.003917 0.000000
# 3 -0.000234 -0.002091 0.011513 0.000000 -0.016245 0.000000
# 4 0.000000 0.000000 0.000000 0.846350 0.000000 -0.147540
# 5 -0.013926 0.003917 -0.016245 0.000000 0.088707 0.000000
# 6 0.000000 0.000000 0.000000 -0.147540 0.000000 0.068292
#
#
# Mechanical properties :
#
#
# Convention : Reuss Voigt Hill
#
# Bulk Modulus (GPa) = 26.11816 40.11461 33.11639
# Shear Modulus (GPa) = 4.72542 27.29056 16.00799
#
# Velocity S-wave (km/s) = 1.47514 3.54503 2.71508
# Velocity P-wave (km/s) = 3.86377 5.93540 5.00788
#
# Compressibility (1/GPa) = 0.03828753
#
# Stress axis : x y z
#
# Youngs Moduli (GPa) = 79.90346 62.05832 86.86108
#
# Poissons Ratio (x) = -0.08678 0.02036
# Poissons Ratio (y) = -0.11173 0.18163
# Poissons Ratio (z) = 0.01872 0.12977
#
# Static dielectric constant tensor:
#      x y z
#    x 1.770440 0.000000 -0.000730 
#    y 0.000000 1.908080 0.000000 
#    z -0.000730 0.000000 1.784740 
# 
# From -- ./inp_files/261724.got.cif
#   From: 2010.05.17/outbox.cif.g08.bks.cpg/sg12_131_cif.got.tgz:261724.got - 2010.06.03 13:09:07.
