data_PCOD9173828
_publ_section_title
;
Structure prediction by ZEFSAII (Michael W. Deem and Ramdas Pophale) SiO2 
 PCOD9173828
Probable space group: C 2/M
;
_chemical_formula_sum "Si O2"
_cell_formula_units_Z 48
_cell_length_a 25.360063
_cell_length_b 7.446498
_cell_length_c 11.329274
_cell_angle_alpha 90.000000
_cell_angle_beta 101.048323
_cell_angle_gamma 90.000000
_cell_volume 2099.808570
_symmetry_space_group_name_H-M "C 2/M"
_symmetry_group_IT_number 12
_symmetry_cell_setting 'monoclinic'
loop_
_space_group_symop_operation_xyz
x,y,z
-x,y,-z
-x,-y,-z
x,-y,z
1/2+x,1/2+y,z
1/2-x,1/2+y,-z
1/2-x,1/2-y,-z
1/2+x,1/2-y,z
loop_
_atom_site_type_symbol
_atom_site_label
_atom_site_fract_x
_atom_site_fract_y
_atom_site_fract_z
Si Si1 0.186683 0.785083 0.480983
Si Si2 0.011511 0.218765 0.642794
Si Si3 0.868818 0.208303 0.310660
Si Si4 0.844168 0.780858 0.784648
Si Si5 0.961949 0.780637 0.874305
Si Si6 0.764097 0.288452 0.139158
O O1 0.250000 0.750000 0.500000
O O2 0.159267 0.710276 0.586008
O O3 0.156179 0.724473 0.351526
O O4 0.182100 0.000000 0.482455
O O5 0.072779 0.279389 0.693755
O O6 0.000000 0.273112 0.500000
O O7 0.978861 0.274792 0.747361
O O8 0.005974 0.000000 0.639542
O O9 0.822458 0.213811 0.194019
O O10 0.879693 0.000000 0.342166
O O11 0.899861 0.725851 0.868106
O O12 0.786976 0.716995 0.809946
O O13 0.842843 0.000000 0.789762
O O14 0.963748 0.000000 0.874825
O O15 0.000000 0.723157 0.000000
O O16 0.767447 0.500000 0.163219
O O17 0.750000 0.250000 0.000000
#
# Coordination Sequence:
#
# PCOD9173828 Si02
#       6
#     8   8   8   8   8   8
#     4  10  18  31  50  76 108 137 169 209 259 316
#     4   9  17  30  49  76 109 141 175 221 274 320
#     4  10  20  33  55  83 111 139 176 223 271 325
#     4   9  18  32  50  74 107 139 170 215 268 320
#     4   9  17  28  46  72 101 134 173 217 266 315
#     4  11  23  37  54  77 109 144 181 221 269 323
#
# _framework density 22.859224999999999
#
# number of rings (size 3 to 8) (size 9 to 14) (size 15 to 20)
#    0.000    2.333    1.667    1.500    2.333    4.000 
#    0.000    0.000    0.000    0.500    0.000    4.667 
#    0.000    0.000    0.000    0.000    0.000    0.000 
#
# Total GULP energy -133897.502106 kJ/mol
# GULP energy per Si atom -5579.062588 kJ/mol
# Density = 2.280720 g / cm^3
# Si number density = 22.859225 Si / 1000 Ang^3
#
#
#
# Elastic Constant Matrix: (Units=GPa)
#
#
# Indices 1 2 3 4 5 6 
#
# 1 114.1684 -1.1201 26.8503 0.0000 23.7515 0.0000
# 2 -1.1201 68.4592 -9.1231 0.0000 -3.1985 0.0000
# 3 26.8503 -9.1231 111.7494 0.0000 18.2375 0.0000
# 4 0.0000 0.0000 0.0000 1.0088 0.0000 6.7445
# 5 23.7515 -3.1985 18.2375 0.0000 41.7865 0.0000
# 6 0.0000 0.0000 0.0000 6.7445 0.0000 6.2946
#
#
#
# Elastic Compliance Matrix: (Units=1/GPa)
#
#
# Indices 1 2 3 4 5 6 
#
# 1 0.010205 -0.000290 -0.001642 0.000000 -0.005106 0.000000
# 2 -0.000290 0.014793 0.001147 0.000000 0.000797 0.000000
# 3 -0.001642 0.001147 0.009981 0.000000 -0.003335 0.000000
# 4 0.000000 0.000000 0.000000 -0.160831 0.000000 0.172325
# 5 -0.005106 0.000797 -0.003335 0.000000 0.028350 0.000000
# 6 0.000000 0.000000 0.000000 0.172325 0.000000 -0.025776
#
#
# Mechanical properties :
#
#
# Convention : Reuss Voigt Hill
#
# Bulk Modulus (GPa) = 29.93324 36.39900 33.16612
# Shear Modulus (GPa) = -45.21930 28.33599 -8.44165
#
# Velocity S-wave (km/s) = -4.45248 3.52460 -1.92377
# Velocity P-wave (km/s) = 3.64825 5.70275 3.09933
#
# Compressibility (1/GPa) = 0.03340767
#
# Stress axis : x y z
#
# Youngs Moduli (GPa) = 97.99520 67.60126 100.18904
#
# Poissons Ratio (x) = 0.01963 0.16454
# Poissons Ratio (y) = 0.02846 -0.11496
# Poissons Ratio (z) = 0.16094 -0.07757
#
# Static dielectric constant tensor:
#      x y z
#    x 1.902500 0.000000 0.003840 
#    y 0.000000 1.910520 0.000000 
#    z 0.003840 0.000000 1.865170 
# 
# From -- ./inp_files/163997.got.cif
#   From: 2010.05.17/outbox.cif.g08.bks.cpg/sg12_82_cif.got.tgz:163997.got - 2010.06.03 13:09:07.
