data_PCOD9173817
_publ_section_title
;
Structure prediction by ZEFSAII (Michael W. Deem and Ramdas Pophale) SiO2 
 PCOD9173817
Probable space group: C 2/M
;
_chemical_formula_sum "Si O2"
_cell_formula_units_Z 48
_cell_length_a 26.187758
_cell_length_b 14.755180
_cell_length_c 11.955208
_cell_angle_alpha 90.000000
_cell_angle_beta 146.717997
_cell_angle_gamma 90.000000
_cell_volume 2535.027174
_symmetry_space_group_name_H-M "C 2/M"
_symmetry_group_IT_number 12
_symmetry_cell_setting 'monoclinic'
loop_
_space_group_symop_operation_xyz
x,y,z
-x,y,-z
-x,-y,-z
x,-y,z
1/2+x,1/2+y,z
1/2-x,1/2+y,-z
1/2-x,1/2-y,-z
1/2+x,1/2-y,z
loop_
_atom_site_type_symbol
_atom_site_label
_atom_site_fract_x
_atom_site_fract_y
_atom_site_fract_z
Si Si1 0.393361 0.873387 0.815772
Si Si2 0.657091 0.744200 0.574060
Si Si3 0.254159 0.905516 0.373434
Si Si4 0.096189 0.833260 0.226744
Si Si5 0.994646 0.606037 0.623942
Si Si6 0.693571 0.102772 0.101220
O O1 0.346467 0.905560 0.616587
O O2 0.391094 0.764804 0.806953
O O3 0.338361 0.899084 0.826564
O O4 0.500000 0.900736 0.000000
O O5 0.736873 0.815075 0.681050
O O6 0.610727 0.689574 0.384267
O O7 0.578522 0.814317 0.476473
O O8 0.718225 0.669653 0.752917
O O9 0.175987 0.895497 0.324161
O O10 0.243085 0.000000 0.289901
O O11 0.000000 0.868655 0.000000
O O12 0.971695 0.500000 0.616712
O O13 0.000000 0.605265 0.500000
O O14 0.097214 0.627469 0.861458
O O15 0.718413 0.000000 0.113718
#
# Coordination Sequence:
#
# PCOD9173817 Si02
#       6
#     8   8   8   8   8   8
#     4  10  18  31  50  75 108 146 186 228 268 321
#     4  11  21  36  59  83 115 149 190 234 285 332
#     4  11  20  31  49  80 116 151 186 220 266 328
#     4  10  19  32  50  75 112 155 183 219 266 327
#     4  10  23  42  63  87 111 140 187 245 298 344
#     4  11  21  36  60  85 111 150 194 235 283 340
#
# _framework density 18.934708000000001
#
# number of rings (size 3 to 8) (size 9 to 14) (size 15 to 20)
#    0.000    1.500    3.333    5.000    0.000    3.667 
#    0.000    0.000    0.000    1.000    0.000    0.000 
#    0.000    0.000    0.000    0.000    0.000    0.000 
#
# Total GULP energy -133620.036418 kJ/mol
# GULP energy per Si atom -5567.501517 kJ/mol
# Density = 1.889161 g / cm^3
# Si number density = 18.934708 Si / 1000 Ang^3
#
#
#
# Elastic Constant Matrix: (Units=GPa)
#
#
# Indices 1 2 3 4 5 6 
#
# 1 40.5118 23.6159 35.4039 0.0000 7.8294 0.0000
# 2 23.6159 99.6362 60.1119 0.0000 22.2914 0.0000
# 3 35.4039 60.1119 91.1279 0.0000 19.2323 0.0000
# 4 0.0000 0.0000 0.0000 76.8927 0.0000 15.0062
# 5 7.8294 22.2914 19.2323 0.0000 26.4700 0.0000
# 6 0.0000 0.0000 0.0000 15.0062 0.0000 20.6197
#
#
#
# Elastic Compliance Matrix: (Units=1/GPa)
#
#
# Indices 1 2 3 4 5 6 
#
# 1 0.037381 -0.000073 -0.014356 0.000000 -0.000565 0.000000
# 2 -0.000073 0.017900 -0.010160 0.000000 -0.007670 0.000000
# 3 -0.014356 -0.010160 0.024273 0.000000 -0.004834 0.000000
# 4 0.000000 0.000000 0.000000 0.015158 0.000000 -0.011031
# 5 -0.000565 -0.007670 -0.004834 0.000000 0.047917 0.000000
# 6 0.000000 0.000000 0.000000 -0.011031 0.000000 0.056525
#
#
# Mechanical properties :
#
#
# Convention : Reuss Voigt Hill
#
# Bulk Modulus (GPa) = 32.91990 52.17102 42.54546
# Shear Modulus (GPa) = 19.34549 32.27277 25.80913
#
# Velocity S-wave (km/s) = 3.19986 4.13295 3.69597
# Velocity P-wave (km/s) = 5.57458 7.09845 6.38216
#
# Compressibility (1/GPa) = 0.03037676
#
# Stress axis : x y z
#
# Youngs Moduli (GPa) = 26.75122 55.86682 41.19763
#
# Poissons Ratio (x) = 0.00406 0.59142
# Poissons Ratio (y) = 0.00195 0.41858
# Poissons Ratio (z) = 0.38403 0.56763
#
# Static dielectric constant tensor:
#      x y z
#    x 1.670130 0.000000 0.038570 
#    y 0.000000 1.161580 0.000000 
#    z 0.038570 0.000000 1.708240 
# 
# From -- ./inp_files/183898.got.cif
#   From: 2010.05.17/outbox.cif.g08.bks.cpg/sg12_92_cif.got.tgz:183898.got - 2010.06.03 13:09:07.
