data_PCOD9173918
_publ_section_title
;
Structure prediction by ZEFSAII (Michael W. Deem and Ramdas Pophale) SiO2 
 PCOD9173918
Probable space group: C 2/M
;
_chemical_formula_sum "Si O2"
_cell_formula_units_Z 48
_cell_length_a 19.878304
_cell_length_b 8.622596
_cell_length_c 30.817849
_cell_angle_alpha 90.000000
_cell_angle_beta 149.388450
_cell_angle_gamma 90.000000
_cell_volume 2689.805071
_symmetry_space_group_name_H-M "C 2/M"
_symmetry_group_IT_number 12
_symmetry_cell_setting 'monoclinic'
loop_
_space_group_symop_operation_xyz
x,y,z
-x,y,-z
-x,-y,-z
x,-y,z
1/2+x,1/2+y,z
1/2-x,1/2+y,-z
1/2-x,1/2-y,-z
1/2+x,1/2-y,z
loop_
_atom_site_type_symbol
_atom_site_label
_atom_site_fract_x
_atom_site_fract_y
_atom_site_fract_z
Si Si1 0.376917 0.186395 0.463953
Si Si2 0.165407 0.814421 0.215741
Si Si3 0.968383 0.688112 0.367883
Si Si4 0.591732 0.812256 0.760858
Si Si5 0.107098 0.685206 0.275376
Si Si6 0.119494 0.314114 0.097411
O O1 0.500000 0.214734 0.500000
O O2 0.423116 0.240696 0.537326
O O3 0.246018 0.266170 0.373836
O O4 0.355393 0.000000 0.452373
O O5 0.320903 0.766889 0.301661
O O6 0.100804 0.757152 0.224127
O O7 0.103450 0.746668 0.137554
O O8 0.162116 0.000000 0.211866
O O9 0.971980 0.500000 0.370931
O O10 0.978654 0.736698 0.323483
O O11 0.508696 0.762215 0.756411
O O12 0.740193 0.749547 0.841471
O O13 0.597417 0.000000 0.763549
O O14 0.101343 0.500000 0.268619
O O15 0.124231 0.500000 0.100678
O O16 0.000000 0.264218 0.000000
#
# Coordination Sequence:
#
# PCOD9173918 Si02
#       6
#     8   8   8   8   8   8
#     4  10  18  31  51  75 104 144 194 233 268 318
#     4  10  19  35  58  80 106 144 185 219 266 328
#     4   8  15  31  52  72  99 139 187 229 262 308
#     4   9  20  37  55  77 110 149 183 221 270 325
#     4  11  22  34  50  79 115 145 183 233 275 309
#     4  10  21  38  61  88 112 133 168 221 272 324
#
# _framework density 17.845158000000001
#
# number of rings (size 3 to 8) (size 9 to 14) (size 15 to 20)
#    0.000    2.333    1.667    2.500    0.000    3.667 
#    0.000    1.667    0.000    0.000    0.000    0.000 
#    0.000    0.000    0.000    0.000    0.000    0.000 
#
# Total GULP energy -133904.361163 kJ/mol
# GULP energy per Si atom -5579.348382 kJ/mol
# Density = 1.780454 g / cm^3
# Si number density = 17.845158 Si / 1000 Ang^3
#
#
#
# Elastic Constant Matrix: (Units=GPa)
#
#
# Indices 1 2 3 4 5 6 
#
# 1 162.4647 30.5347 67.3601 0.0000 -16.3516 0.0000
# 2 30.5347 21.8964 20.6840 0.0000 -4.7356 0.0003
# 3 67.3601 20.6840 110.4004 0.0001 -27.1140 0.0000
# 4 0.0000 0.0000 0.0001 27.4335 0.0000 -2.4404
# 5 -16.3516 -4.7356 -27.1140 0.0000 21.7549 0.0000
# 6 0.0000 0.0003 0.0000 -2.4404 0.0000 25.0934
#
#
#
# Elastic Compliance Matrix: (Units=1/GPa)
#
#
# Indices 1 2 3 4 5 6 
#
# 1 0.009657 -0.009601 -0.004069 0.000000 0.000096 0.000000
# 2 -0.009601 0.065061 -0.006666 0.000000 -0.001362 -0.000001
# 3 -0.004069 -0.006666 0.016835 0.000000 0.016473 0.000000
# 4 0.000000 0.000000 0.000000 0.036770 0.000000 0.003576
# 5 0.000096 -0.001362 0.016473 0.000000 0.066274 0.000000
# 6 0.000000 -0.000001 0.000000 0.003576 0.000000 0.040199
#
#
# Mechanical properties :
#
#
# Convention : Reuss Voigt Hill
#
# Bulk Modulus (GPa) = 19.65413 59.10213 39.37813
# Shear Modulus (GPa) = 17.09820 26.60188 21.85004
#
# Velocity S-wave (km/s) = 3.09875 3.86515 3.50297
# Velocity P-wave (km/s) = 4.88268 7.28770 6.20287
#
# Compressibility (1/GPa) = 0.05087989
#
# Stress axis : x y z
#
# Youngs Moduli (GPa) = 103.55539 15.37022 59.39840
#
# Poissons Ratio (x) = 0.14758 0.24172
# Poissons Ratio (y) = 0.99427 0.39594
# Poissons Ratio (z) = 0.42141 0.10245
#
# Static dielectric constant tensor:
#      x y z
#    x 1.617390 0.000000 -0.016110 
#    y 0.000000 1.606460 0.000000 
#    z -0.016110 0.000000 1.588680 
# 
# From -- ./inp_files/274134.got.cif
#   From: 2010.05.17/outbox.cif.g08.bks.cpg/sg12_138_cif.got.tgz:274134.got - 2010.06.03 13:09:07.
