data_PCOD9173930
_publ_section_title
;
Structure prediction by ZEFSAII (Michael W. Deem and Ramdas Pophale) SiO2 
 PCOD9173930
Probable space group: C 2/M
;
_chemical_formula_sum "Si O2"
_cell_formula_units_Z 40
_cell_length_a 16.028340
_cell_length_b 8.095250
_cell_length_c 15.190479
_cell_angle_alpha 90.000000
_cell_angle_beta 127.552485
_cell_angle_gamma 90.000000
_cell_volume 1562.612809
_symmetry_space_group_name_H-M "C 2/M"
_symmetry_group_IT_number 12
_symmetry_cell_setting 'monoclinic'
loop_
_space_group_symop_operation_xyz
x,y,z
-x,y,-z
-x,-y,-z
x,-y,z
1/2+x,1/2+y,z
1/2-x,1/2+y,-z
1/2-x,1/2-y,-z
1/2+x,1/2-y,z
loop_
_atom_site_type_symbol
_atom_site_label
_atom_site_fract_x
_atom_site_fract_y
_atom_site_fract_z
Si Si1 0.904597 0.807056 0.031378
Si Si2 0.144052 0.809370 0.630244
Si Si3 0.319117 0.195176 0.160772
Si Si4 0.372378 0.196002 0.571358
Si Si5 0.382013 0.304156 0.765167
O O1 0.865615 0.788307 0.107213
O O2 0.023728 0.740792 0.111801
O O3 0.915402 0.000000 0.017316
O O4 0.803372 0.746949 0.912006
O O5 0.123714 0.719484 0.709590
O O6 0.096516 0.745754 0.507650
O O7 0.270844 0.786454 0.700754
O O8 0.118389 0.000000 0.624173
O O9 0.319601 0.000000 0.140391
O O10 0.250000 0.250000 0.500000
O O11 0.419744 0.281299 0.688155
O O12 0.381863 0.000000 0.586938
O O13 0.363304 0.500000 0.768583
#
# Coordination Sequence:
#
# PCOD9173930 Si02
#       5
#     8   8   8   8   8
#     4   9  20  37  56  77 104 139 173 210 260 313
#     4  11  21  34  53  78 107 138 175 215 257 304
#     4  10  20  36  56  77 104 138 175 214 258 308
#     4  10  18  31  51  76 105 136 171 210 258 308
#     4  10  19  34  55  79 107 137 172 212 257 308
#
# _framework density 25.598153
#
# number of rings (size 3 to 8) (size 9 to 14) (size 15 to 20)
#    0.000    2.000    0.000    7.200    0.000    3.200 
#    0.000    5.000    0.000    6.000    0.000    0.000 
#    0.000    0.000    0.000    0.000    0.000    0.000 
#
# Total GULP energy -111894.826271 kJ/mol
# GULP energy per Si atom -5594.741314 kJ/mol
# Density = 2.553989 g / cm^3
# Si number density = 25.598153 Si / 1000 Ang^3
#
#
#
# Elastic Constant Matrix: (Units=GPa)
#
#
# Indices 1 2 3 4 5 6 
#
# 1 87.0778 -3.4234 13.4688 0.0000 -5.1448 0.0000
# 2 -3.4234 83.7061 4.7989 0.0000 -4.0288 0.0000
# 3 13.4688 4.7989 182.6927 0.0000 -1.6533 0.0000
# 4 0.0000 0.0000 0.0000 17.4634 0.0000 -5.3847
# 5 -5.1448 -4.0288 -1.6533 0.0000 59.7980 0.0000
# 6 0.0000 0.0000 0.0000 -5.3847 0.0000 15.0155
#
#
#
# Elastic Compliance Matrix: (Units=1/GPa)
#
#
# Indices 1 2 3 4 5 6 
#
# 1 0.011701 0.000578 -0.000869 0.000000 0.001022 0.000000
# 2 0.000578 0.012031 -0.000351 0.000000 0.000851 0.000000
# 3 -0.000869 -0.000351 0.005547 0.000000 0.000055 0.000000
# 4 0.000000 0.000000 0.000000 0.064381 0.000000 0.023088
# 5 0.001022 0.000851 0.000055 0.000000 0.016870 0.000000
# 6 0.000000 0.000000 0.000000 0.023088 0.000000 0.074877
#
#
# Mechanical properties :
#
#
# Convention : Reuss Voigt Hill
#
# Bulk Modulus (GPa) = 35.71924 42.57390 39.14657
# Shear Modulus (GPa) = 25.50701 41.03089 33.26895
#
# Velocity S-wave (km/s) = 3.16007 4.00795 3.60899
# Velocity P-wave (km/s) = 5.22483 6.17138 5.71773
#
# Compressibility (1/GPa) = 0.02799612
#
# Stress axis : x y z
#
# Youngs Moduli (GPa) = 85.45983 83.11695 180.26381
#
# Poissons Ratio (x) = -0.04800 0.15658
# Poissons Ratio (y) = -0.04936 0.06326
# Poissons Ratio (z) = 0.07423 0.02917
#
# Static dielectric constant tensor:
#      x y z
#    x 2.094500 0.000000 -0.023670 
#    y 0.000000 1.866320 0.000000 
#    z -0.023670 0.000000 2.022870 
# 
# From -- ./inp_files/221231.got.cif
#   From: 2010.05.17/outbox.cif.g08.bks.cpg/sg12_111_cif.got.tgz:221231.got - 2010.06.03 13:09:07.
