data_PCOD9173545
_publ_section_title
;
Structure prediction by ZEFSAII (Michael W. Deem and Ramdas Pophale) SiO2 
 PCOD9173545
Probable space group: C 2/M
;
_chemical_formula_sum "Si O2"
_cell_formula_units_Z 64
_cell_length_a 21.682168
_cell_length_b 20.827354
_cell_length_c 10.994682
_cell_angle_alpha 90.000000
_cell_angle_beta 137.835349
_cell_angle_gamma 90.000000
_cell_volume 3332.824585
_symmetry_space_group_name_H-M "C 2/M"
_symmetry_group_IT_number 12
_symmetry_cell_setting 'monoclinic'
loop_
_space_group_symop_operation_xyz
x,y,z
-x,y,-z
-x,-y,-z
x,-y,z
1/2+x,1/2+y,z
1/2-x,1/2+y,-z
1/2-x,1/2-y,-z
1/2+x,1/2-y,z
loop_
_atom_site_type_symbol
_atom_site_label
_atom_site_fract_x
_atom_site_fract_y
_atom_site_fract_z
Si Si1 0.725037 0.571845 0.766417
Si Si2 0.548130 0.192953 0.784721
Si Si3 0.097354 0.383544 0.102335
Si Si4 0.234484 0.327030 0.965311
Si Si5 0.350692 0.676682 0.727958
Si Si6 0.424007 0.574760 0.660498
Si Si7 0.407860 0.333640 0.077001
Si Si8 0.858884 0.696221 0.592506
O O1 0.717858 0.500000 0.810996
O O2 0.819075 0.574421 0.825044
O O3 0.731951 0.630448 0.870841
O O4 0.639403 0.581708 0.551382
O O5 0.562654 0.269307 0.809493
O O6 0.439964 0.179366 0.617477
O O7 0.574569 0.165176 0.957617
O O8 0.623911 0.164654 0.803459
O O9 0.131855 0.345702 0.271355
O O10 0.000000 0.414374 0.000000
O O11 0.302779 0.348801 0.959196
O O12 0.250000 0.250000 0.000000
O O13 0.370752 0.609549 0.692679
O O14 0.244010 0.687997 0.603890
O O15 0.373405 0.731217 0.661630
O O16 0.408229 0.681628 0.934671
O O17 0.436937 0.500000 0.703560
O O18 0.520980 0.610520 0.789251
#
# Coordination Sequence:
#
# PCOD9173545 Si02
#       8
#     8   8   8   8   8   8   8   8
#     4  10  21  39  58  83 118 154 195 245 293 345
#     4   9  17  33  54  81 113 142 185 247 300 345
#     4   9  16  29  54  84 114 140 182 234 299 349
#     4   9  21  38  60  80 116 153 199 249 295 345
#     4  11  21  32  55  82 118 150 196 241 298 356
#     4  11  24  38  56  83 119 159 199 241 289 351
#     4  11  21  36  53  79 112 160 196 240 295 344
#     4  10  18  30  55  86 111 149 187 241 304 355
#
# _framework density 19.202929999999999
#
# number of rings (size 3 to 8) (size 9 to 14) (size 15 to 20)
#    0.000    2.000    3.750    0.375    0.000    2.250 
#    0.000    1.875    0.000    0.000    0.000    0.000 
#    0.000    5.500    0.000    0.000    0.000    0.000 
#
# Total GULP energy -178364.267573 kJ/mol
# GULP energy per Si atom -5573.883362 kJ/mol
# Density = 1.915922 g / cm^3
# Si number density = 19.202930 Si / 1000 Ang^3
#
#
#
# Elastic Constant Matrix: (Units=GPa)
#
#
# Indices 1 2 3 4 5 6 
#
# 1 104.4303 23.3458 30.3310 0.0000 35.1059 0.0000
# 2 23.3458 100.2385 32.6003 0.0000 3.5354 0.0000
# 3 30.3310 32.6003 58.2172 0.0000 20.4672 0.0000
# 4 0.0000 0.0000 0.0000 19.8636 0.0000 1.0402
# 5 35.1059 3.5354 20.4672 0.0000 28.0548 0.0000
# 6 0.0000 0.0000 0.0000 1.0402 0.0000 18.6282
#
#
#
# Elastic Compliance Matrix: (Units=1/GPa)
#
#
# Indices 1 2 3 4 5 6 
#
# 1 0.017579 -0.003483 0.000499 0.000000 -0.021922 0.000000
# 2 -0.003483 0.013353 -0.008881 0.000000 0.009155 0.000000
# 3 0.000499 -0.008881 0.029208 0.000000 -0.020814 0.000000
# 4 0.000000 0.000000 0.000000 0.050491 0.000000 -0.002819
# 5 -0.021922 0.009155 -0.020814 0.000000 0.077107 0.000000
# 6 0.000000 0.000000 0.000000 -0.002819 0.000000 0.053839
#
#
# Mechanical properties :
#
#
# Convention : Reuss Voigt Hill
#
# Bulk Modulus (GPa) = 27.46591 48.38222 37.92407
# Shear Modulus (GPa) = 18.02160 25.08325 21.55243
#
# Velocity S-wave (km/s) = 3.06679 3.61809 3.35379
# Velocity P-wave (km/s) = 5.18404 6.53483 5.89823
#
# Compressibility (1/GPa) = 0.03640877
#
# Stress axis : x y z
#
# Youngs Moduli (GPa) = 56.88578 74.88955 34.23763
#
# Poissons Ratio (x) = 0.26086 -0.01709
# Poissons Ratio (y) = 0.19815 0.30407
# Poissons Ratio (z) = -0.02839 0.66511
#
# Static dielectric constant tensor:
#      x y z
#    x 1.711750 0.000000 0.046970 
#    y 0.000000 1.660700 0.000000 
#    z 0.046970 0.000000 1.660440 
# 
# From -- ./inp_files/169700.got.cif
#   From: 2010.05.17/outbox.cif.g08.bks.cpg/sg12_85_cif.got.tgz:169700.got - 2010.06.03 13:09:07.
