data_PCOD9173299
_publ_section_title
;
Structure prediction by ZEFSAII (Michael W. Deem and Ramdas Pophale) SiO2 
 PCOD9173299
Probable space group: C 2/M
;
_chemical_formula_sum "Si O2"
_cell_formula_units_Z 56
_cell_length_a 18.358203
_cell_length_b 8.734647
_cell_length_c 29.539974
_cell_angle_alpha 90.000000
_cell_angle_beta 140.960116
_cell_angle_gamma 90.000000
_cell_volume 2983.530636
_symmetry_space_group_name_H-M "C 2/M"
_symmetry_group_IT_number 12
_symmetry_cell_setting 'monoclinic'
loop_
_space_group_symop_operation_xyz
x,y,z
-x,y,-z
-x,-y,-z
x,-y,z
1/2+x,1/2+y,z
1/2-x,1/2+y,-z
1/2-x,1/2-y,-z
1/2+x,1/2-y,z
loop_
_atom_site_type_symbol
_atom_site_label
_atom_site_fract_x
_atom_site_fract_y
_atom_site_fract_z
Si Si1 0.634555 0.317012 0.570707
Si Si2 0.046636 0.684129 0.705283
Si Si3 0.216634 0.684115 0.705402
Si Si4 0.206955 0.182073 0.431764
Si Si5 0.832269 0.683011 0.999888
Si Si6 0.483342 0.316384 0.852048
Si Si7 0.353806 0.183650 0.148198
O O1 0.500000 0.274488 0.500000
O O2 0.644292 0.500000 0.571543
O O3 0.679872 0.263577 0.641281
O O4 0.710486 0.240858 0.568288
O O5 0.030164 0.500000 0.696183
O O6 0.129882 0.726641 0.703932
O O7 0.105972 0.721377 0.781829
O O8 0.923009 0.762713 0.640725
O O9 0.210310 0.500000 0.696202
O O10 0.348599 0.721046 0.782125
O O11 0.250000 0.250000 0.500000
O O12 0.210877 0.000000 0.435837
O O13 0.830407 0.500000 0.999862
O O14 0.770401 0.746031 0.925192
O O15 0.750000 0.750000 0.000000
O O16 0.957229 0.745917 0.074531
O O17 0.497608 0.500000 0.859676
O O18 0.552696 0.249970 0.842283
O O19 0.349053 0.000000 0.140679
#
# Coordination Sequence:
#
# PCOD9173299 Si02
#       7
#     8   8   8   8   8   8   8
#     4  11  24  41  62  89 118 150 189 232 280 334
#     4  10  22  40  60  84 116 152 191 234 282 337
#     4  10  22  39  59  84 114 151 191 233 283 336
#     4  12  25  41  63  89 118 152 189 232 281 333
#     4  10  18  30  51  78 108 142 183 231 282 335
#     4  10  19  33  54  80 110 143 185 233 281 337
#     4  10  19  33  55  81 110 145 185 231 282 335
#
# _framework density 18.769708999999999
#
# number of rings (size 3 to 8) (size 9 to 14) (size 15 to 20)
#    0.000    1.571    0.000    7.286    0.000    8.571 
#    0.000    0.714    0.000    4.286    0.000    0.000 
#    0.000    0.000    0.000    0.000    0.000    0.000 
#
# Total GULP energy -156486.756491 kJ/mol
# GULP energy per Si atom -5588.812732 kJ/mol
# Density = 1.872699 g / cm^3
# Si number density = 18.769709 Si / 1000 Ang^3
#
#
#
# Elastic Constant Matrix: (Units=GPa)
#
#
# Indices 1 2 3 4 5 6 
#
# 1 134.4475 64.3618 100.8332 0.0000 -4.0273 0.0000
# 2 64.3618 95.4064 97.1745 0.0000 -1.2407 0.0000
# 3 100.8332 97.1745 216.0547 0.0000 -2.6409 0.0000
# 4 0.0000 0.0000 0.0000 33.2893 0.0000 -6.9657
# 5 -4.0273 -1.2407 -2.6409 0.0000 28.3532 0.0000
# 6 0.0000 0.0000 0.0000 -6.9657 0.0000 16.8666
#
#
#
# Elastic Compliance Matrix: (Units=1/GPa)
#
#
# Indices 1 2 3 4 5 6 
#
# 1 0.012480 -0.004588 -0.003746 0.000000 0.001223 0.000000
# 2 -0.004588 0.021029 -0.007322 0.000000 -0.000413 0.000000
# 3 -0.003746 -0.007322 0.009671 0.000000 0.000048 0.000000
# 4 0.000000 0.000000 0.000000 0.032881 0.000000 0.013580
# 5 0.001223 -0.000413 0.000048 0.000000 0.035429 0.000000
# 6 0.000000 0.000000 0.000000 0.013580 0.000000 0.064897
#
#
# Mechanical properties :
#
#
# Convention : Reuss Voigt Hill
#
# Bulk Modulus (GPa) = 84.26216 107.84975 96.05595
# Shear Modulus (GPa) = 23.62334 27.93775 25.78054
#
# Velocity S-wave (km/s) = 3.55151 3.86223 3.71012
# Velocity P-wave (km/s) = 7.86179 8.80189 8.34509
#
# Compressibility (1/GPa) = 0.01186772
#
# Stress axis : x y z
#
# Youngs Moduli (GPa) = 80.12637 47.55405 103.40612
#
# Poissons Ratio (x) = 0.21817 0.38738
# Poissons Ratio (y) = 0.36760 0.75714
# Poissons Ratio (z) = 0.30017 0.34819
#
# Static dielectric constant tensor:
#      x y z
#    x 1.622960 0.000000 0.003040 
#    y 0.000000 1.630910 0.000000 
#    z 0.003040 0.000000 1.656820 
# 
# From -- ./inp_files/377780.got.cif
#   From: 2010.05.17/outbox.cif.g08.bks.cpg/sg12_189_cif.got.tgz:377780.got - 2010.06.03 13:09:07.
