data_PCOD9173953
_publ_section_title
;
Structure prediction by ZEFSAII (Michael W. Deem and Ramdas Pophale) SiO2 
 PCOD9173953
Probable space group: C 2/M
;
_chemical_formula_sum "Si O2"
_cell_formula_units_Z 48
_cell_length_a 22.958260
_cell_length_b 8.577386
_cell_length_c 24.417553
_cell_angle_alpha 90.000000
_cell_angle_beta 144.589110
_cell_angle_gamma 90.000000
_cell_volume 2786.131468
_symmetry_space_group_name_H-M "C 2/M"
_symmetry_group_IT_number 12
_symmetry_cell_setting 'monoclinic'
loop_
_space_group_symop_operation_xyz
x,y,z
-x,y,-z
-x,-y,-z
x,-y,z
1/2+x,1/2+y,z
1/2-x,1/2+y,-z
1/2-x,1/2-y,-z
1/2+x,1/2-y,z
loop_
_atom_site_type_symbol
_atom_site_label
_atom_site_fract_x
_atom_site_fract_y
_atom_site_fract_z
Si Si1 0.093478 0.314122 0.139539
Si Si2 0.291122 0.686232 0.089060
Si Si3 0.125451 0.813765 0.043892
Si Si4 0.822073 0.812181 0.685073
Si Si5 0.169168 0.687369 0.481505
Si Si6 0.514622 0.811923 0.277250
O O1 0.093382 0.500000 0.134636
O O2 0.129913 0.240011 0.110410
O O3 0.158434 0.259440 0.240800
O O4 0.978802 0.255728 0.059419
O O5 0.288483 0.500000 0.086540
O O6 0.218439 0.750643 0.080617
O O7 0.404373 0.744666 0.184735
O O8 0.250000 0.750000 0.000000
O O9 0.120811 0.000000 0.037476
O O10 0.715407 0.765311 0.575403
O O11 0.909944 0.752573 0.711565
O O12 0.827254 0.000000 0.692086
O O13 0.171532 0.500000 0.482539
O O14 0.250000 0.750000 0.500000
O O15 0.062831 0.733254 0.373417
O O16 0.512223 0.000000 0.271391
#
# Coordination Sequence:
#
# PCOD9173953 Si02
#       6
#     8   8   8   8   8   8
#     4  11  21  35  54  78 105 135 168 210 254 300
#     4  12  24  38  54  76 104 137 171 208 251 304
#     4  11  22  38  56  76 101 134 171 211 254 302
#     4  10  18  31  51  78 106 137 173 211 252 300
#     4   8  16  29  48  72 102 134 169 209 253 298
#     4  10  19  33  51  76 106 138 171 211 257 303
#
# _framework density 17.228189
#
# number of rings (size 3 to 8) (size 9 to 14) (size 15 to 20)
#    0.000    1.667    0.000    7.500    0.000    1.333 
#    0.000    0.000    0.000    1.000    0.000    7.000 
#    0.000    0.000    0.000    0.000    0.000    0.000 
#
# Total GULP energy -133946.107215 kJ/mol
# GULP energy per Si atom -5581.087801 kJ/mol
# Density = 1.718898 g / cm^3
# Si number density = 17.228189 Si / 1000 Ang^3
#
#
#
# Elastic Constant Matrix: (Units=GPa)
#
#
# Indices 1 2 3 4 5 6 
#
# 1 44.8314 15.3147 42.2103 0.0000 5.7647 0.0000
# 2 15.3147 93.9663 32.2658 0.0000 1.8874 0.0000
# 3 42.2103 32.2658 160.9377 0.0000 -11.3492 0.0000
# 4 0.0000 0.0000 0.0000 24.0048 0.0000 -1.0496
# 5 5.7647 1.8874 -11.3492 0.0000 25.2612 0.0000
# 6 0.0000 0.0000 0.0000 -1.0496 0.0000 28.4982
#
#
#
# Elastic Compliance Matrix: (Units=1/GPa)
#
#
# Indices 1 2 3 4 5 6 
#
# 1 0.032998 -0.002040 -0.009053 0.000000 -0.011445 0.000000
# 2 -0.002040 0.011648 -0.001889 0.000000 -0.001253 0.000000
# 3 -0.009053 -0.001889 0.009421 0.000000 0.006439 0.000000
# 4 0.000000 0.000000 0.000000 0.041725 0.000000 0.001537
# 5 -0.011445 -0.001253 0.006439 0.000000 0.045185 0.000000
# 6 0.000000 0.000000 0.000000 0.001537 0.000000 0.035147
#
#
# Mechanical properties :
#
#
# Convention : Reuss Voigt Hill
#
# Bulk Modulus (GPa) = 35.58165 53.25745 44.41955
# Shear Modulus (GPa) = 23.64587 29.54916 26.59752
#
# Velocity S-wave (km/s) = 3.70876 4.14595 3.93343
# Velocity P-wave (km/s) = 6.24803 7.34156 6.81676
#
# Compressibility (1/GPa) = 0.02810438
#
# Stress axis : x y z
#
# Youngs Moduli (GPa) = 30.30531 85.84974 106.14969
#
# Poissons Ratio (x) = 0.17510 0.96094
# Poissons Ratio (y) = 0.06181 0.20049
# Poissons Ratio (z) = 0.27434 0.16215
#
# Static dielectric constant tensor:
#      x y z
#    x 1.549040 0.000000 -0.018420 
#    y 0.000000 1.576260 0.000000 
#    z -0.018420 0.000000 1.615910 
# 
# From -- ./inp_files/345698.got.cif
#   From: 2010.05.17/outbox.cif.g08.bks.cpg/sg12_173_cif.got.tgz:345698.got - 2010.06.03 13:09:07.
