data_PCOD9173313
_publ_section_title
;
Structure prediction by ZEFSAII (Michael W. Deem and Ramdas Pophale) SiO2 
 PCOD9173313
Probable space group: C 2/M
;
_chemical_formula_sum "Si O2"
_cell_formula_units_Z 48
_cell_length_a 19.481548
_cell_length_b 13.156261
_cell_length_c 11.647658
_cell_angle_alpha 90.000000
_cell_angle_beta 116.215121
_cell_angle_gamma 90.000000
_cell_volume 2678.278010
_symmetry_space_group_name_H-M "C 2/M"
_symmetry_group_IT_number 12
_symmetry_cell_setting 'monoclinic'
loop_
_space_group_symop_operation_xyz
x,y,z
-x,y,-z
-x,-y,-z
x,-y,z
1/2+x,1/2+y,z
1/2-x,1/2+y,-z
1/2-x,1/2-y,-z
1/2+x,1/2-y,z
loop_
_atom_site_type_symbol
_atom_site_label
_atom_site_fract_x
_atom_site_fract_y
_atom_site_fract_z
Si Si1 0.830051 0.115442 0.317604
Si Si2 0.229895 0.378718 0.631483
Si Si3 0.267341 0.269823 0.878495
Si Si4 0.019095 0.117646 0.689839
Si Si5 0.145727 0.791280 0.433973
Si Si6 0.922037 0.115832 0.008016
O O1 0.759980 0.167560 0.202807
O O2 0.914326 0.156956 0.345400
O O3 0.822066 0.131132 0.446212
O O4 0.833373 0.000000 0.284769
O O5 0.230418 0.500000 0.616249
O O6 0.222431 0.350588 0.761749
O O7 0.168466 0.317924 0.505962
O O8 0.308742 0.324270 0.646352
O O9 0.250000 0.250000 0.000000
O O10 0.354268 0.306407 0.936349
O O11 0.058189 0.114834 0.843104
O O12 0.943808 0.186019 0.640946
O O13 0.997095 0.000000 0.643351
O O14 0.898995 0.000000 0.956941
O O15 0.000000 0.140300 0.000000
#
# Coordination Sequence:
#
# PCOD9173313 Si02
#       6
#     8   8   8   8   8   8
#     4  10  20  33  53  80 108 145 188 232 285 340
#     4  10  21  36  56  81 112 151 191 235 286 340
#     4  11  21  35  55  81 114 152 187 233 283 344
#     4  10  18  30  51  79 110 143 182 236 290 337
#     4  10  20  34  55  82 111 145 187 234 287 344
#     4  10  20  34  55  83 113 145 186 238 293 343
#
# _framework density 17.921963000000002
#
# number of rings (size 3 to 8) (size 9 to 14) (size 15 to 20)
#    0.000    1.833    1.667    3.500    0.000    3.333 
#    0.000    0.000    0.000   10.500    0.000    0.000 
#    0.000    0.000    0.000    0.000    0.000    0.000 
#
# Total GULP energy -133674.492586 kJ/mol
# GULP energy per Si atom -5569.770524 kJ/mol
# Density = 1.788117 g / cm^3
# Si number density = 17.921963 Si / 1000 Ang^3
#
#
#
# Elastic Constant Matrix: (Units=GPa)
#
#
# Indices 1 2 3 4 5 6 
#
# 1 91.7399 40.0201 27.8872 0.0000 7.0391 0.0000
# 2 40.0201 92.6187 29.0186 0.0000 16.2738 0.0000
# 3 27.8872 29.0186 79.8124 0.0000 -1.5306 0.0000
# 4 0.0000 0.0000 0.0000 14.8508 0.0000 4.5630
# 5 7.0391 16.2738 -1.5306 0.0000 34.2425 0.0000
# 6 0.0000 0.0000 0.0000 4.5630 0.0000 26.2586
#
#
#
# Elastic Compliance Matrix: (Units=1/GPa)
#
#
# Indices 1 2 3 4 5 6 
#
# 1 0.014075 -0.004989 -0.003117 0.000000 -0.000662 0.000000
# 2 -0.004989 0.015321 -0.003951 0.000000 -0.006432 0.000000
# 3 -0.003117 -0.003951 0.015116 0.000000 0.003194 0.000000
# 4 0.000000 0.000000 0.000000 0.071135 0.000000 -0.012361
# 5 -0.000662 -0.006432 0.003194 0.000000 0.032539 0.000000
# 6 0.000000 0.000000 0.000000 -0.012361 0.000000 0.040231
#
#
# Mechanical properties :
#
#
# Convention : Reuss Voigt Hill
#
# Bulk Modulus (GPa) = 49.02159 50.89144 49.95651
# Shear Modulus (GPa) = 22.79689 26.22004 24.50847
#
# Velocity S-wave (km/s) = 3.57039 3.82908 3.70200
# Velocity P-wave (km/s) = 6.66402 6.92870 6.79765
#
# Compressibility (1/GPa) = 0.02039918
#
# Stress axis : x y z
#
# Youngs Moduli (GPa) = 71.04838 65.27168 66.15519
#
# Poissons Ratio (x) = 0.32564 0.20618
# Poissons Ratio (y) = 0.35446 0.26135
# Poissons Ratio (z) = 0.22144 0.25786
#
# Static dielectric constant tensor:
#      x y z
#    x 1.672550 0.000000 -0.053620 
#    y 0.000000 1.613030 0.000000 
#    z -0.053620 0.000000 1.672920 
# 
# From -- ./inp_files/164713.got.cif
#   From: 2010.05.17/outbox.cif.g08.bks.cpg/sg12_83_cif.got.tgz:164713.got - 2010.06.03 13:09:07.
