data_PCOD9173692
_publ_section_title
;
Structure prediction by ZEFSAII (Michael W. Deem and Ramdas Pophale) SiO2 
 PCOD9173692
Probable space group: C 2/M
;
_chemical_formula_sum "Si O2"
_cell_formula_units_Z 52
_cell_length_a 18.769838
_cell_length_b 8.520660
_cell_length_c 25.300286
_cell_angle_alpha 90.000000
_cell_angle_beta 146.302048
_cell_angle_gamma 90.000000
_cell_volume 2244.952425
_symmetry_space_group_name_H-M "C 2/M"
_symmetry_group_IT_number 12
_symmetry_cell_setting 'monoclinic'
loop_
_space_group_symop_operation_xyz
x,y,z
-x,y,-z
-x,-y,-z
x,-y,z
1/2+x,1/2+y,z
1/2-x,1/2+y,-z
1/2-x,1/2-y,-z
1/2+x,1/2-y,z
loop_
_atom_site_type_symbol
_atom_site_label
_atom_site_fract_x
_atom_site_fract_y
_atom_site_fract_z
Si Si1 0.743631 0.820603 0.786404
Si Si2 0.077594 0.679996 0.842131
Si Si3 0.685437 0.814334 0.641265
Si Si4 0.886212 0.180504 0.025578
Si Si5 0.004962 0.818540 0.316586
Si Si6 0.401428 0.185805 0.519571
Si Si7 0.500000 0.753025 0.000000
O O1 0.771817 0.764132 0.743947
O O2 0.637833 0.711701 0.747943
O O3 0.690882 0.000000 0.751872
O O4 0.870957 0.825879 0.898855
O O5 0.048084 0.500000 0.836690
O O6 0.064235 0.788214 0.885017
O O7 0.999326 0.730855 0.742049
O O8 0.231770 0.688727 0.926767
O O9 0.686791 0.747761 0.582733
O O10 0.543565 0.796712 0.580546
O O11 0.706936 0.000000 0.647165
O O12 0.922193 0.000000 0.033481
O O13 0.944121 0.309921 0.021398
O O14 0.095136 0.760783 0.420424
O O15 0.029073 0.000000 0.321733
O O16 0.378262 0.000000 0.511847
#
# Coordination Sequence:
#
# PCOD9173692 Si02
#       7
#     8   8   8   8   8   8   4
#     4  10  18  31  49  71 101 138 175 208 249 302
#     4  10  20  36  54  72 100 138 174 212 256 305
#     4   7  12  23  42  66  94 128 166 205 246 300
#     4  10  20  34  53  76 102 133 174 214 253 298
#     4  11  20  30  47  74 102 131 168 215 261 303
#     4   8  13  25  44  66  93 128 166 205 252 306
#     4  12  21  34  57  82 105 138 177 214 249 298
#
# _framework density 23.163074000000002
#
# number of rings (size 3 to 8) (size 9 to 14) (size 15 to 20)
#    0.000    2.462    1.538    5.077    0.000    0.615 
#    0.000    7.692    0.000    0.000    0.000    1.077 
#    0.000    0.000    0.000    0.000    0.000    0.000 
#
# Total GULP energy -144807.591780 kJ/mol
# GULP energy per Si atom -5569.522761 kJ/mol
# Density = 2.311035 g / cm^3
# Si number density = 23.163074 Si / 1000 Ang^3
#
#
#
# Elastic Constant Matrix: (Units=GPa)
#
#
# Indices 1 2 3 4 5 6 
#
# 1 59.6374 9.9200 42.1363 0.0000 -13.7582 0.0000
# 2 9.9200 55.2017 22.2109 -0.0002 -11.5364 0.0000
# 3 42.1363 22.2109 149.6739 0.0000 -59.3213 0.0000
# 4 0.0000 -0.0002 0.0000 -19.6404 0.0000 -1.5053
# 5 -13.7582 -11.5364 -59.3213 0.0000 47.7523 0.0000
# 6 0.0000 0.0000 0.0000 -1.5053 0.0000 0.3303
#
#
#
# Elastic Compliance Matrix: (Units=1/GPa)
#
#
# Indices 1 2 3 4 5 6 
#
# 1 0.021228 -0.001645 -0.006827 0.000000 -0.002762 0.000000
# 2 -0.001645 0.019508 -0.001481 0.000000 0.002399 -0.000002
# 3 -0.006827 -0.001481 0.015565 0.000000 0.017011 0.000000
# 4 0.000000 0.000000 0.000000 -0.037733 0.000000 -0.171988
# 5 -0.002762 0.002399 0.017011 0.000000 0.041858 -0.000001
# 6 0.000000 -0.000002 0.000000 -0.171988 -0.000001 2.243954
#
#
# Mechanical properties :
#
#
# Convention : Reuss Voigt Hill
#
# Bulk Modulus (GPa) = 27.47559 45.89415 36.68487
# Shear Modulus (GPa) = 2.14003 18.37149 10.25576
#
# Velocity S-wave (km/s) = 0.96224 2.81932 2.10648
# Velocity P-wave (km/s) = 3.62244 5.51857 4.66780
#
# Compressibility (1/GPa) = 0.03639594
#
# Stress axis : x y z
#
# Youngs Moduli (GPa) = 47.10823 51.26026 64.24686
#
# Poissons Ratio (x) = 0.08433 0.43858
# Poissons Ratio (y) = 0.07750 0.09514
# Poissons Ratio (z) = 0.32158 0.07591
#
# Static dielectric constant tensor:
#      x y z
#    x 1.927570 0.000000 -0.012720 
#    y 0.000000 1.805900 0.000000 
#    z -0.012720 0.000000 1.925790 
# 
# From -- ./inp_files/346362.got.cif
#   From: 2010.05.17/outbox.cif.g08.bks.cpg/sg12_174_cif.got.tgz:346362.got - 2010.06.03 13:09:07.
