data_PCOD9173455
_publ_section_title
;
Structure prediction by ZEFSAII (Michael W. Deem and Ramdas Pophale) SiO2 
 PCOD9173455
Probable space group: C 2/M
;
_chemical_formula_sum "Si O2"
_cell_formula_units_Z 48
_cell_length_a 14.706600
_cell_length_b 11.171972
_cell_length_c 22.470273
_cell_angle_alpha 90.000000
_cell_angle_beta 42.086337
_cell_angle_gamma 90.000000
_cell_volume 2474.497808
_symmetry_space_group_name_H-M "C 2/M"
_symmetry_group_IT_number 12
_symmetry_cell_setting 'monoclinic'
loop_
_space_group_symop_operation_xyz
x,y,z
-x,y,-z
-x,-y,-z
x,-y,z
1/2+x,1/2+y,z
1/2-x,1/2+y,-z
1/2-x,1/2-y,-z
1/2+x,1/2-y,z
loop_
_atom_site_type_symbol
_atom_site_label
_atom_site_fract_x
_atom_site_fract_y
_atom_site_fract_z
Si Si1 0.379095 0.500000 0.105451
Si Si2 0.603092 0.633196 0.701873
Si Si3 0.134270 0.742557 0.475825
Si Si4 0.530998 0.225845 0.326829
Si Si5 0.871527 0.500000 0.210176
Si Si6 0.568529 0.000000 0.225388
Si Si7 0.163979 0.000000 0.419193
Si Si8 0.841935 0.762326 0.202399
O O1 0.232046 0.500000 0.144657
O O2 0.384514 0.375804 0.141077
O O3 0.500000 0.500000 0.000000
O O4 0.589336 0.500000 0.731280
O O5 0.750159 0.652266 0.600822
O O6 0.494672 0.662394 0.703861
O O7 0.596843 0.718384 0.761848
O O8 0.196503 0.875329 0.435607
O O9 0.000000 0.731725 0.500000
O O10 0.082249 0.724284 0.567581
O O11 0.678424 0.228592 0.285072
O O12 0.525392 0.113380 0.285792
O O13 0.737314 0.500000 0.319115
O O14 0.873447 0.623724 0.172071
O O15 0.995006 0.500000 0.197737
O O16 0.000000 0.000000 0.500000
#
# Coordination Sequence:
#
# PCOD9173455 Si02
#       8
#     4   8   8   8   4   4   4   8
#     4  10  24  48  71  97 127 157 195 252 329 410
#     4  12  24  37  55  87 122 163 220 258 306 361
#     4  11  21  35  53  79 119 171 219 266 306 346
#     4  11  23  38  57  86 121 168 217 261 305 362
#     4  12  20  40  62  94 126 165 215 258 300 370
#     4  10  22  40  68  88 119 161 210 253 324 373
#     4  10  18  30  53  80 119 165 215 258 298 337
#     4  11  22  41  68  90 123 166 200 255 315 376
#
# _framework density 19.397876
#
# number of rings (size 3 to 8) (size 9 to 14) (size 15 to 20)
#    0.000    1.000    5.833    1.500    3.500    0.333 
#    0.000    1.250    0.000    0.000    0.000    0.000 
#    0.000    0.000    0.000    0.000    0.000    0.000 
#
# Total GULP energy -133987.832967 kJ/mol
# GULP energy per Si atom -5582.826374 kJ/mol
# Density = 1.935373 g / cm^3
# Si number density = 19.397876 Si / 1000 Ang^3
#
#
#
# Elastic Constant Matrix: (Units=GPa)
#
#
# Indices 1 2 3 4 5 6 
#
# 1 53.7711 5.8510 19.0102 0.0000 -0.1984 0.0000
# 2 5.8510 125.9077 28.9154 0.0000 0.1764 0.0000
# 3 19.0102 28.9154 84.8534 0.0000 -2.6669 0.0000
# 4 0.0000 0.0000 0.0000 13.9585 0.0000 4.0315
# 5 -0.1984 0.1764 -2.6669 0.0000 10.5249 0.0000
# 6 0.0000 0.0000 0.0000 4.0315 0.0000 24.6044
#
#
#
# Elastic Compliance Matrix: (Units=1/GPa)
#
#
# Indices 1 2 3 4 5 6 
#
# 1 0.020205 0.000117 -0.004591 0.000000 -0.000784 0.000000
# 2 0.000117 0.008626 -0.002994 0.000000 -0.000901 0.000000
# 3 -0.004591 -0.002994 0.013944 0.000000 0.003497 0.000000
# 4 0.000000 0.000000 0.000000 0.075199 0.000000 -0.012322
# 5 -0.000784 -0.000901 0.003497 0.000000 0.095899 0.000000
# 6 0.000000 0.000000 0.000000 -0.012322 0.000000 0.042662
#
#
# Mechanical properties :
#
#
# Convention : Reuss Voigt Hill
#
# Bulk Modulus (GPa) = 35.92245 41.34283 38.63264
# Shear Modulus (GPa) = 17.80943 23.86795 20.83869
#
# Velocity S-wave (km/s) = 3.03332 3.51157 3.28117
# Velocity P-wave (km/s) = 5.55221 6.14824 5.85781
#
# Compressibility (1/GPa) = 0.02783774
#
# Stress axis : x y z
#
# Youngs Moduli (GPa) = 49.49300 115.93246 71.71721
#
# Poissons Ratio (x) = -0.01351 0.32925
# Poissons Ratio (y) = -0.00577 0.21471
# Poissons Ratio (z) = 0.22722 0.34708
#
# Static dielectric constant tensor:
#      x y z
#    x 1.704210 0.000000 -0.011730 
#    y 0.000000 1.738210 0.000000 
#    z -0.011730 0.000000 1.619650 
# 
# From -- ./inp_files/212730.got.cif
#   From: 2010.05.17/outbox.cif.g08.bks.cpg/sg12_107_cif.got.tgz:212730.got - 2010.06.03 13:09:07.
