data_PCOD9173076
_publ_section_title
;
Structure prediction by ZEFSAII (Michael W. Deem and Ramdas Pophale) SiO2 
 PCOD9173076
Probable space group: C 2/M
;
_chemical_formula_sum "Si O2"
_cell_formula_units_Z 44
_cell_length_a 13.429619
_cell_length_b 29.547226
_cell_length_c 10.424158
_cell_angle_alpha 90.000000
_cell_angle_beta 144.044620
_cell_angle_gamma 90.000000
_cell_volume 2428.701739
_symmetry_space_group_name_H-M "C 2/M"
_symmetry_group_IT_number 12
_symmetry_cell_setting 'monoclinic'
loop_
_space_group_symop_operation_xyz
x,y,z
-x,y,-z
-x,-y,-z
x,-y,z
1/2+x,1/2+y,z
1/2-x,1/2+y,-z
1/2-x,1/2-y,-z
1/2+x,1/2-y,z
loop_
_atom_site_type_symbol
_atom_site_label
_atom_site_fract_x
_atom_site_fract_y
_atom_site_fract_z
Si Si1 0.490413 0.551348 0.335026
Si Si2 0.000000 0.748745 0.500000
Si Si3 0.134288 0.793784 0.391175
Si Si4 0.776160 0.795346 0.944348
Si Si5 0.702529 0.116619 0.351320
Si Si6 0.187035 0.381209 0.028593
O O1 0.500000 0.549033 0.500000
O O2 0.482476 0.500000 0.277809
O O3 0.660170 0.578193 0.473641
O O4 0.324104 0.581033 0.131497
O O5 0.956079 0.782853 0.568198
O O6 0.843253 0.715756 0.300960
O O7 0.250000 0.750000 0.500000
O O8 0.245536 0.838319 0.519173
O O9 0.977181 0.799110 0.130666
O O10 0.715977 0.837577 0.968558
O O11 0.750000 0.750000 0.000000
O O12 0.715380 0.127592 0.211213
O O13 0.509367 0.103974 0.181932
#
# Coordination Sequence:
#
# PCOD9173076 Si02
#       6
#     8   4   8   8   8   8
#     4   9  18  31  48  72 103 136 175 219 261 311
#     4  10  22  34  50  72 106 140 174 222 258 300
#     4  11  21  33  51  75 105 140 180 213 257 316
#     4  10  19  33  49  70 102 135 171 211 253 305
#     4  10  18  30  50  73 102 139 173 209 261 315
#     4  10  19  31  50  73 103 139 173 210 261 317
#
# _framework density 18.116675000000001
#
# number of rings (size 3 to 8) (size 9 to 14) (size 15 to 20)
#    0.000    2.000    1.818    4.364    1.273    2.909 
#    0.000    3.636    0.000    0.000    0.000    0.636 
#    0.000    4.727    0.000    0.182    0.000    0.000 
#
# Total GULP energy -122619.250771 kJ/mol
# GULP energy per Si atom -5573.602308 kJ/mol
# Density = 1.807544 g / cm^3
# Si number density = 18.116675 Si / 1000 Ang^3
#
#
#
# Elastic Constant Matrix: (Units=GPa)
#
#
# Indices 1 2 3 4 5 6 
#
# 1 28.0674 14.5531 21.3337 0.0000 15.3899 0.0000
# 2 14.5531 132.1066 54.1747 0.0000 22.3273 0.0000
# 3 21.3337 54.1747 145.0541 0.0000 34.6157 0.0000
# 4 0.0000 0.0000 0.0000 20.7722 0.0000 -0.3579
# 5 15.3899 22.3273 34.6157 0.0000 32.8384 0.0000
# 6 0.0000 0.0000 0.0000 -0.3579 0.0000 22.3385
#
#
#
# Elastic Compliance Matrix: (Units=1/GPa)
#
#
# Indices 1 2 3 4 5 6 
#
# 1 0.048663 -0.001190 -0.001955 0.000000 -0.019936 0.000000
# 2 -0.001190 0.009264 -0.002559 0.000000 -0.003044 0.000000
# 3 -0.001955 -0.002559 0.010025 0.000000 -0.007912 0.000000
# 4 0.000000 0.000000 0.000000 0.048155 0.000000 0.000771
# 5 -0.019936 -0.003044 -0.007912 0.000000 0.050206 0.000000
# 6 0.000000 0.000000 0.000000 0.000771 0.000000 0.044778
#
#
# Mechanical properties :
#
#
# Convention : Reuss Voigt Hill
#
# Bulk Modulus (GPa) = 17.68473 53.92791 35.80632
# Shear Modulus (GPa) = 20.71712 29.53424 25.12568
#
# Velocity S-wave (km/s) = 3.38529 4.04198 3.72813
# Velocity P-wave (km/s) = 5.00630 7.18437 6.19186
#
# Compressibility (1/GPa) = 0.05654595
#
# Stress axis : x y z
#
# Youngs Moduli (GPa) = 20.54953 107.93918 99.74862
#
# Poissons Ratio (x) = 0.12840 0.19502
# Poissons Ratio (y) = 0.02445 0.25522
# Poissons Ratio (z) = 0.04018 0.27617
#
# Static dielectric constant tensor:
#      x y z
#    x 1.672240 0.000000 -0.001460 
#    y 0.000000 1.591010 0.000000 
#    z -0.001460 0.000000 1.734790 
# 
# From -- ./inp_files/149546.got.cif
#   From: 2010.05.17/outbox.cif.g08.bks.cpg/sg12_75_cif.got.tgz:149546.got - 2010.06.03 13:09:07.
