data_PCOD9173673
_publ_section_title
;
Structure prediction by ZEFSAII (Michael W. Deem and Ramdas Pophale) SiO2 
 PCOD9173673
Probable space group: C 2/M
;
_chemical_formula_sum "Si O2"
_cell_formula_units_Z 64
_cell_length_a 28.236261
_cell_length_b 8.771087
_cell_length_c 21.086646
_cell_angle_alpha 90.000000
_cell_angle_beta 128.204134
_cell_angle_gamma 90.000000
_cell_volume 4103.806929
_symmetry_space_group_name_H-M "C 2/M"
_symmetry_group_IT_number 12
_symmetry_cell_setting 'monoclinic'
loop_
_space_group_symop_operation_xyz
x,y,z
-x,y,-z
-x,-y,-z
x,-y,z
1/2+x,1/2+y,z
1/2-x,1/2+y,-z
1/2-x,1/2-y,-z
1/2+x,1/2-y,z
loop_
_atom_site_type_symbol
_atom_site_label
_atom_site_fract_x
_atom_site_fract_y
_atom_site_fract_z
Si Si1 0.790966 0.175589 0.442037
Si Si2 0.893305 0.180912 0.769313
Si Si3 0.870809 0.818222 0.023672
Si Si4 0.491497 0.180846 0.067449
Si Si5 0.691592 0.182745 0.915058
Si Si6 0.244888 0.318121 0.144803
Si Si7 0.157571 0.324536 0.395368
Si Si8 0.236952 0.181150 0.276028
O O1 0.693254 0.500000 0.556989
O O2 0.835721 0.250897 0.529884
O O3 0.725029 0.176960 0.421112
O O4 0.781316 0.266190 0.368980
O O5 0.882350 0.232406 0.687863
O O6 0.831136 0.214098 0.755745
O O7 0.948401 0.269249 0.846260
O O8 0.903669 0.000000 0.781005
O O9 0.817405 0.749210 0.935696
O O10 0.863624 0.000000 0.020462
O O11 0.934341 0.770979 0.046992
O O12 0.862463 0.746974 0.086971
O O13 0.481108 0.000000 0.066175
O O14 0.500000 0.213460 0.000000
O O15 0.701176 0.246255 0.852449
O O16 0.692565 0.000000 0.916666
O O17 0.750000 0.250000 0.000000
O O18 0.244407 0.500000 0.137149
O O19 0.248686 0.269066 0.220771
O O20 0.138179 0.500000 0.383106
O O21 0.241485 0.000000 0.269728
#
# Coordination Sequence:
#
# PCOD9173673 Si02
#       8
#     8   8   8   8   8   8   8   8
#     4   9  16  26  41  62  87 116 149 184 224 269
#     4  10  20  32  46  64  88 120 157 194 229 268
#     4  11  21  34  50  67  89 118 153 191 230 270
#     4  11  23  36  49  66  90 121 157 194 230 268
#     4  10  18  31  49  68  89 114 147 185 227 272
#     4  11  20  31  47  68  93 120 151 186 228 274
#     4   9  16  27  43  61  84 115 150 187 225 267
#     4  10  19  30  44  65  93 123 154 187 227 273
#
# _framework density 15.595275000000001
#
# number of rings (size 3 to 8) (size 9 to 14) (size 15 to 20)
#    0.000    1.875    0.000    7.500    0.000    7.500 
#    0.000    0.000    0.000    0.000    0.000    0.000 
#    0.000    1.000    0.000   10.000    0.000    6.500 
#
# Total GULP energy -178539.328096 kJ/mol
# GULP energy per Si atom -5579.354003 kJ/mol
# Density = 1.555978 g / cm^3
# Si number density = 15.595275 Si / 1000 Ang^3
#
#
#
# Elastic Constant Matrix: (Units=GPa)
#
#
# Indices 1 2 3 4 5 6 
#
# 1 71.8876 50.7710 35.0576 0.0000 -17.5622 0.0000
# 2 50.7710 123.8586 36.5654 0.0000 -15.0505 0.0000
# 3 35.0576 36.5654 86.0947 0.0000 -20.4991 0.0000
# 4 0.0000 0.0000 0.0000 27.1623 0.0000 -3.6992
# 5 -17.5622 -15.0505 -20.4991 0.0000 16.5611 0.0000
# 6 0.0000 0.0000 0.0000 -3.6992 0.0000 23.2152
#
#
#
# Elastic Compliance Matrix: (Units=1/GPa)
#
#
# Indices 1 2 3 4 5 6 
#
# 1 0.024241 -0.007136 -0.003209 0.000000 0.015248 0.000000
# 2 -0.007136 0.011635 -0.001872 0.000000 0.000690 0.000000
# 3 -0.003209 -0.001872 0.017726 0.000000 0.016836 0.000000
# 4 0.000000 0.000000 0.000000 0.037632 0.000000 0.005996
# 5 0.015248 0.000690 0.016836 0.000000 0.098019 0.000000
# 6 0.000000 0.000000 0.000000 0.005996 0.000000 0.044031
#
#
# Mechanical properties :
#
#
# Convention : Reuss Voigt Hill
#
# Bulk Modulus (GPa) = 34.28480 58.51432 46.39956
# Shear Modulus (GPa) = 18.69570 24.01750 21.35660
#
# Velocity S-wave (km/s) = 3.46613 3.92860 3.70459
# Velocity P-wave (km/s) = 6.16852 7.62762 6.93654
#
# Compressibility (1/GPa) = 0.02916744
#
# Stress axis : x y z
#
# Youngs Moduli (GPa) = 41.25246 85.94534 56.41587
#
# Poissons Ratio (x) = 0.61333 0.18106
# Poissons Ratio (y) = 0.29439 0.10558
# Poissons Ratio (z) = 0.13239 0.16085
#
# Static dielectric constant tensor:
#      x y z
#    x 1.526110 0.000000 -0.016530 
#    y 0.000000 1.522890 0.000000 
#    z -0.016530 0.000000 1.509330 
# 
# From -- ./inp_files/326969.got.cif
#   From: 2010.05.17/outbox.cif.g08.bks.cpg/sg12_164_cif.got.tgz:326969.got - 2010.06.03 13:09:07.
