data_PCOD9173230
_publ_section_title
;
Structure prediction by ZEFSAII (Michael W. Deem and Ramdas Pophale) SiO2 
 PCOD9173230
Probable space group: C 2/M
;
_chemical_formula_sum "Si O2"
_cell_formula_units_Z 56
_cell_length_a 20.447401
_cell_length_b 7.534000
_cell_length_c 21.995311
_cell_angle_alpha 90.000000
_cell_angle_beta 126.047108
_cell_angle_gamma 90.000000
_cell_volume 2739.629468
_symmetry_space_group_name_H-M "C 2/M"
_symmetry_group_IT_number 12
_symmetry_cell_setting 'monoclinic'
loop_
_space_group_symop_operation_xyz
x,y,z
-x,y,-z
-x,-y,-z
x,-y,z
1/2+x,1/2+y,z
1/2-x,1/2+y,-z
1/2-x,1/2-y,-z
1/2+x,1/2-y,z
loop_
_atom_site_type_symbol
_atom_site_label
_atom_site_fract_x
_atom_site_fract_y
_atom_site_fract_z
Si Si1 0.005857 0.782773 0.630605
Si Si2 0.382586 0.284743 0.199287
Si Si3 0.844558 0.212186 0.047251
Si Si4 0.235815 0.206462 0.206272
Si Si5 0.173147 0.212983 0.500617
Si Si6 0.907137 0.217623 0.952211
Si Si7 0.148653 0.205698 0.622451
O O1 0.913802 0.724388 0.572282
O O2 0.045740 0.729135 0.716437
O O3 0.068085 0.720323 0.611697
O O4 0.006817 0.000000 0.629665
O O5 0.380656 0.500000 0.198235
O O6 0.386095 0.221883 0.131922
O O7 0.299545 0.224004 0.185691
O O8 0.856701 0.000000 0.052801
O O9 0.750000 0.250000 0.000000
O O10 0.874720 0.280942 0.999423
O O11 0.151279 0.278257 0.134297
O O12 0.279866 0.287860 0.288734
O O13 0.225413 0.000000 0.215296
O O14 0.250000 0.250000 0.500000
O O15 0.175885 0.279572 0.572159
O O16 0.169589 0.000000 0.500574
O O17 0.903093 0.000000 0.948779
O O18 0.000000 0.268819 0.000000
O O19 0.128447 0.000000 0.600383
#
# Coordination Sequence:
#
# PCOD9173230 Si02
#       7
#     8   8   8   8   8   8   8
#     4   8  15  31  54  77  96 125 171 210 238 284
#     4   9  17  30  51  77  99 126 166 209 249 289
#     4  10  18  30  51  74  99 131 166 205 248 293
#     4  10  18  30  51  77 101 128 163 208 254 291
#     4  10  20  35  54  76 105 134 162 200 248 298
#     4   9  18  32  47  70 103 134 166 205 248 292
#     4   9  18  34  56  76  97 130 169 207 244 289
#
# _framework density 20.440722000000001
#
# number of rings (size 3 to 8) (size 9 to 14) (size 15 to 20)
#    0.000    2.714    1.429    1.714    0.000    2.286 
#    2.571    2.857    0.000    8.143    0.000    0.000 
#    0.000    0.000    0.000    0.000    0.000    0.000 
#
# Total GULP energy -156143.368836 kJ/mol
# GULP energy per Si atom -5576.548887 kJ/mol
# Density = 2.039420 g / cm^3
# Si number density = 20.440722 Si / 1000 Ang^3
#
#
#
# Elastic Constant Matrix: (Units=GPa)
#
#
# Indices 1 2 3 4 5 6 
#
# 1 148.6121 -2.0136 100.0667 0.0000 11.2954 0.0000
# 2 -2.0136 49.5949 -1.3092 0.0000 -1.4094 0.0000
# 3 100.0667 -1.3092 152.0211 0.0000 9.5604 0.0000
# 4 0.0000 0.0000 0.0000 10.6684 0.0000 1.5985
# 5 11.2954 -1.4094 9.5604 0.0000 31.5661 0.0000
# 6 0.0000 0.0000 0.0000 1.5985 0.0000 18.7027
#
#
#
# Elastic Compliance Matrix: (Units=1/GPa)
#
#
# Indices 1 2 3 4 5 6 
#
# 1 0.012207 0.000231 -0.007910 0.000000 -0.001962 0.000000
# 2 0.000231 0.020196 -0.000030 0.000000 0.000828 0.000000
# 3 -0.007910 -0.000030 0.011832 0.000000 -0.000754 0.000000
# 4 0.000000 0.000000 0.000000 0.094951 0.000000 -0.008115
# 5 -0.001962 0.000828 -0.000754 0.000000 0.032647 0.000000
# 6 0.000000 0.000000 0.000000 -0.008115 0.000000 0.054162
#
#
# Mechanical properties :
#
#
# Convention : Reuss Voigt Hill
#
# Bulk Modulus (GPa) = 34.70250 60.41286 47.55768
# Shear Modulus (GPa) = 19.91885 29.08638 24.50261
#
# Velocity S-wave (km/s) = 3.12504 3.77631 3.46600
# Velocity P-wave (km/s) = 5.48043 6.97376 6.27170
#
# Compressibility (1/GPa) = 0.02881637
#
# Stress axis : x y z
#
# Youngs Moduli (GPa) = 81.91816 49.51598 84.51730
#
# Poissons Ratio (x) = -0.01144 0.66853
# Poissons Ratio (y) = -0.01893 0.00256
# Poissons Ratio (z) = 0.64797 0.00150
#
# Static dielectric constant tensor:
#      x y z
#    x 1.691890 0.000000 -0.009390 
#    y 0.000000 1.785130 0.000000 
#    z -0.009390 0.000000 1.738390 
# 
# From -- ./inp_files/314390.got.cif
#   From: 2010.05.17/outbox.cif.g08.bks.cpg/sg12_158_cif.got.tgz:314390.got - 2010.06.03 13:09:07.
