data_PCOD9173763
_publ_section_title
;
Structure prediction by ZEFSAII (Michael W. Deem and Ramdas Pophale) SiO2 
 PCOD9173763
Probable space group: C 2/M
;
_chemical_formula_sum "Si O2"
_cell_formula_units_Z 56
_cell_length_a 28.348949
_cell_length_b 10.494939
_cell_length_c 26.606210
_cell_angle_alpha 90.000000
_cell_angle_beta 25.080522
_cell_angle_gamma 90.000000
_cell_volume 3355.479968
_symmetry_space_group_name_H-M "C 2/M"
_symmetry_group_IT_number 12
_symmetry_cell_setting 'monoclinic'
loop_
_space_group_symop_operation_xyz
x,y,z
-x,y,-z
-x,-y,-z
x,-y,z
1/2+x,1/2+y,z
1/2-x,1/2+y,-z
1/2-x,1/2-y,-z
1/2+x,1/2-y,z
loop_
_atom_site_type_symbol
_atom_site_label
_atom_site_fract_x
_atom_site_fract_y
_atom_site_fract_z
Si Si1 0.102567 0.653623 0.969192
Si Si2 0.633678 0.138810 0.149194
Si Si3 0.870947 0.771558 0.949635
Si Si4 0.761417 0.151357 0.605874
Si Si5 0.652490 0.846750 0.812404
Si Si6 0.886166 0.857236 0.309201
Si Si7 0.471001 0.354827 0.338653
O O1 0.110655 0.500000 0.965283
O O2 0.163797 0.698180 0.858952
O O3 0.142123 0.715249 0.982432
O O4 0.971811 0.685240 0.086969
O O5 0.622397 0.164433 0.100435
O O6 0.567363 0.251661 0.240522
O O7 0.588456 0.000000 0.205496
O O8 0.763029 0.148223 0.038625
O O9 0.987474 0.845316 0.832997
O O10 0.738767 0.188171 0.685667
O O11 0.685290 0.244268 0.645875
O O12 0.887599 0.164363 0.465349
O O13 0.731476 0.000000 0.628563
O O14 0.654751 0.000000 0.813715
O O15 0.897805 0.843453 0.358197
O O16 0.842950 0.000000 0.339982
O O17 0.515009 0.500000 0.297063
#
# Coordination Sequence:
#
# PCOD9173763 Si02
#       7
#     8   8   8   8   8   8   8
#     4   9  15  26  46  74 100 125 156 198 245 290
#     4  10  21  34  50  73  98 131 169 202 239 288
#     4  10  19  31  50  71  99 130 160 200 244 290
#     4  10  18  31  50  71  97 129 161 198 242 288
#     4   8  15  26  45  73 101 123 156 199 242 287
#     4  10  19  30  45  70 101 129 157 195 242 291
#     4   9  20  34  47  67  98 131 165 203 239 280
#
# _framework density 16.689118000000001
#
# number of rings (size 3 to 8) (size 9 to 14) (size 15 to 20)
#    0.000    2.571    1.429    2.143    0.000    6.857 
#    0.000    0.000    0.000    3.429    0.000    5.000 
#    0.000    0.000    0.000    0.000    0.000    0.000 
#
# Total GULP energy -155949.181354 kJ/mol
# GULP energy per Si atom -5569.613620 kJ/mol
# Density = 1.665113 g / cm^3
# Si number density = 16.689118 Si / 1000 Ang^3
#
#
#
# Elastic Constant Matrix: (Units=GPa)
#
#
# Indices 1 2 3 4 5 6 
#
# 1 41.9250 14.8643 18.7015 0.0002 16.4274 -0.0002
# 2 14.8643 73.5479 35.8769 -0.0001 -0.5058 0.0001
# 3 18.7015 35.8769 83.6228 0.0001 21.9352 -0.0002
# 4 0.0002 -0.0001 0.0001 10.9176 0.0000 5.5761
# 5 16.4274 -0.5058 21.9352 0.0000 28.0267 0.0000
# 6 -0.0002 0.0001 -0.0002 5.5761 0.0000 -2.1645
#
#
#
# Elastic Compliance Matrix: (Units=1/GPa)
#
#
# Indices 1 2 3 4 5 6 
#
# 1 0.034346 -0.007651 0.001155 0.000000 -0.021173 -0.000002
# 2 -0.007651 0.020312 -0.010414 0.000000 0.013001 0.000002
# 3 0.001155 -0.010414 0.020630 0.000001 -0.017012 -0.000001
# 4 0.000000 0.000000 0.000001 0.039553 -0.000001 0.101895
# 5 -0.021173 0.013001 -0.017012 -0.000001 0.061639 0.000003
# 6 -0.000002 0.000002 -0.000001 0.101895 0.000003 -0.199503
#
#
# Mechanical properties :
#
#
# Convention : Reuss Voigt Hill
#
# Bulk Modulus (GPa) = 24.11412 37.55348 30.83380
# Shear Modulus (GPa) = 203.09524 15.99949 109.54737
#
# Velocity S-wave (km/s) = 11.04343 3.09961 8.11064
# Velocity P-wave (km/s) = 13.30753 5.94649 10.30658
#
# Compressibility (1/GPa) = 0.04146947
#
# Stress axis : x y z
#
# Youngs Moduli (GPa) = 29.11587 49.23148 48.47214
#
# Poissons Ratio (x) = 0.37665 -0.05600
# Poissons Ratio (y) = 0.22275 0.50479
# Poissons Ratio (z) = -0.03364 0.51270
#
# Static dielectric constant tensor:
#      x y z
#    x 1.549490 0.000000 0.020200 
#    y 0.000000 1.570410 0.000000 
#    z 0.020200 0.000000 1.584680 
# 
# From -- ./inp_files/351603.got.cif
#   From: 2010.05.17/outbox.cif.g08.bks.cpg/sg12_176_cif.got.tgz:351603.got - 2010.06.03 13:09:07.
