data_PCOD9173303
_publ_section_title
;
Structure prediction by ZEFSAII (Michael W. Deem and Ramdas Pophale) SiO2 
 PCOD9173303
Probable space group: C 2/M
;
_chemical_formula_sum "Si O2"
_cell_formula_units_Z 48
_cell_length_a 27.599642
_cell_length_b 13.008863
_cell_length_c 8.082731
_cell_angle_alpha 90.000000
_cell_angle_beta 77.643802
_cell_angle_gamma 90.000000
_cell_volume 2834.801409
_symmetry_space_group_name_H-M "C 2/M"
_symmetry_group_IT_number 12
_symmetry_cell_setting 'monoclinic'
loop_
_space_group_symop_operation_xyz
x,y,z
-x,y,-z
-x,-y,-z
x,-y,z
1/2+x,1/2+y,z
1/2-x,1/2+y,-z
1/2-x,1/2-y,-z
1/2+x,1/2-y,z
loop_
_atom_site_type_symbol
_atom_site_label
_atom_site_fract_x
_atom_site_fract_y
_atom_site_fract_z
Si Si1 0.806469 0.712601 0.945137
Si Si2 0.116393 0.119936 0.229416
Si Si3 0.508969 0.375714 0.181890
Si Si4 0.319629 0.236159 0.295049
Si Si5 0.278200 0.119269 0.634352
Si Si6 0.098356 0.119669 0.629617
O O1 0.841261 0.809072 0.876042
O O2 0.806338 0.637397 0.787973
O O3 0.750000 0.750000 0.000000
O O4 0.820916 0.677380 0.118899
O O5 0.062082 0.157741 0.211303
O O6 0.117338 0.124418 0.427722
O O7 0.122617 0.000000 0.176386
O O8 0.511646 0.500000 0.181920
O O9 0.459568 0.350039 0.320309
O O10 0.500000 0.342536 0.000000
O O11 0.310241 0.162842 0.458293
O O12 0.272567 0.314334 0.325883
O O13 0.368176 0.305547 0.285926
O O14 0.266665 0.000000 0.619928
O O15 0.101962 0.000000 0.682868
#
# Coordination Sequence:
#
# PCOD9173303 Si02
#       6
#     8   8   8   8   8   8
#     4  10  21  35  51  75 104 138 182 218 256 310
#     4  10  19  32  50  75 110 145 176 215 264 316
#     4   9  17  28  45  74 108 141 175 209 256 320
#     4  10  20  35  54  78 103 138 178 214 261 320
#     4  10  21  37  53  74 105 137 175 222 265 307
#     4  10  18  30  51  78 110 144 175 212 262 318
#
# _framework density 16.932402
#
# number of rings (size 3 to 8) (size 9 to 14) (size 15 to 20)
#    0.000    2.167    1.667    2.000    0.000    7.333 
#    0.000    0.000    0.000    0.000    0.000    2.333 
#    0.000    4.000    0.000    0.000    0.000    0.000 
#
# Total GULP energy -133792.982513 kJ/mol
# GULP energy per Si atom -5574.707605 kJ/mol
# Density = 1.689386 g / cm^3
# Si number density = 16.932402 Si / 1000 Ang^3
#
#
#
# Elastic Constant Matrix: (Units=GPa)
#
#
# Indices 1 2 3 4 5 6 
#
# 1 81.0200 7.8067 25.2324 0.0000 -0.7084 0.0000
# 2 7.8067 39.9064 25.7920 0.0000 4.0209 0.0000
# 3 25.2324 25.7920 92.6844 0.0000 3.5533 0.0000
# 4 0.0000 0.0000 0.0000 10.1535 0.0000 -2.4859
# 5 -0.7084 4.0209 3.5533 0.0000 32.8689 0.0000
# 6 0.0000 0.0000 0.0000 -2.4859 0.0000 24.3952
#
#
#
# Elastic Compliance Matrix: (Units=1/GPa)
#
#
# Indices 1 2 3 4 5 6 
#
# 1 0.013507 -0.000391 -0.003596 0.000000 0.000728 0.000000
# 2 -0.000391 0.030830 -0.008362 0.000000 -0.002876 0.000000
# 3 -0.003596 -0.008362 0.014118 0.000000 -0.000581 0.000000
# 4 0.000000 0.000000 0.000000 0.101009 0.000000 0.010293
# 5 0.000728 -0.002876 -0.000581 0.000000 0.030854 0.000000
# 6 0.000000 0.000000 0.000000 0.010293 0.000000 0.042041
#
#
# Mechanical properties :
#
#
# Convention : Reuss Voigt Hill
#
# Bulk Modulus (GPa) = 29.62588 36.80812 33.21700
# Shear Modulus (GPa) = 18.63527 23.80216 21.21871
#
# Velocity S-wave (km/s) = 3.32108 3.75336 3.54382
# Velocity P-wave (km/s) = 5.67808 6.36938 6.03364
#
# Compressibility (1/GPa) = 0.03375427
#
# Stress axis : x y z
#
# Youngs Moduli (GPa) = 74.03769 32.43623 70.83344
#
# Poissons Ratio (x) = 0.01270 0.25472
# Poissons Ratio (y) = 0.02898 0.59234
# Poissons Ratio (z) = 0.26624 0.27125
#
# Static dielectric constant tensor:
#      x y z
#    x 1.580430 0.000000 0.024080 
#    y 0.000000 1.531460 0.000000 
#    z 0.024080 0.000000 1.618260 
# 
# From -- ./inp_files/94907.got.cif
#   From: 2010.05.17/outbox.cif.g08.bks.cpg/sg12_48_cif.got.tgz:94907.got - 2010.06.03 13:09:07.
