data_PCOD9173707
_publ_section_title
;
Structure prediction by ZEFSAII (Michael W. Deem and Ramdas Pophale) SiO2 
 PCOD9173707
Probable space group: C 2/M
;
_chemical_formula_sum "Si O2"
_cell_formula_units_Z 50
_cell_length_a 28.621738
_cell_length_b 7.845268
_cell_length_c 11.835054
_cell_angle_alpha 90.000000
_cell_angle_beta 51.353355
_cell_angle_gamma 90.000000
_cell_volume 2075.543823
_symmetry_space_group_name_H-M "C 2/M"
_symmetry_group_IT_number 12
_symmetry_cell_setting 'monoclinic'
loop_
_space_group_symop_operation_xyz
x,y,z
-x,y,-z
-x,-y,-z
x,-y,z
1/2+x,1/2+y,z
1/2-x,1/2+y,-z
1/2-x,1/2-y,-z
1/2+x,1/2-y,z
loop_
_atom_site_type_symbol
_atom_site_label
_atom_site_fract_x
_atom_site_fract_y
_atom_site_fract_z
Si Si1 0.663089 0.709238 0.814431
Si Si2 0.413635 0.697129 0.263390
Si Si3 0.519519 0.812786 0.626540
Si Si4 0.807787 0.808563 0.983932
Si Si5 0.205325 0.293972 0.426856
Si Si6 0.357728 0.808604 0.700402
Si Si7 0.500000 0.500000 0.500000
O O1 0.660421 0.500000 0.814747
O O2 0.605472 0.767481 0.830313
O O3 0.726025 0.758015 0.658473
O O4 0.669225 0.772073 0.934053
O O5 0.431836 0.500000 0.227357
O O6 0.461353 0.788154 0.271898
O O7 0.349048 0.706999 0.425326
O O8 0.582972 0.812099 0.463624
O O9 0.490715 0.650129 0.611747
O O10 0.491098 0.000000 0.652572
O O11 0.857816 0.802694 0.811287
O O12 0.794060 0.000000 0.038645
O O13 0.750000 0.750000 0.000000
O O14 0.199581 0.500000 0.449068
O O15 0.192665 0.255842 0.313559
O O16 0.345839 0.000000 0.757769
#
# Coordination Sequence:
#
# PCOD9173707 Si02
#       7
#     8   8   8   8   8   8   2
#     4   9  18  30  44  67 103 149 193 233 270 310
#     4  10  18  31  49  73 105 143 186 223 276 338
#     4  10  22  39  60  88 117 140 168 230 286 345
#     4  11  20  31  47  69 104 151 200 240 268 306
#     4   9  16  29  45  64 100 145 184 231 275 312
#     4   9  18  33  51  73 109 144 180 228 282 317
#     4  12  22  40  68  94 110 136 186 212 304 368
#
# _framework density 24.090073
#
# number of rings (size 3 to 8) (size 9 to 14) (size 15 to 20)
#    0.000    2.240    2.400    2.640    1.120    0.640 
#    0.000    4.000    0.000    0.000    0.000    2.240 
#    0.000    3.840    0.000    0.000    0.000    0.000 
#
# Total GULP energy -139200.737092 kJ/mol
# GULP energy per Si atom -5568.029484 kJ/mol
# Density = 2.403524 g / cm^3
# Si number density = 24.090073 Si / 1000 Ang^3
#
#
#
# Elastic Constant Matrix: (Units=GPa)
#
#
# Indices 1 2 3 4 5 6 
#
# 1 118.8210 40.9189 17.7965 0.0000 40.4348 0.0000
# 2 40.9189 89.7857 3.8932 0.0000 12.9065 0.0000
# 3 17.7965 3.8932 34.6648 0.0000 27.8202 0.0000
# 4 0.0000 0.0000 0.0000 11.3157 0.0000 6.7325
# 5 40.4348 12.9065 27.8202 0.0000 41.5405 0.0000
# 6 0.0000 0.0000 0.0000 6.7325 0.0000 15.4236
#
#
#
# Elastic Compliance Matrix: (Units=1/GPa)
#
#
# Indices 1 2 3 4 5 6 
#
# 1 0.015079 -0.004576 0.007375 0.000000 -0.018195 0.000000
# 2 -0.004576 0.013242 0.001274 0.000000 -0.000513 0.000000
# 3 0.007375 0.001274 0.067018 0.000000 -0.052457 0.000000
# 4 0.000000 0.000000 0.000000 0.119376 0.000000 -0.052108
# 5 -0.018195 -0.000513 -0.052457 0.000000 0.077074 0.000000
# 6 0.000000 0.000000 0.000000 -0.052108 0.000000 0.087581
#
#
# Mechanical properties :
#
#
# Convention : Reuss Voigt Hill
#
# Bulk Modulus (GPa) = 9.66343 40.94316 25.30330
# Shear Modulus (GPa) = 12.32377 25.70014 19.01196
#
# Velocity S-wave (km/s) = 2.26425 3.26979 2.81232
# Velocity P-wave (km/s) = 3.29482 5.59358 4.59042
#
# Compressibility (1/GPa) = 0.10348288
#
# Stress axis : x y z
#
# Youngs Moduli (GPa) = 66.31643 75.51872 14.92140
#
# Poissons Ratio (x) = 0.34561 -0.11004
# Poissons Ratio (y) = 0.30350 -0.01900
# Poissons Ratio (z) = -0.48907 -0.09618
#
# Static dielectric constant tensor:
#      x y z
#    x 2.005190 0.000000 0.011290 
#    y 0.000000 1.934160 0.000000 
#    z 0.011290 0.000000 2.010770 
# 
# From -- ./inp_files/186293.got.cif
#   From: 2010.05.17/outbox.cif.g08.bks.cpg/sg12_94_cif.got.tgz:186293.got - 2010.06.03 13:09:07.
