data_PCOD9173371
_publ_section_title
;
Structure prediction by ZEFSAII (Michael W. Deem and Ramdas Pophale) SiO2 
 PCOD9173371
Probable space group: C 2/M
;
_chemical_formula_sum "Si O2"
_cell_formula_units_Z 56
_cell_length_a 22.418221
_cell_length_b 14.625742
_cell_length_c 17.411327
_cell_angle_alpha 90.000000
_cell_angle_beta 32.336886
_cell_angle_gamma 90.000000
_cell_volume 3053.659462
_symmetry_space_group_name_H-M "C 2/M"
_symmetry_group_IT_number 12
_symmetry_cell_setting 'monoclinic'
loop_
_space_group_symop_operation_xyz
x,y,z
-x,y,-z
-x,-y,-z
x,-y,z
1/2+x,1/2+y,z
1/2-x,1/2+y,-z
1/2-x,1/2-y,-z
1/2+x,1/2-y,z
loop_
_atom_site_type_symbol
_atom_site_label
_atom_site_fract_x
_atom_site_fract_y
_atom_site_fract_z
Si Si1 0.460080 0.721983 0.371472
Si Si2 0.100714 0.895508 0.327495
Si Si3 0.413973 0.895208 0.162896
Si Si4 0.947615 0.605482 0.297950
Si Si5 0.727170 0.268997 0.300449
Si Si6 0.625619 0.607025 0.837457
Si Si7 0.820911 0.106264 0.399808
O O1 0.551368 0.652806 0.305854
O O2 0.502910 0.816413 0.288763
O O3 0.380912 0.747187 0.529525
O O4 0.385620 0.670952 0.388204
O O5 0.193407 0.831570 0.265469
O O6 0.000000 0.899174 0.500000
O O7 0.137246 0.000000 0.274970
O O8 0.471641 0.879944 0.181911
O O9 0.312989 0.827294 0.258573
O O10 0.371432 0.000000 0.210247
O O11 0.500000 0.885321 0.000000
O O12 0.972275 0.500000 0.291646
O O13 0.812886 0.618464 0.451823
O O14 0.788024 0.174522 0.215695
O O15 0.647232 0.500000 0.829272
O O16 0.640091 0.621563 0.730136
O O17 0.500000 0.628242 0.000000
O O18 0.842844 0.000000 0.396164
#
# Coordination Sequence:
#
# PCOD9173371 Si02
#       7
#     8   8   8   8   8   8   8
#     4  11  19  31  51  76 105 135 171 216 261 309
#     4   9  20  34  50  75 105 138 175 217 262 308
#     4  10  20  32  50  78 108 136 166 207 263 320
#     4  10  19  31  50  76 105 136 171 215 262 308
#     4  11  19  32  52  74 103 138 172 211 259 313
#     4  10  21  35  52  77 107 138 174 215 259 311
#     4  10  18  30  52  77 102 135 170 214 266 308
#
# _framework density 18.338653000000001
#
# number of rings (size 3 to 8) (size 9 to 14) (size 15 to 20)
#    0.000    1.857    2.857    2.571    0.000    1.143 
#    0.000    0.714    0.000    6.000    0.000    6.000 
#    0.000    0.000    0.000    0.000    0.000    0.000 
#
# Total GULP energy -156305.480500 kJ/mol
# GULP energy per Si atom -5582.338589 kJ/mol
# Density = 1.829691 g / cm^3
# Si number density = 18.338653 Si / 1000 Ang^3
#
#
#
# Elastic Constant Matrix: (Units=GPa)
#
#
# Indices 1 2 3 4 5 6 
#
# 1 55.1164 64.6612 6.7582 0.0000 5.3531 0.0000
# 2 64.6612 130.9514 25.7685 0.0000 3.0745 0.0000
# 3 6.7582 25.7685 62.0858 0.0000 15.4867 0.0000
# 4 0.0000 0.0000 0.0000 19.0912 0.0000 1.7110
# 5 5.3531 3.0745 15.4867 0.0000 16.1488 0.0000
# 6 0.0000 0.0000 0.0000 1.7110 0.0000 34.7039
#
#
#
# Elastic Compliance Matrix: (Units=1/GPa)
#
#
# Indices 1 2 3 4 5 6 
#
# 1 0.049557 -0.026102 0.010906 0.000000 -0.021917 0.000000
# 2 -0.026102 0.022127 -0.009793 0.000000 0.013831 0.000000
# 3 0.010906 -0.009793 0.025527 0.000000 -0.026231 0.000000
# 4 0.000000 0.000000 0.000000 0.052613 0.000000 -0.002594
# 5 -0.021917 0.013831 -0.026231 0.000000 0.091712 0.000000
# 6 0.000000 0.000000 0.000000 -0.002594 0.000000 0.028943
#
#
# Mechanical properties :
#
#
# Convention : Reuss Voigt Hill
#
# Bulk Modulus (GPa) = 21.17092 49.16994 35.17043
# Shear Modulus (GPa) = 14.87213 24.05316 19.46264
#
# Velocity S-wave (km/s) = 2.85085 3.62554 3.26128
# Velocity P-wave (km/s) = 4.73349 6.66307 5.77938
#
# Compressibility (1/GPa) = 0.04723461
#
# Stress axis : x y z
#
# Youngs Moduli (GPa) = 20.17898 45.19347 39.17406
#
# Poissons Ratio (x) = 1.17962 -0.42723
# Poissons Ratio (y) = 0.52670 0.38361
# Poissons Ratio (z) = -0.22007 0.44256
#
# Static dielectric constant tensor:
#      x y z
#    x 1.613310 0.000000 0.011010 
#    y 0.000000 1.663420 0.000000 
#    z 0.011010 0.000000 1.633070 
# 
# From -- ./inp_files/233672.got.cif
#   From: 2010.05.17/outbox.cif.g08.bks.cpg/sg12_117_cif.got.tgz:233672.got - 2010.06.03 13:09:07.
