data_PCOD9173112
_publ_section_title
;
Structure prediction by ZEFSAII (Michael W. Deem and Ramdas Pophale) SiO2 
 PCOD9173112
Probable space group: C 2/M
;
_chemical_formula_sum "Si O2"
_cell_formula_units_Z 56
_cell_length_a 19.117712
_cell_length_b 7.932903
_cell_length_c 24.004891
_cell_angle_alpha 90.000000
_cell_angle_beta 52.702806
_cell_angle_gamma 90.000000
_cell_volume 2896.074335
_symmetry_space_group_name_H-M "C 2/M"
_symmetry_group_IT_number 12
_symmetry_cell_setting 'monoclinic'
loop_
_space_group_symop_operation_xyz
x,y,z
-x,y,-z
-x,-y,-z
x,-y,z
1/2+x,1/2+y,z
1/2-x,1/2+y,-z
1/2-x,1/2-y,-z
1/2+x,1/2-y,z
loop_
_atom_site_type_symbol
_atom_site_label
_atom_site_fract_x
_atom_site_fract_y
_atom_site_fract_z
Si Si1 0.006326 0.293205 0.933293
Si Si2 0.127966 0.306789 0.781627
Si Si3 0.578236 0.297517 0.501378
Si Si4 0.769688 0.293020 0.370519
Si Si5 0.063306 0.701378 0.636343
Si Si6 0.345365 0.200736 0.932622
Si Si7 0.969315 0.806466 0.784922
O O1 0.008849 0.500000 0.931576
O O2 0.919734 0.241257 0.940789
O O3 0.091497 0.233173 0.857036
O O4 0.000000 0.238484 0.000000
O O5 0.153315 0.500000 0.780703
O O6 0.201845 0.233229 0.705060
O O7 0.040823 0.304025 0.784201
O O8 0.500000 0.232390 0.500000
O O9 0.580646 0.500000 0.494258
O O10 0.674237 0.235102 0.436019
O O11 0.561400 0.258363 0.573901
O O12 0.770637 0.500000 0.368988
O O13 0.846134 0.241248 0.376948
O O14 0.061951 0.500000 0.638674
O O15 0.983998 0.767268 0.713237
O O16 0.850158 0.500000 0.926821
O O17 0.375648 0.272216 0.858250
O O18 0.250000 0.250000 0.000000
O O19 0.993129 0.000000 0.783487
#
# Coordination Sequence:
#
# PCOD9173112 Si02
#       7
#     8   8   8   8   8   8   8
#     4   8  14  26  46  71  96 125 164 206 244 285
#     4   8  14  27  47  69  94 124 160 203 247 289
#     4  10  20  33  48  70 102 133 162 200 246 296
#     4   8  15  29  49  71  93 124 165 205 245 287
#     4  10  19  33  53  73  94 123 163 206 246 293
#     4  10  19  32  50  73 103 135 167 203 243 289
#     4  10  18  30  50  74  98 124 160 205 250 292
#
# _framework density 19.336521000000001
#
# number of rings (size 3 to 8) (size 9 to 14) (size 15 to 20)
#    0.000    2.857    0.000    4.286    0.000    0.286 
#    0.000    4.286    0.000   15.857    0.000    0.000 
#    0.000    0.000    0.000    0.000    0.000    0.000 
#
# Total GULP energy -156021.815654 kJ/mol
# GULP energy per Si atom -5572.207702 kJ/mol
# Density = 1.929251 g / cm^3
# Si number density = 19.336521 Si / 1000 Ang^3
#
#
#
# Elastic Constant Matrix: (Units=GPa)
#
#
# Indices 1 2 3 4 5 6 
#
# 1 69.3492 8.1338 82.4302 0.0000 8.4424 0.0003
# 2 8.1338 29.5573 4.1359 -0.0001 -3.4320 0.0004
# 3 82.4302 4.1359 228.7730 0.0000 13.7689 0.0000
# 4 0.0000 -0.0001 0.0000 21.0940 0.0000 1.0206
# 5 8.4424 -3.4320 13.7689 0.0000 28.0160 0.0000
# 6 0.0003 0.0004 0.0000 1.0206 0.0000 5.8607
#
#
#
# Elastic Compliance Matrix: (Units=1/GPa)
#
#
# Indices 1 2 3 4 5 6 
#
# 1 0.026698 -0.006554 -0.009242 0.000000 -0.004306 -0.000001
# 2 -0.006554 0.036110 0.001364 0.000000 0.005728 -0.000002
# 3 -0.009242 0.001364 0.007727 0.000000 -0.000846 0.000000
# 4 0.000000 0.000000 0.000000 0.047810 0.000000 -0.008326
# 5 -0.004306 0.005728 -0.000846 0.000000 0.038109 0.000000
# 6 -0.000001 -0.000002 0.000000 -0.008326 0.000000 0.172079
#
#
# Mechanical properties :
#
#
# Convention : Reuss Voigt Hill
#
# Bulk Modulus (GPa) = 23.99698 57.45325 40.72511
# Shear Modulus (GPa) = 13.46664 26.52609 19.99636
#
# Velocity S-wave (km/s) = 2.64187 3.70782 3.21927
# Velocity P-wave (km/s) = 4.66295 6.93595 5.90976
#
# Compressibility (1/GPa) = 0.04167192
#
# Stress axis : x y z
#
# Youngs Moduli (GPa) = 37.45609 27.69291 129.40937
#
# Poissons Ratio (x) = 0.18149 1.19600
# Poissons Ratio (y) = 0.24547 -0.17649
# Poissons Ratio (z) = 0.34617 -0.03777
#
# Static dielectric constant tensor:
#      x y z
#    x 1.651280 0.000000 -0.001760 
#    y 0.000000 1.703160 0.000000 
#    z -0.001760 0.000000 1.718240 
# 
# From -- ./inp_files/342218.got.cif
#   From: 2010.05.17/outbox.cif.g08.bks.cpg/sg12_172_cif.got.tgz:342218.got - 2010.06.03 13:09:07.
