data_PCOD9173571
_publ_section_title
;
Structure prediction by ZEFSAII (Michael W. Deem and Ramdas Pophale) SiO2 
 PCOD9173571
Probable space group: C 2/M
;
_chemical_formula_sum "Si O2"
_cell_formula_units_Z 50
_cell_length_a 14.218798
_cell_length_b 28.392653
_cell_length_c 7.036317
_cell_angle_alpha 90.000000
_cell_angle_beta 48.804039
_cell_angle_gamma 90.000000
_cell_volume 2137.462225
_symmetry_space_group_name_H-M "C 2/M"
_symmetry_group_IT_number 12
_symmetry_cell_setting 'monoclinic'
loop_
_space_group_symop_operation_xyz
x,y,z
-x,y,-z
-x,-y,-z
x,-y,z
1/2+x,1/2+y,z
1/2-x,1/2+y,-z
1/2-x,1/2-y,-z
1/2+x,1/2-y,z
loop_
_atom_site_type_symbol
_atom_site_label
_atom_site_fract_x
_atom_site_fract_y
_atom_site_fract_z
Si Si1 0.012857 0.342349 0.762515
Si Si2 0.176595 0.738046 0.908464
Si Si3 0.083645 0.000000 0.652890
Si Si4 0.115477 0.895695 0.467860
Si Si5 0.707075 0.319538 0.594808
Si Si6 0.286582 0.500000 0.143805
Si Si7 0.350819 0.075719 0.929538
Si Si8 0.500000 0.000000 0.000000
O O1 0.155700 0.334943 0.517286
O O2 0.941212 0.292566 0.865982
O O3 0.943006 0.383219 0.745632
O O4 0.000000 0.357927 0.000000
O O5 0.260880 0.708230 0.645255
O O6 0.147284 0.785046 0.827958
O O7 0.250000 0.750000 0.000000
O O8 0.097563 0.951056 0.528089
O O9 0.201589 0.000000 0.644205
O O10 0.936130 0.000000 0.905117
O O11 0.130590 0.865627 0.638162
O O12 0.242499 0.895434 0.181347
O O13 0.000000 0.877372 0.500000
O O14 0.216099 0.544633 0.145753
O O15 0.424716 0.040674 0.972623
#
# Coordination Sequence:
#
# PCOD9173571 Si02
#       8
#     8   8   4   8   8   4   8   2
#     4  10  19  40  68  95 131 169 220 278 342 404
#     4  10  22  43  67  97 131 178 221 276 346 411
#     4  11  23  39  60  88 137 182 216 284 330 405
#     4  12  22  40  65  97 128 175 228 277 341 412
#     4  10  23  45  67  99 135 175 227 283 339 412
#     4  10  23  38  58  90 136 175 224 270 344 400
#     4  11  19  37  66  96 125 170 224 274 339 414
#     4  10  18  30  64  96 112 166 214 268 332 404
#
# _framework density 23.392227999999999
#
# number of rings (size 3 to 8) (size 9 to 14) (size 15 to 20)
#    0.000    1.440    5.600    1.200    0.000    1.920 
#   11.520    0.000    0.000   12.480    0.000    0.000 
#    0.000    0.000    0.000    0.000    0.000    0.000 
#
# Total GULP energy -139519.177730 kJ/mol
# GULP energy per Si atom -5580.767109 kJ/mol
# Density = 2.333899 g / cm^3
# Si number density = 23.392228 Si / 1000 Ang^3
#
#
#
# Elastic Constant Matrix: (Units=GPa)
#
#
# Indices 1 2 3 4 5 6 
#
# 1 194.9105 81.3548 49.9237 0.0000 -12.1913 0.0000
# 2 81.3548 140.0575 46.2189 0.0000 -12.7675 0.0000
# 3 49.9237 46.2189 44.8444 0.0000 -8.1081 0.0000
# 4 0.0000 0.0000 0.0000 14.5606 0.0000 28.5806
# 5 -12.1913 -12.7675 -8.1081 0.0000 30.0522 0.0000
# 6 0.0000 0.0000 0.0000 28.5806 0.0000 -29.5794
#
#
#
# Elastic Compliance Matrix: (Units=1/GPa)
#
#
# Indices 1 2 3 4 5 6 
#
# 1 0.007719 -0.002475 -0.005957 0.000000 0.000473 0.000000
# 2 -0.002475 0.011694 -0.009020 0.000000 0.001530 0.000000
# 3 -0.005957 -0.009020 0.039001 0.000000 0.004274 0.000000
# 4 0.000000 0.000000 0.000000 0.023710 0.000000 0.022909
# 5 0.000473 0.001530 0.004274 0.000000 0.035270 0.000000
# 6 0.000000 0.000000 0.000000 0.022909 0.000000 -0.011671
#
#
# Mechanical properties :
#
#
# Convention : Reuss Voigt Hill
#
# Bulk Modulus (GPa) = 42.53723 81.64524 62.09123
# Shear Modulus (GPa) = 33.67850 16.49436 25.08643
#
# Velocity S-wave (km/s) = 3.79849 2.65829 3.27834
# Velocity P-wave (km/s) = 6.12061 6.66337 6.39775
#
# Compressibility (1/GPa) = 0.02350882
#
# Stress axis : x y z
#
# Youngs Moduli (GPa) = 129.55211 85.51685 25.64062
#
# Poissons Ratio (x) = 0.21163 0.15274
# Poissons Ratio (y) = 0.32060 0.23129
# Poissons Ratio (z) = 0.77176 0.77139
#
# Static dielectric constant tensor:
#      x y z
#    x 1.907550 0.000000 0.024460 
#    y 0.000000 2.548660 0.000000 
#    z 0.024460 0.000000 1.877600 
# 
# From -- ./inp_files/66826.got.cif
#   From: 2010.05.17/outbox.cif.g08.bks.cpg/sg12_34_cif.got.tgz:66826.got - 2010.06.03 13:09:07.
