data_PCOD9173259
_publ_section_title
;
Structure prediction by ZEFSAII (Michael W. Deem and Ramdas Pophale) SiO2 
 PCOD9173259
Probable space group: C 2/M
;
_chemical_formula_sum "Si O2"
_cell_formula_units_Z 40
_cell_length_a 24.860433
_cell_length_b 8.821113
_cell_length_c 12.456933
_cell_angle_alpha 90.000000
_cell_angle_beta 117.353300
_cell_angle_gamma 90.000000
_cell_volume 2426.326112
_symmetry_space_group_name_H-M "C 2/M"
_symmetry_group_IT_number 12
_symmetry_cell_setting 'monoclinic'
loop_
_space_group_symop_operation_xyz
x,y,z
-x,y,-z
-x,-y,-z
x,-y,z
1/2+x,1/2+y,z
1/2-x,1/2+y,-z
1/2-x,1/2-y,-z
1/2+x,1/2-y,z
loop_
_atom_site_type_symbol
_atom_site_label
_atom_site_fract_x
_atom_site_fract_y
_atom_site_fract_z
Si Si1 0.343601 0.681679 0.580125
Si Si2 0.579518 0.181870 0.990925
Si Si3 0.782070 0.681184 0.925860
Si Si4 0.242580 0.680648 0.666050
Si Si5 0.458995 0.682139 0.815455
O O1 0.339857 0.500000 0.561784
O O2 0.298914 0.720493 0.638797
O O3 0.316703 0.763151 0.451606
O O4 0.411408 0.721160 0.678503
O O5 0.646524 0.221248 0.012611
O O6 0.568248 0.254843 0.097674
O O7 0.574363 0.000000 0.994887
O O8 0.525421 0.245996 0.867936
O O9 0.777489 0.500000 0.924003
O O10 0.752426 0.742576 0.789329
O O11 0.750000 0.750000 0.000000
O O12 0.241732 0.500000 0.677611
O O13 0.463178 0.500000 0.826602
#
# Coordination Sequence:
#
# PCOD9173259 Si02
#       5
#     8   8   8   8   8
#     4   9  18  31  49  76 107 136 167 207 255 307
#     4  10  20  32  48  74 104 134 170 211 256 304
#     4  11  23  37  54  74 103 139 176 216 255 303
#     4  10  19  32  51  75 104 136 172 211 255 305
#     4  10  18  30  51  76 105 137 166 207 255 305
#
# _framework density 16.48583
#
# number of rings (size 3 to 8) (size 9 to 14) (size 15 to 20)
#    0.000    2.000    2.000    3.600    0.000    4.800 
#    0.000    0.000    0.000    1.200    0.000    8.400 
#    0.000    0.000    0.000    0.000    0.000    0.000 
#
# Total GULP energy -111600.329209 kJ/mol
# GULP energy per Si atom -5580.016460 kJ/mol
# Density = 1.644831 g / cm^3
# Si number density = 16.485830 Si / 1000 Ang^3
#
#
#
# Elastic Constant Matrix: (Units=GPa)
#
#
# Indices 1 2 3 4 5 6 
#
# 1 97.0777 46.9820 81.4076 0.0000 10.6642 0.0000
# 2 46.9820 55.0243 56.4331 0.0000 6.6094 0.0000
# 3 81.4076 56.4331 147.7091 0.0000 22.6921 0.0000
# 4 0.0000 0.0000 0.0000 31.3932 0.0000 2.0547
# 5 10.6642 6.6094 22.6921 0.0000 28.9371 0.0000
# 6 0.0000 0.0000 0.0000 2.0547 0.0000 24.6352
#
#
#
# Elastic Compliance Matrix: (Units=1/GPa)
#
#
# Indices 1 2 3 4 5 6 
#
# 1 0.022398 -0.010582 -0.008419 0.000000 0.000765 0.000000
# 2 -0.010582 0.035032 -0.007870 0.000000 0.002070 0.000000
# 3 -0.008419 -0.007870 0.015536 0.000000 -0.007283 0.000000
# 4 0.000000 0.000000 0.000000 0.032029 0.000000 -0.002671
# 5 0.000765 0.002070 -0.007283 0.000000 0.039514 0.000000
# 6 0.000000 0.000000 0.000000 -0.002671 0.000000 0.040815
#
#
# Mechanical properties :
#
#
# Convention : Reuss Voigt Hill
#
# Bulk Modulus (GPa) = 52.01843 74.38406 63.20125
# Shear Modulus (GPa) = 20.36868 24.65897 22.51383
#
# Velocity S-wave (km/s) = 3.51882 3.87171 3.69948
# Velocity P-wave (km/s) = 6.93768 8.07495 7.52782
#
# Compressibility (1/GPa) = 0.01922396
#
# Stress axis : x y z
#
# Youngs Moduli (GPa) = 44.64606 28.54530 64.36732
#
# Poissons Ratio (x) = 0.30206 0.54192
# Poissons Ratio (y) = 0.47244 0.50658
# Poissons Ratio (z) = 0.37588 0.22466
#
# Static dielectric constant tensor:
#      x y z
#    x 1.542470 0.000000 0.031960 
#    y 0.000000 1.550150 0.000000 
#    z 0.031960 0.000000 1.547290 
# 
# From -- ./inp_files/171587.got.cif
#   From: 2010.05.17/outbox.cif.g08.bks.cpg/sg12_86_cif.got.tgz:171587.got - 2010.06.03 13:09:07.
