data_PCOD9173066
_publ_section_title
;
Structure prediction by ZEFSAII (Michael W. Deem and Ramdas Pophale) SiO2 
 PCOD9173066
Probable space group: C 2/M
;
_chemical_formula_sum "Si O2"
_cell_formula_units_Z 56
_cell_length_a 23.382514
_cell_length_b 14.360871
_cell_length_c 19.651871
_cell_angle_alpha 90.000000
_cell_angle_beta 148.992392
_cell_angle_gamma 90.000000
_cell_volume 3399.469785
_symmetry_space_group_name_H-M "C 2/M"
_symmetry_group_IT_number 12
_symmetry_cell_setting 'monoclinic'
loop_
_space_group_symop_operation_xyz
x,y,z
-x,y,-z
-x,-y,-z
x,-y,z
1/2+x,1/2+y,z
1/2-x,1/2+y,-z
1/2-x,1/2-y,-z
1/2+x,1/2-y,z
loop_
_atom_site_type_symbol
_atom_site_label
_atom_site_fract_x
_atom_site_fract_y
_atom_site_fract_z
Si Si1 0.576645 0.605196 0.244796
Si Si2 0.049465 0.388655 0.147881
Si Si3 0.399381 0.396951 0.951529
Si Si4 0.091781 0.111174 0.649117
Si Si5 0.783962 0.723456 0.611003
Si Si6 0.167705 0.692478 0.133480
Si Si7 0.425855 0.608710 0.595325
O O1 0.617768 0.500000 0.275153
O O2 0.663187 0.681774 0.306085
O O3 0.560641 0.617631 0.309498
O O4 0.461451 0.613981 0.087225
O O5 0.044760 0.500000 0.139236
O O6 0.116724 0.351463 0.281589
O O7 0.121386 0.347730 0.157916
O O8 0.927119 0.345068 0.015255
O O9 0.346361 0.500000 0.894294
O O10 0.331355 0.304315 0.867192
O O11 0.500000 0.396809 0.000000
O O12 0.210985 0.155492 0.759105
O O13 0.000000 0.140797 0.500000
O O14 0.036329 0.129861 0.665855
O O15 0.105357 0.000000 0.655855
O O16 0.750000 0.750000 0.500000
O O17 0.674733 0.675359 0.530238
O O18 0.396342 0.500000 0.551128
#
# Coordination Sequence:
#
# PCOD9173066 Si02
#       7
#     8   8   8   8   8   8   8
#     4   9  17  31  49  71  98 129 172 218 258 303
#     4  11  20  31  50  80 111 135 162 214 278 319
#     4  10  18  31  52  75 100 128 168 217 260 303
#     4  10  20  33  50  73 103 139 177 208 249 317
#     4  10  18  30  50  72 101 134 173 209 255 306
#     4  11  19  33  52  79 108 136 167 215 269 319
#     4   9  18  31  48  71 100 137 175 210 254 311
#
# _framework density 16.473158000000002
#
# number of rings (size 3 to 8) (size 9 to 14) (size 15 to 20)
#    0.000    2.000    2.857    3.000    0.000    1.714 
#    0.000    0.714    0.000    1.286    0.000    0.000 
#    0.000    0.000    0.000    0.000    0.000    0.000 
#
# Total GULP energy -155999.104946 kJ/mol
# GULP energy per Si atom -5571.396605 kJ/mol
# Density = 1.643566 g / cm^3
# Si number density = 16.473158 Si / 1000 Ang^3
#
#
#
# Elastic Constant Matrix: (Units=GPa)
#
#
# Indices 1 2 3 4 5 6 
#
# 1 49.8613 36.7978 41.0708 0.0000 12.6841 0.0000
# 2 36.7978 127.3729 47.5702 0.0000 15.3041 0.0000
# 3 41.0708 47.5702 95.8440 0.0000 18.9559 0.0000
# 4 0.0000 0.0000 0.0000 33.4310 0.0000 2.6580
# 5 12.6841 15.3041 18.9559 0.0000 29.3151 0.0000
# 6 0.0000 0.0000 0.0000 2.6580 0.0000 14.3289
#
#
#
# Elastic Compliance Matrix: (Units=1/GPa)
#
#
# Indices 1 2 3 4 5 6 
#
# 1 0.034313 -0.005147 -0.011173 0.000000 -0.004935 0.000000
# 2 -0.005147 0.010537 -0.002725 0.000000 -0.001512 0.000000
# 3 -0.011173 -0.002725 0.017586 0.000000 -0.005114 0.000000
# 4 0.000000 0.000000 0.000000 0.030360 0.000000 -0.005632
# 5 -0.004935 -0.001512 -0.005114 0.000000 0.040343 0.000000
# 6 0.000000 0.000000 0.000000 -0.005632 0.000000 0.070834
#
#
# Mechanical properties :
#
#
# Convention : Reuss Voigt Hill
#
# Bulk Modulus (GPa) = 41.07662 58.21729 49.64696
# Shear Modulus (GPa) = 19.98571 25.25764 22.62167
#
# Velocity S-wave (km/s) = 3.48692 3.91993 3.70975
# Velocity P-wave (km/s) = 6.41881 7.47698 6.96801
#
# Compressibility (1/GPa) = 0.02434475
#
# Stress axis : x y z
#
# Youngs Moduli (GPa) = 29.14371 94.89929 56.86477
#
# Poissons Ratio (x) = 0.48846 0.63535
# Poissons Ratio (y) = 0.15001 0.15498
# Poissons Ratio (z) = 0.32562 0.25864
#
# Static dielectric constant tensor:
#      x y z
#    x 1.574010 0.000000 -0.058300 
#    y 0.000000 1.584150 0.000000 
#    z -0.058300 0.000000 1.570800 
# 
# From -- ./inp_files/352082.got.cif
#   From: 2010.05.17/outbox.cif.g08.bks.cpg/sg12_177_cif.got.tgz:352082.got - 2010.06.03 13:09:07.
