data_PCOD9173651
_publ_section_title
;
Structure prediction by ZEFSAII (Michael W. Deem and Ramdas Pophale) SiO2 
 PCOD9173651
Probable space group: C 2/M
;
_chemical_formula_sum "Si O2"
_cell_formula_units_Z 52
_cell_length_a 17.354895
_cell_length_b 15.296729
_cell_length_c 21.149094
_cell_angle_alpha 90.000000
_cell_angle_beta 154.159861
_cell_angle_gamma 90.000000
_cell_volume 2447.152627
_symmetry_space_group_name_H-M "C 2/M"
_symmetry_group_IT_number 12
_symmetry_cell_setting 'monoclinic'
loop_
_space_group_symop_operation_xyz
x,y,z
-x,y,-z
-x,-y,-z
x,-y,z
1/2+x,1/2+y,z
1/2-x,1/2+y,-z
1/2-x,1/2-y,-z
1/2+x,1/2-y,z
loop_
_atom_site_type_symbol
_atom_site_label
_atom_site_fract_x
_atom_site_fract_y
_atom_site_fract_z
Si Si1 0.401629 0.765800 0.203077
Si Si2 0.188447 0.601708 0.472886
Si Si3 0.062763 0.097980 0.683637
Si Si4 0.818069 0.598534 0.327916
Si Si5 0.500000 0.336712 0.500000
Si Si6 0.319338 0.598337 0.905695
Si Si7 0.675086 0.716995 0.309794
O O1 0.558860 0.826940 0.347136
O O2 0.370806 0.679448 0.223865
O O3 0.232620 0.827671 0.083760
O O4 0.487530 0.746979 0.198361
O O5 0.132073 0.500000 0.440354
O O6 0.356079 0.596851 0.549764
O O7 0.256458 0.647002 0.587362
O O8 0.078415 0.114734 0.619827
O O9 0.133053 0.000000 0.750740
O O10 0.768103 0.500000 0.305946
O O11 0.826194 0.606435 0.258954
O O12 0.667608 0.662273 0.240511
O O13 0.000000 0.616061 0.500000
O O14 0.334206 0.284232 0.409830
O O15 0.309870 0.500000 0.925091
O O16 0.500000 0.605401 0.000000
#
# Coordination Sequence:
#
# PCOD9173651 Si02
#       7
#     8   8   8   8   4   8   8
#     4  11  19  35  51  74 104 145 187 225 275 334
#     4  10  18  31  48  74 110 144 181 224 279 332
#     4  10  20  31  47  70 106 148 183 222 270 326
#     4  10  19  32  54  86 116 146 183 229 280 327
#     4  12  17  30  43  68 114 148 181 220 271 324
#     4  10  22  40  61  84 111 143 182 230 285 340
#     4  11  19  29  48  77 111 145 179 229 271 328
#
# _framework density 21.249186999999999
#
# number of rings (size 3 to 8) (size 9 to 14) (size 15 to 20)
#    0.000    1.538    3.846    3.923    0.000    1.846 
#    0.000    0.769    0.000    0.462    0.000    0.000 
#    0.000    0.000    0.000    0.000    0.000    0.000 
#
# Total GULP energy -144844.455547 kJ/mol
# GULP energy per Si atom -5570.940598 kJ/mol
# Density = 2.120082 g / cm^3
# Si number density = 21.249187 Si / 1000 Ang^3
#
#
#
# Elastic Constant Matrix: (Units=GPa)
#
#
# Indices 1 2 3 4 5 6 
#
# 1 114.7967 69.3873 11.6357 0.0016 17.9005 0.0003
# 2 69.3873 142.8856 22.2783 0.0051 18.2198 0.0007
# 3 11.6357 22.2783 42.2980 0.0071 6.5901 0.0002
# 4 0.0016 0.0051 0.0071 4.1217 0.0024 11.6525
# 5 17.9005 18.2198 6.5901 0.0024 26.0000 0.0000
# 6 0.0003 0.0007 0.0002 11.6525 0.0000 42.7219
#
#
#
# Elastic Compliance Matrix: (Units=1/GPa)
#
#
# Indices 1 2 3 4 5 6 
#
# 1 0.012882 -0.005656 0.000208 0.000020 -0.004958 -0.000006
# 2 -0.005656 0.010650 -0.003641 -0.000012 -0.002647 0.000003
# 3 0.000208 -0.003641 0.026160 -0.000166 -0.004222 0.000045
# 4 0.000020 -0.000012 -0.000166 1.059964 -0.000062 -0.289108
# 5 -0.004958 -0.002647 -0.004222 -0.000062 0.044800 0.000017
# 6 -0.000006 0.000003 0.000045 -0.289108 0.000017 0.102262
#
#
# Mechanical properties :
#
#
# Convention : Reuss Voigt Hill
#
# Bulk Modulus (GPa) = 31.73225 56.28698 44.00961
# Shear Modulus (GPa) = 3.88984 27.68066 15.78525
#
# Velocity S-wave (km/s) = 1.35446 3.61317 2.72851
# Velocity P-wave (km/s) = 4.17276 6.62972 5.53918
#
# Compressibility (1/GPa) = 0.03151368
#
# Stress axis : x y z
#
# Youngs Moduli (GPa) = 77.63005 93.89411 38.22575
#
# Poissons Ratio (x) = 0.53103 -0.00794
# Poissons Ratio (y) = 0.43905 0.13919
# Poissons Ratio (z) = -0.01613 0.34190
#
# Static dielectric constant tensor:
#      x y z
#    x 1.855120 0.000000 -0.007170 
#    y 0.000000 1.823310 -0.000010 
#    z -0.007170 -0.000010 1.907050 
# 
# From -- ./inp_files/343715.got.cif
#   From: 2010.05.17/outbox.cif.g08.bks.cpg/sg12_172_cif.got.tgz:343715.got - 2010.06.03 13:09:07.
