data_PCOD9173615
_publ_section_title
;
Structure prediction by ZEFSAII (Michael W. Deem and Ramdas Pophale) SiO2 
 PCOD9173615
Probable space group: C 2/M
;
_chemical_formula_sum "Si O2"
_cell_formula_units_Z 40
_cell_length_a 17.985009
_cell_length_b 30.998291
_cell_length_c 5.436520
_cell_angle_alpha 90.000000
_cell_angle_beta 126.909209
_cell_angle_gamma 90.000000
_cell_volume 2423.459389
_symmetry_space_group_name_H-M "C 2/M"
_symmetry_group_IT_number 12
_symmetry_cell_setting 'monoclinic'
loop_
_space_group_symop_operation_xyz
x,y,z
-x,y,-z
-x,-y,-z
x,-y,z
1/2+x,1/2+y,z
1/2-x,1/2+y,-z
1/2-x,1/2-y,-z
1/2+x,1/2-y,z
loop_
_atom_site_type_symbol
_atom_site_label
_atom_site_fract_x
_atom_site_fract_y
_atom_site_fract_z
Si Si1 0.227069 0.288117 0.143740
Si Si2 0.890241 0.593027 0.758681
Si Si3 0.598002 0.259893 0.279815
Si Si4 0.613064 0.049936 0.747876
Si Si5 0.091585 0.671866 0.537645
O O1 0.325941 0.294121 0.473883
O O2 0.152686 0.266963 0.179786
O O3 0.250000 0.250000 0.000000
O O4 0.178402 0.325891 0.895413
O O5 0.852180 0.566693 0.448034
O O6 0.886957 0.642458 0.656380
O O7 0.854319 0.578371 0.953672
O O8 0.000000 0.583188 0.000000
O O9 0.574030 0.221299 0.423037
O O10 0.500000 0.278538 0.000000
O O11 0.500000 0.052260 0.500000
O O12 0.636665 0.000000 0.836672
O O13 0.000000 0.655572 0.500000
#
# Coordination Sequence:
#
# PCOD9173615 Si02
#       5
#     8   8   8   8   8
#     4   9  20  31  42  65  84 112 148 188 232 279
#     4  10  19  27  41  63  82 112 151 186 229 265
#     4  10  18  31  48  61  84 115 150 192 231 273
#     4   9  17  29  41  56  82 113 148 187 220 261
#     4  11  19  28  43  61  88 112 147 195 234 263
#
# _framework density 16.505331999999999
#
# number of rings (size 3 to 8) (size 9 to 14) (size 15 to 20)
#    0.000    2.200    2.000    3.000    2.800    2.400 
#    0.000    0.000    0.000    0.000    0.000    0.000 
#    0.000    0.000    0.000    0.000    0.000    6.000 
#
# Total GULP energy -111371.890628 kJ/mol
# GULP energy per Si atom -5568.594531 kJ/mol
# Density = 1.646777 g / cm^3
# Si number density = 16.505332 Si / 1000 Ang^3
#
#
#
# Elastic Constant Matrix: (Units=GPa)
#
#
# Indices 1 2 3 4 5 6 
#
# 1 50.8021 18.2004 43.9043 0.0000 -3.7582 0.0000
# 2 18.2004 61.5794 35.5801 0.0000 -10.7354 0.0000
# 3 43.9043 35.5801 125.6613 0.0000 -3.2181 0.0000
# 4 0.0000 0.0000 0.0000 26.0462 0.0000 -12.3606
# 5 -3.7582 -10.7354 -3.2181 0.0000 33.7961 0.0000
# 6 0.0000 0.0000 0.0000 -12.3606 0.0000 11.6665
#
#
#
# Elastic Compliance Matrix: (Units=1/GPa)
#
#
# Indices 1 2 3 4 5 6 
#
# 1 0.028783 -0.002960 -0.009183 0.000000 0.001386 0.000000
# 2 -0.002960 0.020863 -0.004723 0.000000 0.005848 0.000000
# 3 -0.009183 -0.004723 0.012469 0.000000 -0.001334 0.000000
# 4 0.000000 0.000000 0.000000 0.077219 0.000000 0.081813
# 5 0.001386 0.005848 -0.001334 0.000000 0.031474 0.000000
# 6 0.000000 0.000000 0.000000 0.081813 0.000000 0.172395
#
#
# Mechanical properties :
#
#
# Convention : Reuss Voigt Hill
#
# Bulk Modulus (GPa) = 35.23170 48.15693 41.69431
# Shear Modulus (GPa) = 12.94009 23.65895 18.29952
#
# Velocity S-wave (km/s) = 2.80303 3.79015 3.33333
# Velocity P-wave (km/s) = 5.64517 6.95655 6.33488
#
# Compressibility (1/GPa) = 0.02838353
#
# Stress axis : x y z
#
# Youngs Moduli (GPa) = 34.74246 47.93275 80.19575
#
# Poissons Ratio (x) = 0.14186 0.73643
# Poissons Ratio (y) = 0.10283 0.37878
# Poissons Ratio (z) = 0.31904 0.22640
#
# Static dielectric constant tensor:
#      x y z
#    x 1.582380 0.000000 -0.055330 
#    y 0.000000 1.586170 0.000000 
#    z -0.055330 0.000000 1.653150 
# 
# From -- ./inp_files/17523.got.cif
#   From: 2010.05.17/outbox.cif.g08.bks.cpg/sg12_9_cif.got.tgz:17523.got - 2010.06.03 13:09:07.
