data_PCOD9173418
_publ_section_title
;
Structure prediction by ZEFSAII (Michael W. Deem and Ramdas Pophale) SiO2 
 PCOD9173418
Probable space group: C 2/M
;
_chemical_formula_sum "Si O2"
_cell_formula_units_Z 40
_cell_length_a 13.215320
_cell_length_b 18.827304
_cell_length_c 9.824181
_cell_angle_alpha 90.000000
_cell_angle_beta 35.598864
_cell_angle_gamma 90.000000
_cell_volume 1422.868887
_symmetry_space_group_name_H-M "C 2/M"
_symmetry_group_IT_number 12
_symmetry_cell_setting 'monoclinic'
loop_
_space_group_symop_operation_xyz
x,y,z
-x,y,-z
-x,-y,-z
x,-y,z
1/2+x,1/2+y,z
1/2-x,1/2+y,-z
1/2-x,1/2-y,-z
1/2+x,1/2-y,z
loop_
_atom_site_type_symbol
_atom_site_label
_atom_site_fract_x
_atom_site_fract_y
_atom_site_fract_z
Si Si1 0.068253 0.079585 0.769812
Si Si2 0.722976 0.725298 0.312288
Si Si3 0.677858 0.080481 0.892729
Si Si4 0.967298 0.770048 0.816454
Si Si5 0.971129 0.414411 0.377707
O O1 0.973107 0.144298 0.804228
O O2 0.272671 0.097129 0.551306
O O3 0.043968 0.000000 0.740612
O O4 0.000000 0.078270 0.000000
O O5 0.710453 0.640529 0.302165
O O6 0.882414 0.743866 0.240617
O O7 0.554393 0.752390 0.577833
O O8 0.791745 0.752536 0.090889
O O9 0.748101 0.000000 0.824050
O O10 0.500000 0.075774 0.000000
O O11 0.607626 0.108924 0.115027
O O12 0.992438 0.500000 0.354801
O O13 0.000000 0.391203 0.500000
#
# Coordination Sequence:
#
# PCOD9173418 Si02
#       5
#     8   8   8   8   8
#     4  10  19  31  51  80 109 139 187 239 277 327
#     4  10  19  30  46  75 110 146 180 229 284 343
#     4  10  18  30  52  82 107 135 189 248 277 314
#     4  10  19  31  47  77 111 147 178 232 286 342
#     4   9  19  34  53  80 116 151 182 228 295 349
#
# _framework density 28.112216
#
# number of rings (size 3 to 8) (size 9 to 14) (size 15 to 20)
#    0.000    2.200    4.000    1.200    2.800    2.400 
#    0.000    0.000    0.000    1.200    0.000    5.600 
#    0.000   35.200    0.000    0.000    0.000    0.200 
#
# Total GULP energy -112119.301704 kJ/mol
# GULP energy per Si atom -5605.965085 kJ/mol
# Density = 2.804823 g / cm^3
# Si number density = 28.112216 Si / 1000 Ang^3
#
#
#
# Elastic Constant Matrix: (Units=GPa)
#
#
# Indices 1 2 3 4 5 6 
#
# 1 100.3479 16.8852 87.1268 -0.0001 15.9963 -0.0007
# 2 16.8852 153.5504 70.6248 0.0009 1.6391 -0.0010
# 3 87.1268 70.6248 275.0493 -0.0003 22.6673 0.0006
# 4 -0.0001 0.0009 -0.0003 28.4710 0.0006 19.8654
# 5 15.9963 1.6391 22.6673 0.0006 64.1926 -0.0008
# 6 -0.0007 -0.0010 0.0006 19.8654 -0.0008 13.0799
#
#
#
# Elastic Compliance Matrix: (Units=1/GPa)
#
#
# Indices 1 2 3 4 5 6 
#
# 1 0.014020 0.000508 -0.004411 0.000010 -0.001949 -0.000014
# 2 0.000508 0.007418 -0.002101 0.000013 0.000426 -0.000019
# 3 -0.004411 -0.002101 0.005642 -0.000010 -0.000839 0.000015
# 4 0.000010 0.000013 -0.000010 -0.588226 0.000017 0.893381
# 5 -0.001949 0.000426 -0.000839 0.000017 0.016349 -0.000025
# 6 -0.000014 -0.000019 0.000015 0.893381 -0.000025 -1.280389
#
#
# Mechanical properties :
#
#
# Convention : Reuss Voigt Hill
#
# Bulk Modulus (GPa) = 66.34592 97.58011 81.96301
# Shear Modulus (GPa) = -2.76525 44.76943 21.00209
#
# Velocity S-wave (km/s) = -0.99287 3.99498 2.73624
# Velocity P-wave (km/s) = 4.72623 7.48773 6.26112
#
# Compressibility (1/GPa) = 0.01507252
#
# Stress axis : x y z
#
# Youngs Moduli (GPa) = 71.32454 134.80033 177.25585
#
# Poissons Ratio (x) = -0.06846 0.78187
# Poissons Ratio (y) = -0.03622 0.37238
# Poissons Ratio (z) = 0.31461 0.28319
#
# Static dielectric constant tensor:
#      x y z
#    x 2.231310 0.000000 -0.008580 
#    y 0.000000 2.211420 0.000000 
#    z -0.008580 0.000000 2.091920 
# 
# From -- ./inp_files/159408.got.cif
#   From: 2010.05.17/outbox.cif.g08.bks.cpg/sg12_80_cif.got.tgz:159408.got - 2010.06.03 13:09:07.
