data_PCOD9173101
_publ_section_title
;
Structure prediction by ZEFSAII (Michael W. Deem and Ramdas Pophale) SiO2 
 PCOD9173101
Probable space group: C 2/M
;
_chemical_formula_sum "Si O2"
_cell_formula_units_Z 40
_cell_length_a 25.968218
_cell_length_b 7.926381
_cell_length_c 26.183006
_cell_angle_alpha 90.000000
_cell_angle_beta 156.924479
_cell_angle_gamma 90.000000
_cell_volume 2112.324934
_symmetry_space_group_name_H-M "C 2/M"
_symmetry_group_IT_number 12
_symmetry_cell_setting 'monoclinic'
loop_
_space_group_symop_operation_xyz
x,y,z
-x,y,-z
-x,-y,-z
x,-y,z
1/2+x,1/2+y,z
1/2-x,1/2+y,-z
1/2-x,1/2-y,-z
1/2+x,1/2-y,z
loop_
_atom_site_type_symbol
_atom_site_label
_atom_site_fract_x
_atom_site_fract_y
_atom_site_fract_z
Si Si1 0.117670 0.696493 0.143544
Si Si2 0.039094 0.198426 0.905713
Si Si3 0.399481 0.802690 0.367330
Si Si4 0.598375 0.798600 0.851246
Si Si5 0.340196 0.793283 0.201734
O O1 0.138441 0.500000 0.150020
O O2 0.252695 0.789434 0.255343
O O3 0.066247 0.714441 0.154188
O O4 0.000000 0.761576 0.000000
O O5 0.020612 0.225343 0.828355
O O6 0.034200 0.000000 0.912133
O O7 0.187152 0.259214 0.055290
O O8 0.500000 0.726195 0.500000
O O9 0.395208 0.731897 0.305909
O O10 0.434924 0.000000 0.393834
O O11 0.578716 0.741911 0.774761
O O12 0.585631 0.000000 0.841521
O O13 0.750000 0.750000 0.000000
O O14 0.337647 0.000000 0.199633
#
# Coordination Sequence:
#
# PCOD9173101 Si02
#       5
#     8   8   8   8   8
#     4  11  22  34  51  77 106 137 171 213 262 308
#     4  10  18  30  50  74 102 133 168 213 261 305
#     4  10  20  35  55  77 103 139 177 209 250 309
#     4   9  16  27  44  70 103 134 167 208 256 306
#     4   8  15  28  47  72 101 133 165 206 254 298
#
# _framework density 18.93648
#
# number of rings (size 3 to 8) (size 9 to 14) (size 15 to 20)
#    0.000    2.400    2.000    3.000    0.000    1.200 
#    0.000    1.000    0.000    1.200    0.000    0.000 
#    0.000    0.000    0.000    0.000    0.000    0.000 
#
# Total GULP energy -111478.649286 kJ/mol
# GULP energy per Si atom -5573.932464 kJ/mol
# Density = 1.889338 g / cm^3
# Si number density = 18.936480 Si / 1000 Ang^3
#
#
#
# Elastic Constant Matrix: (Units=GPa)
#
#
# Indices 1 2 3 4 5 6 
#
# 1 148.6840 -11.0375 43.1944 0.0000 -31.6210 0.0000
# 2 -11.0375 23.7550 -2.0549 0.0000 -4.9233 0.0001
# 3 43.1944 -2.0549 70.5943 -0.0001 -23.4736 0.0001
# 4 0.0000 0.0000 -0.0001 8.1529 0.0000 0.4962
# 5 -31.6210 -4.9233 -23.4736 0.0000 23.3126 0.0000
# 6 0.0000 0.0001 0.0001 0.4962 0.0000 -10.8691
#
#
#
# Elastic Compliance Matrix: (Units=1/GPa)
#
#
# Indices 1 2 3 4 5 6 
#
# 1 0.010964 0.008106 -0.001441 0.000000 0.015133 0.000000
# 2 0.008106 0.052144 0.005826 0.000000 0.027874 0.000000
# 3 -0.001441 0.005826 0.022514 0.000000 0.021945 0.000000
# 4 0.000000 0.000000 0.000000 0.122316 0.000000 0.005584
# 5 0.015133 0.027874 0.021945 0.000000 0.091405 0.000000
# 6 0.000000 0.000000 0.000000 0.005584 0.000000 -0.091749
#
#
# Mechanical properties :
#
#
# Convention : Reuss Voigt Hill
#
# Bulk Modulus (GPa) = 9.04114 33.69303 21.36709
# Shear Modulus (GPa) = 22.78118 18.31470 20.54794
#
# Velocity S-wave (km/s) = 3.47224 3.11330 3.29766
# Velocity P-wave (km/s) = 4.56728 5.54570 5.08010
#
# Compressibility (1/GPa) = 0.11060548
#
# Stress axis : x y z
#
# Youngs Moduli (GPa) = 91.20391 19.17773 44.41726
#
# Poissons Ratio (x) = -0.15546 0.06400
# Poissons Ratio (y) = -0.73933 -0.25879
# Poissons Ratio (z) = 0.13141 -0.11173
#
# Static dielectric constant tensor:
#      x y z
#    x 1.701020 0.000000 -0.043740 
#    y 0.000000 1.682540 0.000000 
#    z -0.043740 0.000000 1.637890 
# 
# From -- ./inp_files/92913.got.cif
#   From: 2010.05.17/outbox.cif.g08.bks.cpg/sg12_47_cif.got.tgz:92913.got - 2010.06.03 13:09:07.
