data_PCOD9173967
_publ_section_title
;
Structure prediction by ZEFSAII (Michael W. Deem and Ramdas Pophale) SiO2 
 PCOD9173967
Probable space group: C 2/M
;
_chemical_formula_sum "Si O2"
_cell_formula_units_Z 40
_cell_length_a 9.641049
_cell_length_b 22.983948
_cell_length_c 20.254621
_cell_angle_alpha 90.000000
_cell_angle_beta 150.407022
_cell_angle_gamma 90.000000
_cell_volume 2216.435883
_symmetry_space_group_name_H-M "C 2/M"
_symmetry_group_IT_number 12
_symmetry_cell_setting 'monoclinic'
loop_
_space_group_symop_operation_xyz
x,y,z
-x,y,-z
-x,-y,-z
x,-y,z
1/2+x,1/2+y,z
1/2-x,1/2+y,-z
1/2-x,1/2-y,-z
1/2+x,1/2-y,z
loop_
_atom_site_type_symbol
_atom_site_label
_atom_site_fract_x
_atom_site_fract_y
_atom_site_fract_z
Si Si1 0.114148 0.350257 0.745822
Si Si2 0.648363 0.881876 0.218648
Si Si3 0.940617 0.733572 0.897747
Si Si4 0.587410 0.437627 0.958950
Si Si5 0.328813 0.433518 0.498318
O O1 0.211565 0.283448 0.785328
O O2 0.403805 0.385376 0.856076
O O3 0.981545 0.362073 0.763826
O O4 0.899100 0.382322 0.607071
O O5 0.660928 0.825870 0.177558
O O6 0.941901 0.913376 0.353465
O O7 0.415543 0.924936 0.092570
O O8 0.000000 0.728907 0.000000
O O9 0.250000 0.750000 0.000000
O O10 0.514256 0.500000 0.898957
O O11 0.500000 0.439955 0.000000
O O12 0.500000 0.436304 0.500000
O O13 0.223245 0.500000 0.466131
#
# Coordination Sequence:
#
# PCOD9173967 Si02
#       5
#     8   8   8   8   8
#     4  10  18  31  51  79 110 141 179 224 271 320
#     4  10  19  32  51  78 110 142 178 227 272 320
#     4  12  21  36  56  81 111 146 184 229 269 318
#     4   9  15  25  46  74 101 134 177 221 265 309
#     4   9  18  32  52  81 114 141 175 227 280 324
#
# _framework density 18.046990999999998
#
# number of rings (size 3 to 8) (size 9 to 14) (size 15 to 20)
#    0.000    2.000    4.000    1.800    0.000    5.600 
#    0.000    0.000    0.000    2.400    0.000    1.400 
#    0.000    0.000    0.000    0.000    0.000    0.000 
#
# Total GULP energy -111358.779022 kJ/mol
# GULP energy per Si atom -5567.938951 kJ/mol
# Density = 1.800592 g / cm^3
# Si number density = 18.046991 Si / 1000 Ang^3
#
#
#
# Elastic Constant Matrix: (Units=GPa)
#
#
# Indices 1 2 3 4 5 6 
#
# 1 33.6841 14.5573 18.1497 0.0056 -4.0013 0.0015
# 2 14.5573 126.7966 48.4142 0.0081 -5.5701 0.0017
# 3 18.1497 48.4142 111.9831 0.0427 3.8826 0.0047
# 4 0.0056 0.0081 0.0427 24.0725 0.0112 -0.2298
# 5 -4.0013 -5.5701 3.8826 0.0112 10.5421 0.0019
# 6 0.0015 0.0017 0.0047 -0.2298 0.0019 9.0158
#
#
#
# Elastic Compliance Matrix: (Units=1/GPa)
#
#
# Indices 1 2 3 4 5 6 
#
# 1 0.035012 -0.001210 -0.005662 -0.000005 0.014735 -0.000006
# 2 -0.001210 0.009961 -0.004332 0.000002 0.006399 -0.000001
# 3 -0.005662 -0.004332 0.012028 -0.000014 -0.008868 -0.000003
# 4 -0.000005 0.000002 -0.000014 0.041551 -0.000040 0.001059
# 5 0.014735 0.006399 -0.008868 -0.000040 0.107098 -0.000023
# 6 -0.000006 -0.000001 -0.000003 0.001059 -0.000023 0.110943
#
#
# Mechanical properties :
#
#
# Convention : Reuss Voigt Hill
#
# Bulk Modulus (GPa) = 28.90888 48.30069 38.60478
# Shear Modulus (GPa) = 14.26401 21.48226 17.87313
#
# Velocity S-wave (km/s) = 2.81442 3.45389 3.15042
# Velocity P-wave (km/s) = 5.15895 6.53665 5.88823
#
# Compressibility (1/GPa) = 0.03459145
#
# Stress axis : x y z
#
# Youngs Moduli (GPa) = 28.56167 100.39327 83.13933
#
# Poissons Ratio (x) = 0.12152 0.47075
# Poissons Ratio (y) = 0.03457 0.36017
# Poissons Ratio (z) = 0.16172 0.43491
#
# Static dielectric constant tensor:
#      x y z
#    x 1.664230 0.000030 -0.013960 
#    y 0.000030 1.639460 -0.000010 
#    z -0.013960 -0.000010 1.634060 
# 
# From -- ./inp_files/79319.got.cif
#   From: 2010.05.17/outbox.cif.g08.bks.cpg/sg12_40_cif.got.tgz:79319.got - 2010.06.03 13:09:07.
