data_PCOD9173081
_publ_section_title
;
Structure prediction by ZEFSAII (Michael W. Deem and Ramdas Pophale) SiO2 
 PCOD9173081
Probable space group: C 2/M
;
_chemical_formula_sum "Si O2"
_cell_formula_units_Z 56
_cell_length_a 29.831728
_cell_length_b 7.437467
_cell_length_c 17.609566
_cell_angle_alpha 90.000000
_cell_angle_beta 140.538418
_cell_angle_gamma 90.000000
_cell_volume 2483.185370
_symmetry_space_group_name_H-M "C 2/M"
_symmetry_group_IT_number 12
_symmetry_cell_setting 'monoclinic'
loop_
_space_group_symop_operation_xyz
x,y,z
-x,y,-z
-x,-y,-z
x,-y,z
1/2+x,1/2+y,z
1/2-x,1/2+y,-z
1/2-x,1/2-y,-z
1/2+x,1/2-y,z
loop_
_atom_site_type_symbol
_atom_site_label
_atom_site_fract_x
_atom_site_fract_y
_atom_site_fract_z
Si Si1 0.113126 0.714492 0.194126
Si Si2 0.774176 0.780427 0.408224
Si Si3 0.046141 0.795515 0.780087
Si Si4 0.909060 0.784297 0.668589
Si Si5 0.892394 0.716301 0.978874
Si Si6 0.821835 0.216245 0.140631
Si Si7 0.775022 0.783362 0.241063
O O1 0.117519 0.500000 0.190416
O O2 0.193569 0.781998 0.311452
O O3 0.073779 0.746600 0.221221
O O4 0.084829 0.778660 0.075613
O O5 0.831293 0.718256 0.543991
O O6 0.798748 0.725801 0.355726
O O7 0.771931 0.000000 0.407803
O O8 0.108802 0.713608 0.811901
O O9 0.968787 0.712915 0.689637
O O10 0.036186 0.000000 0.739374
O O11 0.073837 0.800009 0.902867
O O12 0.908582 0.000000 0.660384
O O13 0.902748 0.500000 0.998404
O O14 0.808531 0.753383 0.873133
O O15 0.812481 0.284496 0.214273
O O16 0.828088 0.000000 0.151567
O O17 0.750000 0.250000 0.000000
O O18 0.781670 0.000000 0.249006
#
# Coordination Sequence:
#
# PCOD9173081 Si02
#       7
#     8   8   8   8   8   8   8
#     4   9  18  32  52  74  91 117 165 209 232 266
#     4   8  15  30  51  71  93 122 158 198 234 273
#     4  10  21  32  44  70 104 128 152 190 236 287
#     4  10  20  33  47  67  99 133 156 186 239 288
#     4   9  17  31  50  71  93 122 160 198 236 277
#     4  10  18  30  50  73  96 122 156 194 232 279
#     4   8  14  27  49  73  92 116 154 198 236 269
#
# _framework density 22.551680000000001
#
# number of rings (size 3 to 8) (size 9 to 14) (size 15 to 20)
#    0.000    2.857    1.429    2.143    0.000    1.714 
#    0.000    3.571    0.000    6.000    0.000    0.000 
#    0.000    3.429    0.000    0.000    0.000    0.000 
#
# Total GULP energy -156239.185737 kJ/mol
# GULP energy per Si atom -5579.970919 kJ/mol
# Density = 2.250035 g / cm^3
# Si number density = 22.551680 Si / 1000 Ang^3
#
#
#
# Elastic Constant Matrix: (Units=GPa)
#
#
# Indices 1 2 3 4 5 6 
#
# 1 143.6811 -3.7667 2.1613 0.0000 -10.9851 0.0000
# 2 -3.7667 70.2130 -5.9637 0.0000 4.8233 0.0000
# 3 2.1613 -5.9637 28.0559 0.0000 -12.5421 0.0000
# 4 0.0000 0.0000 0.0000 8.2862 0.0000 -3.7921
# 5 -10.9851 4.8233 -12.5421 0.0000 27.4474 0.0000
# 6 0.0000 0.0000 0.0000 -3.7921 0.0000 8.0436
#
#
#
# Elastic Compliance Matrix: (Units=1/GPa)
#
#
# Indices 1 2 3 4 5 6 
#
# 1 0.007203 0.000243 0.000963 0.000000 0.003280 0.000000
# 2 0.000243 0.014557 0.002483 0.000000 -0.001326 0.000000
# 3 0.000963 0.002483 0.045335 0.000000 0.020665 0.000000
# 4 0.000000 0.000000 0.000000 0.153884 0.000000 0.072547
# 5 0.003280 -0.001326 0.020665 0.000000 0.047422 0.000000
# 6 0.000000 0.000000 0.000000 0.072547 0.000000 0.158524
#
#
# Mechanical properties :
#
#
# Convention : Reuss Voigt Hill
#
# Bulk Modulus (GPa) = 13.42790 25.20131 19.31461
# Shear Modulus (GPa) = 11.25186 25.39004 18.32095
#
# Velocity S-wave (km/s) = 2.23611 3.35902 2.85335
# Velocity P-wave (km/s) = 3.55445 5.12282 4.40893
#
# Compressibility (1/GPa) = 0.07447180
#
# Stress axis : x y z
#
# Youngs Moduli (GPa) = 138.84049 68.69356 22.05821
#
# Poissons Ratio (x) = -0.01668 -0.02124
# Poissons Ratio (y) = -0.03372 -0.05476
# Poissons Ratio (z) = -0.13371 -0.17055
#
# Static dielectric constant tensor:
#      x y z
#    x 1.863610 0.000000 0.014520 
#    y 0.000000 1.891190 0.000000 
#    z 0.014520 0.000000 1.818730 
# 
# From -- ./inp_files/282929.got.cif
#   From: 2010.05.17/outbox.cif.g08.bks.cpg/sg12_142_cif.got.tgz:282929.got - 2010.06.03 13:09:07.
