data_PCOD9173569
_publ_section_title
;
Structure prediction by ZEFSAII (Michael W. Deem and Ramdas Pophale) SiO2 
 PCOD9173569
Probable space group: C 2/M
;
_chemical_formula_sum "Si O2"
_cell_formula_units_Z 40
_cell_length_a 9.532037
_cell_length_b 17.155342
_cell_length_c 14.418803
_cell_angle_alpha 90.000000
_cell_angle_beta 58.558184
_cell_angle_gamma 90.000000
_cell_volume 2011.639008
_symmetry_space_group_name_H-M "C 2/M"
_symmetry_group_IT_number 12
_symmetry_cell_setting 'monoclinic'
loop_
_space_group_symop_operation_xyz
x,y,z
-x,y,-z
-x,-y,-z
x,-y,z
1/2+x,1/2+y,z
1/2-x,1/2+y,-z
1/2-x,1/2-y,-z
1/2+x,1/2-y,z
loop_
_atom_site_type_symbol
_atom_site_label
_atom_site_fract_x
_atom_site_fract_y
_atom_site_fract_z
Si Si1 0.521436 0.412429 0.697668
Si Si2 0.902029 0.872179 0.945141
Si Si3 0.696201 0.190288 0.437459
Si Si4 0.413118 0.806835 0.891031
Si Si5 0.725347 0.279830 0.241945
O O1 0.479284 0.500000 0.685420
O O2 0.478412 0.403148 0.823059
O O3 0.704662 0.390696 0.600699
O O4 0.411980 0.344101 0.692083
O O5 0.916337 0.777781 0.939527
O O6 0.704807 0.873759 0.027191
O O7 0.000000 0.902966 0.000000
O O8 0.500000 0.181492 0.500000
O O9 0.750000 0.250000 0.500000
O O10 0.755373 0.229774 0.322049
O O11 0.339167 0.779099 0.816254
O O12 0.605074 0.826214 0.832746
#
# Coordination Sequence:
#
# PCOD9173569 Si02
#       5
#     8   8   8   8   8
#     4  11  25  40  59  91 133 159 192 259 321 354
#     4  10  18  32  57  89 124 163 203 241 297 354
#     4  12  22  40  68  93 111 157 216 259 295 366
#     4  10  18  30  59  91 119 158 205 250 280 354
#     4  11  19  39  60  92 122 155 209 252 297 356
#
# _framework density 19.884283
#
# number of rings (size 3 to 8) (size 9 to 14) (size 15 to 20)
#    0.000    1.200    8.000    0.000    0.000    0.800 
#    0.000    4.000    0.000    6.000    0.000    0.000 
#    0.000    0.000    0.000    0.000    0.000    0.000 
#
# Total GULP energy -111369.854224 kJ/mol
# GULP energy per Si atom -5568.492711 kJ/mol
# Density = 1.983903 g / cm^3
# Si number density = 19.884283 Si / 1000 Ang^3
#
#
#
# Elastic Constant Matrix: (Units=GPa)
#
#
# Indices 1 2 3 4 5 6 
#
# 1 85.1059 -7.3267 18.5827 0.0000 -18.4680 0.0000
# 2 -7.3267 50.8535 -0.0921 0.0000 -2.5239 0.0000
# 3 18.5827 -0.0921 41.8287 0.0000 -12.1672 0.0000
# 4 0.0000 0.0000 0.0000 9.6768 0.0000 -5.5627
# 5 -18.4680 -2.5239 -12.1672 0.0000 58.5154 0.0000
# 6 0.0000 0.0000 0.0000 -5.5627 0.0000 6.0486
#
#
#
# Elastic Compliance Matrix: (Units=1/GPa)
#
#
# Indices 1 2 3 4 5 6 
#
# 1 0.013789 0.002145 -0.005139 0.000000 0.003376 0.000000
# 2 0.002145 0.020044 -0.000490 0.000000 0.001440 0.000000
# 3 -0.005139 -0.000490 0.027366 0.000000 0.004047 0.000000
# 4 0.000000 0.000000 0.000000 0.219251 0.000000 0.201637
# 5 0.003376 0.001440 0.004047 0.000000 0.019059 0.000000
# 6 0.000000 0.000000 0.000000 0.201637 0.000000 0.350767
#
#
# Mechanical properties :
#
#
# Convention : Reuss Voigt Hill
#
# Bulk Modulus (GPa) = 18.43965 22.23509 20.33737
# Shear Modulus (GPa) = 7.40388 25.95642 16.68015
#
# Velocity S-wave (km/s) = 1.93173 3.61692 2.89945
# Velocity P-wave (km/s) = 3.77744 5.35250 4.63240
#
# Compressibility (1/GPa) = 0.05423097
#
# Stress axis : x y z
#
# Youngs Moduli (GPa) = 72.51903 49.89043 36.54115
#
# Poissons Ratio (x) = -0.10701 0.18780
# Poissons Ratio (y) = -0.15555 0.01791
# Poissons Ratio (z) = 0.37270 0.02445
#
# Static dielectric constant tensor:
#      x y z
#    x 1.822820 0.000000 -0.101700 
#    y 0.000000 1.655170 0.000000 
#    z -0.101700 0.000000 1.842960 
# 
# From -- ./inp_files/119030.got.cif
#   From: 2010.05.17/outbox.cif.g08.bks.cpg/sg12_60_cif.got.tgz:119030.got - 2010.06.03 13:09:07.
