data_PCOD9173004
_publ_section_title
;
Structure prediction by ZEFSAII (Michael W. Deem and Ramdas Pophale) SiO2 
 PCOD9173004
Probable space group: C 2/M
;
_chemical_formula_sum "Si O2"
_cell_formula_units_Z 36
_cell_length_a 13.729636
_cell_length_b 28.599547
_cell_length_c 9.098375
_cell_angle_alpha 90.000000
_cell_angle_beta 154.885747
_cell_angle_gamma 90.000000
_cell_volume 1516.291292
_symmetry_space_group_name_H-M "C 2/M"
_symmetry_group_IT_number 12
_symmetry_cell_setting 'monoclinic'
loop_
_space_group_symop_operation_xyz
x,y,z
-x,y,-z
-x,-y,-z
x,-y,z
1/2+x,1/2+y,z
1/2-x,1/2+y,-z
1/2-x,1/2-y,-z
1/2+x,1/2-y,z
loop_
_atom_site_type_symbol
_atom_site_label
_atom_site_fract_x
_atom_site_fract_y
_atom_site_fract_z
Si Si1 0.416623 0.182391 0.204151
Si Si2 0.846471 0.146478 0.640248
Si Si3 0.000000 0.397945 0.500000
Si Si4 0.259444 0.448839 0.589930
Si Si5 0.231364 0.228605 0.683419
O O1 0.579513 0.153269 0.319373
O O2 0.329025 0.142270 0.197030
O O3 0.598856 0.222534 0.500263
O O4 0.240864 0.208672 0.860564
O O5 0.827603 0.092058 0.566764
O O6 0.878169 0.190084 0.574960
O O7 0.000000 0.148902 0.000000
O O8 0.096631 0.429203 0.499966
O O9 0.182488 0.500000 0.430675
O O10 0.500000 0.454866 0.000000
O O11 0.500000 0.235748 0.000000
#
# Coordination Sequence:
#
# PCOD9173004 Si02
#       5
#     8   8   4   8   8
#     4  10  19  30  47  72 107 146 177 215 262 309
#     4   9  16  29  51  76 102 135 177 221 265 314
#     4  10  21  34  52  80 110 138 181 222 262 320
#     4   9  18  34  58  81 102 135 178 225 273 318
#     4  10  18  30  49  74 107 145 182 217 257 312
#
# _framework density 23.742139999999999
#
# number of rings (size 3 to 8) (size 9 to 14) (size 15 to 20)
#    0.000    2.444    0.000    5.000    0.000    1.778 
#    0.000    0.000    0.000   18.000    0.000    7.778 
#    0.000    0.000    0.000    0.444    0.000    0.000 
#
# Total GULP energy -100222.919042 kJ/mol
# GULP energy per Si atom -5567.939947 kJ/mol
# Density = 2.368810 g / cm^3
# Si number density = 23.742140 Si / 1000 Ang^3
#
#
#
# Elastic Constant Matrix: (Units=GPa)
#
#
# Indices 1 2 3 4 5 6 
#
# 1 81.9615 34.5138 0.0925 0.0000 8.0883 0.0000
# 2 34.5138 207.4073 24.6003 0.0000 -4.3915 0.0000
# 3 0.0925 24.6003 72.8866 0.0000 -2.1856 0.0000
# 4 0.0000 0.0000 0.0000 20.0490 0.0000 13.0059
# 5 8.0883 -4.3915 -2.1856 0.0000 23.9779 0.0000
# 6 0.0000 0.0000 0.0000 13.0059 0.0000 49.2606
#
#
#
# Elastic Compliance Matrix: (Units=1/GPa)
#
#
# Indices 1 2 3 4 5 6 
#
# 1 0.013737 -0.002471 0.000666 0.000000 -0.005026 0.000000
# 2 -0.002471 0.005481 -0.001797 0.000000 0.001674 0.000000
# 3 0.000666 -0.001797 0.014348 0.000000 0.000754 0.000000
# 4 0.000000 0.000000 0.000000 0.060186 0.000000 -0.015890
# 5 -0.005026 0.001674 0.000754 0.000000 0.043776 0.000000
# 6 0.000000 0.000000 0.000000 -0.015890 0.000000 0.024496
#
#
# Mechanical properties :
#
#
# Convention : Reuss Voigt Hill
#
# Bulk Modulus (GPa) = 37.93328 53.40760 45.67044
# Shear Modulus (GPa) = 28.08759 38.86077 33.47418
#
# Velocity S-wave (km/s) = 3.44325 4.05011 3.75894
# Velocity P-wave (km/s) = 5.64091 6.66445 6.17392
#
# Compressibility (1/GPa) = 0.02636208
#
# Stress axis : x y z
#
# Youngs Moduli (GPa) = 72.79773 182.44174 69.69555
#
# Poissons Ratio (x) = 0.45086 -0.04641
# Poissons Ratio (y) = 0.17990 0.12522
# Poissons Ratio (z) = -0.04848 0.32779
#
# Static dielectric constant tensor:
#      x y z
#    x 2.161610 0.000000 0.063400 
#    y 0.000000 1.987890 0.000000 
#    z 0.063400 0.000000 1.999700 
# 
# From -- ./inp_files/161045.got.cif
#   From: 2010.05.17/outbox.cif.g08.bks.cpg/sg12_81_cif.got.tgz:161045.got - 2010.06.03 13:09:07.
