data_PCOD9173935
_publ_section_title
;
Structure prediction by ZEFSAII (Michael W. Deem and Ramdas Pophale) SiO2 
 PCOD9173935
Probable space group: C 2/M
;
_chemical_formula_sum "Si O2"
_cell_formula_units_Z 64
_cell_length_a 19.375793
_cell_length_b 9.181459
_cell_length_c 19.295333
_cell_angle_alpha 90.000000
_cell_angle_beta 89.713740
_cell_angle_gamma 90.000000
_cell_volume 3432.559254
_symmetry_space_group_name_H-M "C 2/M"
_symmetry_group_IT_number 12
_symmetry_cell_setting 'monoclinic'
loop_
_space_group_symop_operation_xyz
x,y,z
-x,y,-z
-x,-y,-z
x,-y,z
1/2+x,1/2+y,z
1/2-x,1/2+y,-z
1/2-x,1/2-y,-z
1/2+x,1/2-y,z
loop_
_atom_site_type_symbol
_atom_site_label
_atom_site_fract_x
_atom_site_fract_y
_atom_site_fract_z
Si Si1 0.404862 0.174712 0.852886
Si Si2 0.528708 0.673197 0.922844
Si Si3 0.836291 0.832848 0.565980
Si Si4 0.331877 0.832210 0.427599
Si Si5 0.715123 0.330960 0.064627
Si Si6 0.353006 0.832104 0.147195
Si Si7 0.838119 0.671029 0.705222
Si Si8 0.672278 0.671872 0.713258
O O1 0.477341 0.248943 0.869437
O O2 0.350404 0.244367 0.906714
O O3 0.377895 0.207318 0.775589
O O4 0.407678 0.000000 0.861172
O O5 0.530812 0.500000 0.912278
O O6 0.602832 0.744016 0.909262
O O7 0.500000 0.701307 0.000000
O O8 0.752172 0.830447 0.568577
O O9 0.857048 0.740784 0.498527
O O10 0.859462 0.763618 0.638348
O O11 0.857841 0.000000 0.559177
O O12 0.350863 0.741223 0.359317
O O13 0.353381 0.000000 0.421766
O O14 0.697937 0.500000 0.048539
O O15 0.773498 0.330495 0.123934
O O16 0.750000 0.250000 0.000000
O O17 0.359337 0.754739 0.221140
O O18 0.375738 0.000000 0.149752
O O19 0.848585 0.500000 0.690116
O O20 0.755726 0.690585 0.716786
O O21 0.657872 0.500000 0.716101
#
# Coordination Sequence:
#
# PCOD9173935 Si02
#       8
#     8   8   8   8   8   8   8   8
#     4  11  22  38  59  83 111 144 183 227 279 333
#     4  11  25  43  61  81 108 144 185 231 281 334
#     4   9  16  25  41  67 101 142 182 221 265 317
#     4   9  16  26  41  66 103 143 181 221 267 320
#     4  11  23  37  57  83 111 141 179 224 275 333
#     4  11  23  38  57  82 110 144 183 227 277 331
#     4   9  18  31  49  75 107 143 178 221 273 324
#     4  10  18  31  51  76 108 143 181 225 272 325
#
# _framework density 18.644978999999999
#
# number of rings (size 3 to 8) (size 9 to 14) (size 15 to 20)
#    0.000    1.875    1.250    3.375    0.000    9.000 
#    0.000    0.000    0.000    0.000    0.000    0.875 
#    0.000    7.000    0.000    0.000    0.000    0.000 
#
# Total GULP energy -178707.357891 kJ/mol
# GULP energy per Si atom -5584.604934 kJ/mol
# Density = 1.860254 g / cm^3
# Si number density = 18.644979 Si / 1000 Ang^3
#
#
#
# Elastic Constant Matrix: (Units=GPa)
#
#
# Indices 1 2 3 4 5 6 
#
# 1 26.4704 9.5807 -7.7936 0.0000 3.6662 0.0000
# 2 9.5807 114.6658 62.6093 0.0000 2.0830 0.0000
# 3 -7.7936 62.6093 95.4393 0.0000 1.8340 0.0000
# 4 0.0000 0.0000 0.0000 35.9340 0.0000 -2.8106
# 5 3.6662 2.0830 1.8340 0.0000 18.0651 0.0000
# 6 0.0000 0.0000 0.0000 -2.8106 0.0000 22.3980
#
#
#
# Elastic Compliance Matrix: (Units=1/GPa)
#
#
# Indices 1 2 3 4 5 6 
#
# 1 0.045116 -0.008899 0.009697 0.000000 -0.009115 0.000000
# 2 -0.008899 0.015351 -0.010819 0.000000 0.001134 0.000000
# 3 0.009697 -0.010819 0.018417 0.000000 -0.002590 0.000000
# 4 0.000000 0.000000 0.000000 0.028105 0.000000 0.003527
# 5 -0.009115 0.001134 -0.002590 0.000000 0.057337 0.000000
# 6 0.000000 0.000000 0.000000 0.003527 0.000000 0.045089
#
#
# Mechanical properties :
#
#
# Convention : Reuss Voigt Hill
#
# Bulk Modulus (GPa) = 16.99438 40.59647 28.79542
# Shear Modulus (GPa) = 20.07452 26.75802 23.41627
#
# Velocity S-wave (km/s) = 3.28483 3.79242 3.54772
# Velocity P-wave (km/s) = 4.84988 6.40291 5.67973
#
# Compressibility (1/GPa) = 0.05884298
#
# Stress axis : x y z
#
# Youngs Moduli (GPa) = 22.16491 65.14099 54.29773
#
# Poissons Ratio (x) = 0.57968 -0.52653
# Poissons Ratio (y) = 0.19724 0.58745
# Poissons Ratio (z) = -0.21493 0.70477
#
# Static dielectric constant tensor:
#      x y z
#    x 1.641950 0.000000 0.010930 
#    y 0.000000 1.622810 0.000000 
#    z 0.010930 0.000000 1.632030 
# 
# From -- ./inp_files/281292.got.cif
#   From: 2010.05.17/outbox.cif.g08.bks.cpg/sg12_141_cif.got.tgz:281292.got - 2010.06.03 13:09:07.
