data_PCOD9173520
_publ_section_title
;
Structure prediction by ZEFSAII (Michael W. Deem and Ramdas Pophale) SiO2 
 PCOD9173520
Probable space group: C 2/M
;
_chemical_formula_sum "Si O2"
_cell_formula_units_Z 40
_cell_length_a 15.524428
_cell_length_b 16.160886
_cell_length_c 7.314645
_cell_angle_alpha 90.000000
_cell_angle_beta 67.150514
_cell_angle_gamma 90.000000
_cell_volume 1691.151895
_symmetry_space_group_name_H-M "C 2/M"
_symmetry_group_IT_number 12
_symmetry_cell_setting 'monoclinic'
loop_
_space_group_symop_operation_xyz
x,y,z
-x,y,-z
-x,-y,-z
x,-y,z
1/2+x,1/2+y,z
1/2-x,1/2+y,-z
1/2-x,1/2-y,-z
1/2+x,1/2-y,z
loop_
_atom_site_type_symbol
_atom_site_label
_atom_site_fract_x
_atom_site_fract_y
_atom_site_fract_z
Si Si1 0.132578 0.261769 0.786771
Si Si2 0.873496 0.876260 0.725609
Si Si3 0.337364 0.093819 0.971074
Si Si4 0.069141 0.088797 0.728263
Si Si5 0.651943 0.797597 0.363985
O O1 0.086050 0.171455 0.829113
O O2 0.241441 0.235523 0.714910
O O3 0.116252 0.299883 0.599295
O O4 0.115483 0.334096 0.945829
O O5 0.873913 0.900896 0.510256
O O6 0.894665 0.778214 0.705826
O O7 0.962058 0.914152 0.752222
O O8 0.774113 0.897615 0.894606
O O9 0.353115 0.119870 0.748443
O O10 0.366038 0.000000 0.986859
O O11 0.095093 0.000000 0.790992
#
# Coordination Sequence:
#
# PCOD9173520 Si02
#       5
#     8   8   8   8   8
#     4   9  19  35  54  79 111 143 179 223 268 317
#     4   9  17  32  53  80 113 142 174 220 275 330
#     4  11  21  35  57  81 109 147 187 225 263 310
#     4  10  18  30  54  85 113 142 174 215 275 338
#     4   9  19  35  54  75 106 148 184 219 265 318
#
# _framework density 23.652517
#
# number of rings (size 3 to 8) (size 9 to 14) (size 15 to 20)
#    0.000    2.400    0.000    6.000    0.000    1.600 
#    0.000    4.000    0.000    9.600    0.000    5.600 
#    0.000    0.000    0.000    0.000    0.000    0.000 
#
# Total GULP energy -111827.610052 kJ/mol
# GULP energy per Si atom -5591.380503 kJ/mol
# Density = 2.359868 g / cm^3
# Si number density = 23.652517 Si / 1000 Ang^3
#
#
#
# Elastic Constant Matrix: (Units=GPa)
#
#
# Indices 1 2 3 4 5 6 
#
# 1 47.4925 44.7148 11.7801 0.0000 -1.6321 0.0000
# 2 44.7148 201.4165 63.4397 0.0000 30.0950 0.0000
# 3 11.7801 63.4397 101.7827 0.0000 14.7193 0.0000
# 4 0.0000 0.0000 0.0000 30.2574 0.0000 46.5846
# 5 -1.6321 30.0950 14.7193 0.0000 21.0354 0.0000
# 6 0.0000 0.0000 0.0000 46.5846 0.0000 142.4342
#
#
#
# Elastic Compliance Matrix: (Units=1/GPa)
#
#
# Indices 1 2 3 4 5 6 
#
# 1 0.029953 -0.008866 -0.000124 0.000000 0.015095 0.000000
# 2 -0.008866 0.009833 -0.003303 0.000000 -0.012444 0.000000
# 3 -0.000124 -0.003303 0.012479 0.000000 -0.004016 0.000000
# 4 0.000000 0.000000 0.000000 0.066572 0.000000 -0.021773
# 5 0.015095 -0.012444 -0.004016 0.000000 0.069324 0.000000
# 6 0.000000 0.000000 0.000000 -0.021773 0.000000 0.014142
#
#
# Mechanical properties :
#
#
# Convention : Reuss Voigt Hill
#
# Bulk Modulus (GPa) = 36.12814 65.61788 50.87301
# Shear Modulus (GPa) = 21.17625 54.12921 37.65273
#
# Velocity S-wave (km/s) = 2.99541 4.78904 3.99421
# Velocity P-wave (km/s) = 5.22217 7.64084 6.54422
#
# Compressibility (1/GPa) = 0.02767926
#
# Stress axis : x y z
#
# Youngs Moduli (GPa) = 33.38564 101.69986 80.13760
#
# Poissons Ratio (x) = 0.90169 0.00990
# Poissons Ratio (y) = 0.29600 0.26468
# Poissons Ratio (z) = 0.00412 0.33590
#
# Static dielectric constant tensor:
#      x y z
#    x 1.919960 0.000000 -0.002640 
#    y 0.000000 1.890690 0.000000 
#    z -0.002640 0.000000 1.922490 
# 
# From -- ./inp_files/72825.got.cif
#   From: 2010.05.17/outbox.cif.g08.bks.cpg/sg12_37_cif.got.tgz:72825.got - 2010.06.03 13:09:07.
