data_PCOD9173157
_publ_section_title
;
Structure prediction by ZEFSAII (Michael W. Deem and Ramdas Pophale) SiO2 
 PCOD9173157
Probable space group: C 2/M
;
_chemical_formula_sum "Si O2"
_cell_formula_units_Z 56
_cell_length_a 19.351909
_cell_length_b 9.081874
_cell_length_c 32.274558
_cell_angle_alpha 90.000000
_cell_angle_beta 33.585936
_cell_angle_gamma 90.000000
_cell_volume 3137.845947
_symmetry_space_group_name_H-M "C 2/M"
_symmetry_group_IT_number 12
_symmetry_cell_setting 'monoclinic'
loop_
_space_group_symop_operation_xyz
x,y,z
-x,y,-z
-x,-y,-z
x,-y,z
1/2+x,1/2+y,z
1/2-x,1/2+y,-z
1/2-x,1/2-y,-z
1/2+x,1/2-y,z
loop_
_atom_site_type_symbol
_atom_site_label
_atom_site_fract_x
_atom_site_fract_y
_atom_site_fract_z
Si Si1 0.281165 0.674613 0.051019
Si Si2 0.335665 0.173477 0.423074
Si Si3 0.131008 0.327003 0.290575
Si Si4 0.826478 0.825869 0.816379
Si Si5 0.122270 0.174486 0.683729
Si Si6 0.198169 0.675883 0.730929
Si Si7 0.938901 0.325761 0.905514
O O1 0.289716 0.500000 0.053133
O O2 0.258724 0.756557 0.105361
O O3 0.160573 0.704029 0.081684
O O4 0.396724 0.735031 0.966606
O O5 0.250000 0.250000 0.500000
O O6 0.481417 0.188603 0.362638
O O7 0.323292 0.252067 0.384862
O O8 0.307542 0.000000 0.433834
O O9 0.161253 0.500000 0.276740
O O10 0.186434 0.253837 0.221257
O O11 0.185976 0.244687 0.302721
O O12 0.971702 0.804136 0.757301
O O13 0.804377 0.000000 0.823118
O O14 0.175969 0.251261 0.697581
O O15 0.145899 0.000000 0.672354
O O16 0.208761 0.500000 0.721652
O O17 0.075457 0.708024 0.820084
O O18 0.930830 0.500000 0.918872
#
# Coordination Sequence:
#
# PCOD9173157 Si02
#       7
#     8   8   8   8   8   8   8
#     4  10  18  30  50  76 106 141 185 234 279 323
#     4  10  21  39  63  88 115 144 178 221 267 320
#     4  10  22  38  57  82 113 146 180 222 273 326
#     4  10  19  33  54  79 107 143 187 231 274 325
#     4  10  20  34  57  85 112 145 185 224 267 323
#     4  11  21  36  56  81 114 148 184 227 275 326
#     4   9  19  32  48  74 108 144 182 228 279 325
#
# _framework density 17.846639
#
# number of rings (size 3 to 8) (size 9 to 14) (size 15 to 20)
#    0.000    2.000    1.429    2.571    0.000    4.571 
#    0.000    1.429    0.000    8.571    0.000    0.000 
#    0.000    0.000    0.000    0.000    0.000    0.000 
#
# Total GULP energy -156382.312869 kJ/mol
# GULP energy per Si atom -5585.082602 kJ/mol
# Density = 1.780602 g / cm^3
# Si number density = 17.846639 Si / 1000 Ang^3
#
#
#
# Elastic Constant Matrix: (Units=GPa)
#
#
# Indices 1 2 3 4 5 6 
#
# 1 89.8638 68.5577 39.3208 -0.0001 26.9099 -0.0006
# 2 68.5577 113.0713 75.6345 -0.0001 25.0245 -0.0007
# 3 39.3208 75.6345 109.0532 0.0000 34.1146 -0.0001
# 4 -0.0001 -0.0001 0.0000 34.6269 0.0000 7.6300
# 5 26.9099 25.0245 34.1146 0.0000 20.4939 -0.0001
# 6 -0.0006 -0.0007 -0.0001 7.6300 -0.0001 29.4458
#
#
#
# Elastic Compliance Matrix: (Units=1/GPa)
#
#
# Indices 1 2 3 4 5 6 
#
# 1 0.035149 -0.022836 0.018527 0.000000 -0.049109 0.000000
# 2 -0.022836 0.031386 -0.022796 0.000000 0.029607 0.000000
# 3 0.018527 -0.022796 0.035893 0.000000 -0.056241 0.000000
# 4 0.000000 0.000000 0.000000 0.030628 0.000000 -0.007936
# 5 -0.049109 0.029607 -0.056241 0.000000 0.170747 0.000000
# 6 0.000000 0.000000 0.000000 -0.007936 0.000000 0.036017
#
#
# Mechanical properties :
#
#
# Convention : Reuss Voigt Hill
#
# Bulk Modulus (GPa) = 20.73879 75.44604 48.09242
# Shear Modulus (GPa) = 12.19211 25.47834 18.83522
#
# Velocity S-wave (km/s) = 2.61657 3.78249 3.25221
# Velocity P-wave (km/s) = 4.55789 7.83854 6.41160
#
# Compressibility (1/GPa) = 0.04821883
#
# Stress axis : x y z
#
# Youngs Moduli (GPa) = 28.45058 31.86181 27.86026
#
# Poissons Ratio (x) = 0.72759 -0.51617
# Poissons Ratio (y) = 0.64969 0.63510
# Poissons Ratio (z) = -0.52711 0.72631
#
# Static dielectric constant tensor:
#      x y z
#    x 1.598580 0.000000 -0.012710 
#    y 0.000000 1.588330 0.000000 
#    z -0.012710 0.000000 1.582700 
# 
# From -- ./inp_files/275023.got.cif
#   From: 2010.05.17/outbox.cif.g08.bks.cpg/sg12_138_cif.got.tgz:275023.got - 2010.06.03 13:09:07.
