data_PCOD9173036
_publ_section_title
;
Structure prediction by ZEFSAII (Michael W. Deem and Ramdas Pophale) SiO2 
 PCOD9173036
Probable space group: C 2/M
;
_chemical_formula_sum "Si O2"
_cell_formula_units_Z 56
_cell_length_a 27.299640
_cell_length_b 8.418261
_cell_length_c 13.388236
_cell_angle_alpha 90.000000
_cell_angle_beta 118.631256
_cell_angle_gamma 90.000000
_cell_volume 2700.595289
_symmetry_space_group_name_H-M "C 2/M"
_symmetry_group_IT_number 12
_symmetry_cell_setting 'monoclinic'
loop_
_space_group_symop_operation_xyz
x,y,z
-x,y,-z
-x,-y,-z
x,-y,z
1/2+x,1/2+y,z
1/2-x,1/2+y,-z
1/2-x,1/2-y,-z
1/2+x,1/2-y,z
loop_
_atom_site_type_symbol
_atom_site_label
_atom_site_fract_x
_atom_site_fract_y
_atom_site_fract_z
Si Si1 0.972814 0.812045 0.189213
Si Si2 0.236293 0.688879 0.223483
Si Si3 0.130962 0.686385 0.010746
Si Si4 0.037662 0.688581 0.443573
Si Si5 0.431807 0.684145 0.862224
Si Si6 0.337093 0.689640 0.437052
Si Si7 0.836907 0.314498 0.649465
O O1 0.002967 0.726912 0.310027
O O2 0.008045 0.772198 0.122950
O O3 0.978507 0.000000 0.208577
O O4 0.908354 0.767918 0.109307
O O5 0.239204 0.500000 0.206079
O O6 0.192700 0.752980 0.098224
O O7 0.298801 0.747107 0.306625
O O8 0.205984 0.707909 0.301557
O O9 0.134820 0.500000 0.992176
O O10 0.096467 0.710279 0.080355
O O11 0.047051 0.500000 0.457704
O O12 0.097925 0.769837 0.507600
O O13 0.000000 0.739321 0.500000
O O14 0.432128 0.500000 0.895804
O O15 0.389958 0.705808 0.727812
O O16 0.329849 0.500000 0.437788
O O17 0.316615 0.768017 0.520348
O O18 0.853551 0.500000 0.665474
#
# Coordination Sequence:
#
# PCOD9173036 Si02
#       7
#     8   8   8   8   8   8   8
#     4  11  22  36  56  81 111 145 183 231 281 330
#     4   8  18  33  50  78 114 152 188 220 264 322
#     4  10  20  34  53  79 114 154 190 223 263 324
#     4  11  25  43  62  84 108 138 183 237 289 338
#     4  10  19  31  48  76 113 150 189 229 271 324
#     4  11  20  34  56  80 110 145 183 230 279 329
#     4  10  18  30  49  76 112 151 191 225 265 325
#
# _framework density 20.736169
#
# number of rings (size 3 to 8) (size 9 to 14) (size 15 to 20)
#    0.000    1.857    1.429    4.286    0.000    4.571 
#    0.000    7.857    0.000    0.857    0.000    0.000 
#    0.000    0.000    0.000    0.000    0.000    0.000 
#
# Total GULP energy -156240.295541 kJ/mol
# GULP energy per Si atom -5580.010555 kJ/mol
# Density = 2.068897 g / cm^3
# Si number density = 20.736169 Si / 1000 Ang^3
#
#
#
# Elastic Constant Matrix: (Units=GPa)
#
#
# Indices 1 2 3 4 5 6 
#
# 1 24.7006 7.6026 23.8124 0.0000 8.8720 0.0000
# 2 7.6026 26.0834 -1.2733 0.0000 3.2937 0.0000
# 3 23.8124 -1.2733 89.2595 0.0000 44.7475 0.0000
# 4 0.0000 0.0000 0.0000 29.9122 0.0000 -5.4867
# 5 8.8720 3.2937 44.7475 0.0000 33.0628 0.0000
# 6 0.0000 0.0000 0.0000 -5.4867 0.0000 33.0297
#
#
#
# Elastic Compliance Matrix: (Units=1/GPa)
#
#
# Indices 1 2 3 4 5 6 
#
# 1 0.070838 -0.026125 -0.034357 0.000000 0.030092 0.000000
# 2 -0.026125 0.050267 0.020785 0.000000 -0.026128 0.000000
# 3 -0.034357 0.020785 0.053129 0.000000 -0.064757 0.000000
# 4 0.000000 0.000000 0.000000 0.034482 0.000000 0.005728
# 5 0.030092 -0.026128 -0.064757 0.000000 0.112416 0.000000
# 6 0.000000 0.000000 0.000000 0.005728 0.000000 0.031227
#
#
# Mechanical properties :
#
#
# Convention : Reuss Voigt Hill
#
# Bulk Modulus (GPa) = 10.54388 22.25855 16.40121
# Shear Modulus (GPa) = 10.79059 26.52772 18.65916
#
# Velocity S-wave (km/s) = 2.28365 3.58061 3.00298
# Velocity P-wave (km/s) = 3.47120 5.27748 4.46660
#
# Compressibility (1/GPa) = 0.09484177
#
# Stress axis : x y z
#
# Youngs Moduli (GPa) = 14.11662 19.89374 18.82204
#
# Poissons Ratio (x) = 0.51972 0.64666
# Poissons Ratio (y) = 0.36879 -0.39121
# Poissons Ratio (z) = 0.48500 -0.41349
#
# Static dielectric constant tensor:
#      x y z
#    x 1.744950 0.000000 0.045190 
#    y 0.000000 1.698900 0.000000 
#    z 0.045190 0.000000 1.825820 
# 
# From -- ./inp_files/249291.got.cif
#   From: 2010.05.17/outbox.cif.g08.bks.cpg/sg12_125_cif.got.tgz:249291.got - 2010.06.03 13:09:07.
