data_PCOD9173536
_publ_section_title
;
Structure prediction by ZEFSAII (Michael W. Deem and Ramdas Pophale) SiO2 
 PCOD9173536
Probable space group: C 2/M
;
_chemical_formula_sum "Si O2"
_cell_formula_units_Z 56
_cell_length_a 15.481186
_cell_length_b 20.527624
_cell_length_c 13.254328
_cell_angle_alpha 90.000000
_cell_angle_beta 49.855813
_cell_angle_gamma 90.000000
_cell_volume 3219.846580
_symmetry_space_group_name_H-M "C 2/M"
_symmetry_group_IT_number 12
_symmetry_cell_setting 'monoclinic'
loop_
_space_group_symop_operation_xyz
x,y,z
-x,y,-z
-x,-y,-z
x,-y,z
1/2+x,1/2+y,z
1/2-x,1/2+y,-z
1/2-x,1/2-y,-z
1/2+x,1/2-y,z
loop_
_atom_site_type_symbol
_atom_site_label
_atom_site_fract_x
_atom_site_fract_y
_atom_site_fract_z
Si Si1 0.336448 0.111475 0.857802
Si Si2 0.683892 0.796357 0.802749
Si Si3 0.526485 0.221944 0.735096
Si Si4 0.348623 0.290279 0.981913
Si Si5 0.126515 0.713593 0.449504
Si Si6 0.635120 0.069744 0.386171
Si Si7 0.629337 0.927512 0.940926
O O1 0.430341 0.169319 0.777156
O O2 0.210238 0.140906 0.958287
O O3 0.343301 0.072601 0.749470
O O4 0.364805 0.077860 0.942240
O O5 0.597161 0.804237 0.776246
O O6 0.635255 0.747959 0.925273
O O7 0.794342 0.761694 0.673733
O O8 0.698346 0.866662 0.843745
O O9 0.608431 0.232916 0.579383
O O10 0.458167 0.284031 0.829503
O O11 0.250000 0.250000 0.000000
O O12 0.172538 0.639132 0.404817
O O13 0.000000 0.714683 0.500000
O O14 0.500000 0.069339 0.500000
O O15 0.678341 0.000000 0.394728
O O16 0.667188 0.000000 0.881677
O O17 0.500000 0.919689 0.000000
#
# Coordination Sequence:
#
# PCOD9173536 Si02
#       7
#     8   8   8   8   8   8   8
#     4  11  18  33  52  79 106 135 177 214 261 321
#     4  12  20  35  53  76 113 139 174 222 266 319
#     4  11  20  32  49  82 109 137 174 216 273 314
#     4  10  18  30  55  75 101 134 176 221 255 307
#     4  11  21  35  53  79 106 139 182 218 263 315
#     4  10  19  32  51  76 108 138 172 215 264 315
#     4  11  22  34  52  81 113 140 170 215 274 324
#
# _framework density 17.392133999999999
#
# number of rings (size 3 to 8) (size 9 to 14) (size 15 to 20)
#    0.000    1.143    8.571    2.143    0.000    0.000 
#    0.000    0.714    0.000    0.429    0.000    3.000 
#    0.000    0.000    0.000    0.000    0.000    0.000 
#
# Total GULP energy -156037.985060 kJ/mol
# GULP energy per Si atom -5572.785181 kJ/mol
# Density = 1.735255 g / cm^3
# Si number density = 17.392134 Si / 1000 Ang^3
#
#
#
# Elastic Constant Matrix: (Units=GPa)
#
#
# Indices 1 2 3 4 5 6 
#
# 1 27.1126 13.1874 26.3494 0.0000 6.0545 0.0000
# 2 13.1874 104.0336 56.1412 0.0000 -13.7732 0.0000
# 3 26.3494 56.1412 126.1591 0.0000 11.6046 0.0000
# 4 0.0000 0.0000 0.0000 -25.7420 0.0000 15.3318
# 5 6.0545 -13.7732 11.6046 0.0000 25.4364 0.0000
# 6 0.0000 0.0000 0.0000 15.3318 0.0000 7.5668
#
#
#
# Elastic Compliance Matrix: (Units=1/GPa)
#
#
# Indices 1 2 3 4 5 6 
#
# 1 0.048116 -0.003204 -0.007735 0.000000 -0.009658 0.000000
# 2 -0.003204 0.015757 -0.007513 0.000000 0.012722 0.000000
# 3 -0.007735 -0.007513 0.013664 0.000000 -0.008461 0.000000
# 4 0.000000 0.000000 0.000000 -0.017603 0.000000 0.035668
# 5 -0.009658 0.012722 -0.008461 0.000000 0.052361 0.000000
# 6 0.000000 0.000000 0.000000 0.035668 0.000000 0.059886
#
#
# Mechanical properties :
#
#
# Convention : Reuss Voigt Hill
#
# Bulk Modulus (GPa) = 24.61084 49.85128 37.23106
# Shear Modulus (GPa) = 22.45889 12.22739 17.34314
#
# Velocity S-wave (km/s) = 3.59740 2.65437 3.16125
# Velocity P-wave (km/s) = 5.60681 6.17411 5.89728
#
# Compressibility (1/GPa) = 0.04063251
#
# Stress axis : x y z
#
# Youngs Moduli (GPa) = 20.78320 63.46349 73.18663
#
# Poissons Ratio (x) = 0.20331 0.56613
# Poissons Ratio (y) = 0.06658 0.54986
# Poissons Ratio (z) = 0.16077 0.47681
#
# Static dielectric constant tensor:
#      x y z
#    x 1.607710 0.000000 0.006950 
#    y 0.000000 1.664760 0.000000 
#    z 0.006950 0.000000 1.616450 
# 
# From -- ./inp_files/159168.got.cif
#   From: 2010.05.17/outbox.cif.g08.bks.cpg/sg12_80_cif.got.tgz:159168.got - 2010.06.03 13:09:07.
