data_PCOD9173647
_publ_section_title
;
Structure prediction by ZEFSAII (Michael W. Deem and Ramdas Pophale) SiO2 
 PCOD9173647
Probable space group: C 2/M
;
_chemical_formula_sum "Si O2"
_cell_formula_units_Z 64
_cell_length_a 13.613963
_cell_length_b 23.281842
_cell_length_c 12.340913
_cell_angle_alpha 90.000000
_cell_angle_beta 103.550188
_cell_angle_gamma 90.000000
_cell_volume 3802.674946
_symmetry_space_group_name_H-M "C 2/M"
_symmetry_group_IT_number 12
_symmetry_cell_setting 'monoclinic'
loop_
_space_group_symop_operation_xyz
x,y,z
-x,y,-z
-x,-y,-z
x,-y,z
1/2+x,1/2+y,z
1/2-x,1/2+y,-z
1/2-x,1/2-y,-z
1/2+x,1/2-y,z
loop_
_atom_site_type_symbol
_atom_site_label
_atom_site_fract_x
_atom_site_fract_y
_atom_site_fract_z
Si Si1 0.007045 0.934642 0.244041
Si Si2 0.144701 0.767979 0.300054
Si Si3 0.398356 0.622400 0.408919
Si Si4 0.467305 0.323694 0.113376
Si Si5 0.425515 0.064431 0.378863
Si Si6 0.999422 0.682521 0.369069
Si Si7 0.164241 0.772014 0.758922
Si Si8 0.790289 0.887514 0.596088
O O1 0.120208 0.916803 0.310589
O O2 0.937649 0.924006 0.332553
O O3 0.968424 0.890935 0.142745
O O4 0.004511 0.000000 0.209391
O O5 0.222283 0.747060 0.230031
O O6 0.197637 0.818635 0.383024
O O7 0.050126 0.797361 0.216741
O O8 0.101109 0.714362 0.356135
O O9 0.500000 0.641199 0.500000
O O10 0.358285 0.675674 0.329463
O O11 0.318736 0.601605 0.477924
O O12 0.365289 0.293984 0.129479
O O13 0.500000 0.313021 0.000000
O O14 0.500000 0.058470 0.500000
O O15 0.477907 0.116913 0.327207
O O16 0.317168 0.088300 0.393125
O O17 0.414376 0.000000 0.328135
O O18 0.908183 0.720460 0.298200
O O19 0.000000 0.683842 0.500000
#
# Coordination Sequence:
#
# PCOD9173647 Si02
#       8
#     8   8   8   8   8   8   8   8
#     4   9  18  32  50  72  96 126 164 197 236 293
#     4  10  20  31  51  74  95 123 167 202 252 293
#     4   9  18  28  44  72 105 130 156 191 238 281
#     4   9  20  36  50  71  98 119 152 207 264 309
#     4  10  21  32  41  63  99 140 176 195 221 271
#     4  10  19  30  46  70 101 134 160 200 232 281
#     4  10  18  31  49  72  96 122 160 202 244 296
#     4  10  18  31  48  72  99 135 164 199 232 278
#
# _framework density 16.830258000000001
#
# number of rings (size 3 to 8) (size 9 to 14) (size 15 to 20)
#    0.000    2.375    1.250    3.750    3.500    4.500 
#    0.000    0.000    0.000    0.000    0.000    0.000 
#    0.000    8.000    0.000    0.000    0.000    0.000 
#
# Total GULP energy -178276.500537 kJ/mol
# GULP energy per Si atom -5571.140642 kJ/mol
# Density = 1.679195 g / cm^3
# Si number density = 16.830258 Si / 1000 Ang^3
#
#
#
# Elastic Constant Matrix: (Units=GPa)
#
#
# Indices 1 2 3 4 5 6 
#
# 1 78.6321 41.4677 3.0128 0.0000 -12.9214 0.0000
# 2 41.4677 123.1037 5.6724 0.0000 -7.7256 0.0000
# 3 3.0128 5.6724 26.7438 0.0000 -18.0313 0.0000
# 4 0.0000 0.0000 0.0000 1.9207 0.0000 4.0442
# 5 -12.9214 -7.7256 -18.0313 0.0000 19.7038 0.0000
# 6 0.0000 0.0000 0.0000 4.0442 0.0000 9.2895
#
#
#
# Elastic Compliance Matrix: (Units=1/GPa)
#
#
# Indices 1 2 3 4 5 6 
#
# 1 0.019141 -0.005620 0.015700 0.000000 0.024716 0.000000
# 2 -0.005620 0.009992 -0.003472 0.000000 -0.002945 0.000000
# 3 0.015700 -0.003472 0.110660 0.000000 0.110202 0.000000
# 4 0.000000 0.000000 0.000000 6.248315 0.000000 -2.720183
# 5 0.024716 -0.002945 0.110202 0.000000 0.166653 0.000000
# 6 0.000000 0.000000 0.000000 -2.720183 0.000000 1.291871
#
#
# Mechanical properties :
#
#
# Convention : Reuss Voigt Hill
#
# Bulk Modulus (GPa) = 6.53555 36.53172 21.53364
# Shear Modulus (GPa) = 0.63416 18.07125 9.35270
#
# Velocity S-wave (km/s) = 0.61451 3.28035 2.35990
# Velocity P-wave (km/s) = 2.09646 6.00838 4.49977
#
# Compressibility (1/GPa) = 0.15300928
#
# Stress axis : x y z
#
# Youngs Moduli (GPa) = 52.24308 100.08494 9.03669
#
# Poissons Ratio (x) = 0.56249 -0.14188
# Poissons Ratio (y) = 0.29361 0.03137
# Poissons Ratio (z) = -0.82022 0.34746
#
# Static dielectric constant tensor:
#      x y z
#    x 1.597610 0.000000 -0.008340 
#    y 0.000000 1.611560 0.000000 
#    z -0.008340 0.000000 1.541390 
# 
# From -- ./inp_files/149174.got.cif
#   From: 2010.05.17/outbox.cif.g08.bks.cpg/sg12_75_cif.got.tgz:149174.got - 2010.06.03 13:09:07.
