data_PCOD9173468
_publ_section_title
;
Structure prediction by ZEFSAII (Michael W. Deem and Ramdas Pophale) SiO2 
 PCOD9173468
Probable space group: C 2/M
;
_chemical_formula_sum "Si O2"
_cell_formula_units_Z 56
_cell_length_a 12.969853
_cell_length_b 23.694253
_cell_length_c 8.745700
_cell_angle_alpha 90.000000
_cell_angle_beta 90.832613
_cell_angle_gamma 90.000000
_cell_volume 2687.365847
_symmetry_space_group_name_H-M "C 2/M"
_symmetry_group_IT_number 12
_symmetry_cell_setting 'monoclinic'
loop_
_space_group_symop_operation_xyz
x,y,z
-x,y,-z
-x,-y,-z
x,-y,z
1/2+x,1/2+y,z
1/2-x,1/2+y,-z
1/2-x,1/2-y,-z
1/2+x,1/2-y,z
loop_
_atom_site_type_symbol
_atom_site_label
_atom_site_fract_x
_atom_site_fract_y
_atom_site_fract_z
Si Si1 0.221164 0.934901 0.192786
Si Si2 0.349526 0.564163 0.153221
Si Si3 0.068604 0.837821 0.649251
Si Si4 0.148302 0.561214 0.364477
Si Si5 0.252461 0.847529 0.436178
Si Si6 0.940481 0.713414 0.336132
Si Si7 0.539330 0.902388 0.829719
O O1 0.191344 0.886704 0.313914
O O2 0.344111 0.924553 0.176349
O O3 0.201804 0.000000 0.239150
O O4 0.169350 0.926379 0.026403
O O5 0.388603 0.500000 0.175798
O O6 0.420442 0.611232 0.232590
O O7 0.238683 0.566992 0.238724
O O8 0.179631 0.828633 0.570881
O O9 0.037868 0.777172 0.717039
O O10 0.000000 0.851564 0.500000
O O11 0.162165 0.500000 0.438043
O O12 0.164692 0.609828 0.487196
O O13 0.038289 0.565440 0.283524
O O14 0.318906 0.798457 0.362099
O O15 0.969758 0.663121 0.222431
O O16 0.000000 0.708361 0.500000
O O17 0.500000 0.909425 0.000000
#
# Coordination Sequence:
#
# PCOD9173468 Si02
#       7
#     8   8   8   8   8   8   8
#     4  10  20  33  54  85 121 151 180 226 283 341
#     4   9  19  36  56  81 112 144 182 232 284 336
#     4  10  22  40  61  79 102 144 200 245 289 331
#     4  10  18  30  53  82 117 155 186 218 265 337
#     4  10  20  36  56  82 113 149 190 237 280 327
#     4  10  20  37  56  82 113 151 189 233 277 332
#     4  11  20  32  52  85 123 157 187 215 270 341
#
# _framework density 20.838249000000001
#
# number of rings (size 3 to 8) (size 9 to 14) (size 15 to 20)
#    0.000    2.000    2.857    1.286    0.000    1.429 
#    0.000    8.571    0.000    1.714    0.000    0.000 
#    0.000    0.000    0.000    0.000    0.000    0.000 
#
# Total GULP energy -156345.868164 kJ/mol
# GULP energy per Si atom -5583.781006 kJ/mol
# Density = 2.079082 g / cm^3
# Si number density = 20.838249 Si / 1000 Ang^3
#
#
#
# Elastic Constant Matrix: (Units=GPa)
#
#
# Indices 1 2 3 4 5 6 
#
# 1 27.1473 12.3576 -3.7560 0.0000 14.6306 0.0000
# 2 12.3576 132.8217 39.0617 0.0000 27.7465 0.0000
# 3 -3.7560 39.0617 60.2272 0.0000 17.5859 0.0000
# 4 0.0000 0.0000 0.0000 21.5281 0.0000 1.6764
# 5 14.6306 27.7465 17.5859 0.0000 33.8438 0.0000
# 6 0.0000 0.0000 0.0000 1.6764 0.0000 16.3419
#
#
#
# Elastic Compliance Matrix: (Units=1/GPa)
#
#
# Indices 1 2 3 4 5 6 
#
# 1 0.055711 -0.003315 0.013985 0.000000 -0.028633 0.000000
# 2 -0.003315 0.010382 -0.005745 0.000000 -0.004093 0.000000
# 3 0.013985 -0.005745 0.025454 0.000000 -0.014562 0.000000
# 4 0.000000 0.000000 0.000000 0.046825 0.000000 -0.004803
# 5 -0.028633 -0.004093 -0.014562 0.000000 0.052848 0.000000
# 6 0.000000 0.000000 0.000000 -0.004803 0.000000 0.061685
#
#
# Mechanical properties :
#
#
# Convention : Reuss Voigt Hill
#
# Bulk Modulus (GPa) = 9.86221 35.05810 22.46015
# Shear Modulus (GPa) = 18.06009 25.84496 21.95253
#
# Velocity S-wave (km/s) = 2.94714 3.52556 3.24925
# Velocity P-wave (km/s) = 4.04028 5.78215 4.98784
#
# Compressibility (1/GPa) = 0.10139717
#
# Stress axis : x y z
#
# Youngs Moduli (GPa) = 17.94981 96.32122 39.28661
#
# Poissons Ratio (x) = 0.31927 -0.54941
# Poissons Ratio (y) = 0.05950 0.22570
# Poissons Ratio (z) = -0.25102 0.55336
#
# Static dielectric constant tensor:
#      x y z
#    x 1.772140 0.000000 -0.014410 
#    y 0.000000 1.740640 0.000000 
#    z -0.014410 0.000000 1.713140 
# 
# From -- ./inp_files/64048.got.cif
#   From: 2010.05.17/outbox.cif.g08.bks.cpg/sg12_33_cif.got.tgz:64048.got - 2010.06.03 13:09:07.
