data_PCOD9173436
_publ_section_title
;
Structure prediction by ZEFSAII (Michael W. Deem and Ramdas Pophale) SiO2 
 PCOD9173436
Probable space group: C 2/M
;
_chemical_formula_sum "Si O2"
_cell_formula_units_Z 40
_cell_length_a 10.658470
_cell_length_b 18.894805
_cell_length_c 15.585698
_cell_angle_alpha 90.000000
_cell_angle_beta 141.259389
_cell_angle_gamma 90.000000
_cell_volume 1964.246955
_symmetry_space_group_name_H-M "C 2/M"
_symmetry_group_IT_number 12
_symmetry_cell_setting 'monoclinic'
loop_
_space_group_symop_operation_xyz
x,y,z
-x,y,-z
-x,-y,-z
x,-y,z
1/2+x,1/2+y,z
1/2-x,1/2+y,-z
1/2-x,1/2-y,-z
1/2+x,1/2-y,z
loop_
_atom_site_type_symbol
_atom_site_label
_atom_site_fract_x
_atom_site_fract_y
_atom_site_fract_z
Si Si1 0.986697 0.364797 0.097556
Si Si2 0.587429 0.422813 0.671307
Si Si3 0.053123 0.920267 0.859600
Si Si4 0.881800 0.785025 0.848107
Si Si5 0.036156 0.768901 0.422911
O O1 0.179115 0.410029 0.227344
O O2 0.014418 0.283487 0.141448
O O3 0.000000 0.362434 0.000000
O O4 0.775525 0.397973 0.009885
O O5 0.518422 0.500000 0.606213
O O6 0.568876 0.421105 0.764906
O O7 0.473884 0.353884 0.579523
O O8 0.906266 0.857904 0.810358
O O9 0.002176 0.000000 0.861069
O O10 0.651098 0.760310 0.732583
O O11 0.000000 0.794561 0.000000
O O12 0.250000 0.750000 0.500000
O O13 0.000000 0.741581 0.500000
#
# Coordination Sequence:
#
# PCOD9173436 Si02
#       5
#     8   8   8   8   8
#     4   8  15  28  49  77 106 139 183 236 286 333
#     4   9  18  33  54  82 114 152 197 243 293 349
#     4  10  18  30  52  83 120 154 189 241 301 353
#     4  10  21  36  57  82 113 153 200 245 290 349
#     4  11  24  42  63  88 121 158 197 245 299 354
#
# _framework density 20.364037
#
# number of rings (size 3 to 8) (size 9 to 14) (size 15 to 20)
#    0.000    2.400    0.000    3.600    0.000    6.400 
#    0.000    1.000    0.000    3.600    0.000    0.000 
#    0.000    0.000    0.000    0.000    0.000    0.000 
#
# Total GULP energy -111626.534144 kJ/mol
# GULP energy per Si atom -5581.326707 kJ/mol
# Density = 2.031769 g / cm^3
# Si number density = 20.364037 Si / 1000 Ang^3
#
#
#
# Elastic Constant Matrix: (Units=GPa)
#
#
# Indices 1 2 3 4 5 6 
#
# 1 67.5305 45.4420 42.5850 0.0001 11.6285 -0.0001
# 2 45.4420 169.6945 36.1164 0.0005 16.8154 -0.0003
# 3 42.5850 36.1164 86.2353 0.0010 11.0185 -0.0004
# 4 0.0001 0.0005 0.0010 19.4605 0.0002 -2.0534
# 5 11.6285 16.8154 11.0185 0.0002 22.8325 -0.0002
# 6 -0.0001 -0.0003 -0.0004 -2.0534 -0.0002 19.4457
#
#
#
# Elastic Compliance Matrix: (Units=1/GPa)
#
#
# Indices 1 2 3 4 5 6 
#
# 1 0.024519 -0.004000 -0.009819 0.000001 -0.004803 0.000000
# 2 -0.004000 0.007427 -0.000742 0.000000 -0.003074 0.000000
# 3 -0.009819 -0.000742 0.017102 -0.000001 -0.002705 0.000000
# 4 0.000001 0.000000 -0.000001 0.051965 0.000000 0.005487
# 5 -0.004803 -0.003074 -0.002705 0.000000 0.049813 0.000000
# 6 0.000000 0.000000 0.000000 0.005487 0.000000 0.052005
#
#
# Mechanical properties :
#
#
# Convention : Reuss Voigt Hill
#
# Bulk Modulus (GPa) = 50.18977 63.52746 56.85862
# Shear Modulus (GPa) = 20.95611 25.63554 23.29583
#
# Velocity S-wave (km/s) = 3.21140 3.55190 3.38593
# Velocity P-wave (km/s) = 6.20085 6.93433 6.57782
#
# Compressibility (1/GPa) = 0.01992438
#
# Stress axis : x y z
#
# Youngs Moduli (GPa) = 40.78512 134.64906 58.47414
#
# Poissons Ratio (x) = 0.53861 0.57416
# Poissons Ratio (y) = 0.16314 0.04340
# Poissons Ratio (z) = 0.40047 0.09995
#
# Static dielectric constant tensor:
#      x y z
#    x 1.762200 0.000000 -0.063770 
#    y 0.000000 1.730840 0.000000 
#    z -0.063770 0.000000 1.750420 
# 
# From -- ./inp_files/131360.got.cif
#   From: 2010.05.17/outbox.cif.g08.bks.cpg/sg12_66_cif.got.tgz:131360.got - 2010.06.03 13:09:07.
