data_PCOD9173731
_publ_section_title
;
Structure prediction by ZEFSAII (Michael W. Deem and Ramdas Pophale) SiO2 
 PCOD9173731
Probable space group: C 2/M
;
_chemical_formula_sum "Si O2"
_cell_formula_units_Z 56
_cell_length_a 22.454495
_cell_length_b 21.427388
_cell_length_c 9.751754
_cell_angle_alpha 90.000000
_cell_angle_beta 53.639304
_cell_angle_gamma 90.000000
_cell_volume 3778.446968
_symmetry_space_group_name_H-M "C 2/M"
_symmetry_group_IT_number 12
_symmetry_cell_setting 'monoclinic'
loop_
_space_group_symop_operation_xyz
x,y,z
-x,y,-z
-x,-y,-z
x,-y,z
1/2+x,1/2+y,z
1/2-x,1/2+y,-z
1/2-x,1/2-y,-z
1/2+x,1/2-y,z
loop_
_atom_site_type_symbol
_atom_site_label
_atom_site_fract_x
_atom_site_fract_y
_atom_site_fract_z
Si Si1 0.640469 0.752029 0.058846
Si Si2 0.995411 0.686949 0.343098
Si Si3 0.038122 0.571529 0.095249
Si Si4 0.324511 0.805684 0.532216
Si Si5 0.237602 0.346052 0.109312
Si Si6 0.775998 0.314742 0.296316
Si Si7 0.215142 0.429407 0.889043
O O1 0.555074 0.761584 0.211578
O O2 0.684545 0.794381 0.109451
O O3 0.680520 0.684790 0.005645
O O4 0.660309 0.783751 0.885854
O O5 0.014416 0.622878 0.237976
O O6 0.000000 0.678869 0.500000
O O7 0.911494 0.702937 0.424155
O O8 0.016997 0.500000 0.160201
O O9 0.127594 0.573160 0.971154
O O10 0.000000 0.585227 0.000000
O O11 0.292303 0.850153 0.695542
O O12 0.285341 0.738939 0.608882
O O13 0.304100 0.829239 0.409265
O O14 0.228256 0.406302 0.026921
O O15 0.749084 0.376334 0.254988
O O16 0.240531 0.500000 0.833940
#
# Coordination Sequence:
#
# PCOD9173731 Si02
#       7
#     8   8   8   8   8   8   8
#     4   9  17  29  47  63  89 122 147 187 239 264
#     4  12  20  28  44  73  90 120 154 194 227 278
#     4  10  20  32  44  61  92 129 160 186 217 269
#     4  10  19  29  49  70  96 116 155 198 244 262
#     4   9  16  32  45  63  89 118 151 192 227 275
#     4   9  18  33  47  68  92 126 152 196 231 283
#     4  10  18  31  50  65  86 130 167 184 220 282
#
# _framework density 14.820902999999999
#
# number of rings (size 3 to 8) (size 9 to 14) (size 15 to 20)
#    0.000    2.143    4.286    1.714    0.000    0.286 
#    0.000    1.429    0.000    0.000    0.000    2.000 
#    0.000    0.000    0.000   10.286    0.000    0.000 
#
# Total GULP energy -155948.287665 kJ/mol
# GULP energy per Si atom -5569.581702 kJ/mol
# Density = 1.478717 g / cm^3
# Si number density = 14.820903 Si / 1000 Ang^3
#
#
#
# Elastic Constant Matrix: (Units=GPa)
#
#
# Indices 1 2 3 4 5 6 
#
# 1 46.8737 18.4123 26.9787 0.0000 5.9394 0.0000
# 2 18.4123 45.4976 14.0996 0.0000 3.2853 0.0000
# 3 26.9787 14.0996 66.8006 0.0000 10.9384 0.0000
# 4 0.0000 0.0000 0.0000 13.9304 0.0000 4.8205
# 5 5.9394 3.2853 10.9384 0.0000 31.1545 0.0000
# 6 0.0000 0.0000 0.0000 4.8205 0.0000 9.2932
#
#
#
# Elastic Compliance Matrix: (Units=1/GPa)
#
#
# Indices 1 2 3 4 5 6 
#
# 1 0.031131 -0.009281 -0.010400 0.000000 -0.001305 0.000000
# 2 -0.009281 0.026302 -0.001739 0.000000 -0.000394 0.000000
# 3 -0.010400 -0.001739 0.020353 0.000000 -0.004980 0.000000
# 4 0.000000 0.000000 0.000000 0.087490 0.000000 -0.045382
# 5 -0.001305 -0.000394 -0.004980 0.000000 0.034137 0.000000
# 6 0.000000 0.000000 0.000000 -0.045382 0.000000 0.131146
#
#
# Mechanical properties :
#
#
# Convention : Reuss Voigt Hill
#
# Bulk Modulus (GPa) = 28.61580 30.90591 29.76085
# Shear Modulus (GPa) = 12.98542 17.52104 15.25323
#
# Velocity S-wave (km/s) = 2.96320 3.44202 3.21155
# Velocity P-wave (km/s) = 5.57289 6.05763 5.82031
#
# Compressibility (1/GPa) = 0.03494573
#
# Stress axis : x y z
#
# Youngs Moduli (GPa) = 32.12247 38.01929 49.13355
#
# Poissons Ratio (x) = 0.35286 0.51100
# Poissons Ratio (y) = 0.29813 0.08544
# Poissons Ratio (z) = 0.33408 0.06611
#
# Static dielectric constant tensor:
#      x y z
#    x 1.500540 0.000000 0.012870 
#    y 0.000000 1.489780 0.000000 
#    z 0.012870 0.000000 1.510980 
# 
# From -- ./inp_files/98800.got.cif
#   From: 2010.05.17/outbox.cif.g08.bks.cpg/sg12_50_cif.got.tgz:98800.got - 2010.06.03 13:09:07.
