data_PCOD9173541
_publ_section_title
;
Structure prediction by ZEFSAII (Michael W. Deem and Ramdas Pophale) SiO2 
 PCOD9173541
Probable space group: C 2/M
;
_chemical_formula_sum "Si O2"
_cell_formula_units_Z 50
_cell_length_a 17.140232
_cell_length_b 16.573252
_cell_length_c 11.847856
_cell_angle_alpha 90.000000
_cell_angle_beta 51.361322
_cell_angle_gamma 90.000000
_cell_volume 2628.877541
_symmetry_space_group_name_H-M "C 2/M"
_symmetry_group_IT_number 12
_symmetry_cell_setting 'monoclinic'
loop_
_space_group_symop_operation_xyz
x,y,z
-x,y,-z
-x,-y,-z
x,-y,z
1/2+x,1/2+y,z
1/2-x,1/2+y,-z
1/2-x,1/2-y,-z
1/2+x,1/2-y,z
loop_
_atom_site_type_symbol
_atom_site_label
_atom_site_fract_x
_atom_site_fract_y
_atom_site_fract_z
Si Si1 0.000000 0.500000 0.000000
Si Si2 0.215942 0.404974 0.340341
Si Si3 0.151799 0.355582 0.880879
Si Si4 0.919609 0.404960 0.729554
Si Si5 0.214409 0.094388 0.056608
Si Si6 0.619575 0.095700 0.663933
Si Si7 0.605376 0.673773 0.955526
O O1 0.076854 0.428803 0.976945
O O2 0.230933 0.500000 0.297881
O O3 0.116647 0.377771 0.361356
O O4 0.195659 0.400951 0.491284
O O5 0.308442 0.356156 0.208023
O O6 0.257304 0.370033 0.847378
O O7 0.156603 0.359195 0.740919
O O8 0.109849 0.270163 0.957201
O O9 0.944934 0.500000 0.694491
O O10 0.015584 0.371297 0.707192
O O11 0.819175 0.396382 0.893595
O O12 0.191535 0.000000 0.085747
O O13 0.132699 0.138004 0.053330
O O14 0.603835 0.000000 0.715235
O O15 0.500000 0.647308 0.000000
#
# Coordination Sequence:
#
# PCOD9173541 Si02
#       7
#     2   8   8   8   8   8   8
#     4  12  20  36  60  88 118 146 178 224 288 364
#     4   9  19  36  54  80 113 151 195 232 274 336
#     4  12  22  35  57  88 119 146 181 231 296 348
#     4   8  15  27  51  82 112 142 177 224 274 328
#     4  10  20  36  58  83 115 148 189 234 283 342
#     4  10  18  30  55  84 114 150 183 225 286 349
#     4  11  24  38  56  82 112 152 194 241 280 323
#
# _framework density 19.019523
#
# number of rings (size 3 to 8) (size 9 to 14) (size 15 to 20)
#    0.000    1.920    2.400    3.360    2.240    3.840 
#    0.000    0.000    0.000    0.960    0.000    3.360 
#    0.000    0.000    0.000    0.000    0.000    0.000 
#
# Total GULP energy -139292.470323 kJ/mol
# GULP energy per Si atom -5571.698813 kJ/mol
# Density = 1.897623 g / cm^3
# Si number density = 19.019523 Si / 1000 Ang^3
#
#
#
# Elastic Constant Matrix: (Units=GPa)
#
#
# Indices 1 2 3 4 5 6 
#
# 1 186.7894 44.1355 42.8672 0.0000 21.9231 0.0000
# 2 44.1355 55.1357 15.5977 0.0000 -1.0963 0.0000
# 3 42.8672 15.5977 37.6764 0.0000 12.3593 0.0000
# 4 0.0000 0.0000 0.0000 -20.6044 0.0000 13.4703
# 5 21.9231 -1.0963 12.3593 0.0000 33.9657 0.0000
# 6 0.0000 0.0000 0.0000 13.4703 0.0000 21.2696
#
#
#
# Elastic Compliance Matrix: (Units=1/GPa)
#
#
# Indices 1 2 3 4 5 6 
#
# 1 0.008377 -0.004953 -0.006420 0.000000 -0.003230 0.000000
# 2 -0.004953 0.024031 -0.006378 0.000000 0.006293 0.000000
# 3 -0.006420 -0.006378 0.039966 0.000000 -0.010604 0.000000
# 4 0.000000 0.000000 0.000000 -0.034323 0.000000 0.021737
# 5 -0.003230 0.006293 -0.010604 0.000000 0.035588 0.000000
# 6 0.000000 0.000000 0.000000 0.021737 0.000000 0.033249
#
#
# Mechanical properties :
#
#
# Convention : Reuss Voigt Hill
#
# Bulk Modulus (GPa) = 27.12139 53.86690 40.49415
# Shear Modulus (GPa) = 32.32450 18.72626 25.52538
#
# Velocity S-wave (km/s) = 4.12702 3.14121 3.66739
# Velocity P-wave (km/s) = 6.08280 6.44512 6.26658
#
# Compressibility (1/GPa) = 0.03687127
#
# Stress axis : x y z
#
# Youngs Moduli (GPa) = 119.38032 41.61211 25.02146
#
# Poissons Ratio (x) = 0.20612 0.16065
# Poissons Ratio (y) = 0.59133 0.15958
# Poissons Ratio (z) = 0.76647 0.26538
#
# Static dielectric constant tensor:
#      x y z
#    x 1.701210 0.000000 0.012680 
#    y 0.000000 1.652430 0.000000 
#    z 0.012680 0.000000 1.353630 
# 
# From -- ./inp_files/143814.got.cif
#   From: 2010.05.17/outbox.cif.g08.bks.cpg/sg12_72_cif.got.tgz:143814.got - 2010.06.03 13:09:07.
