data_PCOD9173106
_publ_section_title
;
Structure prediction by ZEFSAII (Michael W. Deem and Ramdas Pophale) SiO2 
 PCOD9173106
Probable space group: C 2/M
;
_chemical_formula_sum "Si O2"
_cell_formula_units_Z 64
_cell_length_a 19.786203
_cell_length_b 7.771574
_cell_length_c 21.057785
_cell_angle_alpha 90.000000
_cell_angle_beta 92.604154
_cell_angle_gamma 90.000000
_cell_volume 3234.710344
_symmetry_space_group_name_H-M "C 2/M"
_symmetry_group_IT_number 12
_symmetry_cell_setting 'monoclinic'
loop_
_space_group_symop_operation_xyz
x,y,z
-x,y,-z
-x,-y,-z
x,-y,z
1/2+x,1/2+y,z
1/2-x,1/2+y,-z
1/2-x,1/2-y,-z
1/2+x,1/2-y,z
loop_
_atom_site_type_symbol
_atom_site_label
_atom_site_fract_x
_atom_site_fract_y
_atom_site_fract_z
Si Si1 0.331416 0.302702 0.817365
Si Si2 0.474538 0.798345 0.795020
Si Si3 0.739874 0.697361 0.927250
Si Si4 0.213360 0.290373 0.726786
Si Si5 0.077057 0.297030 0.476158
Si Si6 0.117910 0.292115 0.841240
Si Si7 0.020125 0.289431 0.347172
Si Si8 0.628872 0.210278 0.607323
O O1 0.345252 0.500000 0.802073
O O2 0.403896 0.217486 0.827518
O O3 0.286550 0.296666 0.878908
O O4 0.284175 0.227424 0.759066
O O5 0.541042 0.728806 0.832697
O O6 0.465979 0.727932 0.723206
O O7 0.489653 0.000000 0.786867
O O8 0.759211 0.500000 0.920748
O O9 0.663089 0.721505 0.900241
O O10 0.750000 0.750000 0.000000
O O11 0.216485 0.500000 0.725750
O O12 0.156391 0.247321 0.777049
O O13 0.188447 0.231698 0.656735
O O14 0.093082 0.500000 0.471387
O O15 0.070533 0.225635 0.404741
O O16 0.124454 0.226535 0.534360
O O17 0.000000 0.286749 0.500000
O O18 0.119952 0.500000 0.847095
O O19 0.023518 0.500000 0.348871
O O20 0.943083 0.245348 0.363176
O O21 0.630922 0.000000 0.605523
#
# Coordination Sequence:
#
# PCOD9173106 Si02
#       8
#     8   8   8   8   8   8   8   8
#     4  10  21  35  51  74 105 136 170 209 248 294
#     4  10  18  30  50  74 104 139 172 209 254 300
#     4  11  22  39  62  84 106 132 162 196 238 290
#     4   8  13  24  42  63  89 126 167 209 254 297
#     4   7  10  14  25  52  89 121 154 205 259 298
#     4   9  17  31  52  78 105 134 169 206 246 294
#     4   8  12  19  34  60  93 127 161 205 257 301
#     4   8  10  16  33  58  87 120 162 211 257 299
#
# _framework density 19.78539
#
# number of rings (size 3 to 8) (size 9 to 14) (size 15 to 20)
#    0.000    3.125    1.250    3.750    0.000    0.500 
#    0.000    0.625    0.000    4.500    0.000    0.000 
#    0.000    8.500    0.000    0.000    0.000    0.500 
#
# Total GULP energy -178231.758135 kJ/mol
# GULP energy per Si atom -5569.742442 kJ/mol
# Density = 1.974036 g / cm^3
# Si number density = 19.785390 Si / 1000 Ang^3
#
#
#
# Elastic Constant Matrix: (Units=GPa)
#
#
# Indices 1 2 3 4 5 6 
#
# 1 94.9699 -0.1299 49.3699 0.0000 24.0092 0.0000
# 2 -0.1299 30.3864 1.2313 0.0000 4.1136 0.0000
# 3 49.3699 1.2313 121.9611 0.0000 39.2853 0.0000
# 4 0.0000 0.0000 0.0000 1.3943 0.0000 1.6312
# 5 24.0092 4.1136 39.2853 0.0000 26.4797 0.0000
# 6 0.0000 0.0000 0.0000 1.6312 0.0000 9.2449
#
#
#
# Elastic Compliance Matrix: (Units=1/GPa)
#
#
# Indices 1 2 3 4 5 6 
#
# 1 0.014293 0.001366 -0.002982 0.000000 -0.008748 0.000000
# 2 0.001366 0.034174 0.002319 0.000000 -0.009989 0.000000
# 3 -0.002982 0.002319 0.016525 0.000000 -0.022174 0.000000
# 4 0.000000 0.000000 0.000000 0.903769 0.000000 -0.159461
# 5 -0.008748 -0.009989 -0.022174 0.000000 0.080145 0.000000
# 6 0.000000 0.000000 0.000000 -0.159461 0.000000 0.136303
#
#
# Mechanical properties :
#
#
# Convention : Reuss Voigt Hill
#
# Bulk Modulus (GPa) = 15.06028 38.69555 26.87791
# Shear Modulus (GPa) = 4.14616 20.54686 12.34651
#
# Velocity S-wave (km/s) = 1.44918 3.22605 2.50075
# Velocity P-wave (km/s) = 3.22932 5.78590 4.68536
#
# Compressibility (1/GPa) = 0.06639985
#
# Stress axis : x y z
#
# Youngs Moduli (GPa) = 69.96323 29.26238 60.51279
#
# Poissons Ratio (x) = -0.03998 0.18044
# Poissons Ratio (y) = -0.09559 -0.14035
# Poissons Ratio (z) = 0.20862 -0.06787
#
# Static dielectric constant tensor:
#      x y z
#    x 1.717030 0.000000 -0.008810 
#    y 0.000000 1.774580 0.000000 
#    z -0.008810 0.000000 1.789220 
# 
# From -- ./inp_files/314218.got.cif
#   From: 2010.05.17/outbox.cif.g08.bks.cpg/sg12_158_cif.got.tgz:314218.got - 2010.06.03 13:09:07.
