data_PCOD9173988
_publ_section_title
;
Structure prediction by ZEFSAII (Michael W. Deem and Ramdas Pophale) SiO2 
 PCOD9173988
Probable space group: C 2/M
;
_chemical_formula_sum "Si O2"
_cell_formula_units_Z 64
_cell_length_a 25.858972
_cell_length_b 18.008071
_cell_length_c 12.384071
_cell_angle_alpha 90.000000
_cell_angle_beta 42.940692
_cell_angle_gamma 90.000000
_cell_volume 3928.643610
_symmetry_space_group_name_H-M "C 2/M"
_symmetry_group_IT_number 12
_symmetry_cell_setting 'monoclinic'
loop_
_space_group_symop_operation_xyz
x,y,z
-x,y,-z
-x,-y,-z
x,-y,z
1/2+x,1/2+y,z
1/2-x,1/2+y,-z
1/2-x,1/2-y,-z
1/2+x,1/2-y,z
loop_
_atom_site_type_symbol
_atom_site_label
_atom_site_fract_x
_atom_site_fract_y
_atom_site_fract_z
Si Si1 0.887475 0.413676 0.357649
Si Si2 0.640065 0.916561 0.357021
Si Si3 0.969737 0.679035 0.927330
Si Si4 0.275084 0.324382 0.782583
Si Si5 0.708374 0.413991 0.019443
Si Si6 0.632931 0.275059 0.058009
Si Si7 0.675533 0.088009 0.777361
Si Si8 0.085025 0.263860 0.369640
O O1 0.912334 0.500000 0.306475
O O2 0.846379 0.408049 0.535404
O O3 0.835339 0.396895 0.333526
O O4 0.961079 0.361014 0.239795
O O5 0.715902 0.910522 0.169556
O O6 0.587054 0.848662 0.404991
O O7 0.608735 0.000000 0.388226
O O8 0.933128 0.747787 0.920132
O O9 0.900742 0.620607 0.050242
O O10 0.000000 0.699016 0.000000
O O11 0.245999 0.371180 0.725400
O O12 0.356506 0.285106 0.650014
O O13 0.276016 0.376599 0.887775
O O14 0.212436 0.260280 0.897604
O O15 0.687003 0.500000 0.063917
O O16 0.645948 0.362086 0.057290
O O17 0.616014 0.240052 0.200668
O O18 0.680054 0.000000 0.786980
O O19 0.000000 0.234235 0.500000
#
# Coordination Sequence:
#
# PCOD9173988 Si02
#       8
#     8   8   8   8   8   8   8   8
#     4   9  17  30  46  73 107 132 152 186 240 296
#     4  10  19  31  47  70 102 129 155 188 235 299
#     4   9  17  29  49  72  99 127 162 195 237 286
#     4  10  18  33  50  73  97 123 166 206 231 283
#     4  10  18  31  52  72  92 124 163 201 239 280
#     4  10  18  33  51  70  97 128 161 203 234 283
#     4   9  17  29  50  71  95 130 165 200 235 277
#     4  11  20  32  49  70 101 131 154 195 252 288
#
# _framework density 16.290610000000001
#
# number of rings (size 3 to 8) (size 9 to 14) (size 15 to 20)
#    0.000    2.250    2.500    2.250    0.000    1.750 
#    0.000    1.250    2.750    9.750    0.000    0.000 
#    0.000    0.000    0.000    0.000    0.000    0.000 
#
# Total GULP energy -178329.907066 kJ/mol
# GULP energy per Si atom -5572.809596 kJ/mol
# Density = 1.625353 g / cm^3
# Si number density = 16.290610 Si / 1000 Ang^3
#
#
#
# Elastic Constant Matrix: (Units=GPa)
#
#
# Indices 1 2 3 4 5 6 
#
# 1 103.0823 59.8868 24.7836 0.0000 -15.9485 0.0000
# 2 59.8868 101.0944 19.3597 0.0000 -0.4829 0.0000
# 3 24.7836 19.3597 33.6713 0.0000 -1.5509 0.0000
# 4 0.0000 0.0000 0.0000 7.9351 0.0000 4.3961
# 5 -15.9485 -0.4829 -1.5509 0.0000 16.5999 0.0000
# 6 0.0000 0.0000 0.0000 4.3961 0.0000 25.1451
#
#
#
# Elastic Compliance Matrix: (Units=1/GPa)
#
#
# Indices 1 2 3 4 5 6 
#
# 1 0.020812 -0.010644 -0.008328 0.000000 0.018908 0.000000
# 2 -0.010644 0.016560 -0.002145 0.000000 -0.009945 0.000000
# 3 -0.008328 -0.002145 0.036849 0.000000 -0.004621 0.000000
# 4 0.000000 0.000000 0.000000 0.139537 0.000000 -0.024395
# 5 0.018908 -0.009945 -0.004621 0.000000 0.077686 0.000000
# 6 0.000000 0.000000 0.000000 -0.024395 0.000000 0.044034
#
#
# Mechanical properties :
#
#
# Convention : Reuss Voigt Hill
#
# Bulk Modulus (GPa) = 31.26213 49.54536 40.40374
# Shear Modulus (GPa) = 12.87411 18.85720 15.86566
#
# Velocity S-wave (km/s) = 2.81424 3.40597 3.12415
# Velocity P-wave (km/s) = 5.45819 6.77842 6.15381
#
# Compressibility (1/GPa) = 0.03198758
#
# Stress axis : x y z
#
# Youngs Moduli (GPa) = 48.04884 60.38576 27.13744
#
# Poissons Ratio (x) = 0.64272 0.22600
# Poissons Ratio (y) = 0.51141 0.05822
# Poissons Ratio (z) = 0.40016 0.12955
#
# Static dielectric constant tensor:
#      x y z
#    x 1.550340 0.000000 0.010960 
#    y 0.000000 1.549280 0.000000 
#    z 0.010960 0.000000 1.541180 
# 
# From -- ./inp_files/177115.got.cif
#   From: 2010.05.17/outbox.cif.g08.bks.cpg/sg12_89_cif.got.tgz:177115.got - 2010.06.03 13:09:07.
