data_PCOD9173498
_publ_section_title
;
Structure prediction by ZEFSAII (Michael W. Deem and Ramdas Pophale) SiO2 
 PCOD9173498
Probable space group: C 2/M
;
_chemical_formula_sum "Si O2"
_cell_formula_units_Z 64
_cell_length_a 16.040825
_cell_length_b 14.325884
_cell_length_c 13.866474
_cell_angle_alpha 90.000000
_cell_angle_beta 106.730573
_cell_angle_gamma 90.000000
_cell_volume 3051.614098
_symmetry_space_group_name_H-M "C 2/M"
_symmetry_group_IT_number 12
_symmetry_cell_setting 'monoclinic'
loop_
_space_group_symop_operation_xyz
x,y,z
-x,y,-z
-x,-y,-z
x,-y,z
1/2+x,1/2+y,z
1/2-x,1/2+y,-z
1/2-x,1/2-y,-z
1/2+x,1/2-y,z
loop_
_atom_site_type_symbol
_atom_site_label
_atom_site_fract_x
_atom_site_fract_y
_atom_site_fract_z
Si Si1 0.806649 0.389369 0.498726
Si Si2 0.880343 0.897172 0.251407
Si Si3 0.316800 0.297825 0.898419
Si Si4 0.054563 0.894152 0.195114
Si Si5 0.025644 0.302409 0.402225
Si Si6 0.269497 0.896992 0.955054
Si Si7 0.658989 0.790932 0.692973
Si Si8 0.888416 0.894169 0.573071
O O1 0.818296 0.500000 0.491204
O O2 0.882410 0.349295 0.592746
O O3 0.816618 0.338990 0.398716
O O4 0.707795 0.373276 0.497676
O O5 0.796164 0.903059 0.156519
O O6 0.859339 0.819580 0.322655
O O7 0.960265 0.869191 0.207569
O O8 0.901332 0.000000 0.296991
O O9 0.402205 0.328350 0.869032
O O10 0.325548 0.195327 0.949466
O O11 0.234557 0.301091 0.796791
O O12 0.289214 0.369940 0.972420
O O13 0.115304 0.896147 0.310739
O O14 0.048711 0.000000 0.155298
O O15 0.047919 0.192636 0.422189
O O16 0.000000 0.338672 0.500000
O O17 0.939557 0.323709 0.311500
O O18 0.310118 0.000000 0.981412
O O19 0.913404 0.000000 0.552185
#
# Coordination Sequence:
#
# PCOD9173498 Si02
#       8
#     8   8   8   8   8   8   8   8
#     4  10  21  36  53  73 100 136 175 215 253 291
#     4   9  18  33  53  78 108 133 159 208 269 312
#     4  10  19  32  52  79 105 136 174 208 249 307
#     4  10  18  30  54  81 103 130 165 212 258 304
#     4  10  21  34  52  77 104 135 169 210 257 306
#     4   9  19  34  52  77 108 137 168 210 256 302
#     4  10  19  32  51  75 102 136 171 205 252 304
#     4  10  19  34  55  78 103 131 166 214 263 305
#
# _framework density 20.972507
#
# number of rings (size 3 to 8) (size 9 to 14) (size 15 to 20)
#    0.000    2.250    2.500    0.750    0.000    3.500 
#    0.000    3.750    0.000    2.250    0.000    7.875 
#    0.000    0.000    0.000    0.000    0.000    0.000 
#
# Total GULP energy -178340.937267 kJ/mol
# GULP energy per Si atom -5573.154290 kJ/mol
# Density = 2.092477 g / cm^3
# Si number density = 20.972507 Si / 1000 Ang^3
#
#
#
# Elastic Constant Matrix: (Units=GPa)
#
#
# Indices 1 2 3 4 5 6 
#
# 1 31.5444 25.1206 -8.6755 0.0000 -5.8947 0.0000
# 2 25.1206 94.9109 20.1603 0.0000 -20.4814 0.0000
# 3 -8.6755 20.1603 23.7371 0.0000 -12.4319 0.0000
# 4 0.0000 0.0000 0.0000 17.0103 0.0000 -4.5312
# 5 -5.8947 -20.4814 -12.4319 0.0000 25.8688 0.0000
# 6 0.0000 0.0000 0.0000 -4.5312 0.0000 22.5209
#
#
#
# Elastic Compliance Matrix: (Units=1/GPa)
#
#
# Indices 1 2 3 4 5 6 
#
# 1 0.079272 -0.029591 0.068547 0.000000 0.027578 0.000000
# 2 -0.029591 0.024800 -0.033577 0.000000 -0.003243 0.000000
# 3 0.068547 -0.033577 0.120213 0.000000 0.046807 0.000000
# 4 0.000000 0.000000 0.000000 0.062117 0.000000 0.012498
# 5 0.027578 -0.003243 0.046807 0.000000 0.064867 0.000000
# 6 0.000000 0.000000 0.000000 0.012498 0.000000 0.046918
#
#
# Mechanical properties :
#
#
# Convention : Reuss Voigt Hill
#
# Bulk Modulus (GPa) = 4.25451 24.82259 14.53855
# Shear Modulus (GPa) = 10.73481 20.65248 15.69364
#
# Velocity S-wave (km/s) = 2.26487 3.14146 2.73847
# Velocity P-wave (km/s) = 2.97868 5.00198 4.11657
#
# Compressibility (1/GPa) = 0.23504457
#
# Stress axis : x y z
#
# Youngs Moduli (GPa) = 12.61484 40.32198 8.31860
#
# Poissons Ratio (x) = 1.19315 -0.57022
# Poissons Ratio (y) = 0.37328 0.27931
# Poissons Ratio (z) = -0.86472 1.35389
#
# Static dielectric constant tensor:
#      x y z
#    x 1.783320 0.000000 0.035070 
#    y 0.000000 1.809330 0.000000 
#    z 0.035070 0.000000 1.763340 
# 
# From -- ./inp_files/224824.got.cif
#   From: 2010.05.17/outbox.cif.g08.bks.cpg/sg12_113_cif.got.tgz:224824.got - 2010.06.03 13:09:07.
