data_PCOD9173186
_publ_section_title
;
Structure prediction by ZEFSAII (Michael W. Deem and Ramdas Pophale) SiO2 
 PCOD9173186
Probable space group: C 2/M
;
_chemical_formula_sum "Si O2"
_cell_formula_units_Z 44
_cell_length_a 8.497665
_cell_length_b 16.951338
_cell_length_c 19.430417
_cell_angle_alpha 90.000000
_cell_angle_beta 39.459032
_cell_angle_gamma 90.000000
_cell_volume 1778.767788
_symmetry_space_group_name_H-M "C 2/M"
_symmetry_group_IT_number 12
_symmetry_cell_setting 'monoclinic'
loop_
_space_group_symop_operation_xyz
x,y,z
-x,y,-z
-x,-y,-z
x,-y,z
1/2+x,1/2+y,z
1/2-x,1/2+y,-z
1/2-x,1/2-y,-z
1/2+x,1/2-y,z
loop_
_atom_site_type_symbol
_atom_site_label
_atom_site_fract_x
_atom_site_fract_y
_atom_site_fract_z
Si Si1 0.304579 0.364731 0.650314
Si Si2 0.811032 0.802451 0.275006
Si Si3 0.839924 0.588997 0.448464
Si Si4 0.000000 0.855613 0.000000
Si Si5 0.519425 0.172516 0.865607
Si Si6 0.680764 0.590799 0.080614
O O1 0.222079 0.273653 0.664770
O O2 0.230718 0.412515 0.608530
O O3 0.596851 0.372083 0.564568
O O4 0.151632 0.387744 0.769204
O O5 0.583367 0.858452 0.369109
O O6 0.322628 0.748045 0.198516
O O7 0.048138 0.858672 0.185198
O O8 0.875914 0.500000 0.461324
O O9 0.249581 0.805345 0.924002
O O10 0.996882 0.904077 0.929189
O O11 0.426514 0.128479 0.963620
O O12 0.706540 0.500000 0.090817
#
# Coordination Sequence:
#
# PCOD9173186 Si02
#       6
#     8   8   8   4   8   8
#     4   9  20  35  52  80 116 145 180 219 283 333
#     4  10  20  34  50  82 116 149 177 223 277 338
#     4  11  21  36  59  85 110 140 185 237 279 318
#     4   8  17  30  48  80 111 140 176 214 271 314
#     4   8  19  30  49  74 114 143 176 213 271 327
#     4  10  18  30  50  79 113 141 177 225 272 317
#
# _framework density 24.736227
#
# number of rings (size 3 to 8) (size 9 to 14) (size 15 to 20)
#    2.182    0.364    0.000    4.091    0.000    1.455 
#    0.000    0.000    0.000    0.000    0.000   38.182 
#    0.000    0.000    0.000    0.000    0.000    0.000 
#
# Total GULP energy -122556.482346 kJ/mol
# GULP energy per Si atom -5570.749198 kJ/mol
# Density = 2.467993 g / cm^3
# Si number density = 24.736227 Si / 1000 Ang^3
#
#
#
# Elastic Constant Matrix: (Units=GPa)
#
#
# Indices 1 2 3 4 5 6 
#
# 1 41.8640 12.3671 27.4563 0.0557 -7.1546 -0.0179
# 2 12.3671 148.2296 43.7664 0.1345 -22.9597 -0.0365
# 3 27.4563 43.7664 137.5762 0.2976 -36.1149 -0.0452
# 4 0.0557 0.1345 0.2976 9.0725 -0.0457 1.1728
# 5 -7.1546 -22.9597 -36.1149 -0.0457 41.1024 0.0078
# 6 -0.0179 -0.0365 -0.0452 1.1728 0.0078 26.0899
#
#
#
# Elastic Compliance Matrix: (Units=1/GPa)
#
#
# Indices 1 2 3 4 5 6 
#
# 1 0.027562 -0.000773 -0.005340 0.000015 -0.000327 0.000008
# 2 -0.000773 0.007705 -0.001563 -0.000045 0.002796 0.000009
# 3 -0.005340 -0.001563 0.010865 -0.000264 0.007744 0.000023
# 4 0.000015 -0.000045 -0.000264 0.110876 -0.000131 -0.004985
# 5 -0.000327 0.002796 0.007744 -0.000131 0.032639 0.000013
# 6 0.000008 0.000009 0.000023 -0.004985 0.000013 0.038553
#
#
# Mechanical properties :
#
#
# Convention : Reuss Voigt Hill
#
# Bulk Modulus (GPa) = 32.48921 54.98326 43.73624
# Shear Modulus (GPa) = 19.69954 31.52497 25.61226
#
# Velocity S-wave (km/s) = 2.82509 3.57381 3.22128
# Velocity P-wave (km/s) = 4.87896 6.26942 5.61738
#
# Compressibility (1/GPa) = 0.03077945
#
# Stress axis : x y z
#
# Youngs Moduli (GPa) = 36.28192 129.77875 92.03848
#
# Poissons Ratio (x) = 0.10037 0.49152
# Poissons Ratio (y) = 0.02806 0.14383
# Poissons Ratio (z) = 0.19376 0.20281
#
# Static dielectric constant tensor:
#      x y z
#    x 2.110480 0.000010 -0.008180 
#    y 0.000010 1.951970 -0.000010 
#    z -0.008180 -0.000010 1.951930 
# 
# From -- ./inp_files/335884.got.cif
#   From: 2010.05.17/outbox.cif.g08.bks.cpg/sg12_168_cif.got.tgz:335884.got - 2010.06.03 13:09:07.
