data_PCOD9173169
_publ_section_title
;
Structure prediction by ZEFSAII (Michael W. Deem and Ramdas Pophale) SiO2 
 PCOD9173169
Probable space group: C 2/M
;
_chemical_formula_sum "Si O2"
_cell_formula_units_Z 52
_cell_length_a 28.116846
_cell_length_b 9.905379
_cell_length_c 20.131464
_cell_angle_alpha 90.000000
_cell_angle_beta 147.260297
_cell_angle_gamma 90.000000
_cell_volume 3032.274148
_symmetry_space_group_name_H-M "C 2/M"
_symmetry_group_IT_number 12
_symmetry_cell_setting 'monoclinic'
loop_
_space_group_symop_operation_xyz
x,y,z
-x,y,-z
-x,-y,-z
x,-y,z
1/2+x,1/2+y,z
1/2-x,1/2+y,-z
1/2-x,1/2-y,-z
1/2+x,1/2-y,z
loop_
_atom_site_type_symbol
_atom_site_label
_atom_site_fract_x
_atom_site_fract_y
_atom_site_fract_z
Si Si1 0.712729 0.341845 0.052379
Si Si2 0.620094 0.157612 0.836391
Si Si3 0.000000 0.789480 0.000000
Si Si4 0.424578 0.837874 0.629579
Si Si5 0.230540 0.161008 0.614580
Si Si6 0.920647 0.342081 0.776249
Si Si7 0.694203 0.349371 0.185995
O O1 0.692595 0.500000 0.016957
O O2 0.813134 0.318892 0.146046
O O3 0.699249 0.316268 0.114112
O O4 0.653101 0.249603 0.935553
O O5 0.517702 0.180979 0.702364
O O6 0.628420 0.000000 0.865513
O O7 0.024790 0.713997 0.097658
O O8 0.092747 0.856844 0.090393
O O9 0.349277 0.745394 0.510096
O O10 0.438979 0.793415 0.723322
O O11 0.402629 0.000000 0.602937
O O12 0.317359 0.177234 0.670653
O O13 0.257946 0.234479 0.715182
O O14 0.213841 0.000000 0.601802
O O15 0.939171 0.500000 0.796951
O O16 0.733065 0.500000 0.242070
#
# Coordination Sequence:
#
# PCOD9173169 Si02
#       7
#     8   8   4   8   8   8   8
#     4   9  18  33  52  75 102 130 160 198 246 292
#     4   9  18  32  52  77 101 127 162 201 242 292
#     4  10  18  30  50  78 103 128 163 200 237 288
#     4  10  19  33  52  73  98 130 166 202 242 289
#     4  10  21  35  50  71  98 130 168 205 243 289
#     4   9  18  31  49  74 103 132 160 197 245 292
#     4  10  20  34  51  72 101 133 163 200 245 291
#
# _framework density 17.148845999999999
#
# number of rings (size 3 to 8) (size 9 to 14) (size 15 to 20)
#    0.000    2.462    0.000    2.308    0.000    1.846 
#    0.000    4.615    0.000    4.615    0.000    0.000 
#    0.000    0.000    0.000    0.000    0.000    0.000 
#
# Total GULP energy -144795.585270 kJ/mol
# GULP energy per Si atom -5569.060972 kJ/mol
# Density = 1.710981 g / cm^3
# Si number density = 17.148846 Si / 1000 Ang^3
#
#
#
# Elastic Constant Matrix: (Units=GPa)
#
#
# Indices 1 2 3 4 5 6 
#
# 1 82.1177 39.9938 36.2873 0.0000 -10.6737 0.0000
# 2 39.9938 60.9988 54.7820 0.0000 5.2871 0.0000
# 3 36.2873 54.7820 98.6424 0.0000 2.8302 0.0000
# 4 0.0000 0.0000 0.0000 31.3647 0.0000 13.3177
# 5 -10.6737 5.2871 2.8302 0.0000 9.8624 0.0000
# 6 0.0000 0.0000 0.0000 13.3177 0.0000 30.6065
#
#
#
# Elastic Compliance Matrix: (Units=1/GPa)
#
#
# Indices 1 2 3 4 5 6 
#
# 1 0.028981 -0.024139 0.001486 0.000000 0.043879 0.000000
# 2 -0.024139 0.054394 -0.019906 0.000000 -0.049572 0.000000
# 3 0.001486 -0.019906 0.020463 0.000000 0.006407 0.000000
# 4 0.000000 0.000000 0.000000 0.039108 0.000000 -0.017017
# 5 0.043879 -0.049572 0.006407 0.000000 0.173621 0.000000
# 6 0.000000 0.000000 0.000000 -0.017017 0.000000 0.040077
#
#
# Mechanical properties :
#
#
# Convention : Reuss Voigt Hill
#
# Bulk Modulus (GPa) = 53.42190 55.98724 54.70457
# Shear Modulus (GPa) = 11.16064 21.74644 16.45354
#
# Velocity S-wave (km/s) = 2.55387 3.56490 3.10087
# Velocity P-wave (km/s) = 6.31790 7.04723 6.69250
#
# Compressibility (1/GPa) = 0.01871892
#
# Stress axis : x y z
#
# Youngs Moduli (GPa) = 34.50551 18.38422 48.86980
#
# Poissons Ratio (x) = 0.44377 -0.07260
# Poissons Ratio (y) = 0.83292 0.97282
# Poissons Ratio (z) = -0.05126 0.36596
#
# Static dielectric constant tensor:
#      x y z
#    x 1.582740 0.000000 0.016260 
#    y 0.000000 1.582390 0.000000 
#    z 0.016260 0.000000 1.566690 
# 
# From -- ./inp_files/329324.got.cif
#   From: 2010.05.17/outbox.cif.g08.bks.cpg/sg12_165_cif.got.tgz:329324.got - 2010.06.03 13:09:07.
