data_PCOD9173392
_publ_section_title
;
Structure prediction by ZEFSAII (Michael W. Deem and Ramdas Pophale) SiO2 
 PCOD9173392
Probable space group: C 2/M
;
_chemical_formula_sum "Si O2"
_cell_formula_units_Z 56
_cell_length_a 32.159070
_cell_length_b 9.561821
_cell_length_c 18.925790
_cell_angle_alpha 90.000000
_cell_angle_beta 31.181819
_cell_angle_gamma 90.000000
_cell_volume 3013.164756
_symmetry_space_group_name_H-M "C 2/M"
_symmetry_group_IT_number 12
_symmetry_cell_setting 'monoclinic'
loop_
_space_group_symop_operation_xyz
x,y,z
-x,y,-z
-x,-y,-z
x,-y,z
1/2+x,1/2+y,z
1/2-x,1/2+y,-z
1/2-x,1/2-y,-z
1/2+x,1/2-y,z
loop_
_atom_site_type_symbol
_atom_site_label
_atom_site_fract_x
_atom_site_fract_y
_atom_site_fract_z
Si Si1 0.842006 0.657370 0.937395
Si Si2 0.088887 0.660097 0.901631
Si Si3 0.246676 0.665687 0.577941
Si Si4 0.651753 0.344662 0.198110
Si Si5 0.825350 0.661818 0.584637
Si Si6 0.586883 0.841747 0.409918
Si Si7 0.663155 0.663836 0.912772
O O1 0.874534 0.500000 0.897795
O O2 0.747939 0.644068 0.053967
O O3 0.844461 0.746657 0.005177
O O4 0.879371 0.743612 0.818377
O O5 0.099836 0.500000 0.912466
O O6 0.158279 0.681202 0.742028
O O7 0.103192 0.770754 0.942555
O O8 0.000000 0.671934 0.000000
O O9 0.261612 0.500000 0.546526
O O10 0.250000 0.750000 0.500000
O O11 0.308131 0.734598 0.545183
O O12 0.617273 0.500000 0.242870
O O13 0.634490 0.273907 0.297707
O O14 0.825173 0.500000 0.560094
O O15 0.903150 0.684871 0.521066
O O16 0.750467 0.677691 0.748254
O O17 0.500000 0.840121 0.500000
O O18 0.619821 0.000000 0.350716
O O19 0.649754 0.500000 0.945941
#
# Coordination Sequence:
#
# PCOD9173392 Si02
#       7
#     8   8   8   8   8   8   8
#     4  10  19  31  50  74 101 133 170 212 258 311
#     4   9  19  36  56  79 108 142 178 217 266 325
#     4  10  20  35  58  84 109 139 178 223 271 326
#     4  10  20  32  49  73 102 133 169 216 263 304
#     4   9  18  33  53  77 105 137 178 222 262 312
#     4  10  20  35  54  75 104 144 184 220 262 316
#     4  10  18  30  52  79 106 135 171 219 266 313
#
# _framework density 18.58511
#
# number of rings (size 3 to 8) (size 9 to 14) (size 15 to 20)
#    0.000    2.286    1.429    1.714    0.000    3.429 
#    0.000    1.429    0.000    3.429    0.000    0.000 
#    0.000    0.000    0.000    0.000    0.000    0.000 
#
# Total GULP energy -156078.211980 kJ/mol
# GULP energy per Si atom -5574.221856 kJ/mol
# Density = 1.854281 g / cm^3
# Si number density = 18.585110 Si / 1000 Ang^3
#
#
#
# Elastic Constant Matrix: (Units=GPa)
#
#
# Indices 1 2 3 4 5 6 
#
# 1 127.0695 89.4299 25.2221 -0.0001 15.0435 0.0001
# 2 89.4299 166.7184 30.3184 -0.0024 26.9987 0.0009
# 3 25.2221 30.3184 13.2538 -0.0016 2.9618 0.0005
# 4 -0.0001 -0.0024 -0.0016 4.4219 0.0005 -0.4523
# 5 15.0435 26.9987 2.9618 0.0005 29.6986 -0.0001
# 6 0.0001 0.0009 0.0005 -0.4523 -0.0001 31.8582
#
#
#
# Elastic Compliance Matrix: (Units=1/GPa)
#
#
# Indices 1 2 3 4 5 6 
#
# 1 0.014618 -0.004420 -0.017336 -0.000008 -0.001657 0.000000
# 2 -0.004420 0.013344 -0.020357 0.000001 -0.007862 0.000000
# 3 -0.017336 -0.020357 0.152304 0.000041 0.012099 -0.000001
# 4 -0.000008 0.000001 0.000041 0.226477 -0.000004 0.003215
# 5 -0.001657 -0.007862 0.012099 -0.000004 0.040452 0.000000
# 6 0.000000 0.000000 -0.000001 0.003215 0.000000 0.031435
#
#
# Mechanical properties :
#
#
# Convention : Reuss Voigt Hill
#
# Bulk Modulus (GPa) = 10.41237 66.33140 38.37188
# Shear Modulus (GPa) = 8.40519 24.00049 16.20284
#
# Velocity S-wave (km/s) = 2.12893 3.59748 2.95586
# Velocity P-wave (km/s) = 3.41436 7.28175 5.68690
#
# Compressibility (1/GPa) = 0.09603963
#
# Stress axis : x y z
#
# Youngs Moduli (GPa) = 68.40952 74.93811 6.56580
#
# Poissons Ratio (x) = 0.33124 0.11383
# Poissons Ratio (y) = 0.30238 0.13366
# Poissons Ratio (z) = 1.18597 1.52552
#
# Static dielectric constant tensor:
#      x y z
#    x 1.644210 0.000000 -0.016490 
#    y 0.000000 1.651830 0.000000 
#    z -0.016490 0.000000 1.660640 
# 
# From -- ./inp_files/280907.got.cif
#   From: 2010.05.17/outbox.cif.g08.bks.cpg/sg12_141_cif.got.tgz:280907.got - 2010.06.03 13:09:07.
