data_PCOD9173084
_publ_section_title
;
Structure prediction by ZEFSAII (Michael W. Deem and Ramdas Pophale) SiO2 
 PCOD9173084
Probable space group: C 2/M
;
_chemical_formula_sum "Si O2"
_cell_formula_units_Z 64
_cell_length_a 19.324469
_cell_length_b 7.731178
_cell_length_c 22.483437
_cell_angle_alpha 90.000000
_cell_angle_beta 69.379583
_cell_angle_gamma 90.000000
_cell_volume 3143.845636
_symmetry_space_group_name_H-M "C 2/M"
_symmetry_group_IT_number 12
_symmetry_cell_setting 'monoclinic'
loop_
_space_group_symop_operation_xyz
x,y,z
-x,y,-z
-x,-y,-z
x,-y,z
1/2+x,1/2+y,z
1/2-x,1/2+y,-z
1/2-x,1/2-y,-z
1/2+x,1/2-y,z
loop_
_atom_site_type_symbol
_atom_site_label
_atom_site_fract_x
_atom_site_fract_y
_atom_site_fract_z
Si Si1 0.344562 0.703512 0.338179
Si Si2 0.130040 0.788388 0.535606
Si Si3 0.501799 0.798331 0.268780
Si Si4 0.577074 0.212175 0.005763
Si Si5 0.763488 0.294346 0.065282
Si Si6 0.969646 0.799412 0.605901
Si Si7 0.814592 0.209109 0.605603
Si Si8 0.603006 0.204175 0.132884
O O1 0.359159 0.500000 0.335507
O O2 0.346515 0.770958 0.405967
O O3 0.414076 0.784152 0.283420
O O4 0.261575 0.732972 0.341818
O O5 0.178856 0.731916 0.465235
O O6 0.044804 0.729459 0.553809
O O7 0.130714 0.000000 0.535746
O O8 0.517252 0.710500 0.327417
O O9 0.551299 0.724711 0.200593
O O10 0.520294 0.000000 0.271299
O O11 0.585040 0.271828 0.072008
O O12 0.577730 0.000000 0.005815
O O13 0.500000 0.267243 0.000000
O O14 0.652454 0.266570 0.948777
O O15 0.762390 0.500000 0.072855
O O16 0.690337 0.224897 0.119413
O O17 0.750000 0.250000 0.000000
O O18 0.890011 0.726380 0.613173
O O19 0.966898 0.000000 0.588197
O O20 0.813594 0.000000 0.606907
O O21 0.587424 0.000000 0.134413
#
# Coordination Sequence:
#
# PCOD9173084 Si02
#       8
#     8   8   8   8   8   8   8   8
#     4  10  20  33  49  70  98 128 161 201 242 292
#     4   8  15  29  49  71  94 123 157 196 245 297
#     4  10  20  35  52  68  92 129 169 204 242 291
#     4   8  14  27  48  74 100 122 148 186 229 269
#     4   9  16  27  47  73  99 127 158 192 229 271
#     4   9  18  32  50  72  96 123 159 203 246 291
#     4  10  18  30  50  73  97 124 156 198 250 301
#     4   9  18  32  51  72  94 124 160 197 236 282
#
# _framework density 20.357232
#
# number of rings (size 3 to 8) (size 9 to 14) (size 15 to 20)
#    0.000    2.875    0.000    3.375    0.000    3.000 
#    0.000    3.750    0.000   16.125    0.000    0.000 
#    0.000    0.000    0.000    0.000    0.000    0.000 
#
# Total GULP energy -178341.285724 kJ/mol
# GULP energy per Si atom -5573.165179 kJ/mol
# Density = 2.031090 g / cm^3
# Si number density = 20.357232 Si / 1000 Ang^3
#
#
#
# Elastic Constant Matrix: (Units=GPa)
#
#
# Indices 1 2 3 4 5 6 
#
# 1 142.4764 -12.4760 39.3200 0.0001 -32.1819 0.0001
# 2 -12.4760 29.4793 -4.0192 0.0004 2.5038 0.0004
# 3 39.3200 -4.0192 71.6767 0.0000 -36.6963 0.0001
# 4 0.0001 0.0004 0.0000 10.0476 0.0001 -3.1566
# 5 -32.1819 2.5038 -36.6963 0.0001 30.9319 0.0001
# 6 0.0001 0.0004 0.0001 -3.1566 0.0001 19.2245
#
#
#
# Elastic Compliance Matrix: (Units=1/GPa)
#
#
# Indices 1 2 3 4 5 6 
#
# 1 0.009466 0.003182 -0.000265 0.000000 0.009276 0.000000
# 2 0.003182 0.035272 0.001185 -0.000002 0.001862 -0.000001
# 3 -0.000265 0.001185 0.035589 -0.000001 0.041850 -0.000001
# 4 0.000000 -0.000002 -0.000001 0.104939 -0.000001 0.017231
# 5 0.009276 0.001862 0.041850 -0.000001 0.091479 -0.000001
# 6 0.000000 -0.000001 -0.000001 0.017231 -0.000001 0.054846
#
#
# Mechanical properties :
#
#
# Convention : Reuss Voigt Hill
#
# Bulk Modulus (GPa) = 11.29532 32.14243 21.71887
# Shear Modulus (GPa) = 14.16841 26.76132 20.46487
#
# Velocity S-wave (km/s) = 2.64102 3.62965 3.17407
# Velocity P-wave (km/s) = 3.85495 5.77835 4.91172
#
# Compressibility (1/GPa) = 0.08853224
#
# Stress axis : x y z
#
# Youngs Moduli (GPa) = 105.64381 28.35089 28.09823
#
# Poissons Ratio (x) = -0.09021 0.00745
# Poissons Ratio (y) = -0.33616 -0.03331
# Poissons Ratio (z) = 0.02801 -0.03361
#
# Static dielectric constant tensor:
#      x y z
#    x 1.770980 0.000000 -0.014390 
#    y 0.000000 1.763790 0.000000 
#    z -0.014390 0.000000 1.716520 
# 
# From -- ./inp_files/341950.got.cif
#   From: 2010.05.17/outbox.cif.g08.bks.cpg/sg12_171_cif.got.tgz:341950.got - 2010.06.03 13:09:07.
