data_PCOD9173367
_publ_section_title
;
Structure prediction by ZEFSAII (Michael W. Deem and Ramdas Pophale) SiO2 
 PCOD9173367
Probable space group: C 2/M
;
_chemical_formula_sum "Si O2"
_cell_formula_units_Z 56
_cell_length_a 21.570477
_cell_length_b 18.345528
_cell_length_c 15.540928
_cell_angle_alpha 90.000000
_cell_angle_beta 148.529881
_cell_angle_gamma 90.000000
_cell_volume 3210.570373
_symmetry_space_group_name_H-M "C 2/M"
_symmetry_group_IT_number 12
_symmetry_cell_setting 'monoclinic'
loop_
_space_group_symop_operation_xyz
x,y,z
-x,y,-z
-x,-y,-z
x,-y,z
1/2+x,1/2+y,z
1/2-x,1/2+y,-z
1/2-x,1/2-y,-z
1/2+x,1/2-y,z
loop_
_atom_site_type_symbol
_atom_site_label
_atom_site_fract_x
_atom_site_fract_y
_atom_site_fract_z
Si Si1 0.073679 0.148579 0.317675
Si Si2 0.275747 0.207119 0.896631
Si Si3 0.281116 0.130711 0.443431
Si Si4 0.852632 0.500000 0.216911
Si Si5 0.950554 0.312985 0.785554
Si Si6 0.194756 0.862682 0.975982
Si Si7 0.259770 0.293827 0.342358
Si Si8 0.372567 0.000000 0.445691
O O1 0.161486 0.111482 0.353635
O O2 0.061216 0.230628 0.265130
O O3 0.144500 0.159352 0.490722
O O4 0.942933 0.116679 0.172587
O O5 0.280146 0.291353 0.934597
O O6 0.222432 0.202241 0.738237
O O7 0.409551 0.176091 0.044426
O O8 0.212218 0.163782 0.898298
O O9 0.384846 0.137304 0.637458
O O10 0.271346 0.210082 0.387864
O O11 0.310774 0.071390 0.408962
O O12 0.783423 0.428282 0.102707
O O13 0.859021 0.500000 0.327732
O O14 0.991972 0.500000 0.359616
O O15 0.871386 0.316870 0.778318
#
# Coordination Sequence:
#
# PCOD9173367 Si02
#       8
#     8   8   8   4   8   8   8   4
#     4   8  17  32  50  72 101 134 165 202 249 294
#     4  10  18  30  52  77 100 132 175 210 243 296
#     4   9  17  32  51  75 104 131 163 205 251 297
#     4  11  24  39  51  71 106 135 161 204 253 301
#     4   8  15  29  49  74 103 130 160 207 256 286
#     4  10  21  35  49  72 105 139 168 202 253 300
#     4   9  16  29  52  78 101 126 166 216 251 285
#     4  11  22  35  55  76  96 132 170 195 242 306
#
# _framework density 17.442384000000001
#
# number of rings (size 3 to 8) (size 9 to 14) (size 15 to 20)
#    0.000    2.714    0.000    3.857    0.000    2.286 
#    0.000    2.857    0.000    5.143    0.000    9.000 
#    0.000    0.000    0.000    0.000    0.000    0.000 
#
# Total GULP energy -156006.178852 kJ/mol
# GULP energy per Si atom -5571.649245 kJ/mol
# Density = 1.740268 g / cm^3
# Si number density = 17.442384 Si / 1000 Ang^3
#
#
#
# Elastic Constant Matrix: (Units=GPa)
#
#
# Indices 1 2 3 4 5 6 
#
# 1 92.3372 16.8527 41.6513 0.0000 -10.5337 0.0000
# 2 16.8527 32.5803 10.6436 0.0000 6.2335 0.0000
# 3 41.6513 10.6436 71.8053 0.0000 6.1436 0.0000
# 4 0.0000 0.0000 0.0000 16.0858 0.0000 2.0002
# 5 -10.5337 6.2335 6.1436 0.0000 29.0999 0.0000
# 6 0.0000 0.0000 0.0000 2.0002 0.0000 0.7606
#
#
#
# Elastic Compliance Matrix: (Units=1/GPa)
#
#
# Indices 1 2 3 4 5 6 
#
# 1 0.018075 -0.008013 -0.010188 0.000000 0.010410 0.000000
# 2 -0.008013 0.036874 0.000108 0.000000 -0.010822 0.000000
# 3 -0.010188 0.000108 0.020508 0.000000 -0.008041 0.000000
# 4 0.000000 0.000000 0.000000 0.092371 0.000000 -0.242909
# 5 0.010410 -0.010822 -0.008041 0.000000 0.042149 0.000000
# 6 0.000000 0.000000 0.000000 -0.242909 0.000000 1.953519
#
#
# Mechanical properties :
#
#
# Convention : Reuss Voigt Hill
#
# Bulk Modulus (GPa) = 25.46364 37.22421 31.34392
# Shear Modulus (GPa) = 2.25961 17.69428 9.97694
#
# Velocity S-wave (km/s) = 1.13942 3.18848 2.39423
# Velocity P-wave (km/s) = 4.04493 5.91125 5.06479
#
# Compressibility (1/GPa) = 0.03927169
#
# Stress axis : x y z
#
# Youngs Moduli (GPa) = 55.32360 27.11961 48.76171
#
# Poissons Ratio (x) = 0.21732 0.49677
# Poissons Ratio (y) = 0.44333 -0.00529
# Poissons Ratio (z) = 0.56362 -0.00294
#
# Static dielectric constant tensor:
#      x y z
#    x 1.596610 0.000000 0.017470 
#    y 0.000000 1.567010 0.000000 
#    z 0.017470 0.000000 1.604800 
# 
# From -- ./inp_files/234750.got.cif
#   From: 2010.05.17/outbox.cif.g08.bks.cpg/sg12_118_cif.got.tgz:234750.got - 2010.06.03 13:09:07.
