data_PCOD9173493
_publ_section_title
;
Structure prediction by ZEFSAII (Michael W. Deem and Ramdas Pophale) SiO2 
 PCOD9173493
Probable space group: C 2/M
;
_chemical_formula_sum "Si O2"
_cell_formula_units_Z 36
_cell_length_a 7.125789
_cell_length_b 13.521571
_cell_length_c 13.157926
_cell_angle_alpha 90.000000
_cell_angle_beta 77.202894
_cell_angle_gamma 90.000000
_cell_volume 1236.299438
_symmetry_space_group_name_H-M "C 2/M"
_symmetry_group_IT_number 12
_symmetry_cell_setting 'monoclinic'
loop_
_space_group_symop_operation_xyz
x,y,z
-x,y,-z
-x,-y,-z
x,-y,z
1/2+x,1/2+y,z
1/2-x,1/2+y,-z
1/2-x,1/2-y,-z
1/2+x,1/2-y,z
loop_
_atom_site_type_symbol
_atom_site_label
_atom_site_fract_x
_atom_site_fract_y
_atom_site_fract_z
Si Si1 0.932356 0.326112 0.865344
Si Si2 0.871307 0.885856 0.615193
Si Si3 0.687559 0.389311 0.087573
Si Si4 0.250000 0.750000 0.500000
Si Si5 0.250139 0.885547 0.679377
O O1 0.938800 0.210041 0.893615
O O2 0.831965 0.337325 0.769734
O O3 0.142706 0.375415 0.848818
O O4 0.802708 0.379053 0.966981
O O5 0.701130 0.812455 0.616261
O O6 0.000000 0.836147 0.500000
O O7 0.015855 0.881238 0.690730
O O8 0.836574 0.000000 0.596896
O O9 0.602940 0.500000 0.103924
O O10 0.313880 0.843041 0.564149
O O11 0.301344 0.000000 0.679782
#
# Coordination Sequence:
#
# PCOD9173493 Si02
#       5
#     8   8   8   4   8
#     4  10  21  38  65  91 124 164 200 250 310 365
#     4   8  16  31  48  70  99 133 179 230 280 337
#     4  10  21  41  63  93 129 160 202 257 304 366
#     4  10  18  30  54  76 106 142 188 248 288 350
#     4  10  20  35  56  80 108 152 196 241 299 362
#
# _framework density 29.119156
#
# number of rings (size 3 to 8) (size 9 to 14) (size 15 to 20)
#    0.000    2.444    0.000    4.667    3.111    0.000 
#    0.000   13.333    0.000   24.000    0.000    0.000 
#    0.000    0.000    0.000    0.000    0.000    0.000 
#
# Total GULP energy -100527.010729 kJ/mol
# GULP energy per Si atom -5584.833929 kJ/mol
# Density = 2.905288 g / cm^3
# Si number density = 29.119156 Si / 1000 Ang^3
#
#
#
# Elastic Constant Matrix: (Units=GPa)
#
#
# Indices 1 2 3 4 5 6 
#
# 1 99.5058 29.9903 40.2249 0.0000 12.3403 0.0000
# 2 29.9903 245.4142 25.6904 0.0000 0.0396 0.0000
# 3 40.2249 25.6904 188.9946 0.0000 51.9427 0.0000
# 4 0.0000 0.0000 0.0000 53.4750 0.0000 3.4880
# 5 12.3403 0.0396 51.9427 0.0000 56.6075 0.0000
# 6 0.0000 0.0000 0.0000 3.4880 0.0000 11.3257
#
#
#
# Elastic Compliance Matrix: (Units=1/GPa)
#
#
# Indices 1 2 3 4 5 6 
#
# 1 0.011317 -0.001163 -0.002103 0.000000 -0.000536 0.000000
# 2 -0.001163 0.004273 -0.000538 0.000000 0.000744 0.000000
# 3 -0.002103 -0.000538 0.007603 0.000000 -0.006518 0.000000
# 4 0.000000 0.000000 0.000000 0.019084 0.000000 -0.005877
# 5 -0.000536 0.000744 -0.006518 0.000000 0.023763 0.000000
# 6 0.000000 0.000000 0.000000 -0.005877 0.000000 0.090105
#
#
# Mechanical properties :
#
#
# Convention : Reuss Voigt Hill
#
# Bulk Modulus (GPa) = 64.16168 80.63618 72.39893
# Shear Modulus (GPa) = 29.59513 53.48226 41.53869
#
# Velocity S-wave (km/s) = 3.19148 4.29029 3.78101
# Velocity P-wave (km/s) = 5.97183 7.23146 6.63162
#
# Compressibility (1/GPa) = 0.01558563
#
# Stress axis : x y z
#
# Youngs Moduli (GPa) = 88.36419 234.02702 131.52288
#
# Poissons Ratio (x) = 0.27210 0.27661
# Poissons Ratio (y) = 0.10274 0.07074
# Poissons Ratio (z) = 0.18584 0.12587
#
# Static dielectric constant tensor:
#      x y z
#    x 1.519090 0.000000 -0.403380 
#    y 0.000000 2.666870 0.000000 
#    z -0.403380 0.000000 2.197040 
# 
# From -- ./inp_files/203083.got.cif
#   From: 2010.05.17/outbox.cif.g08.bks.cpg/sg12_102_cif.got.tgz:203083.got - 2010.06.03 13:09:07.
