data_PCOD9173089
_publ_section_title
;
Structure prediction by ZEFSAII (Michael W. Deem and Ramdas Pophale) SiO2 
 PCOD9173089
Probable space group: C 2/M
;
_chemical_formula_sum "Si O2"
_cell_formula_units_Z 64
_cell_length_a 25.026225
_cell_length_b 17.703358
_cell_length_c 18.676207
_cell_angle_alpha 90.000000
_cell_angle_beta 153.537924
_cell_angle_gamma 90.000000
_cell_volume 3687.143847
_symmetry_space_group_name_H-M "C 2/M"
_symmetry_group_IT_number 12
_symmetry_cell_setting 'monoclinic'
loop_
_space_group_symop_operation_xyz
x,y,z
-x,y,-z
-x,-y,-z
x,-y,z
1/2+x,1/2+y,z
1/2-x,1/2+y,-z
1/2-x,1/2-y,-z
1/2+x,1/2-y,z
loop_
_atom_site_type_symbol
_atom_site_label
_atom_site_fract_x
_atom_site_fract_y
_atom_site_fract_z
Si Si1 0.049478 0.683271 0.681083
Si Si2 0.572403 0.296165 0.159706
Si Si3 0.996908 0.914456 0.809144
Si Si4 0.217994 0.711906 0.685218
Si Si5 0.363933 0.788726 0.983428
Si Si6 0.376684 0.679477 0.136993
Si Si7 0.768687 0.414273 0.196826
Si Si8 0.146640 0.409792 0.917391
O O1 0.103723 0.761344 0.776049
O O2 0.133749 0.637152 0.727356
O O3 0.044492 0.627300 0.744094
O O4 0.922339 0.706860 0.496806
O O5 0.571851 0.365706 0.214130
O O6 0.703135 0.271693 0.290259
O O7 0.500000 0.316036 0.000000
O O8 0.491052 0.232136 0.099748
O O9 0.008088 0.869572 0.747850
O O10 0.954840 0.000000 0.752348
O O11 0.137551 0.916239 0.002943
O O12 0.264470 0.766743 0.804812
O O13 0.251069 0.627560 0.752061
O O14 0.353032 0.732376 0.038855
O O15 0.359747 0.871637 0.012165
O O16 0.269128 0.623587 0.029255
O O17 0.812273 0.500000 0.254080
O O18 0.145100 0.500000 0.914445
#
# Coordination Sequence:
#
# PCOD9173089 Si02
#       8
#     8   8   8   8   8   8   8   8
#     4  11  22  31  52  79 109 132 167 209 265 307
#     4   9  17  32  53  72  97 134 178 212 241 294
#     4  10  18  30  50  73  99 129 168 209 245 294
#     4  11  20  35  51  76 104 139 168 213 258 301
#     4   9  18  34  54  74  99 135 182 215 243 297
#     4  10  18  33  51  74  98 136 175 206 241 306
#     4  11  20  30  47  75 107 134 158 199 256 310
#     4  11  20  33  54  78 105 136 172 212 255 308
#
# _framework density 17.357607999999999
#
# number of rings (size 3 to 8) (size 9 to 14) (size 15 to 20)
#    0.000    1.750    5.000    3.375    0.000    2.250 
#    0.000    5.625    0.000    5.625    0.000    0.000 
#    0.000    0.000    0.000    0.000    0.000    0.000 
#
# Total GULP energy -178248.623606 kJ/mol
# GULP energy per Si atom -5570.269488 kJ/mol
# Density = 1.731810 g / cm^3
# Si number density = 17.357608 Si / 1000 Ang^3
#
#
#
# Elastic Constant Matrix: (Units=GPa)
#
#
# Indices 1 2 3 4 5 6 
#
# 1 89.9052 23.5503 19.6099 0.0000 3.5302 0.0000
# 2 23.5503 89.7013 14.8823 0.0001 -9.7381 0.0000
# 3 19.6099 14.8823 57.3464 0.0001 3.9024 0.0001
# 4 0.0000 0.0001 0.0001 7.5137 0.0000 -2.7153
# 5 3.5302 -9.7381 3.9024 0.0000 12.7944 0.0000
# 6 0.0000 0.0000 0.0001 -2.7153 0.0000 18.2596
#
#
#
# Elastic Compliance Matrix: (Units=1/GPa)
#
#
# Indices 1 2 3 4 5 6 
#
# 1 0.012918 -0.003430 -0.003173 0.000000 -0.005207 0.000000
# 2 -0.003430 0.013963 -0.003307 0.000000 0.012583 0.000000
# 3 -0.003173 -0.003307 0.019906 0.000000 -0.007713 0.000000
# 4 0.000000 0.000000 0.000000 0.140649 -0.000001 0.020916
# 5 -0.005207 0.012583 -0.007713 -0.000001 0.091525 0.000000
# 6 0.000000 0.000000 0.000000 0.020916 0.000000 0.057876
#
#
# Mechanical properties :
#
#
# Convention : Reuss Voigt Hill
#
# Bulk Modulus (GPa) = 37.08235 39.22645 38.15440
# Shear Modulus (GPa) = 13.67440 19.64090 16.65765
#
# Velocity S-wave (km/s) = 2.80983 3.36749 3.10122
# Velocity P-wave (km/s) = 5.65128 6.14557 5.90360
#
# Compressibility (1/GPa) = 0.02696701
#
# Stress axis : x y z
#
# Youngs Moduli (GPa) = 77.41186 71.61578 50.23637
#
# Poissons Ratio (x) = 0.24567 0.15939
# Poissons Ratio (y) = 0.26556 0.16613
# Poissons Ratio (z) = 0.24561 0.23683
#
# Static dielectric constant tensor:
#      x y z
#    x 1.647910 0.000000 0.000600 
#    y 0.000000 1.613460 0.000000 
#    z 0.000600 0.000000 1.638790 
# 
# From -- ./inp_files/290461.got.cif
#   From: 2010.05.17/outbox.cif.g08.bks.cpg/sg12_146_cif.got.tgz:290461.got - 2010.06.03 13:09:07.
