data_PCOD9173049
_publ_section_title
;
Structure prediction by ZEFSAII (Michael W. Deem and Ramdas Pophale) SiO2 
 PCOD9173049
Probable space group: C 2/M
;
_chemical_formula_sum "Si O2"
_cell_formula_units_Z 64
_cell_length_a 19.756125
_cell_length_b 7.509722
_cell_length_c 19.620110
_cell_angle_alpha 90.000000
_cell_angle_beta 94.433794
_cell_angle_gamma 90.000000
_cell_volume 2902.187146
_symmetry_space_group_name_H-M "C 2/M"
_symmetry_group_IT_number 12
_symmetry_cell_setting 'monoclinic'
loop_
_space_group_symop_operation_xyz
x,y,z
-x,y,-z
-x,-y,-z
x,-y,z
1/2+x,1/2+y,z
1/2-x,1/2+y,-z
1/2-x,1/2-y,-z
1/2+x,1/2-y,z
loop_
_atom_site_type_symbol
_atom_site_label
_atom_site_fract_x
_atom_site_fract_y
_atom_site_fract_z
Si Si1 0.342237 0.211731 0.309270
Si Si2 0.497368 0.716844 0.116050
Si Si3 0.005112 0.215301 0.730203
Si Si4 0.753985 0.794752 0.813348
Si Si5 0.408628 0.791789 0.445341
Si Si6 0.861206 0.781742 0.923573
Si Si7 0.344198 0.716176 0.070743
Si Si8 0.442998 0.700093 0.592172
O O1 0.416662 0.240942 0.281854
O O2 0.284194 0.286351 0.254990
O O3 0.351089 0.273061 0.388376
O O4 0.330883 0.000000 0.310342
O O5 0.496891 0.500000 0.114997
O O6 0.509949 0.774204 0.194780
O O7 0.560439 0.772114 0.074915
O O8 0.422315 0.769951 0.088777
O O9 0.954254 0.284023 0.667448
O O10 0.000574 0.000000 0.727969
O O11 0.820797 0.717042 0.854038
O O12 0.700776 0.791381 0.871976
O O13 0.770396 0.000000 0.797734
O O14 0.400464 0.776442 0.525786
O O15 0.478965 0.699043 0.429224
O O16 0.420390 0.000000 0.431871
O O17 0.859207 0.000000 0.923147
O O18 0.827908 0.726379 0.992318
O O19 0.339728 0.500000 0.074554
O O20 0.418120 0.500000 0.599447
#
# Coordination Sequence:
#
# PCOD9173049 Si02
#       8
#     8   8   8   8   8   8   8   8
#     4   9  17  27  40  59  85 115 145 176 211 257
#     4   9  16  28  46  68  90 114 148 186 219 257
#     4   9  16  26  42  63  85 111 143 179 216 255
#     4  10  19  31  46  66  92 119 146 181 224 264
#     4   9  15  23  35  53  79 111 142 169 204 251
#     4   9  18  30  46  68  91 115 147 186 223 260
#     4  10  18  30  50  70  87 113 149 186 223 264
#     4   9  15  22  34  56  84 108 133 170 216 255
#
# _framework density 22.052336
#
# number of rings (size 3 to 8) (size 9 to 14) (size 15 to 20)
#    0.000    2.750    1.250    2.250    0.000    2.500 
#    0.000    0.000    0.000    3.750    0.000    0.875 
#    0.000    0.000    0.000    0.000    0.000    0.000 
#
# Total GULP energy -178375.519771 kJ/mol
# GULP energy per Si atom -5574.234993 kJ/mol
# Density = 2.200214 g / cm^3
# Si number density = 22.052336 Si / 1000 Ang^3
#
#
#
# Elastic Constant Matrix: (Units=GPa)
#
#
# Indices 1 2 3 4 5 6 
#
# 1 38.3694 -7.1288 -9.2871 0.0000 10.5473 0.0000
# 2 -7.1288 61.6020 1.7994 0.0000 4.5318 0.0000
# 3 -9.2871 1.7994 105.4664 0.0000 28.2635 0.0000
# 4 0.0000 0.0000 0.0000 16.2305 0.0000 0.3740
# 5 10.5473 4.5318 28.2635 0.0000 23.6058 0.0000
# 6 0.0000 0.0000 0.0000 0.3740 0.0000 4.1072
#
#
#
# Elastic Compliance Matrix: (Units=1/GPa)
#
#
# Indices 1 2 3 4 5 6 
#
# 1 0.039664 0.006723 0.012477 0.000000 -0.033951 0.000000
# 2 0.006723 0.017655 0.002951 0.000000 -0.009927 0.000000
# 3 0.012477 0.002951 0.017928 0.000000 -0.027607 0.000000
# 4 0.000000 0.000000 0.000000 0.061742 0.000000 -0.005622
# 5 -0.033951 -0.009927 -0.027607 0.000000 0.092492 0.000000
# 6 0.000000 0.000000 0.000000 -0.005622 0.000000 0.243989
#
#
# Mechanical properties :
#
#
# Convention : Reuss Voigt Hill
#
# Bulk Modulus (GPa) = 8.36473 19.57831 13.97152
# Shear Modulus (GPa) = 10.66054 23.45898 17.05976
#
# Velocity S-wave (km/s) = 2.20107 3.26511 2.78439
# Velocity P-wave (km/s) = 3.20327 4.80749 4.08491
#
# Compressibility (1/GPa) = 0.11954953
#
# Stress axis : x y z
#
# Youngs Moduli (GPa) = 25.21161 56.64007 55.77792
#
# Poissons Ratio (x) = -0.38081 -0.69591
# Poissons Ratio (y) = -0.16950 -0.16460
# Poissons Ratio (z) = -0.31455 -0.16715
#
# Static dielectric constant tensor:
#      x y z
#    x 1.765040 0.000000 0.047380 
#    y 0.000000 1.836170 0.000000 
#    z 0.047380 0.000000 1.876480 
# 
# From -- ./inp_files/319252.got.cif
#   From: 2010.05.17/outbox.cif.g08.bks.cpg/sg12_160_cif.got.tgz:319252.got - 2010.06.03 13:09:07.
