data_PCOD9173681
_publ_section_title
;
Structure prediction by ZEFSAII (Michael W. Deem and Ramdas Pophale) SiO2 
 PCOD9173681
Probable space group: C 2/M
;
_chemical_formula_sum "Si O2"
_cell_formula_units_Z 64
_cell_length_a 32.292306
_cell_length_b 8.700478
_cell_length_c 14.860410
_cell_angle_alpha 90.000000
_cell_angle_beta 62.244115
_cell_angle_gamma 90.000000
_cell_volume 3694.763938
_symmetry_space_group_name_H-M "C 2/M"
_symmetry_group_IT_number 12
_symmetry_cell_setting 'monoclinic'
loop_
_space_group_symop_operation_xyz
x,y,z
-x,y,-z
-x,-y,-z
x,-y,z
1/2+x,1/2+y,z
1/2-x,1/2+y,-z
1/2-x,1/2-y,-z
1/2+x,1/2-y,z
loop_
_atom_site_type_symbol
_atom_site_label
_atom_site_fract_x
_atom_site_fract_y
_atom_site_fract_z
Si Si1 0.266066 0.815751 0.387500
Si Si2 0.555165 0.185221 0.840814
Si Si3 0.828223 0.316965 0.574898
Si Si4 0.446599 0.815387 0.948511
Si Si5 0.731639 0.816724 0.924832
Si Si6 0.331388 0.684701 0.755690
Si Si7 0.859125 0.182946 0.351679
Si Si8 0.138255 0.183330 0.073669
O O1 0.250000 0.750000 0.500000
O O2 0.224923 0.747479 0.369027
O O3 0.318917 0.755486 0.327683
O O4 0.265328 0.000000 0.385288
O O5 0.500942 0.223368 0.876189
O O6 0.591314 0.267949 0.738951
O O7 0.560375 0.000000 0.827440
O O8 0.564033 0.225987 0.936639
O O9 0.827701 0.500000 0.567527
O O10 0.850809 0.263757 0.646264
O O11 0.851349 0.247766 0.460803
O O12 0.410589 0.738565 0.917018
O O13 0.442292 0.000000 0.946280
O O14 0.775729 0.780095 0.817669
O O15 0.727406 0.000000 0.932384
O O16 0.750000 0.750000 0.000000
O O17 0.680115 0.747444 0.968128
O O18 0.336390 0.500000 0.743002
O O19 0.352995 0.732610 0.830771
O O20 0.853249 0.000000 0.360026
O O21 0.141507 0.000000 0.070093
#
# Coordination Sequence:
#
# PCOD9173681 Si02
#       8
#     8   8   8   8   8   8   8   8
#     4  10  18  31  49  69  98 133 168 208 248 293
#     4   9  19  37  57  79 104 132 166 207 256 309
#     4  11  21  33  51  75 103 138 177 216 253 299
#     4   9  19  36  58  79 103 133 166 207 257 308
#     4   9  17  30  48  69  98 133 170 209 250 294
#     4   9  19  34  49  71 104 142 176 211 254 300
#     4  11  21  34  53  77 105 137 171 211 256 305
#     4  10  20  33  52  77 107 138 172 213 256 304
#
# _framework density 17.321808999999998
#
# number of rings (size 3 to 8) (size 9 to 14) (size 15 to 20)
#    0.000    2.250    0.000    7.125    0.000    5.000 
#    0.000    2.500    0.000    0.750    0.000    5.250 
#    0.000    0.000    0.000    0.000    0.000    0.000 
#
# Total GULP energy -178336.346650 kJ/mol
# GULP energy per Si atom -5573.010833 kJ/mol
# Density = 1.728238 g / cm^3
# Si number density = 17.321809 Si / 1000 Ang^3
#
#
#
# Elastic Constant Matrix: (Units=GPa)
#
#
# Indices 1 2 3 4 5 6 
#
# 1 104.6984 42.7129 58.7769 0.0000 3.7421 0.0000
# 2 42.7129 87.0087 50.6480 0.0000 -1.0135 0.0000
# 3 58.7769 50.6480 103.6409 0.0000 0.6624 0.0000
# 4 0.0000 0.0000 0.0000 23.1966 0.0000 -2.6508
# 5 3.7421 -1.0135 0.6624 0.0000 21.3818 0.0000
# 6 0.0000 0.0000 0.0000 -2.6508 0.0000 29.3447
#
#
#
# Elastic Compliance Matrix: (Units=1/GPa)
#
#
# Indices 1 2 3 4 5 6 
#
# 1 0.014795 -0.003379 -0.006723 0.000000 -0.002541 0.000000
# 2 -0.003379 0.016856 -0.006331 0.000000 0.001586 0.000000
# 3 -0.006723 -0.006331 0.016553 0.000000 0.000364 0.000000
# 4 0.000000 0.000000 0.000000 0.043560 0.000000 0.003935
# 5 -0.002541 0.001586 0.000364 0.000000 0.047278 0.000000
# 6 0.000000 0.000000 0.000000 0.003935 0.000000 0.034433
#
#
# Mechanical properties :
#
#
# Convention : Reuss Voigt Hill
#
# Bulk Modulus (GPa) = 65.19931 66.62486 65.91208
# Shear Modulus (GPa) = 23.64606 24.33195 23.98900
#
# Velocity S-wave (km/s) = 3.69874 3.75200 3.72546
# Velocity P-wave (km/s) = 7.48082 7.57077 7.52593
#
# Compressibility (1/GPa) = 0.01533759
#
# Stress axis : x y z
#
# Youngs Moduli (GPa) = 67.59155 59.32740 60.41218
#
# Poissons Ratio (x) = 0.20047 0.40615
# Poissons Ratio (y) = 0.22839 0.38247
# Poissons Ratio (z) = 0.45441 0.37560
#
# Static dielectric constant tensor:
#      x y z
#    x 1.606110 0.000000 0.002650 
#    y 0.000000 1.578200 0.000000 
#    z 0.002650 0.000000 1.590130 
# 
# From -- ./inp_files/249071.got.cif
#   From: 2010.05.17/outbox.cif.g08.bks.cpg/sg12_125_cif.got.tgz:249071.got - 2010.06.03 13:09:07.
