data_PCOD9173158
_publ_section_title
;
Structure prediction by ZEFSAII (Michael W. Deem and Ramdas Pophale) SiO2 
 PCOD9173158
Probable space group: C 2/M
;
_chemical_formula_sum "Si O2"
_cell_formula_units_Z 64
_cell_length_a 25.232915
_cell_length_b 8.779815
_cell_length_c 15.541501
_cell_angle_alpha 90.000000
_cell_angle_beta 79.078271
_cell_angle_gamma 90.000000
_cell_volume 3380.704635
_symmetry_space_group_name_H-M "C 2/M"
_symmetry_group_IT_number 12
_symmetry_cell_setting 'monoclinic'
loop_
_space_group_symop_operation_xyz
x,y,z
-x,y,-z
-x,-y,-z
x,-y,z
1/2+x,1/2+y,z
1/2-x,1/2+y,-z
1/2-x,1/2-y,-z
1/2+x,1/2-y,z
loop_
_atom_site_type_symbol
_atom_site_label
_atom_site_fract_x
_atom_site_fract_y
_atom_site_fract_z
Si Si1 0.115101 0.682944 0.679727
Si Si2 0.385760 0.683103 0.824478
Si Si3 0.309027 0.182697 0.500494
Si Si4 0.340501 0.176188 0.010657
Si Si5 0.490692 0.676566 0.229169
Si Si6 0.548460 0.166770 0.918667
Si Si7 0.199165 0.314470 0.800946
Si Si8 0.313350 0.683421 0.683409
O O1 0.114901 0.500000 0.678886
O O2 0.149761 0.733890 0.586712
O O3 0.053899 0.742327 0.698016
O O4 0.148497 0.730123 0.755949
O O5 0.387689 0.500000 0.832166
O O6 0.352449 0.743042 0.917006
O O7 0.448035 0.738246 0.798433
O O8 0.354917 0.721581 0.746282
O O9 0.250000 0.250000 0.500000
O O10 0.325998 0.238411 0.589451
O O11 0.305798 0.000000 0.498772
O O12 0.325997 0.000000 0.997740
O O13 0.397349 0.179868 0.044136
O O14 0.302065 0.239310 0.098964
O O15 0.494145 0.500000 0.251611
O O16 0.464328 0.701384 0.143684
O O17 0.549848 0.000000 0.872860
O O18 0.500000 0.163699 0.000000
O O19 0.197668 0.500000 0.806520
O O20 0.253738 0.271816 0.735105
O O21 0.313088 0.500000 0.671894
#
# Coordination Sequence:
#
# PCOD9173158 Si02
#       8
#     8   8   8   8   8   8   8   8
#     4  10  20  37  59  86 116 145 180 230 289 345
#     4  10  23  39  54  77 116 160 195 229 283 337
#     4  11  22  38  64  94 118 142 181 233 288 344
#     4  10  19  32  54  81 110 146 194 237 275 331
#     4  11  22  34  52  82 116 150 191 240 286 334
#     4  10  18  30  50  76 106 147 192 234 283 335
#     4   9  17  33  57  83 110 144 185 230 282 334
#     4  10  21  41  62  80 112 156 192 231 282 341
#
# _framework density 18.930963999999999
#
# number of rings (size 3 to 8) (size 9 to 14) (size 15 to 20)
#    0.000    1.875    3.750    0.750    0.000    3.250 
#    0.000    1.250    0.000    3.750    0.000    0.000 
#    0.000    0.000    0.000    0.000    0.000    0.000 
#
# Total GULP energy -178439.844638 kJ/mol
# GULP energy per Si atom -5576.245145 kJ/mol
# Density = 1.888788 g / cm^3
# Si number density = 18.930964 Si / 1000 Ang^3
#
#
#
# Elastic Constant Matrix: (Units=GPa)
#
#
# Indices 1 2 3 4 5 6 
#
# 1 45.3476 15.3299 40.8309 0.0000 -5.4461 0.0000
# 2 15.3299 21.0018 31.8647 0.0000 0.5642 0.0000
# 3 40.8309 31.8647 161.3383 0.0000 -14.5674 0.0000
# 4 0.0000 0.0000 0.0000 29.6800 0.0000 -2.9756
# 5 -5.4461 0.5642 -14.5674 0.0000 31.3143 0.0000
# 6 0.0000 0.0000 0.0000 -2.9756 0.0000 18.8373
#
#
#
# Elastic Compliance Matrix: (Units=1/GPa)
#
#
# Indices 1 2 3 4 5 6 
#
# 1 0.032242 -0.016821 -0.004493 0.000000 0.003821 0.000000
# 2 -0.016821 0.078639 -0.012178 0.000000 -0.010007 0.000000
# 3 -0.004493 -0.012178 0.010114 0.000000 0.004143 0.000000
# 4 0.000000 0.000000 0.000000 0.034235 0.000000 0.005408
# 5 0.003821 -0.010007 0.004143 0.000000 0.034707 0.000000
# 6 0.000000 0.000000 0.000000 0.005408 0.000000 0.053941
#
#
# Mechanical properties :
#
#
# Convention : Reuss Voigt Hill
#
# Bulk Modulus (GPa) = 18.51430 44.85989 31.68709
# Shear Modulus (GPa) = 15.20382 25.27710 20.24046
#
# Velocity S-wave (km/s) = 2.83701 3.65804 3.27337
# Velocity P-wave (km/s) = 4.53130 6.44900 5.57325
#
# Compressibility (1/GPa) = 0.05401231
#
# Stress axis : x y z
#
# Youngs Moduli (GPa) = 31.01519 12.71638 98.86884
#
# Poissons Ratio (x) = 0.21390 0.44418
# Poissons Ratio (y) = 0.52171 1.20402
# Poissons Ratio (z) = 0.13934 0.15486
#
# Static dielectric constant tensor:
#      x y z
#    x 1.676820 0.000000 -0.030360 
#    y 0.000000 1.671050 0.000000 
#    z -0.030360 0.000000 1.676850 
# 
# From -- ./inp_files/243919.got.cif
#   From: 2010.05.17/outbox.cif.g08.bks.cpg/sg12_122_cif.got.tgz:243919.got - 2010.06.03 13:09:07.
