data_PCOD9173976
_publ_section_title
;
Structure prediction by ZEFSAII (Michael W. Deem and Ramdas Pophale) SiO2 
 PCOD9173976
Probable space group: C 2/M
;
_chemical_formula_sum "Si O2"
_cell_formula_units_Z 48
_cell_length_a 11.898370
_cell_length_b 17.947657
_cell_length_c 21.852970
_cell_angle_alpha 90.000000
_cell_angle_beta 28.094562
_cell_angle_gamma 90.000000
_cell_volume 2197.659259
_symmetry_space_group_name_H-M "C 2/M"
_symmetry_group_IT_number 12
_symmetry_cell_setting 'monoclinic'
loop_
_space_group_symop_operation_xyz
x,y,z
-x,y,-z
-x,-y,-z
x,-y,z
1/2+x,1/2+y,z
1/2-x,1/2+y,-z
1/2-x,1/2-y,-z
1/2+x,1/2-y,z
loop_
_atom_site_type_symbol
_atom_site_label
_atom_site_fract_x
_atom_site_fract_y
_atom_site_fract_z
Si Si1 0.438704 0.233348 0.594532
Si Si2 0.229868 0.078487 0.432156
Si Si3 0.820295 0.656570 0.826451
Si Si4 0.593707 0.679783 0.170946
Si Si5 0.877006 0.089205 0.963106
Si Si6 0.091828 0.856009 0.616262
O O1 0.500000 0.270913 0.500000
O O2 0.637604 0.169250 0.499636
O O3 0.477046 0.287752 0.632989
O O4 0.171410 0.204794 0.722171
O O5 0.423587 0.142841 0.327454
O O6 0.123556 0.081487 0.551105
O O7 0.000000 0.079063 0.500000
O O8 0.362103 0.000000 0.359442
O O9 0.786918 0.742306 0.864444
O O10 0.617675 0.625734 0.877656
O O11 0.811181 0.607965 0.892981
O O12 0.689402 0.632527 0.067706
O O13 0.552964 0.632152 0.252274
O O14 0.903901 0.000000 0.941794
#
# Coordination Sequence:
#
# PCOD9173976 Si02
#       6
#     8   8   8   8   8   8
#     4   9  17  30  51  81 113 147 187 235 287 342
#     4  11  22  35  56  84 115 155 200 245 296 354
#     4  11  22  40  63  86 114 155 207 249 284 345
#     4  11  21  34  59  89 115 148 196 248 296 349
#     4  11  24  42  62  86 120 160 199 245 299 351
#     4  10  18  31  51  80 119 151 180 234 299 351
#
# _framework density 21.841421
#
# number of rings (size 3 to 8) (size 9 to 14) (size 15 to 20)
#    0.000    1.500    0.000    9.000    0.000    0.667 
#    0.000    0.000    0.000    5.000    0.000   12.833 
#    0.000    0.000    0.000    0.000    0.000    0.000 
#
# Total GULP energy -133938.161831 kJ/mol
# GULP energy per Si atom -5580.756743 kJ/mol
# Density = 2.179171 g / cm^3
# Si number density = 21.841421 Si / 1000 Ang^3
#
#
#
# Elastic Constant Matrix: (Units=GPa)
#
#
# Indices 1 2 3 4 5 6 
#
# 1 88.9546 40.4045 29.8160 -0.0092 33.2360 0.0059
# 2 40.4045 124.7433 20.9330 -0.0020 22.6512 -0.0076
# 3 29.8160 20.9330 55.4291 -0.0202 32.7697 -0.0218
# 4 -0.0092 -0.0020 -0.0202 27.2349 0.0151 10.6577
# 5 33.2360 22.6512 32.7697 0.0151 41.3653 0.0069
# 6 0.0059 -0.0076 -0.0218 10.6577 0.0069 19.4348
#
#
#
# Elastic Compliance Matrix: (Units=1/GPa)
#
#
# Indices 1 2 3 4 5 6 
#
# 1 0.017368 -0.003387 -0.001711 0.000015 -0.010744 -0.000013
# 2 -0.003387 0.009586 -0.000571 -0.000002 -0.002075 0.000006
# 3 -0.001711 -0.000571 0.034195 0.000026 -0.025401 0.000034
# 4 0.000015 -0.000002 0.000026 0.046750 -0.000044 -0.025637
# 5 -0.010744 -0.002075 -0.025401 -0.000044 0.054067 -0.000021
# 6 -0.000013 0.000006 0.000034 -0.025637 -0.000021 0.065513
#
#
# Mechanical properties :
#
#
# Convention : Reuss Voigt Hill
#
# Bulk Modulus (GPa) = 20.07672 50.15936 35.11804
# Shear Modulus (GPa) = 19.57542 29.47190 24.52366
#
# Velocity S-wave (km/s) = 2.99699 3.67735 3.35446
# Velocity P-wave (km/s) = 4.60304 6.40668 5.57824
#
# Compressibility (1/GPa) = 0.04980894
#
# Stress axis : x y z
#
# Youngs Moduli (GPa) = 57.57598 104.31520 29.24436
#
# Poissons Ratio (x) = 0.35336 0.05004
# Poissons Ratio (y) = 0.19504 0.01671
# Poissons Ratio (z) = 0.09853 0.05961
#
# Static dielectric constant tensor:
#      x y z
#    x 1.834690 0.000020 0.021130 
#    y 0.000020 1.849040 0.000010 
#    z 0.021130 0.000010 1.795190 
# 
# From -- ./inp_files/306726.got.cif
#   From: 2010.05.17/outbox.cif.g08.bks.cpg/sg12_154_cif.got.tgz:306726.got - 2010.06.03 13:09:07.
