data_PCOD9173105
_publ_section_title
;
Structure prediction by ZEFSAII (Michael W. Deem and Ramdas Pophale) SiO2 
 PCOD9173105
Probable space group: C 2/M
;
_chemical_formula_sum "Si O2"
_cell_formula_units_Z 64
_cell_length_a 23.851641
_cell_length_b 19.702391
_cell_length_c 9.094714
_cell_angle_alpha 90.000000
_cell_angle_beta 67.660862
_cell_angle_gamma 90.000000
_cell_volume 3953.162273
_symmetry_space_group_name_H-M "C 2/M"
_symmetry_group_IT_number 12
_symmetry_cell_setting 'monoclinic'
loop_
_space_group_symop_operation_xyz
x,y,z
-x,y,-z
-x,-y,-z
x,-y,z
1/2+x,1/2+y,z
1/2-x,1/2+y,-z
1/2-x,1/2-y,-z
1/2+x,1/2-y,z
loop_
_atom_site_type_symbol
_atom_site_label
_atom_site_fract_x
_atom_site_fract_y
_atom_site_fract_z
Si Si1 0.255975 0.421354 0.393695
Si Si2 0.329050 0.718593 0.807892
Si Si3 0.127468 0.424657 0.688647
Si Si4 0.425688 0.782684 0.235019
Si Si5 0.689270 0.293911 0.518250
Si Si6 0.063069 0.284043 0.128514
Si Si7 0.740320 0.138207 0.085951
Si Si8 0.126934 0.423873 0.041326
O O1 0.273875 0.500000 0.384012
O O2 0.189698 0.415691 0.536688
O O3 0.298993 0.369083 0.434197
O O4 0.253187 0.396081 0.228754
O O5 0.323932 0.703149 0.641431
O O6 0.393359 0.738545 0.814451
O O7 0.291045 0.788561 0.859932
O O8 0.298453 0.658007 0.931139
O O9 0.103111 0.500000 0.678424
O O10 0.085077 0.360554 0.704748
O O11 0.137423 0.421952 0.854913
O O12 0.369189 0.740504 0.350698
O O13 0.493057 0.765974 0.221836
O O14 0.424603 0.775574 0.058731
O O15 0.750000 0.250000 0.500000
O O16 0.081006 0.363662 0.133271
O O17 0.691275 0.092786 0.050416
O O18 0.106250 0.500000 0.100297
#
# Coordination Sequence:
#
# PCOD9173105 Si02
#       8
#     8   8   8   8   8   8   8   8
#     4  11  21  33  50  78 109 139 174 218 276 328
#     4  10  20  32  52  78 102 135 180 224 269 309
#     4   9  17  29  47  72 106 144 180 218 256 308
#     4  10  19  34  52  75 107 144 186 222 266 319
#     4  12  21  34  56  80 103 140 179 226 275 316
#     4   9  20  33  50  75 107 144 183 224 263 318
#     4  10  18  30  50  74 104 137 173 225 266 312
#     4   9  17  29  46  71 106 146 182 215 256 311
#
# _framework density 16.189571000000001
#
# number of rings (size 3 to 8) (size 9 to 14) (size 15 to 20)
#    0.000    2.000    2.500    1.875    3.500    1.000 
#    0.000    3.125    0.000    0.000    0.000   16.625 
#    0.000    0.000    0.000    0.000    0.000    0.000 
#
# Total GULP energy -178334.264354 kJ/mol
# GULP energy per Si atom -5572.945761 kJ/mol
# Density = 1.615272 g / cm^3
# Si number density = 16.189571 Si / 1000 Ang^3
#
#
#
# Elastic Constant Matrix: (Units=GPa)
#
#
# Indices 1 2 3 4 5 6 
#
# 1 116.8944 50.6345 48.3732 0.0000 -4.8803 0.0000
# 2 50.6345 58.5343 27.1699 0.0000 -2.4140 0.0000
# 3 48.3732 27.1699 56.3621 0.0000 -10.8221 0.0000
# 4 0.0000 0.0000 0.0000 24.0191 0.0000 1.9313
# 5 -4.8803 -2.4140 -10.8221 0.0000 19.7841 0.0000
# 6 0.0000 0.0000 0.0000 1.9313 0.0000 10.8224
#
#
#
# Elastic Compliance Matrix: (Units=1/GPa)
#
#
# Indices 1 2 3 4 5 6 
#
# 1 0.017084 -0.010107 -0.010300 0.000000 -0.002653 0.000000
# 2 -0.010107 0.028205 -0.005296 0.000000 -0.001949 0.000000
# 3 -0.010300 -0.005296 0.031871 0.000000 0.014247 0.000000
# 4 0.000000 0.000000 0.000000 0.042240 0.000000 -0.007538
# 5 -0.002653 -0.001949 0.014247 0.000000 0.057447 0.000000
# 6 0.000000 0.000000 0.000000 -0.007538 0.000000 0.093746
#
#
# Mechanical properties :
#
#
# Convention : Reuss Voigt Hill
#
# Bulk Modulus (GPa) = 38.82904 53.79397 46.31150
# Shear Modulus (GPa) = 15.12477 17.96599 16.54538
#
# Velocity S-wave (km/s) = 3.05983 3.33487 3.20031
# Velocity P-wave (km/s) = 6.04314 6.93745 6.50568
#
# Compressibility (1/GPa) = 0.02575392
#
# Stress axis : x y z
#
# Youngs Moduli (GPa) = 58.53318 35.45471 31.37649
#
# Poissons Ratio (x) = 0.35834 0.32318
# Poissons Ratio (y) = 0.59160 0.16617
# Poissons Ratio (z) = 0.60289 0.18777
#
# Static dielectric constant tensor:
#      x y z
#    x 1.531510 0.000000 0.003330 
#    y 0.000000 1.545360 0.000000 
#    z 0.003330 0.000000 1.554970 
# 
# From -- ./inp_files/89559.got.cif
#   From: 2010.05.17/outbox.cif.g08.bks.cpg/sg12_45_cif.got.tgz:89559.got - 2010.06.03 13:09:07.
