data_PCOD9173426
_publ_section_title
;
Structure prediction by ZEFSAII (Michael W. Deem and Ramdas Pophale) SiO2 
 PCOD9173426
Probable space group: C 2/M
;
_chemical_formula_sum "Si O2"
_cell_formula_units_Z 50
_cell_length_a 10.784655
_cell_length_b 30.949063
_cell_length_c 7.598508
_cell_angle_alpha 90.000000
_cell_angle_beta 113.208093
_cell_angle_gamma 90.000000
_cell_volume 2330.962324
_symmetry_space_group_name_H-M "C 2/M"
_symmetry_group_IT_number 12
_symmetry_cell_setting 'monoclinic'
loop_
_space_group_symop_operation_xyz
x,y,z
-x,y,-z
-x,-y,-z
x,-y,z
1/2+x,1/2+y,z
1/2-x,1/2+y,-z
1/2-x,1/2-y,-z
1/2+x,1/2-y,z
loop_
_atom_site_type_symbol
_atom_site_label
_atom_site_fract_x
_atom_site_fract_y
_atom_site_fract_z
Si Si1 0.768733 0.377556 0.846564
Si Si2 0.527575 0.387261 0.310851
Si Si3 0.611539 0.849443 0.743924
Si Si4 0.373740 0.699183 0.797181
Si Si5 0.802641 0.579406 0.486301
Si Si6 0.392254 0.203978 0.779378
Si Si7 0.500000 0.000000 0.500000
O O1 0.623356 0.389347 0.850313
O O2 0.800755 0.406561 0.692453
O O3 0.773652 0.328123 0.775135
O O4 0.874655 0.376820 0.065971
O O5 0.500000 0.391877 0.500000
O O6 0.588458 0.339826 0.311101
O O7 0.645256 0.421401 0.335465
O O8 0.736113 0.815783 0.812631
O O9 0.637655 0.882840 0.603188
O O10 0.476314 0.821284 0.678926
O O11 0.355538 0.747266 0.713105
O O12 0.500000 0.700367 0.000000
O O13 0.891384 0.537711 0.502191
O O14 0.500000 0.206502 0.000000
#
# Coordination Sequence:
#
# PCOD9173426 Si02
#       7
#     8   8   8   8   8   8   2
#     4  10  19  38  60  83 122 160 189 245 289 332
#     4   9  19  36  54  83 116 150 200 235 284 350
#     4  10  20  37  58  84 122 158 203 241 280 349
#     4  10  18  30  52  82 114 166 207 241 285 312
#     4  10  23  40  64  88 107 152 191 232 309 367
#     4   9  20  29  50  83 116 161 210 241 277 325
#     4  12  24  48  72  86 124 140 172 254 308 360
#
# _framework density 21.450368000000001
#
# number of rings (size 3 to 8) (size 9 to 14) (size 15 to 20)
#    0.000    2.240    1.600    0.960    2.240    1.920 
#    2.880    7.600    0.000    0.960    0.000    0.000 
#    0.000    0.000    0.000    0.000    0.000    0.000 
#
# Total GULP energy -139190.402890 kJ/mol
# GULP energy per Si atom -5567.616116 kJ/mol
# Density = 2.140155 g / cm^3
# Si number density = 21.450368 Si / 1000 Ang^3
#
#
#
# Elastic Constant Matrix: (Units=GPa)
#
#
# Indices 1 2 3 4 5 6 
#
# 1 150.9972 71.4051 24.3265 0.0000 -1.7130 0.0000
# 2 71.4051 144.4205 29.3136 0.0000 -2.8689 0.0000
# 3 24.3265 29.3136 59.8107 0.0000 -4.0540 0.0000
# 4 0.0000 0.0000 0.0000 -3.5878 0.0000 0.7996
# 5 -1.7130 -2.8689 -4.0540 0.0000 30.8467 0.0000
# 6 0.0000 0.0000 0.0000 0.7996 0.0000 31.2031
#
#
#
# Elastic Compliance Matrix: (Units=1/GPa)
#
#
# Indices 1 2 3 4 5 6 
#
# 1 0.008780 -0.004016 -0.001609 0.000000 -0.000097 0.000000
# 2 -0.004016 0.009528 -0.003018 0.000000 0.000266 0.000000
# 3 -0.001609 -0.003018 0.018997 0.000000 0.002127 0.000000
# 4 0.000000 0.000000 0.000000 -0.277140 0.000000 0.007102
# 5 -0.000097 0.000266 0.002127 0.000000 0.032717 0.000000
# 6 0.000000 0.000000 0.000000 0.007102 0.000000 0.031866
#
#
# Mechanical properties :
#
#
# Convention : Reuss Voigt Hill
#
# Bulk Modulus (GPa) = 49.95532 67.25763 58.60647
# Shear Modulus (GPa) = -33.04882 27.03795 -3.00543
#
# Velocity S-wave (km/s) = -3.92945 3.55419 -1.18497
# Velocity P-wave (km/s) = 1.65890 6.94738 5.05064
#
# Compressibility (1/GPa) = 0.02001789
#
# Stress axis : x y z
#
# Youngs Moduli (GPa) = 113.89372 104.95468 52.63924
#
# Poissons Ratio (x) = 0.42154 0.08471
# Poissons Ratio (y) = 0.45744 0.15887
# Poissons Ratio (z) = 0.18328 0.31676
#
# Static dielectric constant tensor:
#      x y z
#    x 1.869150 0.000000 0.061100 
#    y 0.000000 1.721310 0.000000 
#    z 0.061100 0.000000 1.930830 
# 
# From -- ./inp_files/52703.got.cif
#   From: 2010.05.17/outbox.cif.g08.bks.cpg/sg12_27_cif.got.tgz:52703.got - 2010.06.03 13:09:07.
