data_PCOD9173760
_publ_section_title
;
Structure prediction by ZEFSAII (Michael W. Deem and Ramdas Pophale) SiO2 
 PCOD9173760
Probable space group: C 2/M
;
_chemical_formula_sum "Si O2"
_cell_formula_units_Z 64
_cell_length_a 25.021094
_cell_length_b 17.864580
_cell_length_c 11.624875
_cell_angle_alpha 90.000000
_cell_angle_beta 128.133552
_cell_angle_gamma 90.000000
_cell_volume 4087.207981
_symmetry_space_group_name_H-M "C 2/M"
_symmetry_group_IT_number 12
_symmetry_cell_setting 'monoclinic'
loop_
_space_group_symop_operation_xyz
x,y,z
-x,y,-z
-x,-y,-z
x,-y,z
1/2+x,1/2+y,z
1/2-x,1/2+y,-z
1/2-x,1/2-y,-z
1/2+x,1/2-y,z
loop_
_atom_site_type_symbol
_atom_site_label
_atom_site_fract_x
_atom_site_fract_y
_atom_site_fract_z
Si Si1 0.342246 0.086799 0.621841
Si Si2 0.303679 0.808614 0.360708
Si Si3 0.218661 0.336668 0.235004
Si Si4 0.332979 0.586823 0.237228
Si Si5 0.499235 0.086745 0.130127
Si Si6 0.730930 0.086446 0.893922
Si Si7 0.380720 0.165561 0.107013
Si Si8 0.080030 0.231332 0.630535
O O1 0.314228 0.137631 0.482342
O O2 0.319151 0.120693 0.713137
O O3 0.423896 0.088816 0.724293
O O4 0.320916 0.000000 0.584528
O O5 0.256964 0.737649 0.327576
O O6 0.270209 0.856579 0.213219
O O7 0.374520 0.775622 0.403763
O O8 0.275364 0.390432 0.253387
O O9 0.167227 0.313764 0.064327
O O10 0.352062 0.500000 0.274222
O O11 0.393410 0.646011 0.331562
O O12 0.294903 0.597299 0.063881
O O13 0.448373 0.130589 0.143928
O O14 0.476106 0.000000 0.093807
O O15 0.500000 0.115763 0.000000
O O16 0.663855 0.105887 0.879703
O O17 0.728961 0.000000 0.854365
O O18 0.399629 0.231088 0.220590
O O19 0.000000 0.237382 0.500000
#
# Coordination Sequence:
#
# PCOD9173760 Si02
#       8
#     8   8   8   8   8   8   8   8
#     4  11  21  32  48  69  96 127 159 192 229 273
#     4  10  20  33  47  69  98 125 155 191 232 280
#     4  10  19  32  50  70  93 123 158 195 235 272
#     4   9  18  32  51  73  93 117 156 199 236 275
#     4  10  19  30  45  68  96 123 154 189 223 266
#     4   9  17  30  50  72  96 124 153 188 232 278
#     4  10  18  31  50  71  96 125 156 190 228 273
#     4  10  20  33  49  69  96 126 154 190 236 281
#
# _framework density 15.658611000000001
#
# number of rings (size 3 to 8) (size 9 to 14) (size 15 to 20)
#    0.000    2.125    1.250    3.000    0.000    4.250 
#    0.000    0.000    0.000    6.000    0.000    0.000 
#    0.000    0.500    0.000    1.750    0.000    0.000 
#
# Total GULP energy -178453.318779 kJ/mol
# GULP energy per Si atom -5576.666212 kJ/mol
# Density = 1.562297 g / cm^3
# Si number density = 15.658611 Si / 1000 Ang^3
#
#
#
# Elastic Constant Matrix: (Units=GPa)
#
#
# Indices 1 2 3 4 5 6 
#
# 1 57.3453 29.3978 23.8739 0.0000 3.5086 0.0000
# 2 29.3978 99.7166 44.6014 0.0000 3.3565 0.0000
# 3 23.8739 44.6014 64.1362 0.0000 -1.9461 0.0000
# 4 0.0000 0.0000 0.0000 26.5507 0.0000 -2.8594
# 5 3.5086 3.3565 -1.9461 0.0000 22.7591 0.0000
# 6 0.0000 0.0000 0.0000 -2.8594 0.0000 14.9010
#
#
#
# Elastic Compliance Matrix: (Units=1/GPa)
#
#
# Indices 1 2 3 4 5 6 
#
# 1 0.021943 -0.003861 -0.005583 0.000000 -0.003291 0.000000
# 2 -0.003861 0.015446 -0.009379 0.000000 -0.002485 0.000000
# 3 -0.005583 -0.009379 0.024324 0.000000 0.004324 0.000000
# 4 0.000000 0.000000 0.000000 0.038459 0.000000 0.007380
# 5 -0.003291 -0.002485 0.004324 0.000000 0.045182 0.000000
# 6 0.000000 0.000000 0.000000 0.007380 0.000000 0.068526
#
#
# Mechanical properties :
#
#
# Convention : Reuss Voigt Hill
#
# Bulk Modulus (GPa) = 41.55255 46.32715 43.93985
# Shear Modulus (GPa) = 19.26432 21.06381 20.16407
#
# Velocity S-wave (km/s) = 3.51133 3.67166 3.59239
# Velocity P-wave (km/s) = 6.55998 6.90107 6.73269
#
# Compressibility (1/GPa) = 0.02406591
#
# Stress axis : x y z
#
# Youngs Moduli (GPa) = 45.57213 64.74351 41.11246
#
# Poissons Ratio (x) = 0.25000 0.22952
# Poissons Ratio (y) = 0.17597 0.38560
# Poissons Ratio (z) = 0.25442 0.60724
#
# Static dielectric constant tensor:
#      x y z
#    x 1.500530 0.000000 -0.005640 
#    y 0.000000 1.508570 0.000000 
#    z -0.005640 0.000000 1.520510 
# 
# From -- ./inp_files/167305.got.cif
#   From: 2010.05.17/outbox.cif.g08.bks.cpg/sg12_84_cif.got.tgz:167305.got - 2010.06.03 13:09:07.
