data_PCOD9173499
_publ_section_title
;
Structure prediction by ZEFSAII (Michael W. Deem and Ramdas Pophale) SiO2 
 PCOD9173499
Probable space group: C 2/M
;
_chemical_formula_sum "Si O2"
_cell_formula_units_Z 40
_cell_length_a 13.353392
_cell_length_b 18.265358
_cell_length_c 9.596190
_cell_angle_alpha 90.000000
_cell_angle_beta 128.301378
_cell_angle_gamma 90.000000
_cell_volume 1836.776414
_symmetry_space_group_name_H-M "C 2/M"
_symmetry_group_IT_number 12
_symmetry_cell_setting 'monoclinic'
loop_
_space_group_symop_operation_xyz
x,y,z
-x,y,-z
-x,-y,-z
x,-y,z
1/2+x,1/2+y,z
1/2-x,1/2+y,-z
1/2-x,1/2-y,-z
1/2+x,1/2-y,z
loop_
_atom_site_type_symbol
_atom_site_label
_atom_site_fract_x
_atom_site_fract_y
_atom_site_fract_z
Si Si1 0.406356 0.160844 0.808668
Si Si2 0.339061 0.416959 0.524532
Si Si3 0.395424 0.742953 0.554071
Si Si4 0.741926 0.225708 0.835993
Si Si5 0.149083 0.919652 0.138398
O O1 0.289334 0.107536 0.666373
O O2 0.461967 0.198226 0.714602
O O3 0.353179 0.229361 0.852881
O O4 0.500000 0.123261 0.000000
O O5 0.381324 0.500000 0.520759
O O6 0.428394 0.343847 0.591432
O O7 0.313107 0.420619 0.667102
O O8 0.250000 0.750000 0.500000
O O9 0.373664 0.760183 0.371970
O O10 0.767719 0.140353 0.861679
O O11 0.750000 0.250000 0.000000
O O12 0.162965 0.000000 0.088820
O O13 0.000000 0.900098 0.000000
#
# Coordination Sequence:
#
# PCOD9173499 Si02
#       5
#     8   8   8   8   8
#     4  10  18  32  53  71  99 136 178 220 249 312
#     4   9  16  29  50  74  99 127 170 219 257 300
#     4   8  15  30  46  69  97 126 172 209 251 304
#     4  10  18  32  50  75 106 135 168 213 275 312
#     4  10  18  30  54  81 103 135 180 219 261 318
#
# _framework density 21.777283000000001
#
# number of rings (size 3 to 8) (size 9 to 14) (size 15 to 20)
#    0.000    3.000    6.000    0.600    0.000    0.400 
#    0.000    5.000    0.000    0.000    0.000   19.600 
#    0.000    0.000    0.000    0.000    0.000    0.000 
#
# Total GULP energy -111359.253218 kJ/mol
# GULP energy per Si atom -5567.962661 kJ/mol
# Density = 2.172772 g / cm^3
# Si number density = 21.777283 Si / 1000 Ang^3
#
#
#
# Elastic Constant Matrix: (Units=GPa)
#
#
# Indices 1 2 3 4 5 6 
#
# 1 23.5167 16.9372 33.8728 0.0000 -15.7592 0.0000
# 2 16.9372 121.5169 32.0146 0.0000 -5.8525 0.0000
# 3 33.8728 32.0146 163.7075 0.0000 -14.2245 0.0000
# 4 0.0000 0.0000 0.0000 21.2098 0.0000 -6.4151
# 5 -15.7592 -5.8525 -14.2245 0.0000 45.6400 0.0000
# 6 0.0000 0.0000 0.0000 -6.4151 0.0000 11.8152
#
#
#
# Elastic Compliance Matrix: (Units=1/GPa)
#
#
# Indices 1 2 3 4 5 6 
#
# 1 0.083080 -0.006808 -0.013816 0.000000 0.023508 0.000000
# 2 -0.006808 0.009250 -0.000516 0.000000 -0.001325 0.000000
# 3 -0.013816 -0.000516 0.008888 0.000000 -0.002067 0.000000
# 4 0.000000 0.000000 0.000000 0.056412 0.000000 0.030629
# 5 0.023508 -0.001325 -0.002067 0.000000 0.029214 0.000000
# 6 0.000000 0.000000 0.000000 0.030629 0.000000 0.101267
#
#
# Mechanical properties :
#
#
# Convention : Reuss Voigt Hill
#
# Bulk Modulus (GPa) = 16.96647 52.71001 34.83824
# Shear Modulus (GPa) = 14.28422 30.79409 22.53915
#
# Velocity S-wave (km/s) = 2.56388 3.76446 3.22061
# Velocity P-wave (km/s) = 4.07093 6.56898 5.46461
#
# Compressibility (1/GPa) = 0.05893978
#
# Stress axis : x y z
#
# Youngs Moduli (GPa) = 12.03662 108.10624 112.50591
#
# Poissons Ratio (x) = 0.73594 1.55440
# Poissons Ratio (y) = 0.08194 0.05800
# Poissons Ratio (z) = 0.16630 0.05573
#
# Static dielectric constant tensor:
#      x y z
#    x 2.022490 0.000000 0.115990 
#    y 0.000000 1.807930 0.000000 
#    z 0.115990 0.000000 1.888600 
# 
# From -- ./inp_files/75512.got.cif
#   From: 2010.05.17/outbox.cif.g08.bks.cpg/sg12_38_cif.got.tgz:75512.got - 2010.06.03 13:09:07.
