data_PCOD9173440
_publ_section_title
;
Structure prediction by ZEFSAII (Michael W. Deem and Ramdas Pophale) SiO2 
 PCOD9173440
Probable space group: C 2/M
;
_chemical_formula_sum "Si O2"
_cell_formula_units_Z 40
_cell_length_a 23.372611
_cell_length_b 11.067278
_cell_length_c 7.191821
_cell_angle_alpha 90.000000
_cell_angle_beta 66.638140
_cell_angle_gamma 90.000000
_cell_volume 1707.805826
_symmetry_space_group_name_H-M "C 2/M"
_symmetry_group_IT_number 12
_symmetry_cell_setting 'monoclinic'
loop_
_space_group_symop_operation_xyz
x,y,z
-x,y,-z
-x,-y,-z
x,-y,z
1/2+x,1/2+y,z
1/2-x,1/2+y,-z
1/2-x,1/2-y,-z
1/2+x,1/2-y,z
loop_
_atom_site_type_symbol
_atom_site_label
_atom_site_fract_x
_atom_site_fract_y
_atom_site_fract_z
Si Si1 0.708885 0.359800 0.817614
Si Si2 0.801963 0.860539 0.725931
Si Si3 0.097377 0.202001 0.688957
Si Si4 0.494171 0.128819 0.730200
Si Si5 0.527811 0.623517 0.253177
O O1 0.728452 0.500000 0.749530
O O2 0.757680 0.250286 0.718612
O O3 0.648405 0.327344 0.775479
O O4 0.696199 0.356060 0.054113
O O5 0.868135 0.831371 0.547859
O O6 0.784055 0.000000 0.697524
O O7 0.062472 0.331699 0.718021
O O8 0.035865 0.121649 0.783448
O O9 0.500000 0.121283 0.500000
O O10 0.448670 0.242433 0.823306
O O11 0.473330 0.000000 0.828831
O O12 0.500000 0.626584 0.500000
O O13 0.564808 0.500000 0.182691
#
# Coordination Sequence:
#
# PCOD9173440 Si02
#       5
#     8   8   8   8   8
#     4  10  21  35  50  70  98 128 161 202 243 284
#     4  10  21  35  50  70  98 128 161 202 243 284
#     4  10  18  30  53  73  94 128 161 195 236 287
#     4   8  16  29  47  74 102 127 159 197 237 283
#     4   8  14  25  45  71  96 124 155 190 237 285
#
# _framework density 23.421866000000001
#
# number of rings (size 3 to 8) (size 9 to 14) (size 15 to 20)
#    1.200    1.600    0.000    2.400    0.000    1.600 
#    0.000    0.000    0.000    4.800    0.000   16.800 
#    0.000    0.000    0.000    0.000    0.000    0.000 
#
# Total GULP energy -111404.492411 kJ/mol
# GULP energy per Si atom -5570.224621 kJ/mol
# Density = 2.336856 g / cm^3
# Si number density = 23.421866 Si / 1000 Ang^3
#
#
#
# Elastic Constant Matrix: (Units=GPa)
#
#
# Indices 1 2 3 4 5 6 
#
# 1 77.4503 47.8574 31.6158 0.0000 11.7581 0.0000
# 2 47.8574 263.1460 19.0668 0.0000 0.8406 0.0000
# 3 31.6158 19.0668 78.2407 0.0000 -0.6585 0.0000
# 4 0.0000 0.0000 0.0000 67.0839 0.0000 29.3290
# 5 11.7581 0.8406 -0.6585 0.0000 42.0348 0.0000
# 6 0.0000 0.0000 0.0000 29.3290 0.0000 42.6298
#
#
#
# Elastic Compliance Matrix: (Units=1/GPa)
#
#
# Indices 1 2 3 4 5 6 
#
# 1 0.018153 -0.002800 -0.006696 0.000000 -0.005127 0.000000
# 2 -0.002800 0.004301 0.000089 0.000000 0.000699 0.000000
# 3 -0.006696 0.000089 0.015483 0.000000 0.002114 0.000000
# 4 0.000000 0.000000 0.000000 0.021319 0.000000 -0.014667
# 5 -0.005127 0.000699 0.002114 0.000000 0.025243 0.000000
# 6 0.000000 0.000000 0.000000 -0.014667 0.000000 0.033549
#
#
# Mechanical properties :
#
#
# Convention : Reuss Voigt Hill
#
# Bulk Modulus (GPa) = 52.29285 68.43521 60.36403
# Shear Modulus (GPa) = 34.90725 51.70284 43.30504
#
# Velocity S-wave (km/s) = 3.86472 4.70346 4.30457
# Velocity P-wave (km/s) = 6.50305 7.66672 7.10874
#
# Compressibility (1/GPa) = 0.01912307
#
# Stress axis : x y z
#
# Youngs Moduli (GPa) = 55.08601 232.52097 64.58699
#
# Poissons Ratio (x) = 0.65104 0.43250
# Poissons Ratio (y) = 0.15424 -0.00576
# Poissons Ratio (z) = 0.36887 -0.02075
#
# Static dielectric constant tensor:
#      x y z
#    x 1.819340 0.000000 0.039140 
#    y 0.000000 1.960990 0.000000 
#    z 0.039140 0.000000 1.977590 
# 
# From -- ./inp_files/93822.got.cif
#   From: 2010.05.17/outbox.cif.g08.bks.cpg/sg12_47_cif.got.tgz:93822.got - 2010.06.03 13:09:07.
