data_PCOD9173060
_publ_section_title
;
Structure prediction by ZEFSAII (Michael W. Deem and Ramdas Pophale) SiO2 
 PCOD9173060
Probable space group: C 2/M
;
_chemical_formula_sum "Si O2"
_cell_formula_units_Z 56
_cell_length_a 19.336756
_cell_length_b 7.519205
_cell_length_c 25.821757
_cell_angle_alpha 90.000000
_cell_angle_beta 41.677148
_cell_angle_gamma 90.000000
_cell_volume 2496.427165
_symmetry_space_group_name_H-M "C 2/M"
_symmetry_group_IT_number 12
_symmetry_cell_setting 'monoclinic'
loop_
_space_group_symop_operation_xyz
x,y,z
-x,y,-z
-x,-y,-z
x,-y,z
1/2+x,1/2+y,z
1/2-x,1/2+y,-z
1/2-x,1/2-y,-z
1/2+x,1/2-y,z
loop_
_atom_site_type_symbol
_atom_site_label
_atom_site_fract_x
_atom_site_fract_y
_atom_site_fract_z
Si Si1 0.712475 0.787607 0.236911
Si Si2 0.534062 0.288205 0.253852
Si Si3 0.502912 0.701399 0.161684
Si Si4 0.870486 0.212618 0.423256
Si Si5 0.090520 0.782340 0.487225
Si Si6 0.770783 0.294131 0.315430
Si Si7 0.052112 0.782201 0.917524
O O1 0.625491 0.736587 0.244144
O O2 0.702380 0.715569 0.300992
O O3 0.827092 0.729164 0.153791
O O4 0.712691 0.000000 0.240952
O O5 0.521123 0.500000 0.253479
O O6 0.551953 0.215071 0.186009
O O7 0.429184 0.216759 0.339956
O O8 0.543124 0.500000 0.133876
O O9 0.379071 0.697576 0.244108
O O10 0.505326 0.781581 0.102781
O O11 0.750000 0.250000 0.500000
O O12 0.925128 0.276832 0.445395
O O13 0.881696 0.000000 0.415094
O O14 0.200988 0.724973 0.401508
O O15 0.000000 0.723008 0.500000
O O16 0.092000 0.000000 0.485830
O O17 0.796192 0.500000 0.310438
O O18 0.050384 0.000000 0.917229
O O19 0.000000 0.725115 0.000000
#
# Coordination Sequence:
#
# PCOD9173060 Si02
#       7
#     8   8   8   8   8   8   8
#     4  10  20  33  52  76 100 129 166 206 246 294
#     4  10  20  34  51  72 102 136 167 204 250 296
#     4   9  18  32  51  74  98 127 163 199 238 290
#     4  10  20  33  49  69  96 131 167 205 249 292
#     4   9  17  29  45  65  89 121 162 201 238 285
#     4  10  18  30  50  71  94 127 165 205 248 293
#     4   8  15  31  54  76  98 127 162 198 241 295
#
# _framework density 22.432061000000001
#
# number of rings (size 3 to 8) (size 9 to 14) (size 15 to 20)
#    0.000    2.571    0.000    3.429    0.000    3.429 
#    0.000    1.429    0.000   13.714    0.000    0.000 
#    0.000    0.000    0.000    0.000    0.000    0.000 
#
# Total GULP energy -156335.703654 kJ/mol
# GULP energy per Si atom -5583.417988 kJ/mol
# Density = 2.238100 g / cm^3
# Si number density = 22.432061 Si / 1000 Ang^3
#
#
#
# Elastic Constant Matrix: (Units=GPa)
#
#
# Indices 1 2 3 4 5 6 
#
# 1 104.9748 -3.2867 16.5407 -0.0005 28.3397 -0.0034
# 2 -3.2867 66.8058 5.4915 -0.0004 5.8317 -0.0074
# 3 16.5407 5.4915 97.0391 -0.0004 35.2052 0.0001
# 4 -0.0005 -0.0004 -0.0004 7.2641 0.0004 -1.6898
# 5 28.3397 5.8317 35.2052 0.0004 36.4821 -0.0006
# 6 -0.0034 -0.0074 0.0001 -1.6898 -0.0006 9.0741
#
#
#
# Elastic Compliance Matrix: (Units=1/GPa)
#
#
# Indices 1 2 3 4 5 6 
#
# 1 0.012473 0.001484 0.002141 0.000003 -0.011992 0.000006
# 2 0.001484 0.015357 0.000288 0.000004 -0.003886 0.000014
# 3 0.002141 0.000288 0.016224 0.000002 -0.017365 0.000000
# 4 0.000003 0.000004 0.000002 0.143896 -0.000006 0.026796
# 5 -0.011992 -0.003886 -0.017365 -0.000006 0.054104 -0.000005
# 6 0.000006 0.000014 0.000000 0.026796 -0.000005 0.115194
#
#
# Mechanical properties :
#
#
# Convention : Reuss Voigt Hill
#
# Bulk Modulus (GPa) = 19.27566 34.03453 26.65509
# Shear Modulus (GPa) = 13.63452 27.23567 20.43509
#
# Velocity S-wave (km/s) = 2.46806 3.48823 3.02151
# Velocity P-wave (km/s) = 4.09064 5.60615 4.90725
#
# Compressibility (1/GPa) = 0.05187891
#
# Stress axis : x y z
#
# Youngs Moduli (GPa) = 80.17519 65.11539 61.63791
#
# Poissons Ratio (x) = -0.09666 -0.13194
# Poissons Ratio (y) = -0.11902 -0.01772
# Poissons Ratio (z) = -0.17162 -0.01872
#
# Static dielectric constant tensor:
#      x y z
#    x 1.876770 0.000000 0.048570 
#    y 0.000000 1.824900 0.000000 
#    z 0.048570 0.000000 1.836780 
# 
# From -- ./inp_files/280318.got.cif
#   From: 2010.05.17/outbox.cif.g08.bks.cpg/sg12_141_cif.got.tgz:280318.got - 2010.06.03 13:09:07.
