data_PCOD9173199
_publ_section_title
;
Structure prediction by ZEFSAII (Michael W. Deem and Ramdas Pophale) SiO2 
 PCOD9173199
Probable space group: C 2/M
;
_chemical_formula_sum "Si O2"
_cell_formula_units_Z 64
_cell_length_a 15.239829
_cell_length_b 28.054878
_cell_length_c 8.789601
_cell_angle_alpha 90.000000
_cell_angle_beta 87.075028
_cell_angle_gamma 90.000000
_cell_volume 3753.111585
_symmetry_space_group_name_H-M "C 2/M"
_symmetry_group_IT_number 12
_symmetry_cell_setting 'monoclinic'
loop_
_space_group_symop_operation_xyz
x,y,z
-x,y,-z
-x,-y,-z
x,-y,z
1/2+x,1/2+y,z
1/2-x,1/2+y,-z
1/2-x,1/2-y,-z
1/2+x,1/2-y,z
loop_
_atom_site_type_symbol
_atom_site_label
_atom_site_fract_x
_atom_site_fract_y
_atom_site_fract_z
Si Si1 0.271850 0.141986 0.076662
Si Si2 0.422292 0.851347 0.628370
Si Si3 0.280707 0.825472 0.416815
Si Si4 0.353779 0.221885 0.861192
Si Si5 0.101907 0.554375 0.932147
Si Si6 0.489107 0.052079 0.680461
Si Si7 0.902230 0.818080 0.032349
Si Si8 0.176761 0.225460 0.672871
O O1 0.262407 0.149328 0.259063
O O2 0.327879 0.094708 0.035974
O O3 0.325083 0.186892 0.000731
O O4 0.176400 0.146273 0.006594
O O5 0.500000 0.846131 0.500000
O O6 0.334103 0.854994 0.536845
O O7 0.418049 0.807728 0.746065
O O8 0.434267 0.900668 0.717731
O O9 0.198454 0.803781 0.517621
O O10 0.342035 0.779433 0.373625
O O11 0.266947 0.229657 0.765177
O O12 0.388212 0.271031 0.927236
O O13 0.129064 0.500000 0.963383
O O14 0.082694 0.557612 0.753105
O O15 0.000000 0.560888 0.000000
O O16 0.500000 0.051319 0.500000
O O17 0.453305 0.000000 0.729004
O O18 0.888949 0.800102 0.206668
O O19 0.000000 0.836751 0.000000
#
# Coordination Sequence:
#
# PCOD9173199 Si02
#       8
#     8   8   8   8   8   8   8   8
#     4  11  19  35  54  73 102 139 178 215 265 314
#     4  10  20  28  43  74  97 132 176 210 259 314
#     4  10  18  30  51  67  98 136 175 216 257 307
#     4  10  19  33  47  67  99 138 173 216 260 307
#     4  10  21  35  55  82 108 136 172 216 263 315
#     4   9  17  31  45  65 100 132 162 205 254 309
#     4  11  22  34  50  73 103 141 180 218 262 312
#     4   9  18  35  47  66  99 135 174 218 261 299
#
# _framework density 17.052517999999999
#
# number of rings (size 3 to 8) (size 9 to 14) (size 15 to 20)
#    0.000    2.000    2.500    3.000    1.750    1.500 
#    0.000    0.625    0.000    0.375    0.000    0.000 
#    0.000    1.000    0.000    0.000    0.000    0.000 
#
# Total GULP energy -178312.813325 kJ/mol
# GULP energy per Si atom -5572.275416 kJ/mol
# Density = 1.701371 g / cm^3
# Si number density = 17.052518 Si / 1000 Ang^3
#
#
#
# Elastic Constant Matrix: (Units=GPa)
#
#
# Indices 1 2 3 4 5 6 
#
# 1 71.7625 40.9249 15.2075 0.0000 -6.8588 0.0000
# 2 40.9249 97.2428 16.1046 0.0000 6.6807 0.0000
# 3 15.2075 16.1046 80.4153 0.0000 -13.4961 0.0000
# 4 0.0000 0.0000 0.0000 13.0379 0.0000 4.4964
# 5 -6.8588 6.6807 -13.4961 0.0000 21.3867 0.0000
# 6 0.0000 0.0000 0.0000 4.4964 0.0000 24.1400
#
#
#
# Elastic Compliance Matrix: (Units=1/GPa)
#
#
# Indices 1 2 3 4 5 6 
#
# 1 0.019989 -0.008940 -0.000498 0.000000 0.008889 0.000000
# 2 -0.008940 0.015183 -0.002938 0.000000 -0.009464 0.000000
# 3 -0.000498 -0.002938 0.014814 0.000000 0.010107 0.000000
# 4 0.000000 0.000000 0.000000 0.081965 0.000000 -0.015267
# 5 0.008889 -0.009464 0.010107 0.000000 0.058943 0.000000
# 6 0.000000 0.000000 0.000000 -0.015267 0.000000 0.044269
#
#
# Mechanical properties :
#
#
# Convention : Reuss Voigt Hill
#
# Bulk Modulus (GPa) = 39.63105 43.76605 41.69855
# Shear Modulus (GPa) = 18.63405 23.52517 21.07961
#
# Velocity S-wave (km/s) = 3.30926 3.71829 3.51972
# Velocity P-wave (km/s) = 6.15570 6.64495 6.40500
#
# Compressibility (1/GPa) = 0.02523274
#
# Stress axis : x y z
#
# Youngs Moduli (GPa) = 50.02873 65.86317 67.50263
#
# Poissons Ratio (x) = 0.58885 0.03360
# Poissons Ratio (y) = 0.44728 0.19834
# Poissons Ratio (z) = 0.02490 0.19353
#
# Static dielectric constant tensor:
#      x y z
#    x 1.591040 0.000000 -0.023950 
#    y 0.000000 1.607540 0.000000 
#    z -0.023950 0.000000 1.670530 
# 
# From -- ./inp_files/67859.got.cif
#   From: 2010.05.17/outbox.cif.g08.bks.cpg/sg12_34_cif.got.tgz:67859.got - 2010.06.03 13:09:07.
