data_PCOD9173808
_publ_section_title
;
Structure prediction by ZEFSAII (Michael W. Deem and Ramdas Pophale) SiO2 
 PCOD9173808
Probable space group: C 2/M
;
_chemical_formula_sum "Si O2"
_cell_formula_units_Z 56
_cell_length_a 14.551584
_cell_length_b 25.790426
_cell_length_c 8.446943
_cell_angle_alpha 90.000000
_cell_angle_beta 97.126795
_cell_angle_gamma 90.000000
_cell_volume 3145.574483
_symmetry_space_group_name_H-M "C 2/M"
_symmetry_group_IT_number 12
_symmetry_cell_setting 'monoclinic'
loop_
_space_group_symop_operation_xyz
x,y,z
-x,y,-z
-x,-y,-z
x,-y,z
1/2+x,1/2+y,z
1/2-x,1/2+y,-z
1/2-x,1/2-y,-z
1/2+x,1/2-y,z
loop_
_atom_site_type_symbol
_atom_site_label
_atom_site_fract_x
_atom_site_fract_y
_atom_site_fract_z
Si Si1 0.332773 0.720114 0.846643
Si Si2 0.280746 0.832791 0.937456
Si Si3 0.277060 0.130097 0.585829
Si Si4 0.092579 0.823752 0.439288
Si Si5 0.638718 0.215318 0.613427
Si Si6 0.048617 0.351997 0.850021
Si Si7 0.559677 0.058405 0.352759
O O1 0.335120 0.778720 0.910463
O O2 0.408135 0.697331 0.741948
O O3 0.235978 0.719512 0.726982
O O4 0.312246 0.683770 0.992157
O O5 0.263478 0.859728 0.768271
O O6 0.347008 0.864948 0.069330
O O7 0.178759 0.137083 0.478956
O O8 0.341335 0.175797 0.525553
O O9 0.337602 0.078576 0.583192
O O10 0.114479 0.771562 0.544317
O O11 0.000000 0.845044 0.500000
O O12 0.563393 0.190282 0.714934
O O13 0.989369 0.399960 0.772305
O O14 0.000000 0.333861 0.000000
O O15 0.500000 0.058860 0.500000
O O16 0.560888 0.000000 0.288807
#
# Coordination Sequence:
#
# PCOD9173808 Si02
#       7
#     8   8   8   8   8   8   8
#     4   9  18  33  46  71 112 149 195 214 261 320
#     4  10  18  31  50  74 108 153 178 221 267 329
#     4  11  19  38  54  73 109 147 185 229 279 323
#     4  11  22  32  52  79 111 148 196 228 260 320
#     4  10  19  32  50  75 110 153 184 221 258 332
#     4  11  22  31  50  81 110 148 178 223 275 327
#     4  11  24  41  61  82 106 142 191 236 281 340
#
# _framework density 17.802790000000002
#
# number of rings (size 3 to 8) (size 9 to 14) (size 15 to 20)
#    0.000    1.571    5.714    0.857    4.000    0.286 
#    0.000    0.714    0.000    0.429    0.000    0.000 
#    0.000    1.143    0.000    0.000    0.000    0.000 
#
# Total GULP energy -156178.706768 kJ/mol
# GULP energy per Si atom -5577.810956 kJ/mol
# Density = 1.776227 g / cm^3
# Si number density = 17.802790 Si / 1000 Ang^3
#
#
#
# Elastic Constant Matrix: (Units=GPa)
#
#
# Indices 1 2 3 4 5 6 
#
# 1 73.1299 30.5138 17.9929 0.0000 -18.6071 0.0000
# 2 30.5138 57.0522 15.0585 0.0000 -2.0067 0.0000
# 3 17.9929 15.0585 74.6700 0.0000 -23.0880 0.0000
# 4 0.0000 0.0000 0.0000 8.7299 0.0000 5.6990
# 5 -18.6071 -2.0067 -23.0880 0.0000 29.4385 0.0000
# 6 0.0000 0.0000 0.0000 5.6990 0.0000 13.0055
#
#
#
# Elastic Compliance Matrix: (Units=1/GPa)
#
#
# Indices 1 2 3 4 5 6 
#
# 1 0.021688 -0.011484 0.001434 0.000000 0.014050 0.000000
# 2 -0.011484 0.024703 -0.005199 0.000000 -0.009652 0.000000
# 3 0.001434 -0.005199 0.018833 0.000000 0.015322 0.000000
# 4 0.000000 0.000000 0.000000 0.160447 0.000000 -0.070308
# 5 0.014050 -0.009652 0.015322 0.000000 0.054209 0.000000
# 6 0.000000 0.000000 0.000000 -0.070308 0.000000 0.107700
#
#
# Mechanical properties :
#
#
# Convention : Reuss Voigt Hill
#
# Bulk Modulus (GPa) = 28.79677 36.88694 32.84186
# Shear Modulus (GPa) = 11.63732 19.65390 15.64561
#
# Velocity S-wave (km/s) = 2.55949 3.32622 2.96772
# Velocity P-wave (km/s) = 4.99452 5.95956 5.49825
#
# Compressibility (1/GPa) = 0.03472611
#
# Stress axis : x y z
#
# Youngs Moduli (GPa) = 46.10812 40.48141 53.09887
#
# Poissons Ratio (x) = 0.46489 -0.07616
# Poissons Ratio (y) = 0.52951 0.27606
# Poissons Ratio (z) = -0.06613 0.21046
#
# Static dielectric constant tensor:
#      x y z
#    x 1.679060 0.000000 -0.003720 
#    y 0.000000 1.585910 0.000000 
#    z -0.003720 0.000000 1.663550 
# 
# From -- ./inp_files/64101.got.cif
#   From: 2010.05.17/outbox.cif.g08.bks.cpg/sg12_33_cif.got.tgz:64101.got - 2010.06.03 13:09:07.
