data_PCOD9173238
_publ_section_title
;
Structure prediction by ZEFSAII (Michael W. Deem and Ramdas Pophale) SiO2 
 PCOD9173238
Probable space group: C 2/M
;
_chemical_formula_sum "Si O2"
_cell_formula_units_Z 64
_cell_length_a 20.447872
_cell_length_b 7.426030
_cell_length_c 24.066701
_cell_angle_alpha 90.000000
_cell_angle_beta 50.598655
_cell_angle_gamma 90.000000
_cell_volume 2823.857564
_symmetry_space_group_name_H-M "C 2/M"
_symmetry_group_IT_number 12
_symmetry_cell_setting 'monoclinic'
loop_
_space_group_symop_operation_xyz
x,y,z
-x,y,-z
-x,-y,-z
x,-y,z
1/2+x,1/2+y,z
1/2-x,1/2+y,-z
1/2-x,1/2-y,-z
1/2+x,1/2-y,z
loop_
_atom_site_type_symbol
_atom_site_label
_atom_site_fract_x
_atom_site_fract_y
_atom_site_fract_z
Si Si1 0.027909 0.790330 0.426148
Si Si2 0.981628 0.219645 0.104612
Si Si3 0.724732 0.782327 0.306293
Si Si4 0.849241 0.784270 0.947365
Si Si5 0.315685 0.284119 0.143401
Si Si6 0.654697 0.286971 0.170409
Si Si7 0.501411 0.720712 0.678503
Si Si8 0.393661 0.718474 0.270291
O O1 0.129761 0.782166 0.366470
O O2 0.987872 0.716075 0.390542
O O3 0.000000 0.709196 0.500000
O O4 0.002405 0.000000 0.441124
O O5 0.911417 0.282013 0.098392
O O6 0.943771 0.265736 0.186313
O O7 0.078707 0.282049 0.049426
O O8 0.855929 0.000000 0.945793
O O9 0.763400 0.722906 0.226152
O O10 0.796014 0.727750 0.312877
O O11 0.722282 0.000000 0.306965
O O12 0.875374 0.715784 0.872260
O O13 0.017756 0.000000 0.899338
O O14 0.750000 0.750000 0.000000
O O15 0.319508 0.500000 0.142978
O O16 0.253966 0.241310 0.126220
O O17 0.641881 0.500000 0.175473
O O18 0.592848 0.219894 0.251658
O O19 0.503705 0.500000 0.675926
O O20 0.563749 0.777850 0.694877
O O21 0.396235 0.500000 0.269944
#
# Coordination Sequence:
#
# PCOD9173238 Si02
#       8
#     8   8   8   8   8   8   8   8
#     4  10  20  32  47  69  99 133 163 192 234 290
#     4   8  14  28  48  70  94 122 158 196 234 283
#     4   9  17  29  48  73  96 120 154 200 247 283
#     4  10  20  34  52  73  98 128 163 199 239 285
#     4   9  17  29  49  75  98 119 152 201 246 281
#     4  10  18  30  51  75  95 124 164 200 234 280
#     4   9  15  27  48  71  93 121 162 201 230 272
#     4   8  13  25  48  73  91 115 160 205 234 273
#
# _framework density 22.664034000000001
#
# number of rings (size 3 to 8) (size 9 to 14) (size 15 to 20)
#    0.000    2.875    2.500    1.500    0.000    0.750 
#    0.000    1.875    0.000    6.000    0.000    0.000 
#    0.000    0.000    0.000    0.000    0.000    0.000 
#
# Total GULP energy -178415.961429 kJ/mol
# GULP energy per Si atom -5575.498795 kJ/mol
# Density = 2.261245 g / cm^3
# Si number density = 22.664034 Si / 1000 Ang^3
#
#
#
# Elastic Constant Matrix: (Units=GPa)
#
#
# Indices 1 2 3 4 5 6 
#
# 1 156.2746 -9.8618 11.2744 -0.0012 6.6799 -0.0040
# 2 -9.8618 66.6798 -3.4716 -0.0010 5.1202 -0.0113
# 3 11.2744 -3.4716 25.2488 -0.0001 -0.9695 -0.0003
# 4 -0.0012 -0.0010 -0.0001 -0.5601 0.0003 -9.5058
# 5 6.6799 5.1202 -0.9695 0.0003 21.4360 0.0000
# 6 -0.0040 -0.0113 -0.0003 -9.5058 0.0000 12.7381
#
#
#
# Elastic Compliance Matrix: (Units=1/GPa)
#
#
# Indices 1 2 3 4 5 6 
#
# 1 0.006787 0.001040 -0.002983 -0.000005 -0.002498 -0.000001
# 2 0.001040 0.015535 0.001519 -0.000020 -0.003966 -0.000001
# 3 -0.002983 0.001519 0.041240 -0.000002 0.002432 0.000000
# 4 -0.000005 -0.000020 -0.000002 -0.130655 0.000008 -0.097501
# 5 -0.002498 -0.003966 0.002432 0.000008 0.048486 0.000002
# 6 -0.000001 -0.000001 0.000000 -0.097501 0.000002 0.005745
#
#
# Mechanical properties :
#
#
# Convention : Reuss Voigt Hill
#
# Bulk Modulus (GPa) = 15.94552 27.12057 21.53305
# Shear Modulus (GPa) = 562.42670 23.40695 292.91683
#
# Velocity S-wave (km/s) = 15.77013 3.21718 11.38084
# Velocity P-wave (km/s) = 18.40236 5.07864 13.49888
#
# Compressibility (1/GPa) = 0.06271353
#
# Stress axis : x y z
#
# Youngs Moduli (GPa) = 147.34797 64.37272 24.24817
#
# Poissons Ratio (x) = -0.06696 0.07234
# Poissons Ratio (y) = -0.15328 -0.03684
# Poissons Ratio (z) = 0.43959 -0.09779
#
# Static dielectric constant tensor:
#      x y z
#    x 1.879540 0.000000 0.009170 
#    y 0.000000 1.733810 0.000000 
#    z 0.009170 0.000000 1.849460 
# 
# From -- ./inp_files/346021.got.cif
#   From: 2010.05.17/outbox.cif.g08.bks.cpg/sg12_174_cif.got.tgz:346021.got - 2010.06.03 13:09:07.
