data_PCOD9173503
_publ_section_title
;
Structure prediction by ZEFSAII (Michael W. Deem and Ramdas Pophale) SiO2 
 PCOD9173503
Probable space group: C 2/M
;
_chemical_formula_sum "Si O2"
_cell_formula_units_Z 64
_cell_length_a 29.862518
_cell_length_b 7.506011
_cell_length_c 13.507625
_cell_angle_alpha 90.000000
_cell_angle_beta 118.283586
_cell_angle_gamma 90.000000
_cell_volume 2666.243284
_symmetry_space_group_name_H-M "C 2/M"
_symmetry_group_IT_number 12
_symmetry_cell_setting 'monoclinic'
loop_
_space_group_symop_operation_xyz
x,y,z
-x,y,-z
-x,-y,-z
x,-y,z
1/2+x,1/2+y,z
1/2-x,1/2+y,-z
1/2-x,1/2-y,-z
1/2+x,1/2-y,z
loop_
_atom_site_type_symbol
_atom_site_label
_atom_site_fract_x
_atom_site_fract_y
_atom_site_fract_z
Si Si1 0.039755 0.282324 0.234953
Si Si2 0.717549 0.300596 0.059886
Si Si3 0.647278 0.711934 0.654050
Si Si4 0.365730 0.217278 0.788182
Si Si5 0.744899 0.197648 0.297178
Si Si6 0.886030 0.794644 0.164637
Si Si7 0.962053 0.714469 0.546249
Si Si8 0.442935 0.202895 0.037870
O O1 0.037514 0.500000 0.232051
O O2 0.096786 0.235622 0.262021
O O3 0.027328 0.219255 0.332228
O O4 0.999266 0.218165 0.110385
O O5 0.729889 0.500000 0.105351
O O6 0.728795 0.182170 0.165058
O O7 0.750000 0.250000 0.000000
O O8 0.661756 0.294447 0.958401
O O9 0.656725 0.500000 0.677006
O O10 0.698540 0.780751 0.653920
O O11 0.633036 0.780335 0.750015
O O12 0.596068 0.741621 0.539963
O O13 0.307514 0.282790 0.716526
O O14 0.361174 0.000000 0.789206
O O15 0.398448 0.277330 0.919912
O O16 0.750725 0.000000 0.348667
O O17 0.926235 0.699803 0.136376
O O18 0.902302 0.000000 0.198171
O O19 0.967131 0.500000 0.552944
O O20 0.000000 0.781016 0.500000
O O21 0.448453 0.000000 0.008298
#
# Coordination Sequence:
#
# PCOD9173503 Si02
#       8
#     8   8   8   8   8   8   8   8
#     4   9  18  33  53  80 109 134 173 231 275 308
#     4  11  20  31  48  72 108 148 181 215 261 316
#     4  10  21  36  53  75 107 141 177 220 263 316
#     4   9  17  30  53  81 108 140 175 215 266 321
#     4  10  19  34  52  77 109 141 180 219 263 317
#     4  10  20  32  47  73 111 144 170 210 265 315
#     4  10  21  38  58  80 106 135 174 225 274 315
#     4  10  18  30  54  82 106 137 180 219 259 318
#
# _framework density 24.003812
#
# number of rings (size 3 to 8) (size 9 to 14) (size 15 to 20)
#    0.000    2.125    2.500    1.500    0.000    4.250 
#    0.000    1.250    0.000    3.750    0.000    0.000 
#    0.000    0.000    0.000    0.000    0.000    0.000 
#
# Total GULP energy -178485.213807 kJ/mol
# GULP energy per Si atom -5577.662931 kJ/mol
# Density = 2.394918 g / cm^3
# Si number density = 24.003812 Si / 1000 Ang^3
#
#
#
# Elastic Constant Matrix: (Units=GPa)
#
#
# Indices 1 2 3 4 5 6 
#
# 1 169.1645 5.8209 46.8534 0.0000 5.9421 0.0000
# 2 5.8209 63.1226 3.6691 0.0000 3.8121 0.0000
# 3 46.8534 3.6691 88.5692 0.0000 7.2831 0.0000
# 4 0.0000 0.0000 0.0000 6.4297 0.0000 3.9307
# 5 5.9421 3.8121 7.2831 0.0000 36.6909 0.0000
# 6 0.0000 0.0000 0.0000 3.9307 0.0000 6.3356
#
#
#
# Elastic Compliance Matrix: (Units=1/GPa)
#
#
# Indices 1 2 3 4 5 6 
#
# 1 0.006942 -0.000408 -0.003626 0.000000 -0.000362 0.000000
# 2 -0.000408 0.015991 -0.000321 0.000000 -0.001532 0.000000
# 3 -0.003626 -0.000321 0.013390 0.000000 -0.002037 0.000000
# 4 0.000000 0.000000 0.000000 0.250565 0.000000 -0.155457
# 5 -0.000362 -0.001532 -0.002037 0.000000 0.027877 0.000000
# 6 0.000000 0.000000 0.000000 -0.155457 0.000000 0.254287
#
#
# Mechanical properties :
#
#
# Convention : Reuss Voigt Hill
#
# Bulk Modulus (GPa) = 36.21327 48.17146 42.19237
# Shear Modulus (GPa) = 8.51838 27.52543 18.02191
#
# Velocity S-wave (km/s) = 1.88586 3.38999 2.74303
# Velocity P-wave (km/s) = 4.45659 5.95269 5.25812
#
# Compressibility (1/GPa) = 0.02761418
#
# Stress axis : x y z
#
# Youngs Moduli (GPa) = 144.04217 62.53548 74.68525
#
# Poissons Ratio (x) = 0.02549 0.27080
# Poissons Ratio (y) = 0.05871 0.02397
# Poissons Ratio (z) = 0.52228 0.02007
#
# Static dielectric constant tensor:
#      x y z
#    x 2.030380 0.000000 0.009000 
#    y 0.000000 1.929530 0.000000 
#    z 0.009000 0.000000 1.858270 
# 
# From -- ./inp_files/249227.got.cif
#   From: 2010.05.17/outbox.cif.g08.bks.cpg/sg12_125_cif.got.tgz:249227.got - 2010.06.03 13:09:07.
