data_PCOD9173754
_publ_section_title
;
Structure prediction by ZEFSAII (Michael W. Deem and Ramdas Pophale) SiO2 
 PCOD9173754
Probable space group: C 2/M
;
_chemical_formula_sum "Si O2"
_cell_formula_units_Z 64
_cell_length_a 20.764575
_cell_length_b 19.105838
_cell_length_c 12.564262
_cell_angle_alpha 90.000000
_cell_angle_beta 130.389523
_cell_angle_gamma 90.000000
_cell_volume 3796.517888
_symmetry_space_group_name_H-M "C 2/M"
_symmetry_group_IT_number 12
_symmetry_cell_setting 'monoclinic'
loop_
_space_group_symop_operation_xyz
x,y,z
-x,y,-z
-x,-y,-z
x,-y,z
1/2+x,1/2+y,z
1/2-x,1/2+y,-z
1/2-x,1/2-y,-z
1/2+x,1/2-y,z
loop_
_atom_site_type_symbol
_atom_site_label
_atom_site_fract_x
_atom_site_fract_y
_atom_site_fract_z
Si Si1 0.376050 0.583618 0.657081
Si Si2 0.209313 0.835007 0.076630
Si Si3 0.485184 0.679603 0.101096
Si Si4 0.028755 0.578412 0.407860
Si Si5 0.226221 0.417718 0.653984
Si Si6 0.305705 0.303010 0.171357
Si Si7 0.917231 0.846002 0.475594
Si Si8 0.516930 0.229331 0.699544
O O1 0.378272 0.500000 0.655087
O O2 0.452572 0.615736 0.807101
O O3 0.291042 0.605358 0.630214
O O4 0.390392 0.613603 0.553526
O O5 0.259273 0.878271 0.218838
O O6 0.234143 0.753654 0.119410
O O7 0.110609 0.845766 0.990899
O O8 0.221578 0.846444 0.962617
O O9 0.501980 0.739391 0.205382
O O10 0.500000 0.706962 0.000000
O O11 0.009298 0.500000 0.345214
O O12 0.129666 0.589417 0.513962
O O13 0.987314 0.646295 0.310971
O O14 0.000000 0.579270 0.500000
O O15 0.242152 0.500000 0.689892
O O16 0.339566 0.343344 0.310412
O O17 0.389854 0.258276 0.229327
O O18 0.949947 0.768849 0.549715
O O19 0.000000 0.874816 0.500000
#
# Coordination Sequence:
#
# PCOD9173754 Si02
#       8
#     8   8   8   8   8   8   8   8
#     4  10  21  35  51  71 101 138 169 209 254 291
#     4  10  18  31  50  71 100 131 164 202 245 294
#     4  10  19  33  48  71  99 128 169 203 237 292
#     4  10  19  32  53  78  99 125 161 203 253 304
#     4  10  20  33  49  73 104 131 162 206 252 299
#     4   9  18  31  51  74  99 130 160 205 255 289
#     4   9  17  33  52  73 100 132 172 209 247 297
#     4   9  17  31  52  72  99 126 157 208 251 288
#
# _framework density 16.857552999999999
#
# number of rings (size 3 to 8) (size 9 to 14) (size 15 to 20)
#    0.000    2.375    1.250    3.375    0.000    1.000 
#    2.250    2.500    0.000    0.375    0.000    0.875 
#    0.000    0.000    0.000    0.000    0.000    0.000 
#
# Total GULP energy -178217.619995 kJ/mol
# GULP energy per Si atom -5569.300625 kJ/mol
# Density = 1.681918 g / cm^3
# Si number density = 16.857553 Si / 1000 Ang^3
#
#
#
# Elastic Constant Matrix: (Units=GPa)
#
#
# Indices 1 2 3 4 5 6 
#
# 1 73.7120 14.3134 13.9060 0.0000 -6.6806 0.0000
# 2 14.3134 63.4172 10.9124 0.0000 -12.1303 0.0000
# 3 13.9060 10.9124 53.0465 0.0000 -23.0662 0.0000
# 4 0.0000 0.0000 0.0000 18.9235 0.0000 2.2896
# 5 -6.6806 -12.1303 -23.0662 0.0000 28.7875 0.0000
# 6 0.0000 0.0000 0.0000 2.2896 0.0000 17.9106
#
#
#
# Elastic Compliance Matrix: (Units=1/GPa)
#
#
# Indices 1 2 3 4 5 6 
#
# 1 0.014730 -0.002832 -0.003547 0.000000 -0.000617 0.000000
# 2 -0.002832 0.017708 0.000090 0.000000 0.006876 0.000000
# 3 -0.003547 0.000090 0.029806 0.000000 0.023097 0.000000
# 4 0.000000 0.000000 0.000000 0.053675 0.000000 -0.006862
# 5 -0.000617 0.006876 0.023097 0.000000 0.055998 0.000000
# 6 0.000000 0.000000 0.000000 -0.006862 0.000000 0.056710
#
#
# Mechanical properties :
#
#
# Convention : Reuss Voigt Hill
#
# Bulk Modulus (GPa) = 20.13534 29.82659 24.98096
# Shear Modulus (GPa) = 19.39792 23.19392 21.29592
#
# Velocity S-wave (km/s) = 3.39587 3.71331 3.55813
# Velocity P-wave (km/s) = 5.22936 6.00971 5.63306
#
# Compressibility (1/GPa) = 0.04966393
#
# Stress axis : x y z
#
# Youngs Moduli (GPa) = 67.89096 56.47281 33.55021
#
# Poissons Ratio (x) = 0.15994 0.11901
# Poissons Ratio (y) = 0.19228 -0.00301
# Poissons Ratio (z) = 0.24082 -0.00506
#
# Static dielectric constant tensor:
#      x y z
#    x 1.590200 0.000000 -0.000390 
#    y 0.000000 1.563390 0.000000 
#    z -0.000390 0.000000 1.591310 
# 
# From -- ./inp_files/168452.got.cif
#   From: 2010.05.17/outbox.cif.g08.bks.cpg/sg12_85_cif.got.tgz:168452.got - 2010.06.03 13:09:07.
