data_PCOD9173345
_publ_section_title
;
Structure prediction by ZEFSAII (Michael W. Deem and Ramdas Pophale) SiO2 
 PCOD9173345
Probable space group: C 2/M
;
_chemical_formula_sum "Si O2"
_cell_formula_units_Z 56
_cell_length_a 12.577948
_cell_length_b 31.005259
_cell_length_c 7.779470
_cell_angle_alpha 90.000000
_cell_angle_beta 122.169612
_cell_angle_gamma 90.000000
_cell_volume 2568.086502
_symmetry_space_group_name_H-M "C 2/M"
_symmetry_group_IT_number 12
_symmetry_cell_setting 'monoclinic'
loop_
_space_group_symop_operation_xyz
x,y,z
-x,y,-z
-x,-y,-z
x,-y,z
1/2+x,1/2+y,z
1/2-x,1/2+y,-z
1/2-x,1/2-y,-z
1/2+x,1/2-y,z
loop_
_atom_site_type_symbol
_atom_site_label
_atom_site_fract_x
_atom_site_fract_y
_atom_site_fract_z
Si Si1 0.860811 0.866237 0.206679
Si Si2 0.927154 0.812619 0.752441
Si Si3 0.516198 0.782123 0.222714
Si Si4 0.693286 0.170305 0.768487
Si Si5 0.120904 0.373158 0.233827
Si Si6 0.628303 0.451562 0.004001
Si Si7 0.631804 0.077998 0.584043
O O1 0.758585 0.868702 0.269024
O O2 0.999879 0.845166 0.312157
O O3 0.783559 0.836296 0.008312
O O4 0.869789 0.914119 0.135407
O O5 0.929695 0.764175 0.681824
O O6 0.786639 0.822887 0.690128
O O7 0.000000 0.814786 0.000000
O O8 0.398818 0.792063 0.247782
O O9 0.588342 0.827263 0.292124
O O10 0.500000 0.778162 0.000000
O O11 0.627079 0.124190 0.681578
O O12 0.134655 0.410120 0.386900
O O13 0.000000 0.380814 0.000000
O O14 0.633816 0.500000 0.937648
O O15 0.745660 0.444355 0.233487
O O16 0.500000 0.446593 0.000000
O O17 0.500000 0.054691 0.500000
#
# Coordination Sequence:
#
# PCOD9173345 Si02
#       7
#     8   8   8   8   8   8   8
#     4  10  18  35  59  86 120 160 208 258 317 374
#     4   9  20  29  53  84 118 164 217 262 309 371
#     4  10  18  30  51  83 119 165 214 256 313 366
#     4  10  18  34  53  79 117 160 211 258 311 369
#     4  11  20  36  57  89 123 169 210 256 321 374
#     4  10  22  43  70  97 126 163 209 260 324 398
#     4  11  21  38  65  92 124 167 216 260 317 382
#
# _framework density 21.806118999999999
#
# number of rings (size 3 to 8) (size 9 to 14) (size 15 to 20)
#    0.000    1.857    4.286    3.000    2.000    2.000 
#    0.000    4.286    3.143    3.429    0.000    0.000 
#    0.000    0.000    0.000    0.000    0.000    0.000 
#
# Total GULP energy -156114.766086 kJ/mol
# GULP energy per Si atom -5575.527360 kJ/mol
# Density = 2.175649 g / cm^3
# Si number density = 21.806119 Si / 1000 Ang^3
#
#
#
# Elastic Constant Matrix: (Units=GPa)
#
#
# Indices 1 2 3 4 5 6 
#
# 1 184.8933 61.6372 31.9373 0.0000 6.7959 0.0000
# 2 61.6372 102.2503 -2.2679 0.0000 5.3225 0.0000
# 3 31.9373 -2.2679 50.1685 0.0000 10.7185 0.0000
# 4 0.0000 0.0000 0.0000 -9.1167 0.0000 10.0585
# 5 6.7959 5.3225 10.7185 0.0000 25.4168 0.0000
# 6 0.0000 0.0000 0.0000 10.0585 0.0000 -52.2086
#
#
#
# Elastic Compliance Matrix: (Units=1/GPa)
#
#
# Indices 1 2 3 4 5 6 
#
# 1 0.007998 -0.005011 -0.005589 0.000000 0.001268 0.000000
# 2 -0.005011 0.013071 0.004483 0.000000 -0.003288 0.000000
# 3 -0.005589 0.004483 0.025909 0.000000 -0.010371 0.000000
# 4 0.000000 0.000000 0.000000 -0.139297 0.000000 -0.026837
# 5 0.001268 -0.003288 -0.010371 0.000000 0.044067 0.000000
# 6 0.000000 0.000000 0.000000 -0.026837 0.000000 -0.024324
#
#
# Mechanical properties :
#
#
# Convention : Reuss Voigt Hill
#
# Bulk Modulus (GPa) = 28.78092 57.76949 43.27520
# Shear Modulus (GPa) = -102.53901 9.21867 -46.66017
#
# Velocity S-wave (km/s) = -6.86477 2.05833 -4.63079
# Velocity P-wave (km/s) = 7.04317 5.67440 2.95021
#
# Compressibility (1/GPa) = 0.03474525
#
# Stress axis : x y z
#
# Youngs Moduli (GPa) = 125.03363 76.50368 38.59654
#
# Poissons Ratio (x) = 0.38337 0.21571
# Poissons Ratio (y) = 0.62656 -0.17305
# Poissons Ratio (z) = 0.69879 -0.34300
#
# Static dielectric constant tensor:
#      x y z
#    x 1.875190 0.000000 0.027040 
#    y 0.000000 1.751030 0.000000 
#    z 0.027040 0.000000 1.875320 
# 
# From -- ./inp_files/54805.got.cif
#   From: 2010.05.17/outbox.cif.g08.bks.cpg/sg12_28_cif.got.tgz:54805.got - 2010.06.03 13:09:07.
