data_PCOD9173722
_publ_section_title
;
Structure prediction by ZEFSAII (Michael W. Deem and Ramdas Pophale) SiO2 
 PCOD9173722
Probable space group: C 2/M
;
_chemical_formula_sum "Si O2"
_cell_formula_units_Z 48
_cell_length_a 19.046616
_cell_length_b 11.930125
_cell_length_c 11.710860
_cell_angle_alpha 90.000000
_cell_angle_beta 96.757860
_cell_angle_gamma 90.000000
_cell_volume 2642.553211
_symmetry_space_group_name_H-M "C 2/M"
_symmetry_group_IT_number 12
_symmetry_cell_setting 'monoclinic'
loop_
_space_group_symop_operation_xyz
x,y,z
-x,y,-z
-x,-y,-z
x,-y,z
1/2+x,1/2+y,z
1/2-x,1/2+y,-z
1/2-x,1/2-y,-z
1/2+x,1/2-y,z
loop_
_atom_site_type_symbol
_atom_site_label
_atom_site_fract_x
_atom_site_fract_y
_atom_site_fract_z
Si Si1 0.613690 0.000000 0.537981
Si Si2 0.228185 0.132490 0.650823
Si Si3 0.029277 0.254389 0.260249
Si Si4 0.581520 0.627315 0.059081
Si Si5 0.648825 0.233065 0.453610
Si Si6 0.616668 0.364954 0.820250
Si Si7 0.495478 0.000000 0.696514
O O1 0.652117 0.119012 0.530312
O O2 0.570334 0.000000 0.646551
O O3 0.560735 0.000000 0.418675
O O4 0.298537 0.203522 0.640477
O O5 0.177704 0.166125 0.535092
O O6 0.184469 0.160373 0.756197
O O7 0.244432 0.000000 0.653768
O O8 0.077511 0.202567 0.169926
O O9 0.071546 0.245452 0.387440
O O10 0.953894 0.192073 0.243962
O O11 0.015689 0.385874 0.237888
O O12 0.602859 0.500000 0.091923
O O13 0.500000 0.623358 0.000000
O O14 0.623216 0.667509 0.954863
O O15 0.605961 0.500000 0.816565
#
# Coordination Sequence:
#
# PCOD9173722 Si02
#       7
#     4   8   8   8   8   8   4
#     4   9  16  32  46  64 100 129 169 190 233 293
#     4  10  20  34  50  73 100 130 165 203 246 293
#     4  10  18  31  49  76 100 127 167 200 242 292
#     4   8  15  30  51  72  97 127 157 203 254 293
#     4  10  20  32  50  72  99 134 162 202 245 291
#     4   9  18  33  54  75  97 125 163 208 251 289
#     4   9  18  26  45  72  96 134 159 197 230 282
#
# _framework density 18.164249999999999
#
# number of rings (size 3 to 8) (size 9 to 14) (size 15 to 20)
#    0.000    2.667    0.833    2.500    0.000    3.333 
#    0.000    6.250    0.000    0.000    0.000    0.000 
#    0.000    0.000    0.000    0.000    0.000    0.000 
#
# Total GULP energy -133687.776970 kJ/mol
# GULP energy per Si atom -5570.324040 kJ/mol
# Density = 1.812291 g / cm^3
# Si number density = 18.164250 Si / 1000 Ang^3
#
#
#
# Elastic Constant Matrix: (Units=GPa)
#
#
# Indices 1 2 3 4 5 6 
#
# 1 27.3156 6.5437 8.7278 0.0000 -18.2448 0.0000
# 2 6.5437 45.8521 26.7080 0.0000 -9.9679 0.0000
# 3 8.7278 26.7080 50.2451 0.0000 -25.8715 0.0000
# 4 0.0000 0.0000 0.0000 19.2570 0.0000 -2.8512
# 5 -18.2448 -9.9679 -25.8715 0.0000 34.8636 0.0000
# 6 0.0000 0.0000 0.0000 -2.8512 0.0000 18.4006
#
#
#
# Elastic Compliance Matrix: (Units=1/GPa)
#
#
# Indices 1 2 3 4 5 6 
#
# 1 0.060901 -0.008489 0.014718 0.000000 0.040366 0.000000
# 2 -0.008489 0.033451 -0.022122 0.000000 -0.011295 0.000000
# 3 0.014718 -0.022122 0.048251 0.000000 0.037183 0.000000
# 4 0.000000 0.000000 0.000000 0.053148 0.000000 0.008236
# 5 0.040366 -0.011295 0.037183 0.000000 0.074171 0.000000
# 6 0.000000 0.000000 0.000000 0.008236 0.000000 0.055622
#
#
# Mechanical properties :
#
#
# Convention : Reuss Voigt Hill
#
# Bulk Modulus (GPa) = 9.02391 23.04130 16.03260
# Shear Modulus (GPa) = 12.68164 19.93314 16.30739
#
# Velocity S-wave (km/s) = 2.64515 3.31627 2.99954
# Velocity P-wave (km/s) = 3.78257 5.23221 4.56530
#
# Compressibility (1/GPa) = 0.11081674
#
# Stress axis : x y z
#
# Youngs Moduli (GPa) = 16.41996 29.89429 20.72501
#
# Poissons Ratio (x) = 0.25378 -0.30504
# Poissons Ratio (y) = 0.13939 0.45849
# Poissons Ratio (z) = -0.24167 0.66133
#
# Static dielectric constant tensor:
#      x y z
#    x 1.644200 0.000000 -0.032250 
#    y 0.000000 1.626900 0.000000 
#    z -0.032250 0.000000 1.633540 
# 
# From -- ./inp_files/164212.got.cif
#   From: 2010.05.17/outbox.cif.g08.bks.cpg/sg12_83_cif.got.tgz:164212.got - 2010.06.03 13:09:07.
