data_PCOD9173618
_publ_section_title
;
Structure prediction by ZEFSAII (Michael W. Deem and Ramdas Pophale) SiO2 
 PCOD9173618
Probable space group: C 2/M
;
_chemical_formula_sum "Si O2"
_cell_formula_units_Z 64
_cell_length_a 23.913443
_cell_length_b 7.427904
_cell_length_c 17.751578
_cell_angle_alpha 90.000000
_cell_angle_beta 72.672631
_cell_angle_gamma 90.000000
_cell_volume 3010.060794
_symmetry_space_group_name_H-M "C 2/M"
_symmetry_group_IT_number 12
_symmetry_cell_setting 'monoclinic'
loop_
_space_group_symop_operation_xyz
x,y,z
-x,y,-z
-x,-y,-z
x,-y,z
1/2+x,1/2+y,z
1/2-x,1/2+y,-z
1/2-x,1/2-y,-z
1/2+x,1/2-y,z
loop_
_atom_site_type_symbol
_atom_site_label
_atom_site_fract_x
_atom_site_fract_y
_atom_site_fract_z
Si Si1 0.159774 0.206496 0.987479
Si Si2 0.724375 0.717997 0.690597
Si Si3 0.014187 0.278651 0.775034
Si Si4 0.305893 0.214867 0.531117
Si Si5 0.882744 0.704901 0.833842
Si Si6 0.053981 0.717529 0.924716
Si Si7 0.242358 0.721271 0.158365
Si Si8 0.614141 0.788970 0.628096
O O1 0.113206 0.213233 0.938172
O O2 0.219669 0.280942 0.928524
O O3 0.168699 0.000000 0.006249
O O4 0.132007 0.299329 0.071148
O O5 0.723913 0.500000 0.689586
O O6 0.782306 0.779427 0.621145
O O7 0.728032 0.776489 0.775263
O O8 0.666686 0.776192 0.668393
O O9 0.013773 0.500000 0.776032
O O10 0.947092 0.215971 0.796916
O O11 0.041405 0.224424 0.844579
O O12 0.056042 0.216287 0.690848
O O13 0.250000 0.250000 0.500000
O O14 0.360472 0.287267 0.460702
O O15 0.313999 0.000000 0.534370
O O16 0.886656 0.500000 0.804177
O O17 0.824570 0.783651 0.819688
O O18 0.056855 0.500000 0.924402
O O19 0.000000 0.771370 0.000000
O O20 0.242566 0.500000 0.155933
O O21 0.603368 0.000000 0.619180
#
# Coordination Sequence:
#
# PCOD9173618 Si02
#       8
#     8   8   8   8   8   8   8   8
#     4  11  21  32  46  69  92 112 144 192 236 264
#     4   9  16  29  46  67  92 118 144 175 217 269
#     4   9  17  29  47  66  86 114 152 186 213 254
#     4   8  14  24  42  65  92 117 138 170 216 263
#     4  10  19  35  51  61  81 122 160 186 216 263
#     4  10  18  31  48  66  87 117 153 180 212 268
#     4   9  19  32  48  66  87 116 154 188 221 264
#     4   9  16  27  44  70  94 114 142 179 220 262
#
# _framework density 21.262029999999999
#
# number of rings (size 3 to 8) (size 9 to 14) (size 15 to 20)
#    0.000    2.625    1.250    1.500    0.000    0.250 
#    0.000    2.500    0.000    0.750    0.000    5.250 
#    0.000    0.000    0.000   19.500    0.000   14.000 
#
# Total GULP energy -178552.564214 kJ/mol
# GULP energy per Si atom -5579.767632 kJ/mol
# Density = 2.121364 g / cm^3
# Si number density = 21.262030 Si / 1000 Ang^3
#
#
#
# Elastic Constant Matrix: (Units=GPa)
#
#
# Indices 1 2 3 4 5 6 
#
# 1 73.0052 -6.2967 26.8632 0.0000 -19.7202 0.0000
# 2 -6.2967 70.4865 -0.9882 0.0000 -3.3185 0.0000
# 3 26.8632 -0.9882 91.9038 0.0000 -42.1581 0.0000
# 4 0.0000 0.0000 0.0000 4.2754 0.0000 -3.5375
# 5 -19.7202 -3.3185 -42.1581 0.0000 33.9523 0.0000
# 6 0.0000 0.0000 0.0000 -3.5375 0.0000 52.2891
#
#
#
# Elastic Compliance Matrix: (Units=1/GPa)
#
#
# Indices 1 2 3 4 5 6 
#
# 1 0.016527 0.001883 -0.000750 0.000000 0.008852 0.000000
# 2 0.001883 0.014602 0.001773 0.000000 0.004722 0.000000
# 3 -0.000750 0.001773 0.025554 0.000000 0.031468 0.000000
# 4 0.000000 0.000000 0.000000 0.247764 0.000000 0.016762
# 5 0.008852 0.004722 0.031468 0.000000 0.074130 0.000000
# 6 0.000000 0.000000 0.000000 0.016762 0.000000 0.020258
#
#
# Mechanical properties :
#
#
# Convention : Reuss Voigt Hill
#
# Bulk Modulus (GPa) = 16.00128 30.50578 23.25353
# Shear Modulus (GPa) = 12.08149 32.49117 22.28633
#
# Velocity S-wave (km/s) = 2.38632 3.91337 3.24107
# Velocity P-wave (km/s) = 3.89035 5.89898 4.99664
#
# Compressibility (1/GPa) = 0.06249498
#
# Stress axis : x y z
#
# Youngs Moduli (GPa) = 60.50654 68.48157 39.13244
#
# Poissons Ratio (x) = -0.12893 0.02935
# Poissons Ratio (y) = -0.11391 -0.06937
# Poissons Ratio (z) = 0.04537 -0.12140
#
# Static dielectric constant tensor:
#      x y z
#    x 1.755020 0.000000 -0.038050 
#    y 0.000000 1.827980 0.000000 
#    z -0.038050 0.000000 1.772480 
# 
# From -- ./inp_files/287563.got.cif
#   From: 2010.05.17/outbox.cif.g08.bks.cpg/sg12_144_cif.got.tgz:287563.got - 2010.06.03 13:09:07.
