data_PCOD9173706
_publ_section_title
;
Structure prediction by ZEFSAII (Michael W. Deem and Ramdas Pophale) SiO2 
 PCOD9173706
Probable space group: C 2/M
;
_chemical_formula_sum "Si O2"
_cell_formula_units_Z 60
_cell_length_a 12.692785
_cell_length_b 23.164401
_cell_length_c 14.550602
_cell_angle_alpha 90.000000
_cell_angle_beta 115.859268
_cell_angle_gamma 90.000000
_cell_volume 3849.796784
_symmetry_space_group_name_H-M "C 2/M"
_symmetry_group_IT_number 12
_symmetry_cell_setting 'monoclinic'
loop_
_space_group_symop_operation_xyz
x,y,z
-x,y,-z
-x,-y,-z
x,-y,z
1/2+x,1/2+y,z
1/2-x,1/2+y,-z
1/2-x,1/2-y,-z
1/2+x,1/2-y,z
loop_
_atom_site_type_symbol
_atom_site_label
_atom_site_fract_x
_atom_site_fract_y
_atom_site_fract_z
Si Si1 0.960280 0.678704 0.169071
Si Si2 0.251735 0.067630 0.500000
Si Si3 0.520066 0.933542 0.287927
Si Si4 0.375700 0.677526 0.500000
Si Si5 0.332653 0.250000 0.665306
Si Si6 0.000000 0.750000 0.000000
Si Si7 0.291209 0.678704 0.830928
Si Si8 0.232139 0.566458 0.712072
O O1 0.829602 0.682208 0.159204
O O2 0.004900 0.612871 0.200698
O O3 0.050772 0.715550 0.264243
O O4 0.966070 0.707908 0.071390
O O5 0.370493 0.079049 0.603163
O O6 0.153104 0.110171 0.499999
O O7 0.267330 0.079049 0.396837
O O8 0.224433 0.000000 0.500000
O O9 0.401553 0.929416 0.303106
O O10 0.531214 0.000000 0.260374
O O11 0.500000 0.687863 0.500000
O O12 0.365861 0.707065 0.595842
O O13 0.270018 0.707065 0.404158
O O14 0.286527 0.284450 0.735755
O O15 0.894680 0.792091 0.928608
O O16 0.304202 0.612871 0.799302
O O17 0.270840 0.500000 0.739625
#
# Coordination Sequence:
#
# PCOD9173706 Si02
#       8
#     8   8   8   8   8   4   8   8
#     4  10  19  34  54  73  96 128 164 207 254 300
#     4  10  18  31  49  73 105 136 167 200 238 288
#     4   9  17  30  51  77 102 130 165 204 243 286
#     4  11  21  32  46  72 105 137 170 202 240 295
#     4  10  20  34  48  72 100 134 168 202 244 290
#     4  10  22  34  50  76 104 122 162 204 264 308
#     4  10  19  34  54  73  96 128 164 207 254 300
#     4   9  17  30  51  77 102 130 165 204 243 286
#
# _framework density 15.585239
#
# number of rings (size 3 to 8) (size 9 to 14) (size 15 to 20)
#    0.000    2.133    2.667    1.600    0.000    1.867 
#    0.000    0.667    0.000    0.000    0.000    0.000 
#    0.000    0.000    0.000    0.000    0.000    0.000 
#
# Total GULP energy -167134.129331 kJ/mol
# GULP energy per Si atom -5571.137644 kJ/mol
# Density = 1.554977 g / cm^3
# Si number density = 15.585239 Si / 1000 Ang^3
#
#
#
# Elastic Constant Matrix: (Units=GPa)
#
#
# Indices 1 2 3 4 5 6 
#
# 1 79.3913 51.3412 51.6133 0.0000 1.0107 0.0000
# 2 51.3412 112.9217 66.0082 0.0000 -0.8715 0.0000
# 3 51.6133 66.0082 108.3408 0.0000 -2.7321 0.0000
# 4 0.0000 0.0000 0.0000 21.6450 0.0000 0.2237
# 5 1.0107 -0.8715 -2.7321 0.0000 5.5814 0.0000
# 6 0.0000 0.0000 0.0000 0.2237 0.0000 25.4221
#
#
#
# Elastic Compliance Matrix: (Units=1/GPa)
#
#
# Indices 1 2 3 4 5 6 
#
# 1 0.020593 -0.005549 -0.006627 0.000000 -0.007839 0.000000
# 2 -0.005549 0.015271 -0.006657 0.000000 0.000131 0.000000
# 3 -0.006627 -0.006657 0.016653 0.000000 0.008312 0.000000
# 4 0.000000 0.000000 0.000000 0.046204 0.000000 -0.000407
# 5 -0.007839 0.000131 0.008312 0.000000 0.184677 0.000000
# 6 0.000000 0.000000 0.000000 -0.000407 0.000000 0.039339
#
#
# Mechanical properties :
#
#
# Convention : Reuss Voigt Hill
#
# Bulk Modulus (GPa) = 67.34189 70.95322 69.14756
# Shear Modulus (GPa) = 13.68537 19.30911 16.49724
#
# Velocity S-wave (km/s) = 2.96649 3.52367 3.25702
# Velocity P-wave (km/s) = 7.41862 7.88541 7.65558
#
# Compressibility (1/GPa) = 0.01484960
#
# Stress axis : x y z
#
# Youngs Moduli (GPa) = 48.56115 65.48240 60.05005
#
# Poissons Ratio (x) = 0.36339 0.39794
# Poissons Ratio (y) = 0.26949 0.39977
# Poissons Ratio (z) = 0.32181 0.43593
#
# Static dielectric constant tensor:
#      x y z
#    x 1.484320 0.000000 -0.001030 
#    y 0.000000 1.542710 0.000000 
#    z -0.001030 0.000000 1.501610 
# 
# From -- ./inp_files/178030.got.cif
#   From: 2010.05.17/outbox.cif.g08.bks.cpg/sg12_90_cif.got.tgz:178030.got - 2010.06.03 13:09:07.
