data_PCOD9173521
_publ_section_title
;
Structure prediction by ZEFSAII (Michael W. Deem and Ramdas Pophale) SiO2 
 PCOD9173521
Probable space group: C 2/M
;
_chemical_formula_sum "Si O2"
_cell_formula_units_Z 60
_cell_length_a 8.106681
_cell_length_b 20.042486
_cell_length_c 21.611243
_cell_angle_alpha 90.000000
_cell_angle_beta 125.692866
_cell_angle_gamma 90.000000
_cell_volume 2851.766558
_symmetry_space_group_name_H-M "C 2/M"
_symmetry_group_IT_number 12
_symmetry_cell_setting 'monoclinic'
loop_
_space_group_symop_operation_xyz
x,y,z
-x,y,-z
-x,-y,-z
x,-y,z
1/2+x,1/2+y,z
1/2-x,1/2+y,-z
1/2-x,1/2-y,-z
1/2+x,1/2-y,z
loop_
_atom_site_type_symbol
_atom_site_label
_atom_site_fract_x
_atom_site_fract_y
_atom_site_fract_z
Si Si1 0.997971 0.286459 0.871091
Si Si2 0.655619 0.647772 0.879995
Si Si3 0.474572 0.000000 0.839863
Si Si4 0.578351 0.421783 0.585069
Si Si5 0.774117 0.104878 0.973079
Si Si6 0.320375 0.921271 0.418363
Si Si7 0.210989 0.080201 0.258868
Si Si8 0.078980 0.377600 0.256437
O O1 0.835236 0.316107 0.883055
O O2 0.935683 0.312391 0.789237
O O3 0.018250 0.207594 0.876812
O O4 0.209561 0.321389 0.936285
O O5 0.515639 0.604328 0.804594
O O6 0.730928 0.604099 0.953898
O O7 0.608344 0.057422 0.905987
O O8 0.366534 0.059353 0.775023
O O9 0.500000 0.402422 0.500000
O O10 0.644812 0.500000 0.595135
O O11 0.388829 0.417528 0.590048
O O12 0.759776 0.378345 0.652782
O O13 0.000000 0.087727 0.000000
O O14 0.500000 0.892279 0.500000
O O15 0.289577 0.894684 0.342484
O O16 0.369572 0.000000 0.420378
O O17 0.359810 0.105513 0.237651
O O18 0.215566 0.000000 0.258410
#
# Coordination Sequence:
#
# PCOD9173521 Si02
#       8
#     8   8   4   8   8   8   8   8
#     4  11  25  43  63  88 114 165 200 257 294 357
#     4  12  24  43  63  87 121 152 212 247 304 357
#     4  10  21  36  58  86 121 158 191 238 308 356
#     4  10  18  30  54  85 120 163 201 249 297 350
#     4  11  23  39  63  88 118 156 199 249 301 363
#     4   9  18  32  50  81 121 158 200 242 294 354
#     4  11  22  36  61  91 123 162 195 248 308 356
#     4  11  20  38  59  88 125 157 206 243 299 367
#
# _framework density 21.039591000000001
#
# number of rings (size 3 to 8) (size 9 to 14) (size 15 to 20)
#    0.000    1.333    1.333    5.800    0.933    2.133 
#    4.800    2.667    0.000    0.800    0.000    5.600 
#    0.000    0.000    0.000    0.000    0.000    0.000 
#
# Total GULP energy -167258.373013 kJ/mol
# GULP energy per Si atom -5575.279100 kJ/mol
# Density = 2.099170 g / cm^3
# Si number density = 21.039591 Si / 1000 Ang^3
#
#
#
# Elastic Constant Matrix: (Units=GPa)
#
#
# Indices 1 2 3 4 5 6 
#
# 1 63.0795 7.3383 14.7999 0.0000 -11.6357 0.0000
# 2 7.3383 16.2786 8.1179 0.0000 -0.8988 0.0000
# 3 14.7999 8.1179 138.3700 0.0000 -4.6836 0.0000
# 4 0.0000 0.0000 0.0000 14.6106 0.0000 -3.8751
# 5 -11.6357 -0.8988 -4.6836 0.0000 25.5058 0.0000
# 6 0.0000 0.0000 0.0000 -3.8751 0.0000 10.1726
#
#
#
# Elastic Compliance Matrix: (Units=1/GPa)
#
#
# Indices 1 2 3 4 5 6 
#
# 1 0.018459 -0.007245 -0.001281 0.000000 0.007931 0.000000
# 2 -0.007245 0.066187 -0.003161 0.000000 -0.001553 0.000000
# 3 -0.001281 -0.003161 0.007573 0.000000 0.000695 0.000000
# 4 0.000000 0.000000 0.000000 0.076136 0.000000 0.029003
# 5 0.007931 -0.001553 0.000695 0.000000 0.042898 0.000000
# 6 0.000000 0.000000 0.000000 0.029003 0.000000 0.109352
#
#
# Mechanical properties :
#
#
# Convention : Reuss Voigt Hill
#
# Bulk Modulus (GPa) = 14.52513 30.91558 22.72035
# Shear Modulus (GPa) = 13.62674 22.55593 18.09133
#
# Velocity S-wave (km/s) = 2.54770 3.27780 2.93554
# Velocity P-wave (km/s) = 3.94627 5.38992 4.72357
#
# Compressibility (1/GPa) = 0.06884619
#
# Stress axis : x y z
#
# Youngs Moduli (GPa) = 54.17352 15.10881 132.04873
#
# Poissons Ratio (x) = 0.10946 0.16914
# Poissons Ratio (y) = 0.39247 0.41737
# Poissons Ratio (z) = 0.06939 0.04776
#
# Static dielectric constant tensor:
#      x y z
#    x 1.812160 0.000000 -0.009270 
#    y 0.000000 1.748720 0.000000 
#    z -0.009270 0.000000 1.761640 
# 
# From -- ./inp_files/301914.got.cif
#   From: 2010.05.17/outbox.cif.g08.bks.cpg/sg12_151_cif.got.tgz:301914.got - 2010.06.03 13:09:07.
