data_PCOD9173452
_publ_section_title
;
Structure prediction by ZEFSAII (Michael W. Deem and Ramdas Pophale) SiO2 
 PCOD9173452
Probable space group: C 2/M
;
_chemical_formula_sum "Si O2"
_cell_formula_units_Z 56
_cell_length_a 20.914094
_cell_length_b 8.971880
_cell_length_c 19.308382
_cell_angle_alpha 90.000000
_cell_angle_beta 123.093625
_cell_angle_gamma 90.000000
_cell_volume 3035.275453
_symmetry_space_group_name_H-M "C 2/M"
_symmetry_group_IT_number 12
_symmetry_cell_setting 'monoclinic'
loop_
_space_group_symop_operation_xyz
x,y,z
-x,y,-z
-x,-y,-z
x,-y,z
1/2+x,1/2+y,z
1/2-x,1/2+y,-z
1/2-x,1/2-y,-z
1/2+x,1/2-y,z
loop_
_atom_site_type_symbol
_atom_site_label
_atom_site_fract_x
_atom_site_fract_y
_atom_site_fract_z
Si Si1 0.913529 0.673653 0.449574
Si Si2 0.317274 0.821905 0.752082
Si Si3 0.838662 0.668097 0.985617
Si Si4 0.270193 0.321314 0.438266
Si Si5 0.577884 0.323697 0.083624
Si Si6 0.154833 0.830593 0.873839
Si Si7 0.324961 0.172652 0.254924
O O1 0.914389 0.500000 0.473279
O O2 0.851686 0.761687 0.458570
O O3 0.883486 0.675969 0.353182
O O4 0.000000 0.731185 0.500000
O O5 0.292041 0.782394 0.658717
O O6 0.394774 0.754649 0.829625
O O7 0.249078 0.757988 0.759636
O O8 0.319054 0.000000 0.759118
O O9 0.865843 0.500000 0.986943
O O10 0.871011 0.731552 0.076666
O O11 0.860413 0.780412 0.937939
O O12 0.747033 0.661589 0.935289
O O13 0.272188 0.500000 0.444864
O O14 0.250000 0.250000 0.500000
O O15 0.573998 0.500000 0.092696
O O16 0.500000 0.273615 0.000000
O O17 0.141732 0.752712 0.792747
O O18 0.125542 0.000000 0.859720
O O19 0.305814 0.000000 0.228082
#
# Coordination Sequence:
#
# PCOD9173452 Si02
#       7
#     8   8   8   8   8   8   8
#     4   9  19  36  57  83 115 149 185 227 279 337
#     4  10  20  35  55  80 107 141 185 230 273 325
#     4  10  20  33  51  74 102 136 172 214 261 309
#     4  10  21  37  60  88 116 147 190 237 284 340
#     4  11  23  37  54  77 107 143 182 226 273 323
#     4  10  19  31  50  76 105 134 169 217 261 308
#     4  10  18  30  53  80 107 141 179 222 268 321
#
# _framework density 18.449726999999999
#
# number of rings (size 3 to 8) (size 9 to 14) (size 15 to 20)
#    0.000    2.000    1.429    2.571    0.000    4.857 
#    0.000    1.429    0.000    1.714    0.000    0.000 
#    0.000    0.000    0.000    0.000    0.000    0.000 
#
# Total GULP energy -156168.260479 kJ/mol
# GULP energy per Si atom -5577.437874 kJ/mol
# Density = 1.840773 g / cm^3
# Si number density = 18.449727 Si / 1000 Ang^3
#
#
#
# Elastic Constant Matrix: (Units=GPa)
#
#
# Indices 1 2 3 4 5 6 
#
# 1 38.2814 21.6942 54.6329 0.0000 0.5637 0.0000
# 2 21.6942 60.2255 47.6288 0.0000 4.0255 0.0000
# 3 54.6329 47.6288 127.8607 0.0000 -4.7358 0.0000
# 4 0.0000 0.0000 0.0000 26.9719 0.0000 -0.2476
# 5 0.5637 4.0255 -4.7358 0.0000 32.0799 0.0000
# 6 0.0000 0.0000 0.0000 -0.2476 0.0000 15.0001
#
#
#
# Elastic Compliance Matrix: (Units=1/GPa)
#
#
# Indices 1 2 3 4 5 6 
#
# 1 0.067984 -0.001433 -0.028709 0.000000 -0.005253 0.000000
# 2 -0.001433 0.024166 -0.008547 0.000000 -0.004269 0.000000
# 3 -0.028709 -0.008547 0.023459 0.000000 0.005040 0.000000
# 4 0.000000 0.000000 0.000000 0.037081 0.000000 0.000612
# 5 -0.005253 -0.004269 0.005040 0.000000 0.032544 0.000000
# 6 0.000000 0.000000 0.000000 0.000612 0.000000 0.066676
#
#
# Mechanical properties :
#
#
# Convention : Reuss Voigt Hill
#
# Bulk Modulus (GPa) = 26.15875 52.69771 39.42823
# Shear Modulus (GPa) = 14.61850 21.63784 18.12817
#
# Velocity S-wave (km/s) = 2.81791 3.42833 3.13800
# Velocity P-wave (km/s) = 4.97963 6.65554 5.87762
#
# Compressibility (1/GPa) = 0.03822813
#
# Stress axis : x y z
#
# Youngs Moduli (GPa) = 14.70938 41.38109 42.62830
#
# Poissons Ratio (x) = 0.05932 1.22382
# Poissons Ratio (y) = 0.02109 0.36436
# Poissons Ratio (z) = 0.42229 0.35370
#
# Static dielectric constant tensor:
#      x y z
#    x 1.637780 0.000000 0.021760 
#    y 0.000000 1.634340 0.000000 
#    z 0.021760 0.000000 1.661220 
# 
# From -- ./inp_files/281624.got.cif
#   From: 2010.05.17/outbox.cif.g08.bks.cpg/sg12_141_cif.got.tgz:281624.got - 2010.06.03 13:09:07.
