data_PCOD9173870
_publ_section_title
;
Structure prediction by ZEFSAII (Michael W. Deem and Ramdas Pophale) SiO2 
 PCOD9173870
Probable space group: C 2/M
;
_chemical_formula_sum "Si O2"
_cell_formula_units_Z 64
_cell_length_a 16.806699
_cell_length_b 15.404837
_cell_length_c 31.023092
_cell_angle_alpha 90.000000
_cell_angle_beta 26.609806
_cell_angle_gamma 90.000000
_cell_volume 3597.637634
_symmetry_space_group_name_H-M "C 2/M"
_symmetry_group_IT_number 12
_symmetry_cell_setting 'monoclinic'
loop_
_space_group_symop_operation_xyz
x,y,z
-x,y,-z
-x,-y,-z
x,-y,z
1/2+x,1/2+y,z
1/2-x,1/2+y,-z
1/2-x,1/2-y,-z
1/2+x,1/2-y,z
loop_
_atom_site_type_symbol
_atom_site_label
_atom_site_fract_x
_atom_site_fract_y
_atom_site_fract_z
Si Si1 0.414263 0.898011 0.666536
Si Si2 0.404213 0.820215 0.849208
Si Si3 0.484292 0.597705 0.737273
Si Si4 0.347013 0.096397 0.961993
Si Si5 0.528314 0.641718 0.815856
Si Si6 0.892416 0.602278 0.511789
Si Si7 0.858174 0.289457 0.776865
Si Si8 0.480783 0.769340 0.962118
O O1 0.542437 0.865545 0.565977
O O2 0.432992 0.836827 0.698917
O O3 0.212641 0.890899 0.745914
O O4 0.448328 0.000000 0.660065
O O5 0.395205 0.895583 0.888437
O O6 0.532388 0.745044 0.805356
O O7 0.433328 0.832466 0.784362
O O8 0.207129 0.778584 0.946469
O O9 0.418988 0.500000 0.757324
O O10 0.491455 0.603204 0.785999
O O11 0.685040 0.606787 0.622351
O O12 0.388311 0.685055 0.766925
O O13 0.467425 0.162374 0.930520
O O14 0.374153 0.000000 0.964926
O O15 0.141281 0.121300 0.071768
O O16 0.941430 0.500000 0.486377
O O17 0.000000 0.641360 0.500000
O O18 0.644161 0.296064 0.878186
O O19 0.500000 0.812340 0.000000
#
# Coordination Sequence:
#
# PCOD9173870 Si02
#       8
#     8   8   8   8   8   8   8   8
#     4  11  20  31  51  75 100 126 157 198 242 288
#     4   9  19  34  47  63  97 134 163 197 238 278
#     4  10  19  33  52  74  99 124 154 197 246 292
#     4  11  20  29  47  70  94 129 167 200 234 280
#     4  10  18  31  51  72  92 121 165 207 241 281
#     4   9  17  31  51  76 101 120 146 197 254 289
#     4  10  21  33  49  72  98 132 164 193 234 286
#     4   9  18  33  48  65  95 128 157 202 250 277
#
# _framework density 17.789452000000001
#
# number of rings (size 3 to 8) (size 9 to 14) (size 15 to 20)
#    0.000    2.125    1.250    4.875    0.000    1.750 
#    0.000    0.000    0.000    3.750    0.000    0.000 
#    0.000    1.000    0.000    0.000    0.000    0.000 
#
# Total GULP energy -178302.185522 kJ/mol
# GULP energy per Si atom -5571.943298 kJ/mol
# Density = 1.774896 g / cm^3
# Si number density = 17.789452 Si / 1000 Ang^3
#
#
#
# Elastic Constant Matrix: (Units=GPa)
#
#
# Indices 1 2 3 4 5 6 
#
# 1 60.0546 24.3517 21.2901 0.0027 26.5931 -0.0017
# 2 24.3517 41.4667 14.8847 -0.0004 16.4118 -0.0010
# 3 21.2901 14.8847 69.1395 -0.0058 30.4790 -0.0030
# 4 0.0027 -0.0004 -0.0058 10.9552 -0.0006 7.9300
# 5 26.5931 16.4118 30.4790 -0.0006 29.8663 0.0011
# 6 -0.0017 -0.0010 -0.0030 7.9300 0.0011 9.4316
#
#
#
# Elastic Compliance Matrix: (Units=1/GPa)
#
#
# Indices 1 2 3 4 5 6 
#
# 1 0.030566 -0.008929 0.004263 -0.000034 -0.026660 0.000038
# 2 -0.008929 0.033514 0.000269 0.000001 -0.010741 0.000002
# 3 0.004263 0.000269 0.026960 0.000005 -0.031456 0.000009
# 4 -0.000034 0.000001 0.000005 0.233224 0.000036 -0.196092
# 5 -0.026660 -0.010741 -0.031456 0.000036 0.095225 -0.000057
# 6 0.000038 0.000002 0.000009 -0.196092 -0.000057 0.270899
#
#
# Mechanical properties :
#
#
# Convention : Reuss Voigt Hill
#
# Bulk Modulus (GPa) = 12.15865 32.41265 22.28565
# Shear Modulus (GPa) = 6.88139 17.39291 12.13715
#
# Velocity S-wave (km/s) = 1.96892 3.13023 2.61486
# Velocity P-wave (km/s) = 3.46676 5.59680 4.65524
#
# Compressibility (1/GPa) = 0.08224594
#
# Stress axis : x y z
#
# Youngs Moduli (GPa) = 32.71559 29.83863 37.09197
#
# Poissons Ratio (x) = 0.26643 -0.15811
# Poissons Ratio (y) = 0.29211 -0.00999
# Poissons Ratio (z) = -0.13945 -0.00803
#
# Static dielectric constant tensor:
#      x y z
#    x 1.636880 0.000000 0.023930 
#    y 0.000000 1.616200 0.000000 
#    z 0.023930 0.000000 1.632490 
# 
# From -- ./inp_files/379329.got.cif
#   From: 2010.05.17/outbox.cif.g08.bks.cpg/sg12_190_cif.got.tgz:379329.got - 2010.06.03 13:09:07.
