data_PCOD9173394
_publ_section_title
;
Structure prediction by ZEFSAII (Michael W. Deem and Ramdas Pophale) SiO2 
 PCOD9173394
Probable space group: C 2/M
;
_chemical_formula_sum "Si O2"
_cell_formula_units_Z 64
_cell_length_a 23.030259
_cell_length_b 12.520494
_cell_length_c 14.504756
_cell_angle_alpha 90.000000
_cell_angle_beta 111.156122
_cell_angle_gamma 90.000000
_cell_volume 3900.554424
_symmetry_space_group_name_H-M "C 2/M"
_symmetry_group_IT_number 12
_symmetry_cell_setting 'monoclinic'
loop_
_space_group_symop_operation_xyz
x,y,z
-x,y,-z
-x,-y,-z
x,-y,z
1/2+x,1/2+y,z
1/2-x,1/2+y,-z
1/2-x,1/2-y,-z
1/2+x,1/2-y,z
loop_
_atom_site_type_symbol
_atom_site_label
_atom_site_fract_x
_atom_site_fract_y
_atom_site_fract_z
Si Si1 0.727765 0.876837 0.089089
Si Si2 0.521570 0.878281 0.418786
Si Si3 0.613467 0.121447 0.736728
Si Si4 0.648423 0.129785 0.402616
Si Si5 0.150398 0.217967 0.915239
Si Si6 0.707940 0.873119 0.626753
Si Si7 0.574534 0.628089 0.042159
Si Si8 0.675219 0.250961 0.228990
O O1 0.799701 0.861686 0.102029
O O2 0.709954 0.827532 0.177305
O O3 0.710116 0.000000 0.073574
O O4 0.689204 0.803866 0.996836
O O5 0.500000 0.822129 0.500000
O O6 0.459555 0.884768 0.324567
O O7 0.580126 0.835529 0.398593
O O8 0.542087 0.000000 0.456878
O O9 0.622141 0.210648 0.818295
O O10 0.651894 0.152142 0.666366
O O11 0.634544 0.000000 0.774933
O O12 0.693245 0.163046 0.513662
O O13 0.658344 0.184728 0.310467
O O14 0.651285 0.000000 0.393978
O O15 0.103487 0.161114 0.959283
O O16 0.772075 0.833438 0.707140
O O17 0.709397 0.000000 0.622286
O O18 0.581370 0.500000 0.059868
O O19 0.617133 0.691726 0.142498
O O20 0.500000 0.652957 0.000000
#
# Coordination Sequence:
#
# PCOD9173394 Si02
#       8
#     8   8   8   8   8   8   8   8
#     4  10  20  34  51  76 106 133 165 217 269 314
#     4   9  16  29  48  72 102 136 170 206 252 304
#     4  10  18  30  52  79 107 134 170 215 255 305
#     4  10  20  33  52  78 110 143 170 210 262 314
#     4  10  20  34  55  77  99 133 176 212 261 319
#     4  10  19  33  53  80 109 137 176 216 255 307
#     4  10  23  41  57  75 101 135 180 226 261 305
#     4  11  21  35  54  78 105 140 175 216 259 319
#
# _framework density 16.407923
#
# number of rings (size 3 to 8) (size 9 to 14) (size 15 to 20)
#    0.000    2.000    2.500    1.875    1.750    0.000 
#    0.000    0.000    0.000    2.250    0.000    0.000 
#    0.000    5.000    0.000    0.000    0.000    0.000 
#
# Total GULP energy -178163.947548 kJ/mol
# GULP energy per Si atom -5567.623361 kJ/mol
# Density = 1.637058 g / cm^3
# Si number density = 16.407923 Si / 1000 Ang^3
#
#
#
# Elastic Constant Matrix: (Units=GPa)
#
#
# Indices 1 2 3 4 5 6 
#
# 1 116.5499 30.7216 51.8816 0.0000 -4.3910 0.0000
# 2 30.7216 43.6446 26.4111 0.0000 -5.1611 0.0000
# 3 51.8816 26.4111 77.8925 0.0000 -14.5232 0.0000
# 4 0.0000 0.0000 0.0000 26.7978 0.0000 -4.0951
# 5 -4.3910 -5.1611 -14.5232 0.0000 26.6609 0.0000
# 6 0.0000 0.0000 0.0000 -4.0951 0.0000 23.3045
#
#
#
# Elastic Compliance Matrix: (Units=1/GPa)
#
#
# Indices 1 2 3 4 5 6 
#
# 1 0.013189 -0.005012 -0.007637 0.000000 -0.002958 0.000000
# 2 -0.005012 0.030734 -0.006820 0.000000 0.001409 0.000000
# 3 -0.007637 -0.006820 0.021990 0.000000 0.009401 0.000000
# 4 0.000000 0.000000 0.000000 0.038346 0.000000 0.006738
# 5 -0.002958 0.001409 0.009401 0.000000 0.042415 0.000000
# 6 0.000000 0.000000 0.000000 0.006738 0.000000 0.044094
#
#
# Mechanical properties :
#
#
# Convention : Reuss Voigt Hill
#
# Bulk Modulus (GPa) = 37.07088 50.67950 43.87519
# Shear Modulus (GPa) = 20.94692 23.95750 22.45221
#
# Velocity S-wave (km/s) = 3.57688 3.82529 3.70317
# Velocity P-wave (km/s) = 6.30088 7.10386 6.71438
#
# Compressibility (1/GPa) = 0.02697535
#
# Stress axis : x y z
#
# Youngs Moduli (GPa) = 75.81864 32.53716 45.47498
#
# Poissons Ratio (x) = 0.16309 0.34729
# Poissons Ratio (y) = 0.38003 0.31013
# Poissons Ratio (z) = 0.57903 0.22189
#
# Static dielectric constant tensor:
#      x y z
#    x 1.567820 0.000000 -0.005100 
#    y 0.000000 1.546330 0.000000 
#    z -0.005100 0.000000 1.570230 
# 
# From -- ./inp_files/175300.got.cif
#   From: 2010.05.17/outbox.cif.g08.bks.cpg/sg12_88_cif.got.tgz:175300.got - 2010.06.03 13:09:07.
