data_PCOD9173463
_publ_section_title
;
Structure prediction by ZEFSAII (Michael W. Deem and Ramdas Pophale) SiO2 
 PCOD9173463
Probable space group: C 2/M
;
_chemical_formula_sum "Si O2"
_cell_formula_units_Z 56
_cell_length_a 19.150616
_cell_length_b 13.083570
_cell_length_c 19.281375
_cell_angle_alpha 90.000000
_cell_angle_beta 151.138396
_cell_angle_gamma 90.000000
_cell_volume 2331.955970
_symmetry_space_group_name_H-M "C 2/M"
_symmetry_group_IT_number 12
_symmetry_cell_setting 'monoclinic'
loop_
_space_group_symop_operation_xyz
x,y,z
-x,y,-z
-x,-y,-z
x,-y,z
1/2+x,1/2+y,z
1/2-x,1/2+y,-z
1/2-x,1/2-y,-z
1/2+x,1/2-y,z
loop_
_atom_site_type_symbol
_atom_site_label
_atom_site_fract_x
_atom_site_fract_y
_atom_site_fract_z
Si Si1 0.033857 0.385542 0.391469
Si Si2 0.635835 0.615366 0.066153
Si Si3 0.490413 0.695600 0.819039
Si Si4 0.799051 0.382964 0.600369
Si Si5 0.660440 0.389661 0.672925
Si Si6 0.229484 0.669323 0.683997
Si Si7 0.536002 0.329197 0.704706
O O1 0.977455 0.500000 0.335527
O O2 0.168053 0.380071 0.453323
O O3 0.093226 0.359566 0.518937
O O4 0.939495 0.291707 0.282964
O O5 0.628033 0.500000 0.031637
O O6 0.382559 0.693329 0.013448
O O7 0.763017 0.620477 0.233671
O O8 0.500000 0.634219 0.000000
O O9 0.413009 0.803228 0.732215
O O10 0.363251 0.638347 0.750964
O O11 0.541437 0.646711 0.790909
O O12 0.819120 0.500000 0.640462
O O13 0.631681 0.351208 0.463732
O O14 0.500000 0.387598 0.500000
O O15 0.726827 0.500000 0.714615
O O16 0.736769 0.290241 0.708177
O O17 0.636455 0.380766 0.734778
#
# Coordination Sequence:
#
# PCOD9173463 Si02
#       7
#     8   8   8   8   8   8   8
#     4  10  18  30  53  82 110 141 180 229 288 333
#     4   9  20  35  56  83 109 145 190 237 283 329
#     4  10  19  35  56  81 110 143 193 239 276 328
#     4  10  18  30  53  84 115 143 179 235 290 330
#     4  11  23  37  56  83 117 155 189 227 280 341
#     4  11  19  37  55  80 118 149 183 233 281 336
#     4  11  19  36  54  85 115 149 190 235 279 336
#
# _framework density 24.014177
#
# number of rings (size 3 to 8) (size 9 to 14) (size 15 to 20)
#    0.000    1.714    4.286    1.714    0.000    3.429 
#    0.000    3.571    0.000    2.571    0.000    0.000 
#    0.000    0.000    0.000    0.000    0.000    0.000 
#
# Total GULP energy -156404.012547 kJ/mol
# GULP energy per Si atom -5585.857591 kJ/mol
# Density = 2.395952 g / cm^3
# Si number density = 24.014177 Si / 1000 Ang^3
#
#
#
# Elastic Constant Matrix: (Units=GPa)
#
#
# Indices 1 2 3 4 5 6 
#
# 1 118.7606 2.7727 40.2127 0.0002 -36.5975 0.0002
# 2 2.7727 116.1691 26.7541 0.0001 -16.6762 0.0001
# 3 40.2127 26.7541 146.9697 0.0001 -31.1194 0.0001
# 4 0.0002 0.0001 0.0001 19.3838 0.0001 -4.4992
# 5 -36.5975 -16.6762 -31.1194 0.0001 47.4596 0.0001
# 6 0.0002 0.0001 0.0001 -4.4992 0.0001 19.8554
#
#
#
# Elastic Compliance Matrix: (Units=1/GPa)
#
#
# Indices 1 2 3 4 5 6 
#
# 1 0.011480 0.001284 -0.001631 0.000000 0.008234 0.000000
# 2 0.001284 0.009374 -0.001336 0.000000 0.003408 0.000000
# 3 -0.001631 -0.001336 0.008277 0.000000 0.003700 0.000000
# 4 0.000000 0.000000 0.000000 0.054453 0.000000 0.012339
# 5 0.008234 0.003408 0.003700 0.000000 0.031043 0.000000
# 6 0.000000 0.000000 0.000000 0.012339 0.000000 0.053160
#
#
# Mechanical properties :
#
#
# Convention : Reuss Voigt Hill
#
# Bulk Modulus (GPa) = 38.81377 57.93094 48.37236
# Shear Modulus (GPa) = 27.81729 38.15042 32.98386
#
# Velocity S-wave (km/s) = 3.40718 3.99013 3.71012
# Velocity P-wave (km/s) = 5.62818 6.73826 6.20808
#
# Compressibility (1/GPa) = 0.02576405
#
# Stress axis : x y z
#
# Youngs Moduli (GPa) = 87.10716 106.67341 120.81495
#
# Poissons Ratio (x) = -0.13694 0.19709
# Poissons Ratio (y) = -0.11182 0.16143
# Poissons Ratio (z) = 0.14210 0.14254
#
# Static dielectric constant tensor:
#      x y z
#    x 1.993190 0.000000 0.045850 
#    y 0.000000 1.913460 0.000000 
#    z 0.045850 0.000000 1.975200 
# 
# From -- ./inp_files/233737.got.cif
#   From: 2010.05.17/outbox.cif.g08.bks.cpg/sg12_117_cif.got.tgz:233737.got - 2010.06.03 13:09:07.
