data_PCOD9173933
_publ_section_title
;
Structure prediction by ZEFSAII (Michael W. Deem and Ramdas Pophale) SiO2 
 PCOD9173933
Probable space group: C 2/M
;
_chemical_formula_sum "Si O2"
_cell_formula_units_Z 32
_cell_length_a 5.458225
_cell_length_b 26.234019
_cell_length_c 11.323094
_cell_angle_alpha 90.000000
_cell_angle_beta 85.819916
_cell_angle_gamma 90.000000
_cell_volume 1617.054132
_symmetry_space_group_name_H-M "C 2/M"
_symmetry_group_IT_number 12
_symmetry_cell_setting 'monoclinic'
loop_
_space_group_symop_operation_xyz
x,y,z
-x,y,-z
-x,-y,-z
x,-y,z
1/2+x,1/2+y,z
1/2-x,1/2+y,-z
1/2-x,1/2-y,-z
1/2+x,1/2-y,z
loop_
_atom_site_type_symbol
_atom_site_label
_atom_site_fract_x
_atom_site_fract_y
_atom_site_fract_z
Si Si1 0.744232 0.770794 0.134956
Si Si2 0.415431 0.058797 0.632910
Si Si3 0.164073 0.558355 0.862137
Si Si4 0.669011 0.390009 0.843695
O O1 0.475763 0.755385 0.190355
O O2 0.782220 0.831111 0.134344
O O3 0.750000 0.750000 0.000000
O O4 0.500000 0.073434 0.500000
O O5 0.639694 0.059010 0.718849
O O6 0.220877 0.095193 0.704838
O O7 0.323501 0.000000 0.633205
O O8 0.208076 0.500000 0.896097
O O9 0.393908 0.593760 0.883889
O O10 0.885284 0.577114 0.899391
#
# Coordination Sequence:
#
# PCOD9173933 Si02
#       4
#     8   8   8   8
#     4  10  21  37  57  80  97 125 180 234 268 304
#     4   8  16  29  48  78 111 141 172 201 242 311
#     4   9  17  29  48  79 109 141 171 200 250 317
#     4  10  18  31  51  76 107 139 170 214 264 300
#
# _framework density 19.789072999999998
#
# number of rings (size 3 to 8) (size 9 to 14) (size 15 to 20)
#    1.500    1.250    0.000    3.000    0.000    1.000 
#    0.000    3.750    0.000    1.500    0.000  119.000 
#    0.000    0.000    0.000    0.000    0.000    0.000 
#
# Total GULP energy -89136.016143 kJ/mol
# GULP energy per Si atom -5571.001009 kJ/mol
# Density = 1.974403 g / cm^3
# Si number density = 19.789073 Si / 1000 Ang^3
#
#
#
# Elastic Constant Matrix: (Units=GPa)
#
#
# Indices 1 2 3 4 5 6 
#
# 1 152.4451 62.3994 18.9754 0.0000 8.1684 0.0000
# 2 62.3994 147.4662 10.8554 0.0000 -1.7984 0.0000
# 3 18.9754 10.8554 67.9962 0.0000 -20.4920 0.0000
# 4 0.0000 0.0000 0.0000 12.7861 0.0000 3.1030
# 5 8.1684 -1.7984 -20.4920 0.0000 23.6043 0.0000
# 6 0.0000 0.0000 0.0000 3.1030 0.0000 34.8473
#
#
#
# Elastic Compliance Matrix: (Units=1/GPa)
#
#
# Indices 1 2 3 4 5 6 
#
# 1 0.008863 -0.003542 -0.003946 0.000000 -0.006763 0.000000
# 2 -0.003542 0.008284 0.000306 0.000000 0.002122 0.000000
# 3 -0.003946 0.000306 0.021910 0.000000 0.020410 0.000000
# 4 0.000000 0.000000 0.000000 0.079937 0.000000 -0.007118
# 5 -0.006763 0.002122 0.020410 0.000000 0.062586 0.000000
# 6 0.000000 0.000000 0.000000 -0.007118 0.000000 0.029330
#
#
# Mechanical properties :
#
#
# Convention : Reuss Voigt Hill
#
# Bulk Modulus (GPa) = 40.49966 61.37418 50.93692
# Shear Modulus (GPa) = 21.41266 32.62602 27.01934
#
# Velocity S-wave (km/s) = 3.29301 4.06481 3.69910
# Velocity P-wave (km/s) = 5.91343 7.28778 6.63628
#
# Compressibility (1/GPa) = 0.02469156
#
# Stress axis : x y z
#
# Youngs Moduli (GPa) = 112.82494 120.72114 45.64111
#
# Poissons Ratio (x) = 0.42765 0.18010
# Poissons Ratio (y) = 0.39968 -0.01396
# Poissons Ratio (z) = 0.44521 -0.03691
#
# Static dielectric constant tensor:
#      x y z
#    x 1.751320 0.000000 -0.023130 
#    y 0.000000 1.653240 0.000000 
#    z -0.023130 0.000000 1.774350 
# 
# From -- ./inp_files/114872.got.cif
#   From: 2010.05.17/outbox.cif.g08.bks.cpg/sg12_58_cif.got.tgz:114872.got - 2010.06.03 13:09:07.
