data_PCOD9173708
_publ_section_title
;
Structure prediction by ZEFSAII (Michael W. Deem and Ramdas Pophale) SiO2 
 PCOD9173708
Probable space group: C 2/M
;
_chemical_formula_sum "Si O2"
_cell_formula_units_Z 64
_cell_length_a 15.769746
_cell_length_b 20.988587
_cell_length_c 12.326695
_cell_angle_alpha 90.000000
_cell_angle_beta 111.835415
_cell_angle_gamma 90.000000
_cell_volume 3787.235960
_symmetry_space_group_name_H-M "C 2/M"
_symmetry_group_IT_number 12
_symmetry_cell_setting 'monoclinic'
loop_
_space_group_symop_operation_xyz
x,y,z
-x,y,-z
-x,-y,-z
x,-y,z
1/2+x,1/2+y,z
1/2-x,1/2+y,-z
1/2-x,1/2-y,-z
1/2+x,1/2-y,z
loop_
_atom_site_type_symbol
_atom_site_label
_atom_site_fract_x
_atom_site_fract_y
_atom_site_fract_z
Si Si1 0.407269 0.798528 0.525362
Si Si2 0.051493 0.569292 0.355587
Si Si3 0.074267 0.388903 0.127785
Si Si4 0.570845 0.749256 0.224873
Si Si5 0.868271 0.228584 0.115103
Si Si6 0.835584 0.426563 0.223419
Si Si7 0.270905 0.795646 0.275076
Si Si8 0.203250 0.356044 0.015365
O O1 0.500000 0.790539 0.500000
O O2 0.403013 0.872513 0.560136
O O3 0.414505 0.760180 0.640190
O O4 0.321153 0.780061 0.411452
O O5 0.074821 0.500000 0.412237
O O6 0.941985 0.578614 0.307099
O O7 0.073818 0.571354 0.237803
O O8 0.053839 0.317978 0.161956
O O9 0.170941 0.385569 0.112767
O O10 0.000000 0.406898 0.000000
O O11 0.474951 0.713392 0.166192
O O12 0.664620 0.721600 0.222886
O O13 0.827730 0.257982 0.208574
O O14 0.807141 0.167515 0.057941
O O15 0.849524 0.288421 0.026279
O O16 0.807496 0.500000 0.223761
O O17 0.783063 0.371074 0.261561
O O18 0.825077 0.403838 0.093588
#
# Coordination Sequence:
#
# PCOD9173708 Si02
#       8
#     8   8   8   8   8   8   8   8
#     4  11  19  34  51  72 107 131 159 212 256 295
#     4  10  21  32  48  74 103 136 170 199 246 310
#     4  11  17  29  48  74 105 134 162 203 243 296
#     4  11  21  32  50  75 104 132 169 206 252 305
#     4  10  19  31  50  77 102 131 171 201 243 312
#     4  10  20  33  49  75 104 133 170 202 242 302
#     4  11  20  34  53  75 100 136 166 206 258 296
#     4  10  18  31  49  73 106 136 163 203 249 288
#
# _framework density 16.898866999999999
#
# number of rings (size 3 to 8) (size 9 to 14) (size 15 to 20)
#    0.000    1.500    6.250    1.875    0.000    1.500 
#    0.000    0.000    0.000    1.500    0.000    0.000 
#    0.000    1.500    0.000    0.000    0.000    0.000 
#
# Total GULP energy -178503.605245 kJ/mol
# GULP energy per Si atom -5578.237664 kJ/mol
# Density = 1.686040 g / cm^3
# Si number density = 16.898867 Si / 1000 Ang^3
#
#
#
# Elastic Constant Matrix: (Units=GPa)
#
#
# Indices 1 2 3 4 5 6 
#
# 1 79.6934 -1.1586 6.4821 0.0000 11.1756 0.0000
# 2 -1.1586 24.0347 -12.9451 0.0000 5.2266 0.0000
# 3 6.4821 -12.9451 48.6438 0.0000 -0.1263 0.0000
# 4 0.0000 0.0000 0.0000 7.7326 0.0000 4.0224
# 5 11.1756 5.2266 -0.1263 0.0000 29.2595 0.0000
# 6 0.0000 0.0000 0.0000 4.0224 0.0000 9.3024
#
#
#
# Elastic Compliance Matrix: (Units=1/GPa)
#
#
# Indices 1 2 3 4 5 6 
#
# 1 0.013433 0.000970 -0.001546 0.000000 -0.005310 0.000000
# 2 0.000970 0.050914 0.013396 0.000000 -0.009407 0.000000
# 3 -0.001546 0.013396 0.024324 0.000000 -0.001697 0.000000
# 4 0.000000 0.000000 0.000000 0.166853 0.000000 -0.072147
# 5 -0.005310 -0.009407 -0.001697 0.000000 0.037878 0.000000
# 6 0.000000 0.000000 0.000000 -0.072147 0.000000 0.138695
#
#
# Mechanical properties :
#
#
# Convention : Reuss Voigt Hill
#
# Bulk Modulus (GPa) = 8.74814 15.23651 11.99232
# Shear Modulus (GPa) = 11.24706 19.92513 15.58609
#
# Velocity S-wave (km/s) = 2.58263 3.43750 3.04026
# Velocity P-wave (km/s) = 3.75250 4.97906 4.40865
#
# Compressibility (1/GPa) = 0.11431002
#
# Stress axis : x y z
#
# Youngs Moduli (GPa) = 74.44564 19.64099 41.11165
#
# Poissons Ratio (x) = -0.01905 0.06355
# Poissons Ratio (y) = -0.07220 -0.55071
# Poissons Ratio (z) = 0.11507 -0.26310
#
# Static dielectric constant tensor:
#      x y z
#    x 1.587510 0.000000 -0.019770 
#    y 0.000000 1.567310 0.000000 
#    z -0.019770 0.000000 1.613340 
# 
# From -- ./inp_files/147682.got.cif
#   From: 2010.05.17/outbox.cif.g08.bks.cpg/sg12_74_cif.got.tgz:147682.got - 2010.06.03 13:09:07.
