data_PCOD9173811
_publ_section_title
;
Structure prediction by ZEFSAII (Michael W. Deem and Ramdas Pophale) SiO2 
 PCOD9173811
Probable space group: C 2/M
;
_chemical_formula_sum "Si O2"
_cell_formula_units_Z 40
_cell_length_a 4.933089
_cell_length_b 33.271452
_cell_length_c 13.088588
_cell_angle_alpha 90.000000
_cell_angle_beta 106.094830
_cell_angle_gamma 90.000000
_cell_volume 2064.041301
_symmetry_space_group_name_H-M "C 2/M"
_symmetry_group_IT_number 12
_symmetry_cell_setting 'monoclinic'
loop_
_space_group_symop_operation_xyz
x,y,z
-x,y,-z
-x,-y,-z
x,-y,z
1/2+x,1/2+y,z
1/2-x,1/2+y,-z
1/2-x,1/2-y,-z
1/2+x,1/2-y,z
loop_
_atom_site_type_symbol
_atom_site_label
_atom_site_fract_x
_atom_site_fract_y
_atom_site_fract_z
Si Si1 0.986864 0.500000 0.836352
Si Si2 0.117547 0.000000 0.296072
Si Si3 0.678095 0.081020 0.930615
Si Si4 0.300201 0.635114 0.379813
Si Si5 0.755263 0.909849 0.697917
Si Si6 0.601417 0.274257 0.629102
O O1 0.720685 0.500000 0.731795
O O2 0.291853 0.500000 0.813534
O O3 0.985565 0.541103 0.896320
O O4 0.241300 0.956544 0.339851
O O5 0.713014 0.094442 0.815841
O O6 0.500000 0.104568 0.000000
O O7 0.000000 0.074210 0.000000
O O8 0.500000 0.633901 0.500000
O O9 0.452715 0.608897 0.308992
O O10 0.282835 0.681239 0.341760
O O11 0.001388 0.615653 0.374303
O O12 0.500000 0.274083 0.500000
O O13 0.332109 0.260578 0.664505
#
# Coordination Sequence:
#
# PCOD9173811 Si02
#       6
#     4   4   8   8   8   8
#     4  10  18  31  50  74  97 128 171 224 288 335
#     4  10  20  35  51  70 102 144 186 228 259 291
#     4  11  20  32  51  76 103 133 172 222 280 325
#     4  11  22  37  56  78 108 144 177 212 260 312
#     4  11  22  37  52  75 108 143 184 225 259 302
#     4   9  17  31  53  80 106 129 157 204 268 330
#
# _framework density 19.379456999999999
#
# number of rings (size 3 to 8) (size 9 to 14) (size 15 to 20)
#    0.000    1.600    0.000    8.400    0.000    3.200 
#    0.000    3.000    0.000    0.000    0.000    0.000 
#    0.000   56.000    0.000    0.000    0.000    0.000 
#
# Total GULP energy -111396.852836 kJ/mol
# GULP energy per Si atom -5569.842642 kJ/mol
# Density = 1.933535 g / cm^3
# Si number density = 19.379457 Si / 1000 Ang^3
#
#
#
# Elastic Constant Matrix: (Units=GPa)
#
#
# Indices 1 2 3 4 5 6 
#
# 1 89.0544 22.1719 -2.1024 0.0000 3.1167 0.0000
# 2 22.1719 107.3954 4.1997 0.0000 9.9357 0.0000
# 3 -2.1024 4.1997 34.8835 0.0000 -1.6294 0.0000
# 4 0.0000 0.0000 0.0000 17.1088 0.0000 12.6736
# 5 3.1167 9.9357 -1.6294 0.0000 38.6951 0.0000
# 6 0.0000 0.0000 0.0000 12.6736 0.0000 11.7735
#
#
#
# Elastic Compliance Matrix: (Units=1/GPa)
#
#
# Indices 1 2 3 4 5 6 
#
# 1 0.011876 -0.002465 0.000999 0.000000 -0.000282 0.000000
# 2 -0.002465 0.010106 -0.001480 0.000000 -0.002459 0.000000
# 3 0.000999 -0.001480 0.028976 0.000000 0.001520 0.000000
# 4 0.000000 0.000000 0.000000 0.288491 0.000000 -0.310547
# 5 -0.000282 -0.002459 0.001520 0.000000 0.026561 0.000000
# 6 0.000000 0.000000 0.000000 -0.310547 0.000000 0.419226
#
#
# Mechanical properties :
#
#
# Convention : Reuss Voigt Hill
#
# Bulk Modulus (GPa) = 22.18920 31.09687 26.64304
# Shear Modulus (GPa) = 6.20233 27.31975 16.76104
#
# Velocity S-wave (km/s) = 1.79092 3.75871 2.94409
# Velocity P-wave (km/s) = 3.96879 5.90917 5.03337
#
# Compressibility (1/GPa) = 0.04506696
#
# Stress axis : x y z
#
# Youngs Moduli (GPa) = 84.20186 98.95502 34.51100
#
# Poissons Ratio (x) = 0.24391 -0.03449
# Poissons Ratio (y) = 0.20755 0.05108
# Poissons Ratio (z) = -0.08415 0.14646
#
# Static dielectric constant tensor:
#      x y z
#    x 1.686050 0.000000 0.002450 
#    y 0.000000 1.711690 0.000000 
#    z 0.002450 0.000000 1.720690 
# 
# From -- ./inp_files/116201.got.cif
#   From: 2010.05.17/outbox.cif.g08.bks.cpg/sg12_59_cif.got.tgz:116201.got - 2010.06.03 13:09:07.
