data_PCOD9173074
_publ_section_title
;
Structure prediction by ZEFSAII (Michael W. Deem and Ramdas Pophale) SiO2 
 PCOD9173074
Probable space group: C 2/M
;
_chemical_formula_sum "Si O2"
_cell_formula_units_Z 56
_cell_length_a 20.129859
_cell_length_b 9.512501
_cell_length_c 27.049797
_cell_angle_alpha 90.000000
_cell_angle_beta 149.527255
_cell_angle_gamma 90.000000
_cell_volume 2626.742030
_symmetry_space_group_name_H-M "C 2/M"
_symmetry_group_IT_number 12
_symmetry_cell_setting 'monoclinic'
loop_
_space_group_symop_operation_xyz
x,y,z
-x,y,-z
-x,-y,-z
x,-y,z
1/2+x,1/2+y,z
1/2-x,1/2+y,-z
1/2-x,1/2-y,-z
1/2+x,1/2-y,z
loop_
_atom_site_type_symbol
_atom_site_label
_atom_site_fract_x
_atom_site_fract_y
_atom_site_fract_z
Si Si1 0.475177 0.168930 0.732443
Si Si2 0.995609 0.339206 0.899147
Si Si3 0.179687 0.158595 0.146414
Si Si4 0.740876 0.335114 0.069104
Si Si5 0.764711 0.662520 0.668968
Si Si6 0.877446 0.332191 0.564366
Si Si7 0.413647 0.835876 0.376610
O O1 0.611022 0.219587 0.842701
O O2 0.340148 0.222913 0.669576
O O3 0.473883 0.188493 0.673047
O O4 0.472812 0.000000 0.739363
O O5 0.030645 0.500000 0.931054
O O6 0.925651 0.268062 0.901199
O O7 0.884796 0.335808 0.785648
O O8 0.125918 0.252715 0.970583
O O9 0.215949 0.173579 0.112478
O O10 0.305358 0.171172 0.263051
O O11 0.126994 0.000000 0.120037
O O12 0.734791 0.500000 0.051477
O O13 0.724904 0.500000 0.635747
O O14 0.647107 0.750041 0.617152
O O15 0.852513 0.500000 0.544370
O O16 0.750000 0.250000 0.500000
O O17 0.952015 0.284599 0.562633
O O18 0.427906 0.000000 0.398721
#
# Coordination Sequence:
#
# PCOD9173074 Si02
#       7
#     8   8   8   8   8   8   8
#     4   9  18  36  58  77 101 138 180 217 253 304
#     4  10  20  30  42  70 108 140 170 213 263 301
#     4   9  16  29  49  71  95 131 180 219 249 297
#     4  10  18  30  50  72  96 134 183 221 250 294
#     4   9  19  35  54  75 105 144 180 211 252 306
#     4  10  20  37  61  86 107 130 166 215 265 312
#     4   9  17  33  56  79 104 135 172 214 259 306
#
# _framework density 21.319185999999998
#
# number of rings (size 3 to 8) (size 9 to 14) (size 15 to 20)
#    0.000    2.571    1.429    0.857    0.000    4.000 
#    0.000    2.857    0.000    4.286    0.000    0.000 
#    0.000    0.000    0.000    0.000    0.000    0.000 
#
# Total GULP energy -156323.233390 kJ/mol
# GULP energy per Si atom -5582.972621 kJ/mol
# Density = 2.127066 g / cm^3
# Si number density = 21.319186 Si / 1000 Ang^3
#
#
#
# Elastic Constant Matrix: (Units=GPa)
#
#
# Indices 1 2 3 4 5 6 
#
# 1 134.9451 43.6086 25.9743 0.0000 29.9368 0.0000
# 2 43.6086 56.4486 23.9379 0.0000 23.9294 0.0000
# 3 25.9743 23.9379 75.0535 0.0001 28.2626 0.0000
# 4 0.0000 0.0000 0.0001 19.7450 0.0000 10.6677
# 5 29.9368 23.9294 28.2626 0.0000 43.4658 0.0000
# 6 0.0000 0.0000 0.0000 10.6677 0.0000 17.6308
#
#
#
# Elastic Compliance Matrix: (Units=1/GPa)
#
#
# Indices 1 2 3 4 5 6 
#
# 1 0.010278 -0.006398 -0.000235 0.000000 -0.003404 0.000000
# 2 -0.006398 0.027771 -0.003371 0.000000 -0.008691 0.000000
# 3 -0.000235 -0.003371 0.018169 0.000000 -0.009797 0.000000
# 4 0.000000 0.000000 0.000000 0.075243 0.000000 -0.045527
# 5 -0.003404 -0.008691 -0.009797 0.000000 0.036506 0.000000
# 6 0.000000 0.000000 0.000000 -0.045527 0.000000 0.084265
#
#
# Mechanical properties :
#
#
# Convention : Reuss Voigt Hill
#
# Bulk Modulus (GPa) = 27.61445 50.38763 39.00104
# Shear Modulus (GPa) = 17.58644 27.69676 22.64160
#
# Velocity S-wave (km/s) = 2.87524 3.60828 3.26241
# Velocity P-wave (km/s) = 4.89936 6.40670 5.70304
#
# Compressibility (1/GPa) = 0.03621292
#
# Stress axis : x y z
#
# Youngs Moduli (GPa) = 97.29252 36.00843 55.03818
#
# Poissons Ratio (x) = 0.23037 0.01291
# Poissons Ratio (y) = 0.62245 0.18552
# Poissons Ratio (z) = 0.02282 0.12137
#
# Static dielectric constant tensor:
#      x y z
#    x 1.808580 0.000000 -0.016640 
#    y 0.000000 1.714520 0.000000 
#    z -0.016640 0.000000 1.819640 
# 
# From -- ./inp_files/281698.got.cif
#   From: 2010.05.17/outbox.cif.g08.bks.cpg/sg12_141_cif.got.tgz:281698.got - 2010.06.03 13:09:07.
