data_PCOD9173236
_publ_section_title
;
Structure prediction by ZEFSAII (Michael W. Deem and Ramdas Pophale) SiO2 
 PCOD9173236
Probable space group: C 2/M
;
_chemical_formula_sum "Si O2"
_cell_formula_units_Z 40
_cell_length_a 27.101256
_cell_length_b 16.299356
_cell_length_c 5.710776
_cell_angle_alpha 90.000000
_cell_angle_beta 55.331252
_cell_angle_gamma 90.000000
_cell_volume 2074.755073
_symmetry_space_group_name_H-M "C 2/M"
_symmetry_group_IT_number 12
_symmetry_cell_setting 'monoclinic'
loop_
_space_group_symop_operation_xyz
x,y,z
-x,y,-z
-x,-y,-z
x,-y,z
1/2+x,1/2+y,z
1/2-x,1/2+y,-z
1/2-x,1/2-y,-z
1/2+x,1/2-y,z
loop_
_atom_site_type_symbol
_atom_site_label
_atom_site_fract_x
_atom_site_fract_y
_atom_site_fract_z
Si Si1 0.471250 0.623510 0.825648
Si Si2 0.515953 0.808860 0.705027
Si Si3 0.761917 0.181066 0.276952
Si Si4 0.344158 0.588767 0.341706
Si Si5 0.152483 0.249047 0.337309
O O1 0.500000 0.596715 0.500000
O O2 0.478586 0.722644 0.806075
O O3 0.500000 0.597288 0.000000
O O4 0.403093 0.595092 0.022363
O O5 0.500000 0.850883 0.500000
O O6 0.586021 0.784547 0.507250
O O7 0.500000 0.848483 0.000000
O O8 0.750000 0.250000 0.500000
O O9 0.784802 0.100820 0.345875
O O10 0.700877 0.183215 0.293727
O O11 0.817964 0.215027 0.977942
O O12 0.343852 0.500000 0.462491
O O13 0.348723 0.667698 0.496861
#
# Coordination Sequence:
#
# PCOD9173236 Si02
#       5
#     8   8   8   8   8
#     4  10  19  33  48  69 106 145 184 216 254 306
#     4  10  18  30  51  75 106 137 177 219 262 312
#     4   9  20  35  55  71  95 139 187 227 270 314
#     4  11  22  34  50  75 107 145 185 225 267 315
#     4  10  19  36  52  73 102 143 180 228 270 316
#
# _framework density 19.279385000000001
#
# number of rings (size 3 to 8) (size 9 to 14) (size 15 to 20)
#    0.000    2.000    4.000    2.400    2.800    1.600 
#    0.000    0.000    0.000    0.600    0.000    0.000 
#    0.000    1.600    0.000    1.200    0.000    0.800 
#
# Total GULP energy -111377.337328 kJ/mol
# GULP energy per Si atom -5568.866866 kJ/mol
# Density = 1.923550 g / cm^3
# Si number density = 19.279385 Si / 1000 Ang^3
#
#
#
# Elastic Constant Matrix: (Units=GPa)
#
#
# Indices 1 2 3 4 5 6 
#
# 1 99.0168 17.1834 34.4145 0.0000 2.0970 0.0000
# 2 17.1834 20.8503 14.8328 0.0000 -4.2662 0.0000
# 3 34.4145 14.8328 144.8288 0.0000 16.3020 0.0000
# 4 0.0000 0.0000 0.0000 -7.3448 0.0000 -1.5654
# 5 2.0970 -4.2662 16.3020 0.0000 39.0739 0.0000
# 6 0.0000 0.0000 0.0000 -1.5654 0.0000 -3.0606
#
#
#
# Elastic Compliance Matrix: (Units=1/GPa)
#
#
# Indices 1 2 3 4 5 6 
#
# 1 0.012342 -0.008979 -0.001918 0.000000 -0.000842 0.000000
# 2 -0.008979 0.060925 -0.005151 0.000000 0.009283 0.000000
# 3 -0.001918 -0.005151 0.008331 0.000000 -0.003935 0.000000
# 4 0.000000 0.000000 0.000000 -0.152808 0.000000 0.078154
# 5 -0.000842 0.009283 -0.003935 0.000000 0.028293 0.000000
# 6 0.000000 0.000000 0.000000 0.078154 0.000000 -0.366701
#
#
# Mechanical properties :
#
#
# Convention : Reuss Voigt Hill
#
# Bulk Modulus (GPa) = 20.20166 44.17307 32.18736
# Shear Modulus (GPa) = -13.84959 18.95138 2.55090
#
# Velocity S-wave (km/s) = -2.68314 3.13866 1.15152
# Velocity P-wave (km/s) = 0.94982 6.00806 4.30110
#
# Compressibility (1/GPa) = 0.04950088
#
# Stress axis : x y z
#
# Youngs Moduli (GPa) = 81.02332 16.41373 120.03328
#
# Poissons Ratio (x) = 0.14738 0.23026
# Poissons Ratio (y) = 0.72753 0.61828
# Poissons Ratio (z) = 0.15543 0.08455
#
# Static dielectric constant tensor:
#      x y z
#    x 1.769200 0.000000 0.054410 
#    y 0.000000 1.654010 0.000000 
#    z 0.054410 0.000000 1.712510 
# 
# From -- ./inp_files/20123.got.cif
#   From: 2010.05.17/outbox.cif.g08.bks.cpg/sg12_11_cif.got.tgz:20123.got - 2010.06.03 13:09:07.
