data_PCOD9173275
_publ_section_title
;
Structure prediction by ZEFSAII (Michael W. Deem and Ramdas Pophale) SiO2 
 PCOD9173275
Probable space group: C 2/M
;
_chemical_formula_sum "Si O2"
_cell_formula_units_Z 36
_cell_length_a 19.556722
_cell_length_b 17.494080
_cell_length_c 15.290238
_cell_angle_alpha 90.000000
_cell_angle_beta 20.232728
_cell_angle_gamma 90.000000
_cell_volume 1809.128356
_symmetry_space_group_name_H-M "C 2/M"
_symmetry_group_IT_number 12
_symmetry_cell_setting 'monoclinic'
loop_
_space_group_symop_operation_xyz
x,y,z
-x,y,-z
-x,-y,-z
x,-y,z
1/2+x,1/2+y,z
1/2-x,1/2+y,-z
1/2-x,1/2-y,-z
1/2+x,1/2-y,z
loop_
_atom_site_type_symbol
_atom_site_label
_atom_site_fract_x
_atom_site_fract_y
_atom_site_fract_z
Si Si1 0.278272 0.917548 0.305999
Si Si2 0.000000 0.139305 0.000000
Si Si3 0.208301 0.229439 0.286047
Si Si4 0.203891 0.869081 0.587755
Si Si5 0.428852 0.229852 0.850574
O O1 0.180862 0.840061 0.386311
O O2 0.264152 0.914298 0.428205
O O3 0.192252 0.000000 0.381196
O O4 0.500000 0.914713 0.000000
O O5 0.171083 0.199157 0.822343
O O6 0.086323 0.096233 0.811583
O O7 0.000000 0.256129 0.500000
O O8 0.332038 0.197836 0.055415
O O9 0.406000 0.829535 0.379441
O O10 0.054451 0.803558 0.730842
O O11 0.250000 0.250000 0.000000
#
# Coordination Sequence:
#
# PCOD9173275 Si02
#       5
#     8   4   8   8   8
#     4  11  21  36  53  72 105 143 176 211 249 298
#     4  10  20  34  54  80 106 130 164 218 266 308
#     4  11  19  32  53  82 106 133 168 210 264 312
#     4  10  19  34  50  73 103 135 169 209 258 300
#     4  10  18  30  51  77 106 132 163 208 262 314
#
# _framework density 19.899087000000002
#
# number of rings (size 3 to 8) (size 9 to 14) (size 15 to 20)
#    0.000    1.556    3.333    5.333    0.000    0.444 
#    0.000    0.556    0.000    0.000    0.000    0.000 
#    0.000   11.556    0.000    0.000    0.000    0.000 
#
# Total GULP energy -100299.115757 kJ/mol
# GULP energy per Si atom -5572.173098 kJ/mol
# Density = 1.985380 g / cm^3
# Si number density = 19.899087 Si / 1000 Ang^3
#
#
#
# Elastic Constant Matrix: (Units=GPa)
#
#
# Indices 1 2 3 4 5 6 
#
# 1 110.9318 24.6579 58.2244 -0.0085 24.4621 0.0013
# 2 24.6579 51.1333 16.9612 -0.0357 -4.2314 0.0311
# 3 58.2244 16.9612 114.4914 -0.0498 9.6667 0.0478
# 4 -0.0085 -0.0357 -0.0498 -8.0089 0.0204 4.1377
# 5 24.4621 -4.2314 9.6667 0.0204 70.3544 -0.0148
# 6 0.0013 0.0311 0.0478 4.1377 -0.0148 -2.3527
#
#
#
# Elastic Compliance Matrix: (Units=1/GPa)
#
#
# Indices 1 2 3 4 5 6 
#
# 1 0.014414 -0.005275 -0.006170 -0.000511 -0.004481 -0.001057
# 2 -0.005275 0.022694 -0.000961 0.000564 0.003331 0.001248
# 3 -0.006170 -0.000961 0.011977 0.000583 0.000442 0.001249
# 4 -0.000511 0.000564 0.000583 -1.365682 0.000023 -2.401750
# 5 -0.004481 0.003331 0.000442 0.000023 0.015911 -0.000009
# 6 -0.001057 0.001248 0.001249 -2.401750 -0.000009 -4.648853
#
#
# Mechanical properties :
#
#
# Convention : Reuss Voigt Hill
#
# Bulk Modulus (GPa) = 41.19760 52.91595 47.05677
# Shear Modulus (GPa) = -0.84507 23.77941 11.46717
#
# Velocity S-wave (km/s) = -0.65238 3.46063 2.40316
# Velocity P-wave (km/s) = 4.49230 6.52823 5.60350
#
# Compressibility (1/GPa) = 0.02427326
#
# Stress axis : x y z
#
# Youngs Moduli (GPa) = 69.37929 44.06377 83.49440
#
# Poissons Ratio (x) = 0.23241 0.51516
# Poissons Ratio (y) = 0.36594 0.08026
# Poissons Ratio (z) = 0.42807 0.04235
#
# Static dielectric constant tensor:
#      x y z
#    x 1.758880 -0.000010 0.058590 
#    y -0.000010 1.703750 0.000010 
#    z 0.058590 0.000010 1.728180 
# 
# From -- ./inp_files/227357.got.cif
#   From: 2010.05.17/outbox.cif.g08.bks.cpg/sg12_114_cif.got.tgz:227357.got - 2010.06.03 13:09:07.
