data_PCOD9173831
_publ_section_title
;
Structure prediction by ZEFSAII (Michael W. Deem and Ramdas Pophale) SiO2 
 PCOD9173831
Probable space group: C 2/M
;
_chemical_formula_sum "Si O2"
_cell_formula_units_Z 52
_cell_length_a 22.225171
_cell_length_b 7.836454
_cell_length_c 18.188923
_cell_angle_alpha 90.000000
_cell_angle_beta 135.815195
_cell_angle_gamma 90.000000
_cell_volume 2207.948069
_symmetry_space_group_name_H-M "C 2/M"
_symmetry_group_IT_number 12
_symmetry_cell_setting 'monoclinic'
loop_
_space_group_symop_operation_xyz
x,y,z
-x,y,-z
-x,-y,-z
x,-y,z
1/2+x,1/2+y,z
1/2-x,1/2+y,-z
1/2-x,1/2-y,-z
1/2+x,1/2-y,z
loop_
_atom_site_type_symbol
_atom_site_label
_atom_site_fract_x
_atom_site_fract_y
_atom_site_fract_z
Si Si1 0.110569 0.696952 0.244269
Si Si2 0.358227 0.800905 0.978639
Si Si3 0.000000 0.757940 0.000000
Si Si4 0.283217 0.193432 0.450358
Si Si5 0.594458 0.209356 0.559264
Si Si6 0.333588 0.793444 0.225286
Si Si7 0.038695 0.296268 0.783862
O O1 0.131617 0.500000 0.278798
O O2 0.200887 0.793356 0.323785
O O3 0.049531 0.768406 0.256419
O O4 0.055092 0.695882 0.120533
O O5 0.257239 0.771128 0.883963
O O6 0.378266 0.000000 0.976279
O O7 0.415854 0.687280 0.974059
O O8 0.390746 0.774062 0.089726
O O9 0.250000 0.250000 0.500000
O O10 0.364454 0.276167 0.480188
O O11 0.309023 0.000000 0.483988
O O12 0.500000 0.267073 0.500000
O O13 0.655745 0.255132 0.680882
O O14 0.591085 0.000000 0.552926
O O15 0.416138 0.731985 0.250256
O O16 0.333291 0.000000 0.219900
O O17 0.024721 0.500000 0.762227
#
# Coordination Sequence:
#
# PCOD9173831 Si02
#       7
#     8   8   4   8   8   8   8
#     4  10  19  35  60  87 116 155 199 239 285 343
#     4  10  18  31  50  76 110 146 183 221 269 332
#     4  10  19  34  57  84 117 156 195 230 281 358
#     4  11  24  41  62  89 118 152 197 247 299 353
#     4   9  20  37  59  83 107 142 191 237 281 340
#     4  10  19  33  54  78 106 139 184 233 278 330
#     4   8  17  31  52  80 108 147 189 221 264 337
#
# _framework density 23.551276999999999
#
# number of rings (size 3 to 8) (size 9 to 14) (size 15 to 20)
#    0.000    2.308    0.000    4.154    2.154    0.000 
#    0.000    5.385    0.000    2.308    0.000    0.000 
#    0.000    0.000    0.000    0.000    0.000    0.000 
#
# Total GULP energy -144894.499588 kJ/mol
# GULP energy per Si atom -5572.865369 kJ/mol
# Density = 2.349767 g / cm^3
# Si number density = 23.551277 Si / 1000 Ang^3
#
#
#
# Elastic Constant Matrix: (Units=GPa)
#
#
# Indices 1 2 3 4 5 6 
#
# 1 198.3243 11.7427 33.4598 0.0000 -13.4758 0.0000
# 2 11.7427 32.2363 0.8371 0.0000 -14.2874 0.0000
# 3 33.4598 0.8371 53.8215 0.0000 3.4543 0.0000
# 4 0.0000 0.0000 0.0000 11.7762 0.0000 5.9011
# 5 -13.4758 -14.2874 3.4543 0.0000 33.8560 0.0000
# 6 0.0000 0.0000 0.0000 5.9011 0.0000 2.8631
#
#
#
# Elastic Compliance Matrix: (Units=1/GPa)
#
#
# Indices 1 2 3 4 5 6 
#
# 1 0.005901 -0.001031 -0.003800 0.000000 0.002301 0.000000
# 2 -0.001031 0.038482 -0.000980 -0.000003 0.015929 0.000005
# 3 -0.003800 -0.000980 0.021220 0.000000 -0.004091 0.000000
# 4 0.000000 -0.000003 0.000000 -2.588353 -0.000001 5.334747
# 5 0.002301 0.015929 -0.004091 -0.000001 0.037592 0.000002
# 6 0.000000 0.000005 0.000000 5.334747 0.000002-10.645958
#
#
# Mechanical properties :
#
#
# Convention : Reuss Voigt Hill
#
# Bulk Modulus (GPa) = 18.52506 41.82904 30.17705
# Shear Modulus (GPa) = -0.38164 25.58856 12.60346
#
# Velocity S-wave (km/s) = -0.40298 3.29979 2.31584
# Velocity P-wave (km/s) = 2.76882 5.68485 4.47124
#
# Compressibility (1/GPa) = 0.05398092
#
# Stress axis : x y z
#
# Youngs Moduli (GPa) = 169.46922 25.98628 47.12488
#
# Poissons Ratio (x) = 0.02679 0.17908
# Poissons Ratio (y) = 0.17468 0.04619
# Poissons Ratio (z) = 0.64400 0.02547
#
# Static dielectric constant tensor:
#      x y z
#    x 1.919810 0.000000 -0.009830 
#    y 0.000000 1.929180 0.000000 
#    z -0.009830 0.000000 1.855940 
# 
# From -- ./inp_files/282298.got.cif
#   From: 2010.05.17/outbox.cif.g08.bks.cpg/sg12_142_cif.got.tgz:282298.got - 2010.06.03 13:09:07.
