data_PCOD9173396
_publ_section_title
;
Structure prediction by ZEFSAII (Michael W. Deem and Ramdas Pophale) SiO2 
 PCOD9173396
Probable space group: C 2/M
;
_chemical_formula_sum "Si O2"
_cell_formula_units_Z 56
_cell_length_a 20.522161
_cell_length_b 7.475559
_cell_length_c 17.770594
_cell_angle_alpha 90.000000
_cell_angle_beta 80.363461
_cell_angle_gamma 90.000000
_cell_volume 2687.799958
_symmetry_space_group_name_H-M "C 2/M"
_symmetry_group_IT_number 12
_symmetry_cell_setting 'monoclinic'
loop_
_space_group_symop_operation_xyz
x,y,z
-x,y,-z
-x,-y,-z
x,-y,z
1/2+x,1/2+y,z
1/2-x,1/2+y,-z
1/2-x,1/2-y,-z
1/2+x,1/2-y,z
loop_
_atom_site_type_symbol
_atom_site_label
_atom_site_fract_x
_atom_site_fract_y
_atom_site_fract_z
Si Si1 0.430387 0.719215 0.548131
Si Si2 0.571315 0.792198 0.010114
Si Si3 0.832510 0.705839 0.882608
Si Si4 0.178348 0.213549 0.547795
Si Si5 0.364433 0.707080 0.708564
Si Si6 0.813217 0.217321 0.125404
Si Si7 0.215642 0.783098 0.701056
O O1 0.500000 0.770593 0.500000
O O2 0.427907 0.500000 0.551710
O O3 0.375043 0.783019 0.500454
O O4 0.414252 0.779750 0.636012
O O5 0.613149 0.712552 0.072033
O O6 0.557912 0.000000 0.032606
O O7 0.500000 0.714912 0.000000
O O8 0.623497 0.782298 0.931943
O O9 0.824334 0.500000 0.908543
O O10 0.858119 0.707167 0.791791
O O11 0.757594 0.780984 0.894825
O O12 0.250000 0.250000 0.500000
O O13 0.178212 0.279699 0.633744
O O14 0.168562 0.000000 0.553607
O O15 0.380097 0.500000 0.719472
O O16 0.291562 0.720172 0.685716
O O17 0.813814 0.271308 0.212874
O O18 0.812774 0.000000 0.122921
O O19 0.217668 0.000000 0.699912
#
# Coordination Sequence:
#
# PCOD9173396 Si02
#       7
#     8   8   8   8   8   8   8
#     4   9  18  32  48  72 105 137 171 211 251 295
#     4  10  21  37  55  76 104 138 168 200 253 310
#     4   9  19  36  56  76 102 134 168 208 255 305
#     4  10  18  31  53  75 101 137 173 210 253 298
#     4  10  18  30  52  80 102 129 173 215 252 296
#     4   9  18  33  53  78 103 131 170 211 250 295
#     4   9  18  32  51  77 105 135 167 208 261 303
#
# _framework density 20.834885
#
# number of rings (size 3 to 8) (size 9 to 14) (size 15 to 20)
#    0.000    2.571    1.429    1.714    0.000    3.143 
#    2.571    0.000    0.000    3.857    0.000    0.000 
#    0.000    0.000    0.000    0.000    0.000    0.000 
#
# Total GULP energy -156201.895145 kJ/mol
# GULP energy per Si atom -5578.639112 kJ/mol
# Density = 2.078746 g / cm^3
# Si number density = 20.834885 Si / 1000 Ang^3
#
#
#
# Elastic Constant Matrix: (Units=GPa)
#
#
# Indices 1 2 3 4 5 6 
#
# 1 146.0069 -3.9043 75.6187 0.0000 -3.8330 0.0000
# 2 -3.9043 59.3002 -7.9412 0.0000 4.7895 0.0000
# 3 75.6187 -7.9412 118.5812 0.0000 -5.0738 0.0000
# 4 0.0000 0.0000 0.0000 4.8336 0.0000 -7.6137
# 5 -3.8330 4.7895 -5.0738 0.0000 31.4938 0.0000
# 6 0.0000 0.0000 0.0000 -7.6137 0.0000 8.1000
#
#
#
# Elastic Compliance Matrix: (Units=1/GPa)
#
#
# Indices 1 2 3 4 5 6 
#
# 1 0.010230 -0.000219 -0.006529 0.000000 0.000227 0.000000
# 2 -0.000219 0.017206 0.001187 0.000000 -0.002452 0.000000
# 3 -0.006529 0.001187 0.012722 0.000000 0.001074 0.000000
# 4 0.000000 0.000000 0.000000 -0.430487 0.000000 -0.404639
# 5 0.000227 -0.002452 0.001074 0.000000 0.032326 0.000000
# 6 0.000000 0.000000 0.000000 -0.404639 0.000000 -0.256886
#
#
# Mechanical properties :
#
#
# Convention : Reuss Voigt Hill
#
# Bulk Modulus (GPa) = 34.43942 50.15944 42.29943
# Shear Modulus (GPa) = -8.41626 26.22649 8.90512
#
# Velocity S-wave (km/s) = -2.01203 3.55177 2.06964
# Velocity P-wave (km/s) = 3.34184 6.39900 5.10466
#
# Compressibility (1/GPa) = 0.02903649
#
# Stress axis : x y z
#
# Youngs Moduli (GPa) = 97.74716 58.11950 78.60429
#
# Poissons Ratio (x) = 0.01273 0.51320
# Poissons Ratio (y) = 0.02141 -0.09330
# Poissons Ratio (z) = 0.63818 -0.06899
#
# Static dielectric constant tensor:
#      x y z
#    x 1.722900 0.000000 0.025330 
#    y 0.000000 1.810080 0.000000 
#    z 0.025330 0.000000 1.745190 
# 
# From -- ./inp_files/280187.got.cif
#   From: 2010.05.17/outbox.cif.g08.bks.cpg/sg12_141_cif.got.tgz:280187.got - 2010.06.03 13:09:07.
