data_PCOD9173080
_publ_section_title
;
Structure prediction by ZEFSAII (Michael W. Deem and Ramdas Pophale) SiO2 
 PCOD9173080
Probable space group: C 2/M
;
_chemical_formula_sum "Si O2"
_cell_formula_units_Z 64
_cell_length_a 14.845920
_cell_length_b 15.223889
_cell_length_c 26.935648
_cell_angle_alpha 90.000000
_cell_angle_beta 30.075319
_cell_angle_gamma 90.000000
_cell_volume 3050.826431
_symmetry_space_group_name_H-M "C 2/M"
_symmetry_group_IT_number 12
_symmetry_cell_setting 'monoclinic'
loop_
_space_group_symop_operation_xyz
x,y,z
-x,y,-z
-x,-y,-z
x,-y,z
1/2+x,1/2+y,z
1/2-x,1/2+y,-z
1/2-x,1/2-y,-z
1/2+x,1/2-y,z
loop_
_atom_site_type_symbol
_atom_site_label
_atom_site_fract_x
_atom_site_fract_y
_atom_site_fract_z
Si Si1 0.148587 0.097775 0.471557
Si Si2 0.478427 0.597616 0.183496
Si Si3 0.463217 0.787844 0.167263
Si Si4 0.478105 0.722405 0.631907
Si Si5 0.053444 0.399129 0.920560
Si Si6 0.472570 0.897814 0.765508
Si Si7 0.014357 0.902045 0.282654
Si Si8 0.888856 0.597643 0.701440
O O1 0.335928 0.110949 0.353792
O O2 0.000000 0.096567 0.500000
O O3 0.086926 0.173333 0.537814
O O4 0.143528 0.000000 0.497580
O O5 0.564322 0.500000 0.135891
O O6 0.546605 0.689913 0.128998
O O7 0.460589 0.611844 0.251172
O O8 0.286185 0.591964 0.248699
O O9 0.240544 0.785714 0.273152
O O10 0.508820 0.841277 0.095878
O O11 0.527089 0.837943 0.186372
O O12 0.533610 0.674404 0.656488
O O13 0.510077 0.825972 0.621302
O O14 0.988127 0.500000 0.947513
O O15 0.269208 0.403119 0.818164
O O16 0.000000 0.363924 0.000000
O O17 0.341231 0.877654 0.781492
O O18 0.449479 0.000000 0.791117
O O19 0.950800 0.000000 0.327880
O O20 0.968178 0.500000 0.665073
#
# Coordination Sequence:
#
# PCOD9173080 Si02
#       8
#     8   8   8   8   8   8   8   8
#     4  10  19  30  46  71 102 126 152 199 254 297
#     4   9  18  33  51  71  95 129 170 206 233 270
#     4  10  18  30  52  76  98 126 161 195 238 294
#     4  10  18  30  50  73  95 125 163 202 243 290
#     4   9  18  32  51  79 109 127 146 189 246 296
#     4  10  19  31  49  73  99 127 158 198 248 294
#     4   9  17  30  52  76  98 127 162 196 237 288
#     4   9  19  33  48  67  96 131 168 205 239 277
#
# _framework density 20.977922
#
# number of rings (size 3 to 8) (size 9 to 14) (size 15 to 20)
#    0.000    2.500    1.250    1.500    0.000    1.500 
#    0.000    0.625    0.000    1.500    0.000    0.000 
#    0.000    0.000    0.000    0.000    0.000    0.000 
#
# Total GULP energy -178431.249383 kJ/mol
# GULP energy per Si atom -5575.976543 kJ/mol
# Density = 2.093018 g / cm^3
# Si number density = 20.977922 Si / 1000 Ang^3
#
#
#
# Elastic Constant Matrix: (Units=GPa)
#
#
# Indices 1 2 3 4 5 6 
#
# 1 139.0432 52.5213 20.8221 -0.0002 23.4172 0.0003
# 2 52.5213 167.2404 42.4448 0.0007 43.9684 0.0003
# 3 20.8221 42.4448 41.6900 0.0011 17.9565 -0.0014
# 4 -0.0002 0.0007 0.0011 22.6725 0.0001 31.4127
# 5 23.4172 43.9684 17.9565 0.0001 33.7851 0.0001
# 6 0.0003 0.0003 -0.0014 31.4127 0.0001 61.9658
#
#
#
# Elastic Compliance Matrix: (Units=1/GPa)
#
#
# Indices 1 2 3 4 5 6 
#
# 1 0.008498 -0.001470 -0.001342 0.000001 -0.003264 -0.000001
# 2 -0.001470 0.010386 -0.005780 0.000001 -0.009426 -0.000001
# 3 -0.001342 -0.005780 0.034887 -0.000009 -0.010090 0.000005
# 4 0.000001 0.000001 -0.000009 0.148187 0.000003 -0.075122
# 5 -0.003264 -0.009426 -0.010090 0.000003 0.049490 -0.000002
# 6 -0.000001 -0.000001 0.000005 -0.075122 -0.000002 0.054220
#
#
# Mechanical properties :
#
#
# Convention : Reuss Voigt Hill
#
# Bulk Modulus (GPa) = 27.33194 64.39446 45.86320
# Shear Modulus (GPa) = 14.92319 39.16369 27.04344
#
# Velocity S-wave (km/s) = 2.67006 4.32545 3.59435
# Velocity P-wave (km/s) = 4.75003 7.46384 6.25587
#
# Compressibility (1/GPa) = 0.03658723
#
# Stress axis : x y z
#
# Youngs Moduli (GPa) = 117.67567 96.28222 28.66358
#
# Poissons Ratio (x) = 0.14155 0.03846
# Poissons Ratio (y) = 0.17300 0.16568
# Poissons Ratio (z) = 0.15790 0.55653
#
# Static dielectric constant tensor:
#      x y z
#    x 1.782980 0.000000 -0.029620 
#    y 0.000000 1.803380 0.000000 
#    z -0.029620 0.000000 1.728570 
# 
# From -- ./inp_files/340133.got.cif
#   From: 2010.05.17/outbox.cif.g08.bks.cpg/sg12_171_cif.got.tgz:340133.got - 2010.06.03 13:09:07.
