data_PCOD9173342
_publ_section_title
;
Structure prediction by ZEFSAII (Michael W. Deem and Ramdas Pophale) SiO2 
 PCOD9173342
Probable space group: C 2/M
;
_chemical_formula_sum "Si O2"
_cell_formula_units_Z 48
_cell_length_a 18.412154
_cell_length_b 16.606695
_cell_length_c 13.120030
_cell_angle_alpha 90.000000
_cell_angle_beta 32.649176
_cell_angle_gamma 90.000000
_cell_volume 2164.257707
_symmetry_space_group_name_H-M "C 2/M"
_symmetry_group_IT_number 12
_symmetry_cell_setting 'monoclinic'
loop_
_space_group_symop_operation_xyz
x,y,z
-x,y,-z
-x,-y,-z
x,-y,z
1/2+x,1/2+y,z
1/2-x,1/2+y,-z
1/2-x,1/2-y,-z
1/2+x,1/2-y,z
loop_
_atom_site_type_symbol
_atom_site_label
_atom_site_fract_x
_atom_site_fract_y
_atom_site_fract_z
Si Si1 0.974912 0.334969 0.350579
Si Si2 0.349377 0.908021 0.168042
Si Si3 0.458113 0.661400 0.832529
Si Si4 0.687842 0.815331 0.250008
Si Si5 0.747530 0.654162 0.486653
Si Si6 0.369187 0.372873 0.722333
O O1 0.871054 0.325570 0.568024
O O2 0.882576 0.381443 0.377880
O O3 0.016546 0.252294 0.242678
O O4 0.106415 0.363416 0.257241
O O5 0.254470 0.861360 0.358479
O O6 0.271573 0.907071 0.153083
O O7 0.357170 0.000000 0.193829
O O8 0.500000 0.873482 0.000000
O O9 0.601817 0.627471 0.697438
O O10 0.403753 0.612809 0.798860
O O11 0.344296 0.667667 0.051901
O O12 0.654517 0.722745 0.263275
O O13 0.750000 0.750000 0.500000
O O14 0.500000 0.396453 0.500000
#
# Coordination Sequence:
#
# PCOD9173342 Si02
#       6
#     8   8   8   8   8   8
#     4   9  17  31  46  76 115 144 186 236 293 334
#     4  11  26  41  57  85 121 163 198 237 300 365
#     4  10  19  30  49  83 110 153 193 231 302 338
#     4  10  18  30  51  82 117 149 186 244 294 347
#     4  10  20  36  53  84 114 145 198 242 289 345
#     4  11  17  35  53  75 115 154 193 233 281 349
#
# _framework density 22.178505999999999
#
# number of rings (size 3 to 8) (size 9 to 14) (size 15 to 20)
#    0.000    1.833    5.000    3.000    7.000    1.000 
#    0.000    0.000    0.000    0.000    0.000    5.833 
#    0.000    0.000    0.000    0.000    0.000    0.000 
#
# Total GULP energy -133750.738243 kJ/mol
# GULP energy per Si atom -5572.947427 kJ/mol
# Density = 2.212803 g / cm^3
# Si number density = 22.178506 Si / 1000 Ang^3
#
#
#
# Elastic Constant Matrix: (Units=GPa)
#
#
# Indices 1 2 3 4 5 6 
#
# 1 81.0067 0.6897 7.2144 0.0000 -27.2975 0.0000
# 2 0.6897 10.0763 -0.3925 0.0000 1.0712 0.0000
# 3 7.2144 -0.3925 129.5716 0.0000 -27.9217 0.0000
# 4 0.0000 0.0000 0.0000 2.0498 0.0000 2.3135
# 5 -27.2975 1.0712 -27.9217 0.0000 38.2051 0.0000
# 6 0.0000 0.0000 0.0000 2.3135 0.0000 -2.2301
#
#
#
# Elastic Compliance Matrix: (Units=1/GPa)
#
#
# Indices 1 2 3 4 5 6 
#
# 1 0.016724 -0.002499 0.001960 0.000000 0.013452 0.000000
# 2 -0.002499 0.099927 -0.000649 0.000000 -0.005061 -0.000001
# 3 0.001960 -0.000649 0.009391 0.000000 0.008282 0.000000
# 4 0.000000 0.000000 0.000000 0.224731 0.000000 0.233136
# 5 0.013452 -0.005061 0.008282 0.000000 0.041981 0.000000
# 6 0.000000 -0.000001 0.000000 0.233136 0.000000 -0.206563
#
#
# Mechanical properties :
#
#
# Convention : Reuss Voigt Hill
#
# Bulk Modulus (GPa) = 8.08617 26.18643 17.13630
# Shear Modulus (GPa) = 21.75919 21.81450 21.78685
#
# Velocity S-wave (km/s) = 3.13564 3.13962 3.13763
# Velocity P-wave (km/s) = 4.09433 4.99757 4.56833
#
# Compressibility (1/GPa) = 0.12366787
#
# Stress axis : x y z
#
# Youngs Moduli (GPa) = 59.79279 10.00733 106.48050
#
# Poissons Ratio (x) = 0.02500 -0.20871
# Poissons Ratio (y) = 0.14940 0.06909
# Poissons Ratio (z) = -0.11720 0.00649
#
# Static dielectric constant tensor:
#      x y z
#    x 1.928740 0.000000 -0.061590 
#    y 0.000000 1.852310 0.000000 
#    z -0.061590 0.000000 1.839290 
# 
# From -- ./inp_files/234230.got.cif
#   From: 2010.05.17/outbox.cif.g08.bks.cpg/sg12_118_cif.got.tgz:234230.got - 2010.06.03 13:09:07.
