data_PCOD9173364
_publ_section_title
;
Structure prediction by ZEFSAII (Michael W. Deem and Ramdas Pophale) SiO2 
 PCOD9173364
Probable space group: C 2/M
;
_chemical_formula_sum "Si O2"
_cell_formula_units_Z 48
_cell_length_a 9.315468
_cell_length_b 16.442256
_cell_length_c 16.630626
_cell_angle_alpha 90.000000
_cell_angle_beta 92.087928
_cell_angle_gamma 90.000000
_cell_volume 2545.577091
_symmetry_space_group_name_H-M "C 2/M"
_symmetry_group_IT_number 12
_symmetry_cell_setting 'monoclinic'
loop_
_space_group_symop_operation_xyz
x,y,z
-x,y,-z
-x,-y,-z
x,-y,z
1/2+x,1/2+y,z
1/2-x,1/2+y,-z
1/2-x,1/2-y,-z
1/2+x,1/2-y,z
loop_
_atom_site_type_symbol
_atom_site_label
_atom_site_fract_x
_atom_site_fract_y
_atom_site_fract_z
Si Si1 0.920403 0.596689 0.915354
Si Si2 0.172218 0.164331 0.820601
Si Si3 0.069552 0.099217 0.584297
Si Si4 0.081721 0.094139 0.255450
Si Si5 0.890918 0.654120 0.231932
Si Si6 0.153400 0.404044 0.324439
O O1 0.889702 0.500000 0.912505
O O2 0.027574 0.619019 0.844511
O O3 0.773116 0.646680 0.898409
O O4 0.000000 0.615704 0.000000
O O5 0.006674 0.137614 0.817403
O O6 0.166596 0.256491 0.790363
O O7 0.248828 0.109892 0.753046
O O8 0.976515 0.126189 0.659782
O O9 0.236710 0.120826 0.602741
O O10 0.000000 0.127808 0.500000
O O11 0.066229 0.000000 0.583748
O O12 0.250521 0.104248 0.251696
O O13 0.044027 0.000000 0.250468
O O14 0.010162 0.647412 0.304818
O O15 0.117763 0.500000 0.330429
#
# Coordination Sequence:
#
# PCOD9173364 Si02
#       6
#     8   8   8   8   8   8
#     4  10  21  38  56  72  98 136 169 198 244 306
#     4  10  19  33  52  74 101 133 165 200 247 303
#     4   8  15  29  50  75 101 132 169 206 247 295
#     4  10  18  30  52  76  98 127 168 213 245 283
#     4  11  20  32  51  77 103 126 164 213 250 286
#     4   9  17  32  53  72  98 137 173 202 242 303
#
# _framework density 18.856235000000002
#
# number of rings (size 3 to 8) (size 9 to 14) (size 15 to 20)
#    0.000    2.333    0.000    7.000    0.000    0.667 
#    0.000    1.667    0.000   23.000    0.000    0.000 
#    0.000    0.000    0.000    0.000    0.000    0.167 
#
# Total GULP energy -133707.934684 kJ/mol
# GULP energy per Si atom -5571.163945 kJ/mol
# Density = 1.881332 g / cm^3
# Si number density = 18.856235 Si / 1000 Ang^3
#
#
#
# Elastic Constant Matrix: (Units=GPa)
#
#
# Indices 1 2 3 4 5 6 
#
# 1 127.0016 16.2270 50.7517 0.0000 35.0178 0.0000
# 2 16.2270 61.8228 18.8194 0.0000 19.1074 0.0000
# 3 50.7517 18.8194 80.0705 0.0000 39.1807 0.0000
# 4 0.0000 0.0000 0.0000 16.5898 0.0000 6.5306
# 5 35.0178 19.1074 39.1807 0.0000 38.7343 0.0000
# 6 0.0000 0.0000 0.0000 6.5306 0.0000 21.8371
#
#
#
# Elastic Compliance Matrix: (Units=1/GPa)
#
#
# Indices 1 2 3 4 5 6 
#
# 1 0.011171 0.000182 -0.004233 0.000000 -0.005908 0.000000
# 2 0.000182 0.019090 0.000171 0.000000 -0.009755 0.000000
# 3 -0.004233 0.000171 0.026336 0.000000 -0.022897 0.000000
# 4 0.000000 0.000000 0.000000 0.068321 0.000000 -0.020432
# 5 -0.005908 -0.009755 -0.022897 0.000000 0.059130 0.000000
# 6 0.000000 0.000000 0.000000 -0.020432 0.000000 0.051904
#
#
# Mechanical properties :
#
#
# Convention : Reuss Voigt Hill
#
# Bulk Modulus (GPa) = 20.47602 48.94347 34.70974
# Shear Modulus (GPa) = 19.23142 27.63869 23.43506
#
# Velocity S-wave (km/s) = 3.19705 3.83268 3.52920
# Velocity P-wave (km/s) = 4.95083 6.75265 5.92069
#
# Compressibility (1/GPa) = 0.04883763
#
# Stress axis : x y z
#
# Youngs Moduli (GPa) = 89.51806 52.38275 37.97112
#
# Poissons Ratio (x) = -0.00954 0.16072
# Poissons Ratio (y) = -0.01631 -0.00649
# Poissons Ratio (z) = 0.37890 -0.00895
#
# Static dielectric constant tensor:
#      x y z
#    x 1.677420 0.000000 0.050400 
#    y 0.000000 1.682770 0.000000 
#    z 0.050400 0.000000 1.675710 
# 
# From -- ./inp_files/196005.got.cif
#   From: 2010.05.17/outbox.cif.g08.bks.cpg/sg12_99_cif.got.tgz:196005.got - 2010.06.03 13:09:07.
