data_PCOD9173035
_publ_section_title
;
Structure prediction by ZEFSAII (Michael W. Deem and Ramdas Pophale) SiO2 
 PCOD9173035
Probable space group: C 2/M
;
_chemical_formula_sum "Si O2"
_cell_formula_units_Z 48
_cell_length_a 15.022523
_cell_length_b 12.204677
_cell_length_c 23.787312
_cell_angle_alpha 90.000000
_cell_angle_beta 37.106317
_cell_angle_gamma 90.000000
_cell_volume 2631.145863
_symmetry_space_group_name_H-M "C 2/M"
_symmetry_group_IT_number 12
_symmetry_cell_setting 'monoclinic'
loop_
_space_group_symop_operation_xyz
x,y,z
-x,y,-z
-x,-y,-z
x,-y,z
1/2+x,1/2+y,z
1/2-x,1/2+y,-z
1/2-x,1/2-y,-z
1/2+x,1/2-y,z
loop_
_atom_site_type_symbol
_atom_site_label
_atom_site_fract_x
_atom_site_fract_y
_atom_site_fract_z
Si Si1 0.134252 0.288421 0.898986
Si Si2 0.286254 0.873164 0.911265
Si Si3 0.072441 0.243941 0.740353
Si Si4 0.373414 0.370450 0.610040
Si Si5 0.562302 0.625869 0.294197
Si Si6 0.508246 0.377408 0.116477
O O1 0.200608 0.199506 0.908846
O O2 0.267975 0.363396 0.811964
O O3 0.070757 0.216870 0.879639
O O4 0.000000 0.344464 0.000000
O O5 0.451180 0.827738 0.827290
O O6 0.287947 0.000000 0.894224
O O7 0.185066 0.865408 0.018269
O O8 0.232065 0.296654 0.666968
O O9 0.030247 0.208054 0.698568
O O10 0.044607 0.138351 0.793571
O O11 0.500000 0.355232 0.500000
O O12 0.331689 0.500000 0.631385
O O13 0.434572 0.344726 0.641521
O O14 0.512540 0.500000 0.313312
O O15 0.471543 0.500000 0.114245
#
# Coordination Sequence:
#
# PCOD9173035 Si02
#       6
#     8   8   8   8   8   8
#     4   9  17  31  51  77 109 149 187 221 262 322
#     4   9  18  30  48  76 110 146 188 226 259 316
#     4  11  20  34  57  80 111 145 184 225 280 327
#     4  10  22  41  63  83 106 142 187 231 278 329
#     4  10  21  37  56  83 114 144 180 228 280 327
#     4  10  18  30  49  76 111 151 185 220 268 320
#
# _framework density 18.243001
#
# number of rings (size 3 to 8) (size 9 to 14) (size 15 to 20)
#    0.000    2.167    1.667    2.000    0.000    3.000 
#    0.000    0.000    0.000    2.000    0.000    0.000 
#    0.000    0.000    0.000    0.000    0.000    0.000 
#
# Total GULP energy -133815.857869 kJ/mol
# GULP energy per Si atom -5575.660745 kJ/mol
# Density = 1.820148 g / cm^3
# Si number density = 18.243001 Si / 1000 Ang^3
#
#
#
# Elastic Constant Matrix: (Units=GPa)
#
#
# Indices 1 2 3 4 5 6 
#
# 1 84.8960 27.2623 55.8510 0.0000 9.4348 0.0000
# 2 27.2623 55.9872 31.6815 0.0000 0.7234 0.0000
# 3 55.8510 31.6815 92.2876 0.0000 12.2959 0.0000
# 4 0.0000 0.0000 0.0000 19.3835 0.0000 1.2771
# 5 9.4348 0.7234 12.2959 0.0000 23.7188 0.0000
# 6 0.0000 0.0000 0.0000 1.2771 0.0000 14.5575
#
#
#
# Elastic Compliance Matrix: (Units=1/GPa)
#
#
# Indices 1 2 3 4 5 6 
#
# 1 0.020271 -0.003824 -0.010631 0.000000 -0.002436 0.000000
# 2 -0.003824 0.023164 -0.006173 0.000000 0.004015 0.000000
# 3 -0.010631 -0.006173 0.020195 0.000000 -0.006052 0.000000
# 4 0.000000 0.000000 0.000000 0.051890 0.000000 -0.004552
# 5 -0.002436 0.004015 -0.006052 0.000000 0.046145 0.000000
# 6 0.000000 0.000000 0.000000 -0.004552 0.000000 0.069093
#
#
# Mechanical properties :
#
#
# Convention : Reuss Voigt Hill
#
# Bulk Modulus (GPa) = 44.69152 51.41783 48.05467
# Shear Modulus (GPa) = 17.89091 19.42367 18.65729
#
# Velocity S-wave (km/s) = 3.13501 3.26654 3.20145
# Velocity P-wave (km/s) = 6.13641 6.51715 6.32964
#
# Compressibility (1/GPa) = 0.02237561
#
# Stress axis : x y z
#
# Youngs Moduli (GPa) = 49.33040 43.16972 49.51794
#
# Poissons Ratio (x) = 0.16508 0.52641
# Poissons Ratio (y) = 0.18863 0.30567
# Poissons Ratio (z) = 0.52442 0.26648
#
# Static dielectric constant tensor:
#      x y z
#    x 1.646050 0.000000 0.020630 
#    y 0.000000 1.620610 0.000000 
#    z 0.020630 0.000000 1.630890 
# 
# From -- ./inp_files/143117.got.cif
#   From: 2010.05.17/outbox.cif.g08.bks.cpg/sg12_72_cif.got.tgz:143117.got - 2010.06.03 13:09:07.
