data_PCOD9173990
_publ_section_title
;
Structure prediction by ZEFSAII (Michael W. Deem and Ramdas Pophale) SiO2 
 PCOD9173990
Probable space group: C 2/M
;
_chemical_formula_sum "Si O2"
_cell_formula_units_Z 64
_cell_length_a 14.521611
_cell_length_b 7.327884
_cell_length_c 28.242682
_cell_angle_alpha 90.000000
_cell_angle_beta 117.146489
_cell_angle_gamma 90.000000
_cell_volume 2674.315583
_symmetry_space_group_name_H-M "C 2/M"
_symmetry_group_IT_number 12
_symmetry_cell_setting 'monoclinic'
loop_
_space_group_symop_operation_xyz
x,y,z
-x,y,-z
-x,-y,-z
x,-y,z
1/2+x,1/2+y,z
1/2-x,1/2+y,-z
1/2-x,1/2-y,-z
1/2+x,1/2-y,z
loop_
_atom_site_type_symbol
_atom_site_label
_atom_site_fract_x
_atom_site_fract_y
_atom_site_fract_z
Si Si1 0.013554 0.284437 0.055725
Si Si2 0.259705 0.280321 0.847928
Si Si3 0.808445 0.779330 0.399903
Si Si4 0.903611 0.207233 0.686183
Si Si5 0.566326 0.222099 0.865815
Si Si6 0.631197 0.716485 0.485887
Si Si7 0.841421 0.790595 0.770667
Si Si8 0.474240 0.276740 0.368413
O O1 0.992506 0.500000 0.047738
O O2 0.131737 0.261766 0.100827
O O3 0.938906 0.217046 0.080514
O O4 0.000000 0.207147 0.000000
O O5 0.252857 0.500000 0.843389
O O6 0.162762 0.217090 0.856475
O O7 0.270384 0.211920 0.796111
O O8 0.693087 0.704580 0.372499
O O9 0.873907 0.718880 0.460975
O O10 0.864891 0.725410 0.364791
O O11 0.802317 0.000000 0.400393
O O12 0.858707 0.295582 0.723106
O O13 0.995858 0.288710 0.676786
O O14 0.933307 0.000000 0.705892
O O15 0.457728 0.286396 0.818829
O O16 0.565403 0.000000 0.864882
O O17 0.610823 0.500000 0.482861
O O18 0.750000 0.750000 0.500000
O O19 0.556351 0.786791 0.427445
O O20 0.807339 0.000000 0.755639
O O21 0.478160 0.500000 0.367459
#
# Coordination Sequence:
#
# PCOD9173990 Si02
#       8
#     8   8   8   8   8   8   8   8
#     4   9  18  32  49  73 104 133 164 203 243 284
#     4   9  18  33  51  72  99 131 167 202 241 289
#     4  10  20  33  51  74  96 123 161 197 233 287
#     4  10  20  35  52  71  98 128 157 197 248 289
#     4   9  18  33  52  72  97 131 166 201 243 287
#     4  10  18  31  52  72  94 125 158 192 234 285
#     4   9  19  34  51  71  96 127 163 202 242 288
#     4   9  18  33  51  70  96 128 157 189 237 292
#
# _framework density 23.931356000000001
#
# number of rings (size 3 to 8) (size 9 to 14) (size 15 to 20)
#    0.000    2.625    1.250    0.375    0.000    4.250 
#    0.000    1.250    0.000    1.500    0.000    0.000 
#    0.000    0.000    0.000    0.000    0.000    0.000 
#
# Total GULP energy -178627.465318 kJ/mol
# GULP energy per Si atom -5582.108291 kJ/mol
# Density = 2.387689 g / cm^3
# Si number density = 23.931356 Si / 1000 Ang^3
#
#
#
# Elastic Constant Matrix: (Units=GPa)
#
#
# Indices 1 2 3 4 5 6 
#
# 1 115.2244 -7.9359 41.3424 0.0000 -53.4840 0.0000
# 2 -7.9359 100.4949 8.6413 0.0000 -10.6417 0.0000
# 3 41.3424 8.6413 112.9627 0.0000 -48.3031 0.0000
# 4 0.0000 0.0000 0.0000 -6.8219 0.0000 11.4085
# 5 -53.4840 -10.6417 -48.3031 0.0000 45.1664 0.0000
# 6 0.0000 0.0000 0.0000 11.4085 0.0000 -38.3251
#
#
#
# Elastic Compliance Matrix: (Units=1/GPa)
#
#
# Indices 1 2 3 4 5 6 
#
# 1 0.023160 0.005028 0.006215 0.000000 0.035256 0.000000
# 2 0.005028 0.011310 0.001806 0.000000 0.010550 0.000000
# 3 0.006215 0.001806 0.018000 0.000000 0.027035 0.000000
# 4 0.000000 0.000000 0.000000 -0.291901 0.000000 -0.086892
# 5 0.035256 0.010550 0.027035 0.000000 0.095287 0.000000
# 6 0.000000 0.000000 0.000000 -0.086892 0.000000 -0.051958
#
#
# Mechanical properties :
#
#
# Convention : Reuss Voigt Hill
#
# Bulk Modulus (GPa) = 12.72807 45.86420 29.29613
# Shear Modulus (GPa) = -25.50881 19.11281 -3.19800
#
# Velocity S-wave (km/s) = -3.26838 2.82911 -1.15725
# Velocity P-wave (km/s) = 2.98546 5.46611 3.23770
#
# Compressibility (1/GPa) = 0.07856653
#
# Stress axis : x y z
#
# Youngs Moduli (GPa) = 43.17777 88.41994 55.55581
#
# Poissons Ratio (x) = -0.44457 -0.34527
# Poissons Ratio (y) = -0.21709 -0.10032
# Poissons Ratio (z) = -0.26834 -0.15967
#
# Static dielectric constant tensor:
#      x y z
#    x 1.881110 0.000000 -0.065250 
#    y 0.000000 1.901930 0.000000 
#    z -0.065250 0.000000 1.941810 
# 
# From -- ./inp_files/335252.got.cif
#   From: 2010.05.17/outbox.cif.g08.bks.cpg/sg12_168_cif.got.tgz:335252.got - 2010.06.03 13:09:07.
