data_PCOD9173064
_publ_section_title
;
Structure prediction by ZEFSAII (Michael W. Deem and Ramdas Pophale) SiO2 
 PCOD9173064
Probable space group: C 2/M
;
_chemical_formula_sum "Si O2"
_cell_formula_units_Z 48
_cell_length_a 21.496577
_cell_length_b 12.336876
_cell_length_c 26.284223
_cell_angle_alpha 90.000000
_cell_angle_beta 157.658332
_cell_angle_gamma 90.000000
_cell_volume 2649.723493
_symmetry_space_group_name_H-M "C 2/M"
_symmetry_group_IT_number 12
_symmetry_cell_setting 'monoclinic'
loop_
_space_group_symop_operation_xyz
x,y,z
-x,y,-z
-x,-y,-z
x,-y,z
1/2+x,1/2+y,z
1/2-x,1/2+y,-z
1/2-x,1/2-y,-z
1/2+x,1/2-y,z
loop_
_atom_site_type_symbol
_atom_site_label
_atom_site_fract_x
_atom_site_fract_y
_atom_site_fract_z
Si Si1 0.601099 0.785719 0.329246
Si Si2 0.372924 0.879759 0.542636
Si Si3 0.594030 0.797657 0.911449
Si Si4 0.328337 0.376203 0.171037
Si Si5 0.480728 0.374507 0.902915
Si Si6 0.259672 0.809825 0.190627
O O1 0.637384 0.863912 0.403921
O O2 0.760201 0.715721 0.435692
O O3 0.521928 0.842625 0.220495
O O4 0.470803 0.697376 0.253339
O O5 0.562010 0.862276 0.671329
O O6 0.318316 0.000000 0.486772
O O7 0.502735 0.698528 0.870125
O O8 0.750000 0.750000 0.000000
O O9 0.672133 0.870344 0.014886
O O10 0.378666 0.500000 0.216195
O O11 0.281705 0.313221 0.187515
O O12 0.448339 0.500000 0.867584
O O13 0.342253 0.326397 0.835287
O O14 0.650253 0.365010 0.063331
#
# Coordination Sequence:
#
# PCOD9173064 Si02
#       6
#     8   8   8   8   8   8
#     4   9  19  32  46  72 102 126 162 204 241 289
#     4  10  18  30  50  71  96 131 165 201 243 286
#     4   9  19  32  46  69  96 122 159 199 237 287
#     4   9  17  31  51  71  96 129 161 201 248 286
#     4  10  18  31  51  70  96 130 159 199 251 288
#     4   9  18  31  47  73  99 123 165 203 233 287
#
# _framework density 18.115096999999999
#
# number of rings (size 3 to 8) (size 9 to 14) (size 15 to 20)
#    0.000    2.667    0.000    3.500    0.000    4.000 
#    0.000    7.500    0.000    2.000    0.000    0.000 
#    0.000   20.000    0.000    0.000    0.000    0.000 
#
# Total GULP energy -133747.775169 kJ/mol
# GULP energy per Si atom -5572.823965 kJ/mol
# Density = 1.807387 g / cm^3
# Si number density = 18.115097 Si / 1000 Ang^3
#
#
#
# Elastic Constant Matrix: (Units=GPa)
#
#
# Indices 1 2 3 4 5 6 
#
# 1 47.6622 4.3855 -0.4511 0.0003 8.4346 -0.0005
# 2 4.3855 63.3301 -18.1568 -0.0012 10.1212 -0.0007
# 3 -0.4511 -18.1568 57.6022 -0.0053 11.9162 -0.0026
# 4 0.0003 -0.0012 -0.0053 8.6316 0.0011 3.9948
# 5 8.4346 10.1212 11.9162 0.0011 25.5302 0.0006
# 6 -0.0005 -0.0007 -0.0026 3.9948 0.0006 5.7519
#
#
#
# Elastic Compliance Matrix: (Units=1/GPa)
#
#
# Indices 1 2 3 4 5 6 
#
# 1 0.022477 0.000405 0.002073 0.000000 -0.008554 0.000004
# 2 0.000405 0.020309 0.008963 0.000009 -0.012369 0.000002
# 3 0.002073 0.008963 0.023332 0.000017 -0.015128 0.000002
# 4 0.000000 0.000009 0.000017 0.170732 -0.000016 -0.118577
# 5 -0.008554 -0.012369 -0.015128 -0.000016 0.053960 -0.000004
# 6 0.000004 0.000002 0.000002 -0.118577 -0.000004 0.256210
#
#
# Mechanical properties :
#
#
# Convention : Reuss Voigt Hill
#
# Bulk Modulus (GPa) = 11.23582 15.57220 13.40401
# Shear Modulus (GPa) = 9.02847 20.17053 14.59950
#
# Velocity S-wave (km/s) = 2.23490 3.34048 2.84197
# Velocity P-wave (km/s) = 3.58826 4.84699 4.26433
#
# Compressibility (1/GPa) = 0.08900106
#
# Stress axis : x y z
#
# Youngs Moduli (GPa) = 44.48961 49.23983 42.86023
#
# Poissons Ratio (x) = -0.01994 -0.08886
# Poissons Ratio (y) = -0.01802 -0.38417
# Poissons Ratio (z) = -0.09224 -0.44136
#
# Static dielectric constant tensor:
#      x y z
#    x 1.610460 0.000000 -0.006590 
#    y 0.000000 1.589440 0.000000 
#    z -0.006590 0.000000 1.652820 
# 
# From -- ./inp_files/173396.got.cif
#   From: 2010.05.17/outbox.cif.g08.bks.cpg/sg12_87_cif.got.tgz:173396.got - 2010.06.03 13:09:07.
