data_PCOD9173653
_publ_section_title
;
Structure prediction by ZEFSAII (Michael W. Deem and Ramdas Pophale) SiO2 
 PCOD9173653
Probable space group: C 2/M
;
_chemical_formula_sum "Si O2"
_cell_formula_units_Z 48
_cell_length_a 18.889934
_cell_length_b 14.293698
_cell_length_c 18.903671
_cell_angle_alpha 90.000000
_cell_angle_beta 20.813573
_cell_angle_gamma 90.000000
_cell_volume 1813.640148
_symmetry_space_group_name_H-M "C 2/M"
_symmetry_group_IT_number 12
_symmetry_cell_setting 'monoclinic'
loop_
_space_group_symop_operation_xyz
x,y,z
-x,y,-z
-x,-y,-z
x,-y,z
1/2+x,1/2+y,z
1/2-x,1/2+y,-z
1/2-x,1/2-y,-z
1/2+x,1/2-y,z
loop_
_atom_site_type_symbol
_atom_site_label
_atom_site_fract_x
_atom_site_fract_y
_atom_site_fract_z
Si Si1 0.187436 0.737892 0.716234
Si Si2 0.949157 0.898074 0.237070
Si Si3 0.554532 0.304340 0.275072
Si Si4 0.240032 0.897602 0.770148
Si Si5 0.720630 0.392333 0.256453
Si Si6 0.471246 0.100695 0.703230
O O1 0.021566 0.805163 0.837128
O O2 0.335374 0.702033 0.517139
O O3 0.295319 0.812266 0.667973
O O4 0.141006 0.653318 0.812171
O O5 0.709608 0.899136 0.470574
O O6 0.047404 0.880805 0.220761
O O7 0.004765 0.000000 0.155436
O O8 0.696396 0.333232 0.207139
O O9 0.580797 0.201435 0.216275
O O10 0.353521 0.896089 0.738502
O O11 0.282366 0.000000 0.698349
O O12 0.000000 0.891483 0.000000
O O13 0.500000 0.390288 0.500000
O O14 0.766503 0.500000 0.198634
O O15 0.427005 0.000000 0.779321
#
# Coordination Sequence:
#
# PCOD9173653 Si02
#       6
#     8   8   8   8   8   8
#     4  10  18  31  49  75 101 131 170 211 256 298
#     4  10  20  31  50  78 110 138 161 201 257 322
#     4  10  18  31  48  75 109 136 161 199 254 326
#     4  10  20  33  50  72 100 135 177 221 258 294
#     4   9  17  28  46  72 101 134 166 201 246 305
#     4   9  17  29  46  72  99 129 164 205 257 299
#
# _framework density 26.466111000000001
#
# number of rings (size 3 to 8) (size 9 to 14) (size 15 to 20)
#    0.000    2.333    1.667    3.000    2.333    1.333 
#    0.000    5.000    0.000    4.500    0.000    0.000 
#    0.000    0.000    0.000    0.000    0.000    0.000 
#
# Total GULP energy -134257.582519 kJ/mol
# GULP energy per Si atom -5594.065938 kJ/mol
# Density = 2.640587 g / cm^3
# Si number density = 26.466111 Si / 1000 Ang^3
#
#
#
# Elastic Constant Matrix: (Units=GPa)
#
#
# Indices 1 2 3 4 5 6 
#
# 1 116.4868 39.5836 4.8501 0.0009 -7.9180 0.0017
# 2 39.5836 189.6656 -3.6531 0.0231 15.6313 -0.0098
# 3 4.8501 -3.6531 128.9828 0.0011 -16.9039 -0.0050
# 4 0.0009 0.0231 0.0011 3.8614 0.0006 -2.3872
# 5 -7.9180 15.6313 -16.9039 0.0006 23.7115 -0.0003
# 6 0.0017 -0.0098 -0.0050 -2.3872 -0.0003 39.2408
#
#
#
# Elastic Compliance Matrix: (Units=1/GPa)
#
#
# Indices 1 2 3 4 5 6 
#
# 1 0.009748 -0.002444 0.000223 0.000011 0.005025 0.000000
# 2 -0.002444 0.006203 -0.000414 -0.000036 -0.005201 -0.000001
# 3 0.000223 -0.000414 0.008580 0.000000 0.006464 0.000001
# 4 0.000011 -0.000036 0.000000 0.269092 0.000021 0.016370
# 5 0.005025 -0.005201 0.006464 0.000021 0.051888 0.000001
# 6 0.000000 -0.000001 0.000001 0.016370 0.000001 0.026480
#
#
# Mechanical properties :
#
#
# Convention : Reuss Voigt Hill
#
# Bulk Modulus (GPa) = 51.92102 57.41072 54.66587
# Shear Modulus (GPa) = 13.03167 39.65305 26.34236
#
# Velocity S-wave (km/s) = 2.22139 3.87493 3.15830
# Velocity P-wave (km/s) = 5.12250 6.46215 5.83092
#
# Compressibility (1/GPa) = 0.01926002
#
# Stress axis : x y z
#
# Youngs Moduli (GPa) = 102.59019 161.20759 116.55004
#
# Poissons Ratio (x) = 0.39402 -0.02597
# Poissons Ratio (y) = 0.25075 0.04825
# Poissons Ratio (z) = -0.02286 0.06674
#
# Static dielectric constant tensor:
#      x y z
#    x 2.014390 -0.000010 0.008250 
#    y -0.000010 2.062850 0.000030 
#    z 0.008250 0.000030 2.107290 
# 
# From -- ./inp_files/85182.got.cif
#   From: 2010.05.17/outbox.cif.g08.bks.cpg/sg12_43_cif.got.tgz:85182.got - 2010.06.03 13:09:07.
