data_PCOD9173951
_publ_section_title
;
Structure prediction by ZEFSAII (Michael W. Deem and Ramdas Pophale) SiO2 
 PCOD9173951
Probable space group: C 2/M
;
_chemical_formula_sum "Si O2"
_cell_formula_units_Z 48
_cell_length_a 18.953565
_cell_length_b 13.650922
_cell_length_c 19.269913
_cell_angle_alpha 90.000000
_cell_angle_beta 26.870251
_cell_angle_gamma 90.000000
_cell_volume 2253.428616
_symmetry_space_group_name_H-M "C 2/M"
_symmetry_group_IT_number 12
_symmetry_cell_setting 'monoclinic'
loop_
_space_group_symop_operation_xyz
x,y,z
-x,y,-z
-x,-y,-z
x,-y,z
1/2+x,1/2+y,z
1/2-x,1/2+y,-z
1/2-x,1/2-y,-z
1/2+x,1/2-y,z
loop_
_atom_site_type_symbol
_atom_site_label
_atom_site_fract_x
_atom_site_fract_y
_atom_site_fract_z
Si Si1 0.836750 0.608071 0.542842
Si Si2 0.575703 0.792331 0.665752
Si Si3 0.869149 0.208953 0.055441
Si Si4 0.335925 0.283491 0.652451
Si Si5 0.546783 0.887101 0.840393
Si Si6 0.965694 0.109331 0.831688
O O1 0.878267 0.500000 0.532127
O O2 0.941407 0.637401 0.384941
O O3 0.846704 0.694502 0.588734
O O4 0.651672 0.605375 0.685537
O O5 0.750000 0.750000 0.500000
O O6 0.574348 0.855916 0.736738
O O7 0.460327 0.699983 0.781792
O O8 0.710936 0.230062 0.235254
O O9 0.880874 0.138169 0.978542
O O10 0.000000 0.180823 0.000000
O O11 0.917592 0.314443 0.983084
O O12 0.500000 0.336141 0.500000
O O13 0.199482 0.356117 0.749524
O O14 0.509775 0.000000 0.879767
O O15 0.917962 0.000000 0.850207
#
# Coordination Sequence:
#
# PCOD9173951 Si02
#       6
#     8   8   8   8   8   8
#     4  10  18  31  51  78 106 133 169 213 259 302
#     4   9  15  31  50  81 106 123 163 221 263 293
#     4   9  17  33  49  73 101 133 174 212 248 295
#     4  11  22  35  49  74 110 141 169 205 252 307
#     4  10  19  34  57  79 100 133 172 213 257 298
#     4   9  16  27  51  78 100 126 164 215 259 297
#
# _framework density 21.300874
#
# number of rings (size 3 to 8) (size 9 to 14) (size 15 to 20)
#    0.000    2.333    6.667    0.500    0.000    5.333 
#    0.000    0.000    0.000    4.000    0.000    2.333 
#    0.000    0.000    0.000    0.000    0.000    0.000 
#
# Total GULP energy -133837.642704 kJ/mol
# GULP energy per Si atom -5576.568446 kJ/mol
# Density = 2.125239 g / cm^3
# Si number density = 21.300874 Si / 1000 Ang^3
#
#
#
# Elastic Constant Matrix: (Units=GPa)
#
#
# Indices 1 2 3 4 5 6 
#
# 1 15.7084 -6.8478 16.4767 -0.0002 12.0445 0.0001
# 2 -6.8478 77.1485 -18.6982 -0.0018 1.6849 0.0004
# 3 16.4767 -18.6982 82.3415 -0.0011 23.4066 0.0002
# 4 -0.0002 -0.0018 -0.0011 3.1943 0.0002 0.1339
# 5 12.0445 1.6849 23.4066 0.0002 30.7074 0.0001
# 6 0.0001 0.0004 0.0002 0.1339 0.0001 0.2803
#
#
#
# Elastic Compliance Matrix: (Units=1/GPa)
#
#
# Indices 1 2 3 4 5 6 
#
# 1 0.102352 0.007580 -0.009229 0.000012 -0.033527 -0.000051
# 2 0.007580 0.014673 0.003688 0.000012 -0.006590 -0.000032
# 3 -0.009229 0.003688 0.017690 0.000009 -0.010067 -0.000011
# 4 0.000012 0.000012 0.000009 0.319457 -0.000013 -0.152627
# 5 -0.033527 -0.006590 -0.010067 -0.000013 0.053751 0.000018
# 6 -0.000051 -0.000032 -0.000011 -0.152627 0.000018 3.640596
#
#
# Mechanical properties :
#
#
# Convention : Reuss Voigt Hill
#
# Bulk Modulus (GPa) = 7.20492 17.45109 12.32801
# Shear Modulus (GPa) = 1.19312 19.12091 10.15701
#
# Velocity S-wave (km/s) = 0.74923 2.99935 2.18603
# Velocity P-wave (km/s) = 2.03427 4.49502 3.48880
#
# Compressibility (1/GPa) = 0.13879401
#
# Stress axis : x y z
#
# Youngs Moduli (GPa) = 9.77022 68.15397 56.52762
#
# Poissons Ratio (x) = -0.51662 0.52169
# Poissons Ratio (y) = -0.07406 -0.20849
# Poissons Ratio (z) = 0.09017 -0.25137
#
# Static dielectric constant tensor:
#      x y z
#    x 1.898720 0.000000 -0.031730 
#    y 0.000000 1.758910 0.000000 
#    z -0.031730 0.000000 1.818580 
# 
# From -- ./inp_files/278032.got.cif
#   From: 2010.05.17/outbox.cif.g08.bks.cpg/sg12_140_cif.got.tgz:278032.got - 2010.06.03 13:09:07.
