data_PCOD9173425
_publ_section_title
;
Structure prediction by ZEFSAII (Michael W. Deem and Ramdas Pophale) SiO2 
 PCOD9173425
Probable space group: C 2/M
;
_chemical_formula_sum "Si O2"
_cell_formula_units_Z 64
_cell_length_a 20.130354
_cell_length_b 12.269736
_cell_length_c 13.194142
_cell_angle_alpha 90.000000
_cell_angle_beta 108.297293
_cell_angle_gamma 90.000000
_cell_volume 3094.107877
_symmetry_space_group_name_H-M "C 2/M"
_symmetry_group_IT_number 12
_symmetry_cell_setting 'monoclinic'
loop_
_space_group_symop_operation_xyz
x,y,z
-x,y,-z
-x,-y,-z
x,-y,z
1/2+x,1/2+y,z
1/2-x,1/2+y,-z
1/2-x,1/2-y,-z
1/2+x,1/2-y,z
loop_
_atom_site_type_symbol
_atom_site_label
_atom_site_fract_x
_atom_site_fract_y
_atom_site_fract_z
Si Si1 0.569266 0.374847 0.232685
Si Si2 0.419606 0.181300 0.261998
Si Si3 0.190212 0.873864 0.803464
Si Si4 0.953534 0.727935 0.069140
Si Si5 0.781523 0.207237 0.748523
Si Si6 0.953299 0.220640 0.571435
Si Si7 0.179095 0.875529 0.027456
Si Si8 0.156784 0.619702 0.578683
O O1 0.577649 0.500000 0.204518
O O2 0.503241 0.318831 0.146698
O O3 0.637783 0.304879 0.239044
O O4 0.561720 0.367426 0.350216
O O5 0.378573 0.298284 0.240561
O O6 0.428767 0.150204 0.149132
O O7 0.495991 0.193891 0.346957
O O8 0.375884 0.116101 0.323457
O O9 0.248896 0.824833 0.757653
O O10 0.212933 0.862623 0.932457
O O11 0.175242 0.000000 0.776620
O O12 0.885153 0.791322 0.997293
O O13 0.000000 0.681040 0.000000
O O14 0.736392 0.153063 0.638069
O O15 0.772553 0.145199 0.852437
O O16 0.886172 0.286263 0.499141
O O17 0.000000 0.179580 0.500000
O O18 0.152932 0.000000 0.018436
O O19 0.150287 0.500000 0.528685
#
# Coordination Sequence:
#
# PCOD9173425 Si02
#       8
#     8   8   8   8   8   8   8   8
#     4  11  22  35  55  85 118 146 177 228 283 333
#     4   8  18  33  54  84 106 133 183 232 273 322
#     4   9  19  35  54  77 112 153 185 220 270 327
#     4  10  18  31  53  82 117 151 178 219 276 330
#     4  11  21  34  52  81 115 143 187 228 267 323
#     4   9  20  38  56  80 106 137 183 230 282 328
#     4  10  18  30  52  82 112 148 188 223 268 324
#     4  10  20  37  59  79 107 145 188 232 271 322
#
# _framework density 20.684476
#
# number of rings (size 3 to 8) (size 9 to 14) (size 15 to 20)
#    0.000    2.250    1.250    1.875    0.000    6.500 
#    0.000    5.625    0.000    1.125    0.000    0.000 
#    0.000    0.000    0.000    0.000    0.000    0.000 
#
# Total GULP energy -178415.120538 kJ/mol
# GULP energy per Si atom -5575.472517 kJ/mol
# Density = 2.063740 g / cm^3
# Si number density = 20.684476 Si / 1000 Ang^3
#
#
#
# Elastic Constant Matrix: (Units=GPa)
#
#
# Indices 1 2 3 4 5 6 
#
# 1 48.2645 4.6612 8.7074 0.0000 11.0213 0.0000
# 2 4.6612 43.0619 0.7890 0.0000 2.1750 0.0000
# 3 8.7074 0.7890 79.1892 0.0000 7.6377 0.0000
# 4 0.0000 0.0000 0.0000 14.0596 0.0000 -1.5195
# 5 11.0213 2.1750 7.6377 0.0000 42.5022 0.0000
# 6 0.0000 0.0000 0.0000 -1.5195 0.0000 -6.5683
#
#
#
# Elastic Compliance Matrix: (Units=1/GPa)
#
#
# Indices 1 2 3 4 5 6 
#
# 1 0.022502 -0.002129 -0.001934 0.000000 -0.005379 0.000000
# 2 -0.002129 0.023485 0.000064 0.000000 -0.000661 0.000000
# 3 -0.001934 0.000064 0.013018 0.000000 -0.001841 0.000000
# 4 0.000000 0.000000 0.000000 0.069391 0.000000 -0.016053
# 5 -0.005379 -0.000661 -0.001841 0.000000 0.025288 0.000000
# 6 0.000000 0.000000 0.000000 -0.016053 0.000000 -0.148532
#
#
# Mechanical properties :
#
#
# Convention : Reuss Voigt Hill
#
# Bulk Modulus (GPa) = 19.60537 22.09231 20.84884
# Shear Modulus (GPa) = 165.83255 20.42257 93.12756
#
# Velocity S-wave (km/s) = 8.96362 3.14560 6.71719
# Velocity P-wave (km/s) = 10.79942 4.88844 8.38226
#
# Compressibility (1/GPa) = 0.05100644
#
# Stress axis : x y z
#
# Youngs Moduli (GPa) = 44.44073 42.58037 76.81909
#
# Poissons Ratio (x) = 0.09064 0.14859
# Poissons Ratio (y) = 0.09460 -0.00490
# Poissons Ratio (z) = 0.08596 -0.00272
#
# Static dielectric constant tensor:
#      x y z
#    x 1.764350 0.000000 -0.042530 
#    y 0.000000 1.720680 0.000000 
#    z -0.042530 0.000000 1.775940 
# 
# From -- ./inp_files/232529.got.cif
#   From: 2010.05.17/outbox.cif.g08.bks.cpg/sg12_117_cif.got.tgz:232529.got - 2010.06.03 13:09:07.
