data_PCOD9173344
_publ_section_title
;
Structure prediction by ZEFSAII (Michael W. Deem and Ramdas Pophale) SiO2 
 PCOD9173344
Probable space group: C 2/M
;
_chemical_formula_sum "Si O2"
_cell_formula_units_Z 60
_cell_length_a 34.708262
_cell_length_b 15.108525
_cell_length_c 5.373592
_cell_angle_alpha 90.000000
_cell_angle_beta 111.838804
_cell_angle_gamma 90.000000
_cell_volume 2615.635019
_symmetry_space_group_name_H-M "C 2/M"
_symmetry_group_IT_number 12
_symmetry_cell_setting 'monoclinic'
loop_
_space_group_symop_operation_xyz
x,y,z
-x,y,-z
-x,-y,-z
x,-y,z
1/2+x,1/2+y,z
1/2-x,1/2+y,-z
1/2-x,1/2-y,-z
1/2+x,1/2-y,z
loop_
_atom_site_type_symbol
_atom_site_label
_atom_site_fract_x
_atom_site_fract_y
_atom_site_fract_z
Si Si1 0.051850 0.095992 0.461793
Si Si2 0.453684 0.173329 0.001858
Si Si3 0.874048 0.398570 0.642060
Si Si4 0.738107 0.392216 0.882076
Si Si5 0.000000 0.249646 0.500000
Si Si6 0.833492 0.391505 0.048962
Si Si7 0.095338 0.853959 0.086838
Si Si8 0.190503 0.108097 0.267235
O O1 0.019847 0.177988 0.358077
O O2 0.084876 0.096834 0.318840
O O3 0.031152 0.000000 0.395007
O O4 0.072780 0.109121 0.783540
O O5 0.422724 0.101127 0.823867
O O6 0.425184 0.259821 0.901051
O O7 0.500000 0.169073 0.000000
O O8 0.464411 0.185523 0.318048
O O9 0.859614 0.500000 0.590303
O O10 0.862025 0.358974 0.346312
O O11 0.850046 0.359611 0.822312
O O12 0.737943 0.500000 0.882276
O O13 0.713996 0.364340 0.575534
O O14 0.786167 0.365615 0.985337
O O15 0.715596 0.364270 0.081466
O O16 0.835441 0.500000 0.042930
O O17 0.143897 0.856288 0.153821
O O18 0.188092 0.000000 0.260526
#
# Coordination Sequence:
#
# PCOD9173344 Si02
#       8
#     8   8   8   8   4   8   8   8
#     4  11  21  36  57  81 112 153 200 251 283 320
#     4  11  24  43  62  81 117 155 201 240 302 365
#     4  10  22  38  64  91 115 146 190 246 299 353
#     4   9  17  30  55  84 118 152 184 232 282 337
#     4  10  23  40  57  84 112 152 196 240 287 362
#     4   9  18  36  59  91 119 144 185 234 295 356
#     4  11  23  37  56  83 120 161 199 241 292 340
#     4  10  18  30  51  83 115 152 194 231 275 328
#
# _framework density 22.938980000000001
#
# number of rings (size 3 to 8) (size 9 to 14) (size 15 to 20)
#    0.000    1.867    1.333    3.000    1.867    4.533 
#    0.000    2.333    0.000    4.800    0.000    0.000 
#    0.000    0.000    0.000    0.000    0.000    0.000 
#
# Total GULP energy -167404.504784 kJ/mol
# GULP energy per Si atom -5580.150159 kJ/mol
# Density = 2.288677 g / cm^3
# Si number density = 22.938980 Si / 1000 Ang^3
#
#
#
# Elastic Constant Matrix: (Units=GPa)
#
#
# Indices 1 2 3 4 5 6 
#
# 1 115.1808 -14.3789 17.6012 0.0000 -0.2368 0.0000
# 2 -14.3789 18.8386 9.3630 0.0000 -4.7338 0.0000
# 3 17.6012 9.3630 102.7919 0.0000 -2.1722 0.0000
# 4 0.0000 0.0000 0.0000 25.3932 0.0000 17.1906
# 5 -0.2368 -4.7338 -2.1722 0.0000 41.6681 0.0000
# 6 0.0000 0.0000 0.0000 17.1906 0.0000 15.4989
#
#
#
# Elastic Compliance Matrix: (Units=1/GPa)
#
#
# Indices 1 2 3 4 5 6 
#
# 1 0.010247 0.009354 -0.002586 0.000000 0.000986 0.000000
# 2 0.009354 0.065710 -0.007436 0.000000 0.007131 0.000000
# 3 -0.002586 -0.007436 0.010842 0.000000 -0.000294 0.000000
# 4 0.000000 0.000000 0.000000 0.158072 0.000000 -0.175326
# 5 0.000986 0.007131 -0.000294 0.000000 0.024800 0.000000
# 6 0.000000 0.000000 0.000000 -0.175326 0.000000 0.258983
#
#
# Mechanical properties :
#
#
# Convention : Reuss Voigt Hill
#
# Bulk Modulus (GPa) = 11.70099 29.10911 20.40505
# Shear Modulus (GPa) = 8.95291 31.46045 20.20668
#
# Velocity S-wave (km/s) = 1.97773 3.70737 2.97120
# Velocity P-wave (km/s) = 3.21359 5.57167 4.54812
#
# Compressibility (1/GPa) = 0.08546285
#
# Stress axis : x y z
#
# Youngs Moduli (GPa) = 97.59042 15.21845 92.23145
#
# Poissons Ratio (x) = -0.14235 0.23849
# Poissons Ratio (y) = -0.91287 0.68586
# Poissons Ratio (z) = 0.25235 0.11317
#
# Static dielectric constant tensor:
#      x y z
#    x 1.849130 0.000000 -0.036840 
#    y 0.000000 1.949070 0.000000 
#    z -0.036840 0.000000 1.896220 
# 
# From -- ./inp_files/32065.got.cif
#   From: 2010.05.17/outbox.cif.g08.bks.cpg/sg12_17_cif.got.tgz:32065.got - 2010.06.03 13:09:07.
