data_PCOD9173276
_publ_section_title
;
Structure prediction by ZEFSAII (Michael W. Deem and Ramdas Pophale) SiO2 
 PCOD9173276
Probable space group: C 2/M
;
_chemical_formula_sum "Si O2"
_cell_formula_units_Z 56
_cell_length_a 32.621930
_cell_length_b 14.447991
_cell_length_c 12.391962
_cell_angle_alpha 90.000000
_cell_angle_beta 29.417855
_cell_angle_gamma 90.000000
_cell_volume 2868.756187
_symmetry_space_group_name_H-M "C 2/M"
_symmetry_group_IT_number 12
_symmetry_cell_setting 'monoclinic'
loop_
_space_group_symop_operation_xyz
x,y,z
-x,y,-z
-x,-y,-z
x,-y,z
1/2+x,1/2+y,z
1/2-x,1/2+y,-z
1/2-x,1/2-y,-z
1/2+x,1/2-y,z
loop_
_atom_site_type_symbol
_atom_site_label
_atom_site_fract_x
_atom_site_fract_y
_atom_site_fract_z
Si Si1 0.052261 0.394741 0.218150
Si Si2 0.589157 0.655707 0.821627
Si Si3 0.571301 0.139278 0.923716
Si Si4 0.718653 0.889314 0.951015
Si Si5 0.813526 0.250637 0.593131
Si Si6 0.626160 0.890154 0.378163
Si Si7 0.746697 0.397567 0.598067
O O1 0.053245 0.500000 0.256912
O O2 0.963701 0.355472 0.457273
O O3 0.055971 0.395348 0.079687
O O4 0.136492 0.356381 0.073980
O O5 0.567785 0.749279 0.936330
O O6 0.628955 0.694708 0.620525
O O7 0.665256 0.606293 0.708424
O O8 0.500000 0.609084 0.000000
O O9 0.664686 0.112263 0.669301
O O10 0.500000 0.110724 0.000000
O O11 0.786931 0.821857 0.745344
O O12 0.733891 0.000000 0.897270
O O13 0.697096 0.876344 0.125966
O O14 0.858224 0.335573 0.548956
O O15 0.745276 0.306836 0.678106
O O16 0.619566 0.000000 0.412550
O O17 0.747672 0.500000 0.648595
#
# Coordination Sequence:
#
# PCOD9173276 Si02
#       7
#     8   8   8   8   8   8   8
#     4  10  18  30  51  77 106 137 169 210 262 321
#     4  10  21  36  53  75 105 141 184 224 260 310
#     4  10  19  32  52  79 111 143 175 214 264 325
#     4  10  21  36  54  76 103 138 180 224 267 312
#     4  11  21  35  56  78 106 141 175 219 270 320
#     4  10  20  34  53  80 109 136 172 216 266 322
#     4  11  22  35  53  80 113 146 179 217 264 320
#
# _framework density 19.520655000000001
#
# number of rings (size 3 to 8) (size 9 to 14) (size 15 to 20)
#    0.000    1.714    0.000    7.714    0.000    6.000 
#    0.000    0.000    0.000    0.429    0.000    0.000 
#    0.000   11.429    0.000    0.000    0.000    0.000 
#
# Total GULP energy -156080.142098 kJ/mol
# GULP energy per Si atom -5574.290789 kJ/mol
# Density = 1.947623 g / cm^3
# Si number density = 19.520655 Si / 1000 Ang^3
#
#
#
# Elastic Constant Matrix: (Units=GPa)
#
#
# Indices 1 2 3 4 5 6 
#
# 1 12.9526 -32.2696 -76.9603 0.0000 -28.2454 0.0000
# 2 -32.2696 39.0021 -41.2219 0.0000 -5.3943 0.0000
# 3 -76.9603 -41.2219 -99.6110 0.0000 -31.5796 0.0000
# 4 0.0000 0.0000 0.0000 2.1495 0.0000 9.8943
# 5 -28.2454 -5.3943 -31.5796 0.0000 33.6188 0.0000
# 6 0.0000 0.0000 0.0000 9.8943 0.0000 25.9349
#
#
#
# Elastic Compliance Matrix: (Units=1/GPa)
#
#
# Indices 1 2 3 4 5 6 
#
# 1 0.013875 -0.000065 -0.011085 0.000000 0.001235 0.000000
# 2 -0.000065 0.018278 -0.006493 0.000000 -0.003221 0.000000
# 3 -0.011085 -0.006493 0.003463 0.000000 -0.007101 0.000000
# 4 0.000000 0.000000 0.000000 -0.615289 0.000000 0.234736
# 5 0.001235 -0.003221 -0.007101 0.000000 0.023595 0.000000
# 6 0.000000 0.000000 0.000000 0.234736 0.000000 -0.050995
#
#
# Mechanical properties :
#
#
# Convention : Reuss Voigt Hill
#
# Bulk Modulus (GPa) = 3013.18196 -38.72888 1487.22654
# Shear Modulus (GPa) = -8.74620 19.19369 5.22374
#
# Velocity S-wave (km/s) = -2.11901 3.13908 1.63763
# Velocity P-wave (km/s) = 39.25494 2.59703 27.69662
#
# Compressibility (1/GPa) = 0.00033188
#
# Stress axis : x y z
#
# Youngs Moduli (GPa) = 72.07244 54.71024 288.74402
#
# Poissons Ratio (x) = 0.00354 3.20059
# Poissons Ratio (y) = 0.00467 1.87479
# Poissons Ratio (z) = 0.79889 0.35523
#
# Static dielectric constant tensor:
#      x y z
#    x 1.743090 0.000000 -0.028450 
#    y 0.000000 1.678670 0.000000 
#    z -0.028450 0.000000 1.714710 
# 
# From -- ./inp_files/189627.got.cif
#   From: 2010.05.17/outbox.cif.g08.bks.cpg/sg12_95_cif.got.tgz:189627.got - 2010.06.03 13:09:07.
