data_PCOD9173720
_publ_section_title
;
Structure prediction by ZEFSAII (Michael W. Deem and Ramdas Pophale) SiO2 
 PCOD9173720
Probable space group: C 2/M
;
_chemical_formula_sum "Si O2"
_cell_formula_units_Z 56
_cell_length_a 15.108430
_cell_length_b 19.164285
_cell_length_c 13.359912
_cell_angle_alpha 90.000000
_cell_angle_beta 116.947386
_cell_angle_gamma 90.000000
_cell_volume 3448.255289
_symmetry_space_group_name_H-M "C 2/M"
_symmetry_group_IT_number 12
_symmetry_cell_setting 'monoclinic'
loop_
_space_group_symop_operation_xyz
x,y,z
-x,y,-z
-x,-y,-z
x,-y,z
1/2+x,1/2+y,z
1/2-x,1/2+y,-z
1/2-x,1/2-y,-z
1/2+x,1/2-y,z
loop_
_atom_site_type_symbol
_atom_site_label
_atom_site_fract_x
_atom_site_fract_y
_atom_site_fract_z
Si Si1 0.345966 0.921110 0.169762
Si Si2 0.500000 0.839221 0.500000
Si Si3 0.176661 0.340613 0.222329
Si Si4 0.925525 0.581361 0.654686
Si Si5 0.000000 0.713636 0.000000
Si Si6 0.830792 0.716188 0.274764
Si Si7 0.358278 0.717674 0.083771
Si Si8 0.271713 0.420182 0.090815
O O1 0.464540 0.915603 0.239639
O O2 0.300246 0.860541 0.216631
O O3 0.317451 0.000000 0.186252
O O4 0.314007 0.912939 0.037923
O O5 0.554752 0.886434 0.444570
O O6 0.586228 0.795150 0.598511
O O7 0.148778 0.373757 0.314616
O O8 0.241422 0.268782 0.258325
O O9 0.236089 0.393684 0.180605
O O10 0.074808 0.328110 0.109427
O O11 0.895956 0.500000 0.634751
O O12 0.932492 0.759505 0.037453
O O13 0.882646 0.750074 0.203875
O O14 0.351433 0.635202 0.093157
O O15 0.250000 0.750000 0.000000
O O16 0.302991 0.500000 0.109657
#
# Coordination Sequence:
#
# PCOD9173720 Si02
#       8
#     8   4   8   8   4   8   8   8
#     4   9  16  28  48  72 104 136 166 202 252 316
#     4  10  21  36  54  66  97 138 176 222 253 300
#     4  11  20  30  52  79 106 134 170 214 262 317
#     4  10  20  32  47  73 100 132 170 209 263 315
#     4  12  18  30  56  80 110 142 168 214 264 312
#     4  10  19  35  50  76 106 135 176 212 256 306
#     4  11  19  34  52  77 110 139 176 209 258 313
#     4  10  18  31  49  75 110 141 166 211 262 312
#
# _framework density 16.240096999999999
#
# number of rings (size 3 to 8) (size 9 to 14) (size 15 to 20)
#    0.000    1.714    4.286    3.214    0.000    1.143 
#    0.000    3.214    0.000    0.857    0.000   16.500 
#    0.000    0.000    0.000    0.143    0.000    0.000 
#
# Total GULP energy -156027.605045 kJ/mol
# GULP energy per Si atom -5572.414466 kJ/mol
# Density = 1.620313 g / cm^3
# Si number density = 16.240097 Si / 1000 Ang^3
#
#
#
# Elastic Constant Matrix: (Units=GPa)
#
#
# Indices 1 2 3 4 5 6 
#
# 1 59.3823 33.3805 22.4998 0.0000 -20.4987 0.0000
# 2 33.3805 128.6637 36.8722 0.0000 -8.0127 0.0000
# 3 22.4998 36.8722 84.2213 0.0000 -13.1715 0.0000
# 4 0.0000 0.0000 0.0000 22.5229 0.0000 -3.4388
# 5 -20.4987 -8.0127 -13.1715 0.0000 24.3528 0.0000
# 6 0.0000 0.0000 0.0000 -3.4388 0.0000 20.1939
#
#
#
# Elastic Compliance Matrix: (Units=1/GPa)
#
#
# Indices 1 2 3 4 5 6 
#
# 1 0.027625 -0.005368 -0.001824 0.000000 0.020501 0.000000
# 2 -0.005368 0.009948 -0.003404 0.000000 -0.003086 0.000000
# 3 -0.001824 -0.003404 0.014677 0.000000 0.005283 0.000000
# 4 0.000000 0.000000 0.000000 0.045584 0.000000 0.007763
# 5 0.020501 -0.003086 0.005283 0.000000 0.060161 0.000000
# 6 0.000000 0.000000 0.000000 0.007763 0.000000 0.050842
#
#
# Mechanical properties :
#
#
# Convention : Reuss Voigt Hill
#
# Bulk Modulus (GPa) = 32.19640 50.86357 41.52998
# Shear Modulus (GPa) = 20.80017 25.38157 23.09087
#
# Velocity S-wave (km/s) = 3.58270 3.95764 3.77482
# Velocity P-wave (km/s) = 6.08133 7.22991 6.68035
#
# Compressibility (1/GPa) = 0.03105937
#
# Stress axis : x y z
#
# Youngs Moduli (GPa) = 36.19872 100.52178 68.13268
#
# Poissons Ratio (x) = 0.53957 0.12428
# Poissons Ratio (y) = 0.19430 0.23192
# Poissons Ratio (z) = 0.06603 0.34217
#
# Static dielectric constant tensor:
#      x y z
#    x 1.531690 0.000000 0.006800 
#    y 0.000000 1.579660 0.000000 
#    z 0.006800 0.000000 1.567200 
# 
# From -- ./inp_files/145714.got.cif
#   From: 2010.05.17/outbox.cif.g08.bks.cpg/sg12_73_cif.got.tgz:145714.got - 2010.06.03 13:09:07.
