data_PCOD9173442
_publ_section_title
;
Structure prediction by ZEFSAII (Michael W. Deem and Ramdas Pophale) SiO2 
 PCOD9173442
Probable space group: C 2/M
;
_chemical_formula_sum "Si O2"
_cell_formula_units_Z 64
_cell_length_a 21.099976
_cell_length_b 7.429111
_cell_length_c 26.804931
_cell_angle_alpha 90.000000
_cell_angle_beta 134.224273
_cell_angle_gamma 90.000000
_cell_volume 3011.060724
_symmetry_space_group_name_H-M "C 2/M"
_symmetry_group_IT_number 12
_symmetry_cell_setting 'monoclinic'
loop_
_space_group_symop_operation_xyz
x,y,z
-x,y,-z
-x,-y,-z
x,-y,z
1/2+x,1/2+y,z
1/2-x,1/2+y,-z
1/2-x,1/2-y,-z
1/2+x,1/2-y,z
loop_
_atom_site_type_symbol
_atom_site_label
_atom_site_fract_x
_atom_site_fract_y
_atom_site_fract_z
Si Si1 0.905237 0.708274 0.770212
Si Si2 0.642101 0.280825 0.075052
Si Si3 0.827434 0.279499 0.217451
Si Si4 0.900878 0.280275 0.461036
Si Si5 0.352184 0.784943 0.544456
Si Si6 0.711382 0.793803 0.693057
Si Si7 0.500606 0.282911 0.920097
Si Si8 0.476033 0.220373 0.702973
O O1 0.882160 0.500000 0.750386
O O2 0.816418 0.795094 0.742949
O O3 0.980789 0.721264 0.853574
O O4 0.936530 0.780799 0.734164
O O5 0.641970 0.500000 0.074884
O O6 0.742134 0.221594 0.138802
O O7 0.580164 0.226811 0.087813
O O8 0.590466 0.223620 0.996838
O O9 0.825820 0.500000 0.216861
O O10 0.813571 0.216407 0.266880
O O11 0.922603 0.224264 0.249338
O O12 0.895913 0.500000 0.460132
O O13 0.876778 0.215648 0.503067
O O14 0.834709 0.216103 0.381415
O O15 0.000000 0.232222 0.500000
O O16 0.250000 0.750000 0.500000
O O17 0.415244 0.718816 0.623513
O O18 0.364830 0.000000 0.550162
O O19 0.679421 0.000000 0.677960
O O20 0.500424 0.500000 0.919333
O O21 0.475600 0.000000 0.703312
#
# Coordination Sequence:
#
# PCOD9173442 Si02
#       8
#     8   8   8   8   8   8   8   8
#     4  11  21  32  46  70 102 133 162 197 238 285
#     4   8  14  26  50  78  98 118 155 205 243 281
#     4   9  15  28  51  75  94 123 166 203 235 280
#     4   9  17  29  49  78 101 117 153 212 259 283
#     4  10  19  33  51  71  97 130 164 200 241 289
#     4  10  18  30  53  77  95 121 162 209 249 285
#     4   9  16  30  51  76  99 121 159 203 242 282
#     4   9  19  32  47  69 100 134 165 195 235 291
#
# _framework density 21.254968000000002
#
# number of rings (size 3 to 8) (size 9 to 14) (size 15 to 20)
#    0.000    2.625    1.250    2.625    0.000    3.000 
#    0.000    2.500    0.000    5.250    0.000    0.000 
#    0.000    0.000    0.000    0.000    0.000    0.000 
#
# Total GULP energy -178691.294516 kJ/mol
# GULP energy per Si atom -5584.102954 kJ/mol
# Density = 2.120659 g / cm^3
# Si number density = 21.254968 Si / 1000 Ang^3
#
#
#
# Elastic Constant Matrix: (Units=GPa)
#
#
# Indices 1 2 3 4 5 6 
#
# 1 89.9553 -8.8182 31.8144 0.0000 -0.4763 0.0000
# 2 -8.8182 64.3787 -7.7965 -0.0001 -0.7272 -0.0002
# 3 31.8144 -7.7965 140.8339 0.0000 5.6410 0.0000
# 4 0.0000 -0.0001 0.0000 3.9415 0.0000 -4.3739
# 5 -0.4763 -0.7272 5.6410 0.0000 31.6411 0.0000
# 6 0.0000 -0.0002 0.0000 -4.3739 0.0000 -5.0525
#
#
#
# Elastic Compliance Matrix: (Units=1/GPa)
#
#
# Indices 1 2 3 4 5 6 
#
# 1 0.012212 0.001352 -0.002712 0.000000 0.000698 0.000000
# 2 0.001352 0.015789 0.000557 0.000000 0.000284 -0.000001
# 3 -0.002712 0.000557 0.007801 0.000000 -0.001419 0.000000
# 4 0.000000 0.000000 0.000000 0.129402 0.000000 -0.112021
# 5 0.000698 0.000284 -0.001419 0.000000 0.031874 0.000000
# 6 0.000000 -0.000001 0.000000 -0.112021 0.000000 -0.100946
#
#
# Mechanical properties :
#
#
# Convention : Reuss Voigt Hill
#
# Bulk Modulus (GPa) = 29.24227 36.17414 32.70821
# Shear Modulus (GPa) = 45.81441 24.77054 35.29247
#
# Velocity S-wave (km/s) = 4.64774 3.41750 4.07926
# Velocity P-wave (km/s) = 6.52608 5.71214 6.13262
#
# Compressibility (1/GPa) = 0.03419707
#
# Stress axis : x y z
#
# Youngs Moduli (GPa) = 81.88693 63.33523 128.19136
#
# Poissons Ratio (x) = -0.08564 0.34763
# Poissons Ratio (y) = -0.11073 -0.07143
# Poissons Ratio (z) = 0.22206 -0.03529
#
# Static dielectric constant tensor:
#      x y z
#    x 1.700660 0.000000 -0.008120 
#    y 0.000000 1.844230 0.000000 
#    z -0.008120 0.000000 1.760090 
# 
# From -- ./inp_files/346275.got.cif
#   From: 2010.05.17/outbox.cif.g08.bks.cpg/sg12_174_cif.got.tgz:346275.got - 2010.06.03 13:09:07.
