data_PCOD9173363
_publ_section_title
;
Structure prediction by ZEFSAII (Michael W. Deem and Ramdas Pophale) SiO2 
 PCOD9173363
Probable space group: C 2/M
;
_chemical_formula_sum "Si O2"
_cell_formula_units_Z 48
_cell_length_a 21.043304
_cell_length_b 7.387886
_cell_length_c 15.429381
_cell_angle_alpha 90.000000
_cell_angle_beta 108.636421
_cell_angle_gamma 90.000000
_cell_volume 2272.960260
_symmetry_space_group_name_H-M "C 2/M"
_symmetry_group_IT_number 12
_symmetry_cell_setting 'monoclinic'
loop_
_space_group_symop_operation_xyz
x,y,z
-x,y,-z
-x,-y,-z
x,-y,z
1/2+x,1/2+y,z
1/2-x,1/2+y,-z
1/2-x,1/2-y,-z
1/2+x,1/2-y,z
loop_
_atom_site_type_symbol
_atom_site_label
_atom_site_fract_x
_atom_site_fract_y
_atom_site_fract_z
Si Si1 0.065517 0.278601 0.791265
Si Si2 0.928059 0.720765 0.007883
Si Si3 0.822458 0.283477 0.489142
Si Si4 0.177324 0.713936 0.706643
Si Si5 0.585770 0.778903 0.316004
Si Si6 0.830075 0.282300 0.815331
O O1 0.066178 0.500000 0.792375
O O2 0.078543 0.220805 0.895750
O O3 0.121937 0.214826 0.748982
O O4 0.990946 0.223647 0.730044
O O5 0.927872 0.500000 0.008048
O O6 0.869175 0.780821 0.917858
O O7 0.000000 0.775030 0.000000
O O8 0.830001 0.500000 0.487630
O O9 0.750000 0.250000 0.500000
O O10 0.825638 0.211695 0.392609
O O11 0.879115 0.217243 0.580231
O O12 0.164171 0.500000 0.693936
O O13 0.252369 0.734638 0.775262
O O14 0.630481 0.720156 0.253452
O O15 0.586477 0.000000 0.316227
O O16 0.834092 0.500000 0.816800
#
# Coordination Sequence:
#
# PCOD9173363 Si02
#       6
#     8   8   8   8   8   8
#     4   9  17  30  47  72 103 126 155 204 249 281
#     4   9  15  26  48  76  97 120 162 207 239 273
#     4  10  19  31  49  73  97 126 162 197 238 287
#     4  10  21  33  47  72 105 132 153 193 251 295
#     4   9  16  28  49  73  94 121 162 205 237 272
#     4  10  18  30  52  76  95 124 166 204 234 278
#
# _framework density 21.117837000000002
#
# number of rings (size 3 to 8) (size 9 to 14) (size 15 to 20)
#    0.000    2.500    3.333    0.000    0.000    1.333 
#    0.000    3.333    0.000    2.500    0.000    2.333 
#    0.000    0.000    0.000    0.000    0.000    0.000 
#
# Total GULP energy -134069.044864 kJ/mol
# GULP energy per Si atom -5586.210203 kJ/mol
# Density = 2.106977 g / cm^3
# Si number density = 21.117837 Si / 1000 Ang^3
#
#
#
# Elastic Constant Matrix: (Units=GPa)
#
#
# Indices 1 2 3 4 5 6 
#
# 1 192.9430 -0.8755 124.4857 0.0000 -10.7648 0.0000
# 2 -0.8755 73.3262 7.0265 0.0000 -4.4554 0.0000
# 3 124.4857 7.0265 235.0391 0.0000 0.1296 0.0000
# 4 0.0000 0.0000 0.0000 -13.0909 0.0000 5.4507
# 5 -10.7648 -4.4554 0.1296 0.0000 36.7209 0.0000
# 6 0.0000 0.0000 0.0000 5.4507 0.0000 15.0099
#
#
#
# Elastic Compliance Matrix: (Units=1/GPa)
#
#
# Indices 1 2 3 4 5 6 
#
# 1 0.008108 0.000661 -0.004315 0.000000 0.002472 0.000000
# 2 0.000661 0.013833 -0.000764 0.000000 0.001875 0.000000
# 3 -0.004315 -0.000764 0.006564 0.000000 -0.001381 0.000000
# 4 0.000000 0.000000 0.000000 -0.066356 0.000000 0.024096
# 5 0.002472 0.001875 -0.001381 0.000000 0.028190 0.000000
# 6 0.000000 0.000000 0.000000 0.024096 0.000000 0.057872
#
#
# Mechanical properties :
#
#
# Convention : Reuss Voigt Hill
#
# Bulk Modulus (GPa) = 50.84908 84.73129 67.79018
# Shear Modulus (GPa) = 78.61052 32.43943 55.52497
#
# Velocity S-wave (km/s) = 6.10782 3.92358 5.13323
# Velocity P-wave (km/s) = 8.59486 7.79334 8.20390
#
# Compressibility (1/GPa) = 0.01966604
#
# Stress axis : x y z
#
# Youngs Moduli (GPa) = 123.33275 72.29233 152.34899
#
# Poissons Ratio (x) = -0.04775 0.65746
# Poissons Ratio (y) = -0.08147 0.11646
# Poissons Ratio (z) = 0.53224 0.05526
#
# Static dielectric constant tensor:
#      x y z
#    x 1.697070 0.000000 -0.006040 
#    y 0.000000 1.845310 0.000000 
#    z -0.006040 0.000000 1.744690 
# 
# From -- ./inp_files/222384.got.cif
#   From: 2010.05.17/outbox.cif.g08.bks.cpg/sg12_112_cif.got.tgz:222384.got - 2010.06.03 13:09:07.
