data_PCOD9173327
_publ_section_title
;
Structure prediction by ZEFSAII (Michael W. Deem and Ramdas Pophale) SiO2 
 PCOD9173327
Probable space group: C 2/M
;
_chemical_formula_sum "Si O2"
_cell_formula_units_Z 64
_cell_length_a 21.837841
_cell_length_b 9.292378
_cell_length_c 21.127081
_cell_angle_alpha 90.000000
_cell_angle_beta 125.830053
_cell_angle_gamma 90.000000
_cell_volume 3475.895485
_symmetry_space_group_name_H-M "C 2/M"
_symmetry_group_IT_number 12
_symmetry_cell_setting 'monoclinic'
loop_
_space_group_symop_operation_xyz
x,y,z
-x,y,-z
-x,-y,-z
x,-y,z
1/2+x,1/2+y,z
1/2-x,1/2+y,-z
1/2-x,1/2-y,-z
1/2+x,1/2-y,z
loop_
_atom_site_type_symbol
_atom_site_label
_atom_site_fract_x
_atom_site_fract_y
_atom_site_fract_z
Si Si1 0.348432 0.334605 0.123039
Si Si2 0.870788 0.670507 0.579747
Si Si3 0.766471 0.667483 0.747181
Si Si4 0.511009 0.329187 0.268693
Si Si5 0.054626 0.331740 0.165826
Si Si6 0.774870 0.828963 0.419535
Si Si7 0.271838 0.671294 0.875495
Si Si8 0.076859 0.169157 0.970707
O O1 0.323029 0.500000 0.114271
O O2 0.420659 0.310639 0.212338
O O3 0.281267 0.230411 0.101111
O O4 0.381460 0.317614 0.072469
O O5 0.883343 0.500000 0.581828
O O6 0.944969 0.753020 0.647961
O O7 0.835746 0.737780 0.495087
O O8 0.805809 0.692903 0.594183
O O9 0.747639 0.500000 0.747317
O O10 0.857239 0.678222 0.796206
O O11 0.732714 0.709584 0.658679
O O12 0.743595 0.762599 0.792754
O O13 0.526549 0.500000 0.276494
O O14 0.540299 0.255190 0.221925
O O15 0.035735 0.500000 0.163504
O O16 0.998748 0.261690 0.080515
O O17 0.791183 0.000000 0.434238
O O18 0.269961 0.500000 0.873556
O O19 0.358879 0.714563 0.941140
O O20 0.058335 0.000000 0.968248
#
# Coordination Sequence:
#
# PCOD9173327 Si02
#       8
#     8   8   8   8   8   8   8   8
#     4   9  19  36  56  76 101 135 175 216 263 312
#     4  10  18  30  51  81 110 136 173 213 253 305
#     4  10  21  37  53  72 107 145 177 211 253 314
#     4  10  19  32  53  80 109 139 169 211 266 315
#     4  10  19  33  53  78 104 136 177 216 258 308
#     4   9  18  33  50  74 108 142 173 209 253 306
#     4  11  23  36  53  77 103 136 179 220 262 309
#     4   9  20  37  54  77 106 134 169 218 270 317
#
# _framework density 18.412521999999999
#
# number of rings (size 3 to 8) (size 9 to 14) (size 15 to 20)
#    0.000    2.250    1.250    2.625    0.000    6.000 
#    0.000    2.500    0.000    0.750    0.000    5.250 
#    0.000    0.000    0.000    0.000    0.000    0.000 
#
# Total GULP energy -178625.172593 kJ/mol
# GULP energy per Si atom -5582.036644 kJ/mol
# Density = 1.837061 g / cm^3
# Si number density = 18.412522 Si / 1000 Ang^3
#
#
#
# Elastic Constant Matrix: (Units=GPa)
#
#
# Indices 1 2 3 4 5 6 
#
# 1 20.9965 15.2430 7.8905 0.0000 -0.9901 0.0000
# 2 15.2430 57.9006 43.3338 0.0000 7.5073 0.0000
# 3 7.8905 43.3338 113.0937 0.0000 -0.2677 0.0000
# 4 0.0000 0.0000 0.0000 30.7554 0.0000 5.7764
# 5 -0.9901 7.5073 -0.2677 0.0000 18.0135 0.0000
# 6 0.0000 0.0000 0.0000 5.7764 0.0000 19.3689
#
#
#
# Elastic Compliance Matrix: (Units=1/GPa)
#
#
# Indices 1 2 3 4 5 6 
#
# 1 0.061710 -0.020467 0.003565 0.000000 0.011974 0.000000
# 2 -0.020467 0.033047 -0.011270 0.000000 -0.015065 0.000000
# 3 0.003565 -0.011270 0.012924 0.000000 0.005085 0.000000
# 4 0.000000 0.000000 0.000000 0.034444 0.000000 -0.010272
# 5 0.011974 -0.015065 0.005085 0.000000 0.062526 0.000000
# 6 0.000000 0.000000 0.000000 -0.010272 0.000000 0.054693
#
#
# Mechanical properties :
#
#
# Convention : Reuss Voigt Hill
#
# Bulk Modulus (GPa) = 19.47893 36.10282 27.79088
# Shear Modulus (GPa) = 15.02400 21.99578 18.50989
#
# Velocity S-wave (km/s) = 2.85961 3.46006 3.17407
# Velocity P-wave (km/s) = 4.63738 5.96767 5.34408
#
# Compressibility (1/GPa) = 0.05133753
#
# Stress axis : x y z
#
# Youngs Moduli (GPa) = 16.20476 30.25962 77.37561
#
# Poissons Ratio (x) = 0.61931 -0.27585
# Poissons Ratio (y) = 0.33166 0.87205
# Poissons Ratio (z) = -0.05777 0.34104
#
# Static dielectric constant tensor:
#      x y z
#    x 1.624100 0.000000 -0.004600 
#    y 0.000000 1.609900 0.000000 
#    z -0.004600 0.000000 1.649840 
# 
# From -- ./inp_files/324311.got.cif
#   From: 2010.05.17/outbox.cif.g08.bks.cpg/sg12_163_cif.got.tgz:324311.got - 2010.06.03 13:09:07.
