data_PCOD9173606
_publ_section_title
;
Structure prediction by ZEFSAII (Michael W. Deem and Ramdas Pophale) SiO2 
 PCOD9173606
Probable space group: C 2/M
;
_chemical_formula_sum "Si O2"
_cell_formula_units_Z 64
_cell_length_a 11.720820
_cell_length_b 23.131180
_cell_length_c 12.289761
_cell_angle_alpha 90.000000
_cell_angle_beta 65.571498
_cell_angle_gamma 90.000000
_cell_volume 3033.672543
_symmetry_space_group_name_H-M "C 2/M"
_symmetry_group_IT_number 12
_symmetry_cell_setting 'monoclinic'
loop_
_space_group_symop_operation_xyz
x,y,z
-x,y,-z
-x,-y,-z
x,-y,z
1/2+x,1/2+y,z
1/2-x,1/2+y,-z
1/2-x,1/2-y,-z
1/2+x,1/2-y,z
loop_
_atom_site_type_symbol
_atom_site_label
_atom_site_fract_x
_atom_site_fract_y
_atom_site_fract_z
Si Si1 0.624978 0.571275 0.698852
Si Si2 0.757873 0.600401 0.432452
Si Si3 0.945776 0.723430 0.640114
Si Si4 0.978342 0.584320 0.632303
Si Si5 0.642886 0.929243 0.958346
Si Si6 0.362369 0.566795 0.719112
Si Si7 0.298898 0.767773 0.361668
Si Si8 0.740384 0.435983 0.865667
O O1 0.635686 0.500000 0.689689
O O2 0.723218 0.597531 0.573444
O O3 0.490129 0.592611 0.712371
O O4 0.645489 0.590172 0.815379
O O5 0.650466 0.571258 0.404722
O O6 0.775773 0.663799 0.377001
O O7 0.890752 0.570138 0.362258
O O8 0.956056 0.653707 0.640402
O O9 0.798559 0.741721 0.689334
O O10 0.000000 0.741726 0.500000
O O11 0.049826 0.744161 0.689047
O O12 0.863247 0.558943 0.741724
O O13 0.000000 0.566042 0.500000
O O14 0.735398 0.911348 0.825066
O O15 0.636675 0.000000 0.966539
O O16 0.500000 0.909176 0.000000
O O17 0.710317 0.908613 0.042802
O O18 0.369295 0.500000 0.748092
O O19 0.250000 0.750000 0.500000
O O20 0.691319 0.500000 0.913888
#
# Coordination Sequence:
#
# PCOD9173606 Si02
#       8
#     8   8   8   8   8   8   8   8
#     4  10  21  33  46  72 105 135 167 200 246 305
#     4  11  20  32  50  73 105 136 167 203 247 305
#     4   8  16  29  44  65  95 128 163 200 249 296
#     4  10  18  31  47  70 103 130 160 206 252 296
#     4   9  18  34  53  71  92 124 171 214 245 286
#     4  10  21  35  50  70 101 137 168 207 250 289
#     4   9  18  30  46  69  98 133 167 207 247 299
#     4  10  20  32  49  73  99 132 171 206 246 297
#
# _framework density 21.096541999999999
#
# number of rings (size 3 to 8) (size 9 to 14) (size 15 to 20)
#    0.000    2.375    1.250    2.250    0.000    6.750 
#    0.000    2.500    0.000    0.000    0.000    0.875 
#    0.000    0.250    0.000    0.000    0.000    0.000 
#
# Total GULP energy -178191.986090 kJ/mol
# GULP energy per Si atom -5568.499565 kJ/mol
# Density = 2.104853 g / cm^3
# Si number density = 21.096542 Si / 1000 Ang^3
#
#
#
# Elastic Constant Matrix: (Units=GPa)
#
#
# Indices 1 2 3 4 5 6 
#
# 1 163.4592 20.7805 6.5835 0.0000 21.0804 0.0000
# 2 20.7805 36.6601 -0.4062 0.0000 0.9360 0.0000
# 3 6.5835 -0.4062 39.7484 0.0000 19.7774 0.0000
# 4 0.0000 0.0000 0.0000 26.7637 0.0000 -17.3323
# 5 21.0804 0.9360 19.7774 0.0000 29.7960 0.0000
# 6 0.0000 0.0000 0.0000 -17.3323 0.0000 26.5475
#
#
#
# Elastic Compliance Matrix: (Units=1/GPa)
#
#
# Indices 1 2 3 4 5 6 
#
# 1 0.007367 -0.003993 0.001896 0.000000 -0.006346 0.000000
# 2 -0.003993 0.029493 0.000027 0.000000 0.001881 0.000000
# 3 0.001896 0.000027 0.038093 0.000000 -0.026627 0.000000
# 4 0.000000 0.000000 0.000000 0.064734 0.000000 0.042264
# 5 -0.006346 0.001881 -0.026627 0.000000 0.055666 0.000000
# 6 0.000000 0.000000 0.000000 0.042264 0.000000 0.065261
#
#
# Mechanical properties :
#
#
# Convention : Reuss Voigt Hill
#
# Bulk Modulus (GPa) = 14.12148 32.64260 23.38204
# Shear Modulus (GPa) = 17.33947 30.81542 24.07744
#
# Velocity S-wave (km/s) = 2.87001 3.82604 3.38198
# Velocity P-wave (km/s) = 4.20605 5.91816 5.13398
#
# Compressibility (1/GPa) = 0.07081412
#
# Stress axis : x y z
#
# Youngs Moduli (GPa) = 135.73408 33.90597 26.25145
#
# Poissons Ratio (x) = 0.13539 -0.04978
# Poissons Ratio (y) = 0.54200 -0.00071
# Poissons Ratio (z) = -0.25739 -0.00092
#
# Static dielectric constant tensor:
#      x y z
#    x 1.885310 0.000000 0.034960 
#    y 0.000000 1.849200 0.000000 
#    z 0.034960 0.000000 1.791990 
# 
# From -- ./inp_files/135919.got.cif
#   From: 2010.05.17/outbox.cif.g08.bks.cpg/sg12_68_cif.got.tgz:135919.got - 2010.06.03 13:09:07.
