data_PCOD9173298
_publ_section_title
;
Structure prediction by ZEFSAII (Michael W. Deem and Ramdas Pophale) SiO2 
 PCOD9173298
Probable space group: C 2/M
;
_chemical_formula_sum "Si O2"
_cell_formula_units_Z 40
_cell_length_a 26.343497
_cell_length_b 8.652591
_cell_length_c 26.047735
_cell_angle_alpha 90.000000
_cell_angle_beta 23.056801
_cell_angle_gamma 90.000000
_cell_volume 2325.307970
_symmetry_space_group_name_H-M "C 2/M"
_symmetry_group_IT_number 12
_symmetry_cell_setting 'monoclinic'
loop_
_space_group_symop_operation_xyz
x,y,z
-x,y,-z
-x,-y,-z
x,-y,z
1/2+x,1/2+y,z
1/2-x,1/2+y,-z
1/2-x,1/2-y,-z
1/2+x,1/2-y,z
loop_
_atom_site_type_symbol
_atom_site_label
_atom_site_fract_x
_atom_site_fract_y
_atom_site_fract_z
Si Si1 0.609945 0.814916 0.855947
Si Si2 0.543138 0.685963 0.095216
Si Si3 0.392548 0.314167 0.855082
Si Si4 0.669195 0.685875 0.197142
Si Si5 0.121135 0.314831 0.352193
O O1 0.560781 0.755764 0.846813
O O2 0.745551 0.743602 0.746876
O O3 0.619831 0.000000 0.846663
O O4 0.500000 0.770931 0.000000
O O5 0.542406 0.500000 0.092131
O O6 0.523613 0.732302 0.173309
O O7 0.685699 0.746523 0.945743
O O8 0.388000 0.500000 0.860103
O O9 0.414875 0.268996 0.775118
O O10 0.250000 0.250000 0.000000
O O11 0.679804 0.500000 0.189274
O O12 0.613339 0.747282 0.302203
O O13 0.123734 0.500000 0.346683
O O14 0.000000 0.267274 0.500000
#
# Coordination Sequence:
#
# PCOD9173298 Si02
#       5
#     8   8   8   8   8
#     4  11  22  35  54  80 108 139 175 219 266 312
#     4  10  18  30  51  78 108 139 172 214 261 307
#     4   8  16  28  45  73 105 136 169 209 258 307
#     4  10  18  31  51  76 107 139 174 215 259 311
#     4  11  24  39  55  77 105 140 180 219 263 316
#
# _framework density 17.202023000000001
#
# number of rings (size 3 to 8) (size 9 to 14) (size 15 to 20)
#    0.000    2.000    2.000    2.400    0.000    4.000 
#    0.000    0.000    0.000    1.200    0.000    0.000 
#    0.000    0.000    0.000    0.000    0.000    0.000 
#
# Total GULP energy -111506.274903 kJ/mol
# GULP energy per Si atom -5575.313745 kJ/mol
# Density = 1.716287 g / cm^3
# Si number density = 17.202023 Si / 1000 Ang^3
#
#
#
# Elastic Constant Matrix: (Units=GPa)
#
#
# Indices 1 2 3 4 5 6 
#
# 1 186.2730 26.9512 56.5489 0.0004 20.3302 0.0002
# 2 26.9512 27.8902 22.1075 -0.0001 4.2072 0.0004
# 3 56.5489 22.1075 78.7332 0.0007 10.4006 0.0002
# 4 0.0004 -0.0001 0.0007 15.5839 0.0001 1.7942
# 5 20.3302 4.2072 10.4006 0.0001 18.8474 -0.0001
# 6 0.0002 0.0004 0.0002 1.7942 -0.0001 26.4457
#
#
#
# Elastic Compliance Matrix: (Units=1/GPa)
#
#
# Indices 1 2 3 4 5 6 
#
# 1 0.007608 -0.003568 -0.003757 0.000000 -0.005336 0.000000
# 2 -0.003568 0.047996 -0.010794 0.000001 -0.000908 -0.000001
# 3 -0.003757 -0.010794 0.018959 -0.000001 -0.004000 0.000000
# 4 0.000000 0.000001 -0.000001 0.064674 0.000000 -0.004388
# 5 -0.005336 -0.000908 -0.004000 0.000000 0.061224 0.000000
# 6 0.000000 -0.000001 0.000000 -0.004388 0.000000 0.038111
#
#
# Mechanical properties :
#
#
# Convention : Reuss Voigt Hill
#
# Bulk Modulus (GPa) = 26.09354 56.01240 41.05297
# Shear Modulus (GPa) = 17.38614 24.66132 21.02373
#
# Velocity S-wave (km/s) = 3.18260 3.79044 3.49974
# Velocity P-wave (km/s) = 5.35790 7.19644 6.34413
#
# Compressibility (1/GPa) = 0.03832366
#
# Stress axis : x y z
#
# Youngs Moduli (GPa) = 131.44346 20.83505 52.74568
#
# Poissons Ratio (x) = 0.07435 0.19818
# Poissons Ratio (y) = 0.46905 0.56933
# Poissons Ratio (z) = 0.49387 0.22489
#
# Static dielectric constant tensor:
#      x y z
#    x 1.634030 0.000000 0.020840 
#    y 0.000000 1.580120 0.000000 
#    z 0.020840 0.000000 1.539510 
# 
# From -- ./inp_files/92821.got.cif
#   From: 2010.05.17/outbox.cif.g08.bks.cpg/sg12_47_cif.got.tgz:92821.got - 2010.06.03 13:09:07.
