data_PCOD9173361
_publ_section_title
;
Structure prediction by ZEFSAII (Michael W. Deem and Ramdas Pophale) SiO2 
 PCOD9173361
Probable space group: C 2/M
;
_chemical_formula_sum "Si O2"
_cell_formula_units_Z 64
_cell_length_a 19.766274
_cell_length_b 27.471537
_cell_length_c 9.426727
_cell_angle_alpha 90.000000
_cell_angle_beta 49.240547
_cell_angle_gamma 90.000000
_cell_volume 3877.277120
_symmetry_space_group_name_H-M "C 2/M"
_symmetry_group_IT_number 12
_symmetry_cell_setting 'monoclinic'
loop_
_space_group_symop_operation_xyz
x,y,z
-x,y,-z
-x,-y,-z
x,-y,z
1/2+x,1/2+y,z
1/2-x,1/2+y,-z
1/2-x,1/2-y,-z
1/2+x,1/2-y,z
loop_
_atom_site_type_symbol
_atom_site_label
_atom_site_fract_x
_atom_site_fract_y
_atom_site_fract_z
Si Si1 0.265256 0.361921 0.310346
Si Si2 0.537751 0.386248 0.607746
Si Si3 0.817843 0.241599 0.778957
Si Si4 0.677282 0.696725 0.508521
Si Si5 0.105872 0.182862 0.093978
Si Si6 0.420562 0.165239 0.517071
Si Si7 0.406333 0.443830 0.211972
Si Si8 0.475009 0.768974 0.186729
O O1 0.263355 0.328915 0.454825
O O2 0.312960 0.331366 0.119039
O O3 0.163059 0.369158 0.404197
O O4 0.329620 0.407284 0.259141
O O5 0.500000 0.394575 0.500000
O O6 0.613205 0.344425 0.526205
O O7 0.574646 0.431430 0.648334
O O8 0.456837 0.363781 0.810154
O O9 0.777106 0.223614 0.686338
O O10 0.878981 0.288053 0.659293
O O11 0.750000 0.250000 0.000000
O O12 0.874468 0.198159 0.771542
O O13 0.613821 0.735743 0.674733
O O14 0.052858 0.229531 0.109338
O O15 0.500000 0.142946 0.500000
O O16 0.463648 0.189368 0.318532
O O17 0.380292 0.500000 0.229800
O O18 0.500000 0.436359 0.000000
O O19 0.500000 0.789497 0.000000
#
# Coordination Sequence:
#
# PCOD9173361 Si02
#       8
#     8   8   8   8   8   8   8   8
#     4  11  21  36  54  73 103 138 180 221 270 317
#     4  10  18  30  52  76 106 138 167 197 252 325
#     4  11  20  31  47  69 104 144 186 218 253 293
#     4   9  20  29  46  72 100 140 181 211 248 309
#     4  11  18  30  47  73 101 148 173 205 253 297
#     4  11  23  35  47  71 101 143 188 228 257 290
#     4  10  21  37  58  84 107 130 166 216 277 339
#     4  10  19  30  48  66 105 141 179 219 250 290
#
# _framework density 16.506429000000001
#
# number of rings (size 3 to 8) (size 9 to 14) (size 15 to 20)
#    0.000    1.625    6.250    0.000    0.000    3.250 
#    0.000    0.000    0.000    0.375    0.000    0.000 
#    0.000    0.500    0.000    0.000    0.000    0.000 
#
# Total GULP energy -178291.164953 kJ/mol
# GULP energy per Si atom -5571.598905 kJ/mol
# Density = 1.646886 g / cm^3
# Si number density = 16.506429 Si / 1000 Ang^3
#
#
#
# Elastic Constant Matrix: (Units=GPa)
#
#
# Indices 1 2 3 4 5 6 
#
# 1 107.1705 32.1122 30.8882 0.0000 0.1121 0.0000
# 2 32.1122 55.3732 15.5848 0.0000 -0.3537 0.0000
# 3 30.8882 15.5848 95.8932 0.0000 10.5011 0.0000
# 4 0.0000 0.0000 0.0000 8.4603 0.0000 -1.4689
# 5 0.1121 -0.3537 10.5011 0.0000 22.3499 0.0000
# 6 0.0000 0.0000 0.0000 -1.4689 0.0000 14.5600
#
#
#
# Elastic Compliance Matrix: (Units=1/GPa)
#
#
# Indices 1 2 3 4 5 6 
#
# 1 0.012034 -0.006121 -0.003020 0.000000 0.001262 0.000000
# 2 -0.006121 0.022110 -0.001754 0.000000 0.001205 0.000000
# 3 -0.003020 -0.001754 0.012321 0.000000 -0.005802 0.000000
# 4 0.000000 0.000000 0.000000 0.120307 0.000000 0.012137
# 5 0.001262 0.001205 -0.005802 0.000000 0.047482 0.000000
# 6 0.000000 0.000000 0.000000 0.012137 0.000000 0.069906
#
#
# Mechanical properties :
#
#
# Convention : Reuss Voigt Hill
#
# Bulk Modulus (GPa) = 40.52353 46.17859 43.35106
# Shear Modulus (GPa) = 15.91477 21.06415 18.48946
#
# Velocity S-wave (km/s) = 3.10845 3.57616 3.35048
# Velocity P-wave (km/s) = 6.12264 6.71481 6.42555
#
# Compressibility (1/GPa) = 0.02467702
#
# Stress axis : x y z
#
# Youngs Moduli (GPa) = 83.09833 45.22800 81.16035
#
# Poissons Ratio (x) = 0.27683 0.24507
# Poissons Ratio (y) = 0.50863 0.14233
# Poissons Ratio (z) = 0.25093 0.07932
#
# Static dielectric constant tensor:
#      x y z
#    x 1.674700 0.000000 0.005220 
#    y 0.000000 1.545830 0.000000 
#    z 0.005220 0.000000 1.574420 
# 
# From -- ./inp_files/91097.got.cif
#   From: 2010.05.17/outbox.cif.g08.bks.cpg/sg12_46_cif.got.tgz:91097.got - 2010.06.03 13:09:07.
