data_PCOD9173558
_publ_section_title
;
Structure prediction by ZEFSAII (Michael W. Deem and Ramdas Pophale) SiO2 
 PCOD9173558
Probable space group: C 2/M
;
_chemical_formula_sum "Si O2"
_cell_formula_units_Z 52
_cell_length_a 23.868099
_cell_length_b 15.041906
_cell_length_c 8.895593
_cell_angle_alpha 90.000000
_cell_angle_beta 102.270609
_cell_angle_gamma 90.000000
_cell_volume 3120.749727
_symmetry_space_group_name_H-M "C 2/M"
_symmetry_group_IT_number 12
_symmetry_cell_setting 'monoclinic'
loop_
_space_group_symop_operation_xyz
x,y,z
-x,y,-z
-x,-y,-z
x,-y,z
1/2+x,1/2+y,z
1/2-x,1/2+y,-z
1/2-x,1/2-y,-z
1/2+x,1/2-y,z
loop_
_atom_site_type_symbol
_atom_site_label
_atom_site_fract_x
_atom_site_fract_y
_atom_site_fract_z
Si Si1 0.599729 0.663498 0.376442
Si Si2 0.249834 0.832200 0.889427
Si Si3 0.696610 0.807452 0.399797
Si Si4 0.760136 0.500000 0.098693
Si Si5 0.874440 0.894840 0.272470
Si Si6 0.011071 0.105048 0.829241
Si Si7 0.712938 0.000000 0.551114
Si Si8 0.836126 0.000000 0.726122
O O1 0.638647 0.751149 0.387797
O O2 0.603704 0.629301 0.549142
O O3 0.534230 0.665258 0.286002
O O4 0.628254 0.588128 0.285537
O O5 0.289257 0.817889 0.767538
O O6 0.185371 0.847694 0.794012
O O7 0.250000 0.750000 0.000000
O O8 0.268546 0.915496 0.000018
O O9 0.750000 0.750000 0.500000
O O10 0.693547 0.906337 0.469777
O O11 0.796512 0.500000 0.273704
O O12 0.694997 0.500000 0.130065
O O13 0.924241 0.873106 0.181873
O O14 0.863715 0.000000 0.260568
O O15 0.001949 0.000000 0.783490
O O16 0.000000 0.113539 0.000000
O O17 0.782612 0.000000 0.579319
#
# Coordination Sequence:
#
# PCOD9173558 Si02
#       8
#     8   8   8   4   8   8   4   4
#     4  12  21  36  57  83 114 156 194 237 276 345
#     4  12  23  35  54  85 119 152 189 232 285 345
#     4  12  22  36  58  84 114 157 194 233 292 345
#     4  10  23  35  53  77 120 150 187 234 284 331
#     4  11  22  36  57  83 115 155 194 232 281 342
#     4  10  23  36  56  82 116 154 192 234 292 343
#     4  10  21  37  52  81 113 150 195 232 280 352
#     4  10  18  30  57  77 116 149 189 228 280 334
#
# _framework density 16.662662000000001
#
# number of rings (size 3 to 8) (size 9 to 14) (size 15 to 20)
#    0.462    0.462    5.385    2.769    4.308    1.231 
#    0.000    0.000    0.000    0.000    0.000    3.769 
#    0.000    0.000    0.000    0.000    0.000    0.000 
#
# Total GULP energy -145159.925882 kJ/mol
# GULP energy per Si atom -5583.074072 kJ/mol
# Density = 1.662474 g / cm^3
# Si number density = 16.662662 Si / 1000 Ang^3
#
#
#
# Elastic Constant Matrix: (Units=GPa)
#
#
# Indices 1 2 3 4 5 6 
#
# 1 40.5197 -8.4157 -6.9476 0.0000 1.5015 0.0000
# 2 -8.4157 82.5586 16.4109 0.0000 1.7018 0.0000
# 3 -6.9476 16.4109 82.1778 0.0000 -12.0979 0.0000
# 4 0.0000 0.0000 0.0000 31.9256 0.0000 -0.1458
# 5 1.5015 1.7018 -12.0979 0.0000 33.2571 0.0000
# 6 0.0000 0.0000 0.0000 -0.1458 0.0000 27.1547
#
#
#
# Elastic Compliance Matrix: (Units=1/GPa)
#
#
# Indices 1 2 3 4 5 6 
#
# 1 0.025454 0.002292 0.001593 0.000000 -0.000687 0.000000
# 2 0.002292 0.012906 -0.002637 0.000000 -0.001723 0.000000
# 3 0.001593 -0.002637 0.013566 0.000000 0.004998 0.000000
# 4 0.000000 0.000000 0.000000 0.031324 0.000000 0.000168
# 5 -0.000687 -0.001723 0.004998 0.000000 0.032006 0.000000
# 6 0.000000 0.000000 0.000000 0.000168 0.000000 0.036827
#
#
# Mechanical properties :
#
#
# Convention : Reuss Voigt Hill
#
# Bulk Modulus (GPa) = 18.37494 23.03903 20.70698
# Shear Modulus (GPa) = 29.81033 32.08138 30.94586
#
# Velocity S-wave (km/s) = 4.23430 4.39264 4.31420
# Velocity P-wave (km/s) = 5.91247 6.29156 6.10496
#
# Compressibility (1/GPa) = 0.05442196
#
# Stress axis : x y z
#
# Youngs Moduli (GPa) = 39.28649 77.48328 73.71448
#
# Poissons Ratio (x) = -0.17760 -0.11743
# Poissons Ratio (y) = -0.09005 0.19440
# Poissons Ratio (z) = -0.06259 0.20434
#
# Static dielectric constant tensor:
#      x y z
#    x 1.573190 0.000000 0.007780 
#    y 0.000000 1.536160 0.000000 
#    z 0.007780 0.000000 1.574720 
# 
# From -- ./inp_files/95843.got.cif
#   From: 2010.05.17/outbox.cif.g08.bks.cpg/sg12_48_cif.got.tgz:95843.got - 2010.06.03 13:09:07.
