data_PCOD9173821
_publ_section_title
;
Structure prediction by ZEFSAII (Michael W. Deem and Ramdas Pophale) SiO2 
 PCOD9173821
Probable space group: C 2/M
;
_chemical_formula_sum "Si O2"
_cell_formula_units_Z 48
_cell_length_a 10.333815
_cell_length_b 18.349734
_cell_length_c 12.971188
_cell_angle_alpha 90.000000
_cell_angle_beta 84.962932
_cell_angle_gamma 90.000000
_cell_volume 2450.133577
_symmetry_space_group_name_H-M "C 2/M"
_symmetry_group_IT_number 12
_symmetry_cell_setting 'monoclinic'
loop_
_space_group_symop_operation_xyz
x,y,z
-x,y,-z
-x,-y,-z
x,-y,z
1/2+x,1/2+y,z
1/2-x,1/2+y,-z
1/2-x,1/2-y,-z
1/2+x,1/2-y,z
loop_
_atom_site_type_symbol
_atom_site_label
_atom_site_fract_x
_atom_site_fract_y
_atom_site_fract_z
Si Si1 0.885660 0.762360 0.933063
Si Si2 0.114433 0.579570 0.806816
Si Si3 0.681000 0.416860 0.031032
Si Si4 0.175373 0.676276 0.391363
Si Si5 0.128475 0.689085 0.620592
Si Si6 0.171814 0.624272 0.179698
O O1 0.903115 0.849242 0.919138
O O2 0.868226 0.709196 0.838101
O O3 0.750000 0.750000 0.000000
O O4 0.000000 0.736120 0.000000
O O5 0.151159 0.500000 0.763102
O O6 0.189372 0.589087 0.908524
O O7 0.147551 0.640439 0.720485
O O8 0.960569 0.582236 0.834198
O O9 0.632687 0.500000 0.044693
O O10 0.720554 0.400035 0.910087
O O11 0.172097 0.650666 0.510416
O O12 0.283520 0.739187 0.376677
O O13 0.204520 0.619427 0.297805
O O14 0.026385 0.702942 0.381283
#
# Coordination Sequence:
#
# PCOD9173821 Si02
#       6
#     8   8   8   8   8   8
#     4  10  20  33  51  74 101 132 167 207 245 291
#     4  10  19  32  51  73 102 136 168 206 250 298
#     4  10  20  32  47  71 103 136 166 201 251 304
#     4   9  18  31  52  74 101 128 163 210 254 291
#     4   9  18  34  50  76 100 128 167 207 252 298
#     4  10  18  31  50  75  99 130 169 208 248 296
#
# _framework density 19.590769000000002
#
# number of rings (size 3 to 8) (size 9 to 14) (size 15 to 20)
#    0.000    2.333    0.000    4.000    0.000    5.667 
#    0.000    7.500    0.000    0.000    0.000   14.000 
#    0.000    0.000    0.000    0.000    0.000    0.000 
#
# Total GULP energy -133714.150016 kJ/mol
# GULP energy per Si atom -5571.422917 kJ/mol
# Density = 1.954618 g / cm^3
# Si number density = 19.590769 Si / 1000 Ang^3
#
#
#
# Elastic Constant Matrix: (Units=GPa)
#
#
# Indices 1 2 3 4 5 6 
#
# 1 49.1696 -0.8638 15.5463 0.0000 5.6369 0.0000
# 2 -0.8638 76.1294 2.4990 0.0000 -7.6675 0.0000
# 3 15.5463 2.4990 83.1003 0.0000 -2.2892 0.0000
# 4 0.0000 0.0000 0.0000 18.3001 0.0000 1.5651
# 5 5.6369 -7.6675 -2.2892 0.0000 22.4937 0.0000
# 6 0.0000 0.0000 0.0000 1.5651 0.0000 14.7017
#
#
#
# Elastic Compliance Matrix: (Units=1/GPa)
#
#
# Indices 1 2 3 4 5 6 
#
# 1 0.022414 -0.000221 -0.004356 0.000000 -0.006136 0.000000
# 2 -0.000221 0.013611 -0.000239 0.000000 0.004671 0.000000
# 3 -0.004356 -0.000239 0.012920 0.000000 0.002325 0.000000
# 4 0.000000 0.000000 0.000000 0.055147 0.000000 -0.005871
# 5 -0.006136 0.004671 0.002325 0.000000 0.047823 0.000000
# 6 0.000000 0.000000 0.000000 -0.005871 0.000000 0.068644
#
#
# Mechanical properties :
#
#
# Convention : Reuss Voigt Hill
#
# Bulk Modulus (GPa) = 25.43615 26.97359 26.20487
# Shear Modulus (GPa) = 20.55113 23.84694 22.19903
#
# Velocity S-wave (km/s) = 3.24237 3.49270 3.36986
# Velocity P-wave (km/s) = 5.19897 5.48304 5.34289
#
# Compressibility (1/GPa) = 0.03931412
#
# Stress axis : x y z
#
# Youngs Moduli (GPa) = 44.61412 73.46833 77.40089
#
# Poissons Ratio (x) = 0.01621 0.33713
# Poissons Ratio (y) = 0.00984 0.01853
# Poissons Ratio (z) = 0.19432 0.01759
#
# Static dielectric constant tensor:
#      x y z
#    x 1.680770 0.000000 0.013530 
#    y 0.000000 1.759510 0.000000 
#    z 0.013530 0.000000 1.704010 
# 
# From -- ./inp_files/131144.got.cif
#   From: 2010.05.17/outbox.cif.g08.bks.cpg/sg12_66_cif.got.tgz:131144.got - 2010.06.03 13:09:07.
