data_PCOD9173324
_publ_section_title
;
Structure prediction by ZEFSAII (Michael W. Deem and Ramdas Pophale) SiO2 
 PCOD9173324
Probable space group: C 2/M
;
_chemical_formula_sum "Si O2"
_cell_formula_units_Z 64
_cell_length_a 31.819103
_cell_length_b 8.585932
_cell_length_c 12.160637
_cell_angle_alpha 90.000000
_cell_angle_beta 79.565951
_cell_angle_gamma 90.000000
_cell_volume 3267.308766
_symmetry_space_group_name_H-M "C 2/M"
_symmetry_group_IT_number 12
_symmetry_cell_setting 'monoclinic'
loop_
_space_group_symop_operation_xyz
x,y,z
-x,y,-z
-x,-y,-z
x,-y,z
1/2+x,1/2+y,z
1/2-x,1/2+y,-z
1/2-x,1/2-y,-z
1/2+x,1/2-y,z
loop_
_atom_site_type_symbol
_atom_site_label
_atom_site_fract_x
_atom_site_fract_y
_atom_site_fract_z
Si Si1 0.600167 0.687981 0.091012
Si Si2 0.582295 0.312696 0.860869
Si Si3 0.536200 0.816479 0.564672
Si Si4 0.996272 0.813145 0.801505
Si Si5 0.212649 0.685497 0.596104
Si Si6 0.379463 0.313255 0.390880
Si Si7 0.187552 0.685476 0.075614
Si Si8 0.771734 0.186534 0.165587
O O1 0.603733 0.500000 0.091008
O O2 0.552694 0.726660 0.154290
O O3 0.640608 0.759492 0.132416
O O4 0.601649 0.746965 0.964286
O O5 0.587454 0.500000 0.859942
O O6 0.531393 0.284744 0.879721
O O7 0.604670 0.259061 0.738410
O O8 0.500000 0.753285 0.500000
O O9 0.515193 0.782725 0.692142
O O10 0.582793 0.738002 0.544676
O O11 0.541749 0.000000 0.542611
O O12 0.998629 0.000000 0.777386
O O13 0.214159 0.500000 0.595464
O O14 0.250000 0.750000 0.500000
O O15 0.167077 0.742698 0.570762
O O16 0.217415 0.744272 0.720288
O O17 0.376933 0.500000 0.391826
O O18 0.189012 0.500000 0.063188
O O19 0.224005 0.730051 0.146482
O O20 0.199358 0.759571 0.951424
O O21 0.775140 0.000000 0.172770
#
# Coordination Sequence:
#
# PCOD9173324 Si02
#       8
#     8   8   8   8   8   8   8   8
#     4  10  18  30  51  80 113 148 185 228 283 347
#     4   8  15  29  52  79 108 142 181 224 272 329
#     4  10  21  38  58  80 109 151 195 241 292 340
#     4   9  18  32  51  77 108 145 187 233 284 340
#     4  12  25  42  64  91 122 154 195 248 305 361
#     4  10  20  37  62  89 114 147 192 238 287 345
#     4  10  21  36  57  85 116 154 195 241 295 353
#     4  10  21  40  62  83 113 154 198 244 295 352
#
# _framework density 19.587985
#
# number of rings (size 3 to 8) (size 9 to 14) (size 15 to 20)
#    0.000    2.125    0.000    4.500    0.000    5.500 
#    2.250    2.500    0.000    3.750    0.000    0.000 
#    0.000    0.000    0.000    0.000    0.000    0.000 
#
# Total GULP energy -178531.158485 kJ/mol
# GULP energy per Si atom -5579.098703 kJ/mol
# Density = 1.954340 g / cm^3
# Si number density = 19.587985 Si / 1000 Ang^3
#
#
#
# Elastic Constant Matrix: (Units=GPa)
#
#
# Indices 1 2 3 4 5 6 
#
# 1 170.4901 45.8900 30.6577 0.0000 3.6594 0.0000
# 2 45.8900 58.7522 19.4790 0.0000 3.3130 0.0000
# 3 30.6577 19.4790 36.3177 0.0000 12.3743 0.0000
# 4 0.0000 0.0000 0.0000 20.5469 0.0000 -7.5053
# 5 3.6594 3.3130 12.3743 0.0000 25.4815 0.0000
# 6 0.0000 0.0000 0.0000 -7.5053 0.0000 2.9703
#
#
#
# Elastic Compliance Matrix: (Units=1/GPa)
#
#
# Indices 1 2 3 4 5 6 
#
# 1 0.007963 -0.004730 -0.004799 0.000000 0.001802 0.000000
# 2 -0.004730 0.023737 -0.009488 0.000000 0.002201 0.000000
# 3 -0.004799 -0.009488 0.043161 0.000000 -0.019037 0.000000
# 4 0.000000 0.000000 0.000000 0.631869 0.000000 1.596601
# 5 0.001802 0.002201 -0.019037 0.000000 0.047944 0.000000
# 6 0.000000 0.000000 0.000000 1.596601 0.000000 4.370948
#
#
# Mechanical properties :
#
#
# Convention : Reuss Voigt Hill
#
# Bulk Modulus (GPa) = 27.15429 50.84595 39.00012
# Shear Modulus (GPa) = 0.96601 21.10196 11.03398
#
# Velocity S-wave (km/s) = 0.70302 3.28577 2.37598
# Velocity P-wave (km/s) = 3.81468 6.35682 5.24218
#
# Compressibility (1/GPa) = 0.03682659
#
# Stress axis : x y z
#
# Youngs Moduli (GPa) = 125.58235 42.12835 23.16906
#
# Poissons Ratio (x) = 0.19928 0.11118
# Poissons Ratio (y) = 0.59403 0.21983
# Poissons Ratio (z) = 0.60264 0.39972
#
# Static dielectric constant tensor:
#      x y z
#    x 1.722040 0.000000 0.027030 
#    y 0.000000 1.664970 0.000000 
#    z 0.027030 0.000000 1.700500 
# 
# From -- ./inp_files/187511.got.cif
#   From: 2010.05.17/outbox.cif.g08.bks.cpg/sg12_94_cif.got.tgz:187511.got - 2010.06.03 13:09:07.
