data_PCOD9173738
_publ_section_title
;
Structure prediction by ZEFSAII (Michael W. Deem and Ramdas Pophale) SiO2 
 PCOD9173738
Probable space group: C 2/M
;
_chemical_formula_sum "Si O2"
_cell_formula_units_Z 56
_cell_length_a 20.333314
_cell_length_b 7.473737
_cell_length_c 21.921571
_cell_angle_alpha 90.000000
_cell_angle_beta 51.290732
_cell_angle_gamma 90.000000
_cell_volume 2599.534255
_symmetry_space_group_name_H-M "C 2/M"
_symmetry_group_IT_number 12
_symmetry_cell_setting 'monoclinic'
loop_
_space_group_symop_operation_xyz
x,y,z
-x,y,-z
-x,-y,-z
x,-y,z
1/2+x,1/2+y,z
1/2-x,1/2+y,-z
1/2-x,1/2-y,-z
1/2+x,1/2-y,z
loop_
_atom_site_type_symbol
_atom_site_label
_atom_site_fract_x
_atom_site_fract_y
_atom_site_fract_z
Si Si1 0.547417 0.280344 0.642997
Si Si2 0.919048 0.218660 0.140932
Si Si3 0.810848 0.788512 0.522573
Si Si4 0.394596 0.282089 0.923799
Si Si5 0.662666 0.708765 0.689072
Si Si6 0.813277 0.213021 0.090248
Si Si7 0.375017 0.285675 0.796556
O O1 0.549581 0.500000 0.640719
O O2 0.598314 0.221088 0.553173
O O3 0.602032 0.219866 0.670401
O O4 0.451850 0.222238 0.709756
O O5 0.860332 0.279889 0.231256
O O6 0.881871 0.282314 0.098433
O O7 0.014153 0.268078 0.102346
O O8 0.917985 0.000000 0.138720
O O9 0.750000 0.750000 0.500000
O O10 0.758808 0.721515 0.610784
O O11 0.816935 0.000000 0.526870
O O12 0.391939 0.500000 0.921917
O O13 0.384592 0.217103 0.860549
O O14 0.327154 0.219251 0.013243
O O15 0.640941 0.500000 0.704474
O O16 0.719509 0.245149 0.168545
O O17 0.825158 0.000000 0.079680
O O18 0.383476 0.500000 0.794092
#
# Coordination Sequence:
#
# PCOD9173738 Si02
#       7
#     8   8   8   8   8   8   8
#     4   8  14  26  45  66  88 118 156 188 220 273
#     4   9  16  29  50  71  94 125 161 197 235 281
#     4   9  16  26  43  69  97 121 149 192 237 276
#     4   9  16  29  51  72  90 121 166 203 230 273
#     4   9  15  27  47  69  91 119 156 195 234 275
#     4  10  20  31  46  73 100 121 154 202 245 278
#     4  10  18  31  50  68  92 128 162 189 228 287
#
# _framework density 21.54232
#
# number of rings (size 3 to 8) (size 9 to 14) (size 15 to 20)
#    0.000    2.857    1.429    2.143    0.000    1.714 
#    0.000    4.286    0.000    4.286    0.000    6.000 
#    0.000    0.000    0.000    0.000    0.000    0.000 
#
# Total GULP energy -156134.200960 kJ/mol
# GULP energy per Si atom -5576.221463 kJ/mol
# Density = 2.149329 g / cm^3
# Si number density = 21.542320 Si / 1000 Ang^3
#
#
#
# Elastic Constant Matrix: (Units=GPa)
#
#
# Indices 1 2 3 4 5 6 
#
# 1 37.0033 -5.9807 -12.0000 0.0012 -11.8125 -0.0005
# 2 -5.9807 55.0320 -7.8661 0.0014 3.3920 -0.0011
# 3 -12.0000 -7.8661 94.0876 0.0007 -17.0132 -0.0010
# 4 0.0012 0.0014 0.0007 11.7340 -0.0002 -6.8747
# 5 -11.8125 3.3920 -17.0132 -0.0002 18.0418 0.0004
# 6 -0.0005 -0.0011 -0.0010 -6.8747 0.0004 5.4177
#
#
#
# Elastic Compliance Matrix: (Units=1/GPa)
#
#
# Indices 1 2 3 4 5 6 
#
# 1 0.045621 0.004336 0.013785 -0.000010 0.042053 -0.000008
# 2 0.004336 0.018891 0.002415 -0.000001 0.001565 0.000004
# 3 0.013785 0.002415 0.017045 -0.000002 0.024645 0.000001
# 4 -0.000010 -0.000001 -0.000002 0.332174 -0.000012 0.421506
# 5 0.042053 0.001565 0.024645 -0.000012 0.105906 -0.000014
# 6 -0.000008 0.000004 0.000001 0.421506 -0.000014 0.719441
#
#
# Mechanical properties :
#
#
# Convention : Reuss Voigt Hill
#
# Bulk Modulus (GPa) = 8.15458 14.93658 11.54558
# Shear Modulus (GPa) = 4.03590 21.17000 12.60295
#
# Velocity S-wave (km/s) = 1.37023 3.13823 2.42137
# Velocity P-wave (km/s) = 2.50938 4.48107 3.63160
#
# Compressibility (1/GPa) = 0.12263051
#
# Stress axis : x y z
#
# Youngs Moduli (GPa) = 21.91994 52.93441 58.66895
#
# Poissons Ratio (x) = -0.22954 -0.80876
# Poissons Ratio (y) = -0.09505 -0.14171
# Poissons Ratio (z) = -0.30217 -0.12786
#
# Static dielectric constant tensor:
#      x y z
#    x 1.734720 0.000000 -0.014530 
#    y 0.000000 1.851390 0.000000 
#    z -0.014530 0.000000 1.828370 
# 
# From -- ./inp_files/280164.got.cif
#   From: 2010.05.17/outbox.cif.g08.bks.cpg/sg12_141_cif.got.tgz:280164.got - 2010.06.03 13:09:07.
