data_PCOD9173374
_publ_section_title
;
Structure prediction by ZEFSAII (Michael W. Deem and Ramdas Pophale) SiO2 
 PCOD9173374
Probable space group: C 2/M
;
_chemical_formula_sum "Si O2"
_cell_formula_units_Z 48
_cell_length_a 28.853648
_cell_length_b 11.347898
_cell_length_c 24.434601
_cell_angle_alpha 90.000000
_cell_angle_beta 160.484941
_cell_angle_gamma 90.000000
_cell_volume 2672.630146
_symmetry_space_group_name_H-M "C 2/M"
_symmetry_group_IT_number 12
_symmetry_cell_setting 'monoclinic'
loop_
_space_group_symop_operation_xyz
x,y,z
-x,y,-z
-x,-y,-z
x,-y,z
1/2+x,1/2+y,z
1/2-x,1/2+y,-z
1/2-x,1/2-y,-z
1/2+x,1/2-y,z
loop_
_atom_site_type_symbol
_atom_site_label
_atom_site_fract_x
_atom_site_fract_y
_atom_site_fract_z
Si Si1 0.854035 0.866176 0.976682
Si Si2 0.886553 0.697045 0.719892
Si Si3 0.680951 0.138850 0.890931
Si Si4 0.166770 0.130834 0.174463
Si Si5 0.633254 0.128891 0.425378
Si Si6 0.354383 0.874353 0.804924
O O1 0.733448 0.851368 0.886974
O O2 0.811231 0.852157 0.865904
O O3 0.906938 0.000000 0.040756
O O4 0.978586 0.779307 0.128964
O O5 0.747497 0.774934 0.565833
O O6 0.886900 0.630513 0.662771
O O7 0.886728 0.627557 0.776642
O O8 0.516275 0.151334 0.714626
O O9 0.714156 0.000000 0.945138
O O10 0.750000 0.250000 0.000000
O O11 0.217588 0.249683 0.260653
O O12 0.220445 0.000000 0.250087
O O13 0.000000 0.126367 0.000000
O O14 0.683448 0.000000 0.498468
O O15 0.284180 0.000000 0.740372
O O16 0.500000 0.873001 0.000000
#
# Coordination Sequence:
#
# PCOD9173374 Si02
#       6
#     8   8   8   8   8   8
#     4  10  18  30  52  77 104 137 180 220 260 316
#     4  11  19  33  53  79 109 141 182 218 273 320
#     4  10  20  36  53  76 107 144 183 224 269 323
#     4   9  16  28  47  76 103 130 172 220 262 307
#     4  10  22  35  51  77 113 147 180 222 271 322
#     4  10  19  31  50  82 112 135 168 225 279 318
#
# _framework density 17.959835999999999
#
# number of rings (size 3 to 8) (size 9 to 14) (size 15 to 20)
#    0.000    2.000    5.000    1.000    0.000    0.667 
#    0.000    1.667    0.000    1.000    0.000    5.833 
#    0.000    0.000    0.000    0.000    0.000    0.000 
#
# Total GULP energy -133614.523978 kJ/mol
# GULP energy per Si atom -5567.271832 kJ/mol
# Density = 1.791896 g / cm^3
# Si number density = 17.959836 Si / 1000 Ang^3
#
#
#
# Elastic Constant Matrix: (Units=GPa)
#
#
# Indices 1 2 3 4 5 6 
#
# 1 118.7260 46.1002 30.8961 -0.0001 3.8835 0.0001
# 2 46.1002 139.1505 28.8533 0.0000 11.9402 0.0001
# 3 30.8961 28.8533 39.0738 -0.0005 9.2674 0.0001
# 4 -0.0001 0.0000 -0.0005 5.6354 -0.0002 7.0863
# 5 3.8835 11.9402 9.2674 -0.0002 25.0264 0.0001
# 6 0.0001 0.0001 0.0001 7.0863 0.0001 19.7637
#
#
#
# Elastic Compliance Matrix: (Units=1/GPa)
#
#
# Indices 1 2 3 4 5 6 
#
# 1 0.011259 -0.002321 -0.007715 -0.000001 0.002217 0.000000
# 2 -0.002321 0.009047 -0.004283 -0.000001 -0.002370 0.000000
# 3 -0.007715 -0.004283 0.037369 0.000005 -0.010597 -0.000002
# 4 -0.000001 -0.000001 0.000005 0.323142 0.000002 -0.115864
# 5 0.002217 -0.002370 -0.010597 0.000002 0.044669 -0.000001
# 6 0.000000 0.000000 -0.000002 -0.115864 -0.000001 0.092141
#
#
# Mechanical properties :
#
#
# Convention : Reuss Voigt Hill
#
# Bulk Modulus (GPa) = 34.43836 56.51662 45.47749
# Shear Modulus (GPa) = 8.99372 22.82515 15.90943
#
# Velocity S-wave (km/s) = 2.24021 3.56884 2.97953
# Velocity P-wave (km/s) = 5.09001 6.96554 6.10029
#
# Compressibility (1/GPa) = 0.02903739
#
# Stress axis : x y z
#
# Youngs Moduli (GPa) = 88.81857 110.53610 26.76002
#
# Poissons Ratio (x) = 0.25651 0.20645
# Poissons Ratio (y) = 0.20611 0.11462
# Poissons Ratio (z) = 0.68521 0.47347
#
# Static dielectric constant tensor:
#      x y z
#    x 1.622050 0.000000 -0.019310 
#    y 0.000000 1.680500 0.000000 
#    z -0.019310 0.000000 1.562020 
# 
# From -- ./inp_files/94302.got.cif
#   From: 2010.05.17/outbox.cif.g08.bks.cpg/sg12_48_cif.got.tgz:94302.got - 2010.06.03 13:09:07.
