data_PCOD9173226
_publ_section_title
;
Structure prediction by ZEFSAII (Michael W. Deem and Ramdas Pophale) SiO2 
 PCOD9173226
Probable space group: C 2/M
;
_chemical_formula_sum "Si O2"
_cell_formula_units_Z 56
_cell_length_a 33.996822
_cell_length_b 7.619595
_cell_length_c 12.968998
_cell_angle_alpha 90.000000
_cell_angle_beta 124.104894
_cell_angle_gamma 90.000000
_cell_volume 2781.720534
_symmetry_space_group_name_H-M "C 2/M"
_symmetry_group_IT_number 12
_symmetry_cell_setting 'monoclinic'
loop_
_space_group_symop_operation_xyz
x,y,z
-x,y,-z
-x,-y,-z
x,-y,z
1/2+x,1/2+y,z
1/2-x,1/2+y,-z
1/2-x,1/2-y,-z
1/2+x,1/2-y,z
loop_
_atom_site_type_symbol
_atom_site_label
_atom_site_fract_x
_atom_site_fract_y
_atom_site_fract_z
Si Si1 0.643484 0.291709 0.959649
Si Si2 0.880692 0.289241 0.525577
Si Si3 0.278383 0.790218 0.438902
Si Si4 0.435665 0.284829 0.998872
Si Si5 0.957804 0.790728 0.805001
Si Si6 0.246891 0.214357 0.168504
Si Si7 0.149328 0.288512 0.741666
O O1 0.646638 0.500000 0.982399
O O2 0.606446 0.221879 0.989312
O O3 0.627864 0.265349 0.818981
O O4 0.697036 0.220707 0.051203
O O5 0.878175 0.500000 0.517878
O O6 0.832701 0.224490 0.512438
O O7 0.926785 0.246411 0.659334
O O8 0.876877 0.227628 0.401300
O O9 0.250000 0.750000 0.500000
O O10 0.252163 0.732123 0.295894
O O11 0.280939 0.000000 0.435635
O O12 0.434515 0.500000 0.998962
O O13 0.487699 0.228222 0.115550
O O14 0.433237 0.228510 0.875529
O O15 0.960775 0.000000 0.819150
O O16 0.295564 0.272597 0.185027
O O17 0.247107 0.000000 0.164178
O O18 0.149951 0.500000 0.740140
#
# Coordination Sequence:
#
# PCOD9173226 Si02
#       7
#     8   8   8   8   8   8   8
#     4  10  18  30  51  74  96 124 162 203 241 284
#     4   9  19  34  50  69  99 133 160 196 246 288
#     4   9  18  31  46  69 100 129 160 196 236 285
#     4   8  17  32  50  76 102 121 153 207 253 283
#     4   9  17  33  55  74  95 126 163 199 242 296
#     4   8  16  30  48  68  95 131 160 189 240 287
#     4   9  18  34  49  67  99 133 161 195 237 286
#
# _framework density 20.131425
#
# number of rings (size 3 to 8) (size 9 to 14) (size 15 to 20)
#    0.000    3.143    0.000    3.000    2.000    1.143 
#    0.000    6.429    0.000    4.286    0.000    0.000 
#    0.000    0.000    0.000    0.000    0.000    0.000 
#
# Total GULP energy -156109.535022 kJ/mol
# GULP energy per Si atom -5575.340536 kJ/mol
# Density = 2.008560 g / cm^3
# Si number density = 20.131425 Si / 1000 Ang^3
#
#
#
# Elastic Constant Matrix: (Units=GPa)
#
#
# Indices 1 2 3 4 5 6 
#
# 1 76.5088 3.8037 59.5064 0.0000 -11.2067 0.0000
# 2 3.8037 34.9165 -1.5896 0.0000 1.5970 0.0000
# 3 59.5064 -1.5896 115.3972 0.0000 9.3553 0.0000
# 4 0.0000 0.0000 0.0000 20.6117 0.0000 -1.0258
# 5 -11.2067 1.5970 9.3553 0.0000 26.1507 0.0000
# 6 0.0000 0.0000 0.0000 -1.0258 0.0000 11.4644
#
#
#
# Elastic Compliance Matrix: (Units=1/GPa)
#
#
# Indices 1 2 3 4 5 6 
#
# 1 0.028765 -0.004725 -0.016397 0.000000 0.018481 0.000000
# 2 -0.004725 0.029531 0.003248 0.000000 -0.004990 0.000000
# 3 -0.016397 0.003248 0.018282 0.000000 -0.013765 0.000000
# 4 0.000000 0.000000 0.000000 0.048733 0.000000 0.004360
# 5 0.018481 -0.004990 -0.013765 0.000000 0.051389 0.000000
# 6 0.000000 0.000000 0.000000 0.004360 0.000000 0.087617
#
#
# Mechanical properties :
#
#
# Convention : Reuss Voigt Hill
#
# Bulk Modulus (GPa) = 24.49204 38.91816 31.70510
# Shear Modulus (GPa) = 15.94010 22.65216 19.29613
#
# Velocity S-wave (km/s) = 2.81695 3.35806 3.09934
# Velocity P-wave (km/s) = 4.77208 5.86596 5.34706
#
# Compressibility (1/GPa) = 0.04082959
#
# Stress axis : x y z
#
# Youngs Moduli (GPa) = 34.76416 33.86319 54.69984
#
# Poissons Ratio (x) = 0.16001 0.89689
# Poissons Ratio (y) = 0.16427 -0.17767
# Poissons Ratio (z) = 0.57002 -0.10999
#
# Static dielectric constant tensor:
#      x y z
#    x 1.709950 0.000000 0.005670 
#    y 0.000000 1.750390 0.000000 
#    z 0.005670 0.000000 1.715890 
# 
# From -- ./inp_files/186790.got.cif
#   From: 2010.05.17/outbox.cif.g08.bks.cpg/sg12_94_cif.got.tgz:186790.got - 2010.06.03 13:09:07.
