data_PCOD9173603
_publ_section_title
;
Structure prediction by ZEFSAII (Michael W. Deem and Ramdas Pophale) SiO2 
 PCOD9173603
Probable space group: C 2/M
;
_chemical_formula_sum "Si O2"
_cell_formula_units_Z 64
_cell_length_a 23.691358
_cell_length_b 19.564896
_cell_length_c 21.468046
_cell_angle_alpha 90.000000
_cell_angle_beta 156.530334
_cell_angle_gamma 90.000000
_cell_volume 3963.058814
_symmetry_space_group_name_H-M "C 2/M"
_symmetry_group_IT_number 12
_symmetry_cell_setting 'monoclinic'
loop_
_space_group_symop_operation_xyz
x,y,z
-x,y,-z
-x,-y,-z
x,-y,z
1/2+x,1/2+y,z
1/2-x,1/2+y,-z
1/2-x,1/2-y,-z
1/2+x,1/2-y,z
loop_
_atom_site_type_symbol
_atom_site_label
_atom_site_fract_x
_atom_site_fract_y
_atom_site_fract_z
Si Si1 0.617906 0.196171 0.793404
Si Si2 0.903379 0.789357 0.348275
Si Si3 0.457756 0.078245 0.689779
Si Si4 0.302145 0.923160 0.964232
Si Si5 0.884349 0.830072 0.135873
Si Si6 0.143158 0.921266 0.417541
Si Si7 0.900226 0.077767 0.479623
Si Si8 0.337745 0.121460 0.858836
O O1 0.602628 0.238567 0.715281
O O2 0.515505 0.132436 0.699057
O O3 0.587098 0.252183 0.816106
O O4 0.776508 0.170400 0.969140
O O5 0.746512 0.807824 0.213561
O O6 0.000000 0.758243 0.500000
O O7 0.984242 0.862369 0.415794
O O8 0.555553 0.083385 0.850735
O O9 0.297577 0.092076 0.546847
O O10 0.470307 0.000000 0.680515
O O11 0.244639 0.000000 0.915797
O O12 0.196940 0.868024 0.888777
O O13 0.331915 0.913212 0.921356
O O14 0.027424 0.871118 0.272116
O O15 0.145272 0.913846 0.494700
O O16 0.104813 0.000000 0.365811
O O17 0.765174 0.086457 0.296932
O O18 0.956548 0.000000 0.528753
O O19 0.500000 0.125492 0.000000
#
# Coordination Sequence:
#
# PCOD9173603 Si02
#       8
#     8   8   8   8   8   8   8   8
#     4  10  19  36  52  71  99 128 167 205 245 300
#     4  10  21  37  52  71  97 133 172 208 244 288
#     4   9  20  33  51  75 101 128 157 208 257 299
#     4  10  18  31  47  68 101 139 175 205 237 278
#     4  10  19  31  51  74  96 135 168 203 242 288
#     4  10  18  32  49  76 107 130 163 200 243 288
#     4  10  20  33  48  68 101 142 178 202 228 277
#     4  11  21  31  45  69 101 139 180 212 236 270
#
# _framework density 16.149142000000001
#
# number of rings (size 3 to 8) (size 9 to 14) (size 15 to 20)
#    0.000    2.000    2.500    1.500    0.000    6.750 
#    0.000    1.250    0.000    0.375    0.000    0.000 
#    0.000    2.500    0.000    0.000    0.000    0.000 
#
# Total GULP energy -178428.450976 kJ/mol
# GULP energy per Si atom -5575.889093 kJ/mol
# Density = 1.611239 g / cm^3
# Si number density = 16.149142 Si / 1000 Ang^3
#
#
#
# Elastic Constant Matrix: (Units=GPa)
#
#
# Indices 1 2 3 4 5 6 
#
# 1 54.5345 45.3118 38.7046 -0.0009 -4.9396 -0.0001
# 2 45.3118 85.7378 58.8534 -0.0012 6.2225 -0.0006
# 3 38.7046 58.8534 101.7735 -0.0007 5.1049 -0.0001
# 4 -0.0009 -0.0012 -0.0007 19.1020 -0.0009 -1.0472
# 5 -4.9396 6.2225 5.1049 -0.0009 27.3378 -0.0004
# 6 -0.0001 -0.0006 -0.0001 -1.0472 -0.0004 25.8782
#
#
#
# Elastic Compliance Matrix: (Units=1/GPa)
#
#
# Indices 1 2 3 4 5 6 
#
# 1 0.036950 -0.017111 -0.004732 0.000001 0.011455 0.000000
# 2 -0.017111 0.027414 -0.008961 0.000000 -0.007658 0.000000
# 3 -0.004732 -0.008961 0.016906 0.000000 -0.001972 0.000000
# 4 0.000001 0.000000 0.000000 0.052467 0.000002 0.002123
# 5 0.011455 -0.007658 -0.001972 0.000002 0.040761 0.000001
# 6 0.000000 0.000000 0.000000 0.002123 0.000001 0.038728
#
#
# Mechanical properties :
#
#
# Convention : Reuss Voigt Hill
#
# Bulk Modulus (GPa) = 50.85995 58.64281 54.75138
# Shear Modulus (GPa) = 17.76905 21.07534 19.42219
#
# Velocity S-wave (km/s) = 3.32069 3.61646 3.47172
# Velocity P-wave (km/s) = 6.80183 7.33692 7.07444
#
# Compressibility (1/GPa) = 0.01966183
#
# Stress axis : x y z
#
# Youngs Moduli (GPa) = 27.06343 36.47816 59.14988
#
# Poissons Ratio (x) = 0.62419 0.27988
# Poissons Ratio (y) = 0.46309 0.53005
# Poissons Ratio (z) = 0.12806 0.32689
#
# Static dielectric constant tensor:
#      x y z
#    x 1.530380 0.000000 -0.008560 
#    y 0.000000 1.547940 0.000000 
#    z -0.008560 0.000000 1.567840 
# 
# From -- ./inp_files/352288.got.cif
#   From: 2010.05.17/outbox.cif.g08.bks.cpg/sg12_177_cif.got.tgz:352288.got - 2010.06.03 13:09:07.
