data_PCOD9173952
_publ_section_title
;
Structure prediction by ZEFSAII (Michael W. Deem and Ramdas Pophale) SiO2 
 PCOD9173952
Probable space group: C 2/M
;
_chemical_formula_sum "Si O2"
_cell_formula_units_Z 64
_cell_length_a 11.810164
_cell_length_b 18.659133
_cell_length_c 21.149358
_cell_angle_alpha 90.000000
_cell_angle_beta 138.095816
_cell_angle_gamma 90.000000
_cell_volume 3112.773403
_symmetry_space_group_name_H-M "C 2/M"
_symmetry_group_IT_number 12
_symmetry_cell_setting 'monoclinic'
loop_
_space_group_symop_operation_xyz
x,y,z
-x,y,-z
-x,-y,-z
x,-y,z
1/2+x,1/2+y,z
1/2-x,1/2+y,-z
1/2-x,1/2-y,-z
1/2+x,1/2-y,z
loop_
_atom_site_type_symbol
_atom_site_label
_atom_site_fract_x
_atom_site_fract_y
_atom_site_fract_z
Si Si1 0.185115 0.161565 0.313863
Si Si2 0.501758 0.868896 0.634023
Si Si3 0.939975 0.202229 0.607930
Si Si4 0.613989 0.085189 0.915866
Si Si5 0.806746 0.676847 0.736886
Si Si6 0.267182 0.415856 0.843316
Si Si7 0.675757 0.390477 0.553404
Si Si8 0.430253 0.586065 0.120047
O O1 0.360934 0.124250 0.365003
O O2 0.167806 0.240635 0.274521
O O3 0.176994 0.172269 0.385260
O O4 0.026723 0.117311 0.220539
O O5 0.438021 0.787419 0.604795
O O6 0.620618 0.875562 0.744898
O O7 0.334540 0.916879 0.576346
O O8 0.131954 0.178268 0.703077
O O9 0.899820 0.172482 0.522072
O O10 0.456452 0.137162 0.836377
O O11 0.733168 0.090577 0.903030
O O12 0.566254 0.000000 0.901746
O O13 0.737253 0.107385 0.024610
O O14 0.766298 0.633670 0.655548
O O15 0.248052 0.500000 0.819835
O O16 0.445538 0.393397 0.887143
O O17 0.500000 0.428582 0.500000
O O18 0.428038 0.500000 0.122476
#
# Coordination Sequence:
#
# PCOD9173952 Si02
#       8
#     8   8   8   8   8   8   8   8
#     4  10  20  33  53  76 107 141 170 212 257 303
#     4  10  18  31  51  78 106 133 171 212 257 307
#     4  10  20  33  51  76 105 139 172 210 259 302
#     4  10  18  32  55  77 104 138 171 213 263 312
#     4  10  20  34  52  79 106 131 176 218 258 304
#     4   9  16  29  52  78 105 133 166 214 262 306
#     4  10  19  32  52  78 107 133 168 222 255 303
#     4   9  19  33  51  79 106 136 176 211 253 309
#
# _framework density 20.560442999999999
#
# number of rings (size 3 to 8) (size 9 to 14) (size 15 to 20)
#    0.000    2.250    2.500    0.750    0.000    2.500 
#    0.000    1.250    0.000    9.750    0.000    3.500 
#    0.000    0.000    0.000    0.000    0.000    0.000 
#
# Total GULP energy -178217.700890 kJ/mol
# GULP energy per Si atom -5569.303153 kJ/mol
# Density = 2.051365 g / cm^3
# Si number density = 20.560443 Si / 1000 Ang^3
#
#
#
# Elastic Constant Matrix: (Units=GPa)
#
#
# Indices 1 2 3 4 5 6 
#
# 1 93.0342 18.5084 42.2724 0.0000 12.4644 0.0000
# 2 18.5084 41.6601 28.9423 0.0000 13.0695 0.0000
# 3 42.2724 28.9423 98.3004 0.0000 30.9268 0.0000
# 4 0.0000 0.0000 0.0000 33.9430 0.0000 9.4127
# 5 12.4644 13.0695 30.9268 0.0000 31.0311 0.0000
# 6 0.0000 0.0000 0.0000 9.4127 0.0000 1.6382
#
#
#
# Elastic Compliance Matrix: (Units=1/GPa)
#
#
# Indices 1 2 3 4 5 6 
#
# 1 0.013581 -0.002606 -0.005393 0.000000 0.001017 0.000000
# 2 -0.002606 0.031363 -0.006245 0.000000 -0.005938 0.000000
# 3 -0.005393 -0.006245 0.018679 0.000000 -0.013819 0.000000
# 4 0.000000 0.000000 0.000000 -0.049657 0.000000 0.285309
# 5 0.001017 -0.005938 -0.013819 0.000000 0.048091 0.000000
# 6 0.000000 0.000000 0.000000 0.285309 0.000000 -1.028855
#
#
# Mechanical properties :
#
#
# Convention : Reuss Voigt Hill
#
# Bulk Modulus (GPa) = 28.46230 45.82676 37.14453
# Shear Modulus (GPa) = -5.39609 22.87393 8.73892
#
# Velocity S-wave (km/s) = -1.62179 3.33907 2.06388
# Velocity P-wave (km/s) = 3.21968 6.09943 4.87695
#
# Compressibility (1/GPa) = 0.03513419
#
# Stress axis : x y z
#
# Youngs Moduli (GPa) = 73.62977 31.88448 53.53718
#
# Poissons Ratio (x) = 0.08310 0.28874
# Poissons Ratio (y) = 0.19190 0.33434
# Poissons Ratio (z) = 0.39710 0.19912
#
# Static dielectric constant tensor:
#      x y z
#    x 1.793420 0.000000 0.056450 
#    y 0.000000 1.709740 0.000000 
#    z 0.056450 0.000000 1.739160 
# 
# From -- ./inp_files/306824.got.cif
#   From: 2010.05.17/outbox.cif.g08.bks.cpg/sg12_154_cif.got.tgz:306824.got - 2010.06.03 13:09:07.
