data_PCOD9173599
_publ_section_title
;
Structure prediction by ZEFSAII (Michael W. Deem and Ramdas Pophale) SiO2 
 PCOD9173599
Probable space group: C 2/M
;
_chemical_formula_sum "Si O2"
_cell_formula_units_Z 64
_cell_length_a 24.699999
_cell_length_b 15.051778
_cell_length_c 18.245176
_cell_angle_alpha 90.000000
_cell_angle_beta 26.758681
_cell_angle_gamma 90.000000
_cell_volume 3054.012622
_symmetry_space_group_name_H-M "C 2/M"
_symmetry_group_IT_number 12
_symmetry_cell_setting 'monoclinic'
loop_
_space_group_symop_operation_xyz
x,y,z
-x,y,-z
-x,-y,-z
x,-y,z
1/2+x,1/2+y,z
1/2-x,1/2+y,-z
1/2-x,1/2-y,-z
1/2+x,1/2-y,z
loop_
_atom_site_type_symbol
_atom_site_label
_atom_site_fract_x
_atom_site_fract_y
_atom_site_fract_z
Si Si1 0.503154 0.599742 0.910521
Si Si2 0.990185 0.236386 0.218570
Si Si3 0.169915 0.103008 0.086091
Si Si4 0.761942 0.647245 0.765536
Si Si5 0.888154 0.901003 0.579887
Si Si6 0.418572 0.096167 0.694807
Si Si7 0.780271 0.666658 0.104757
Si Si8 0.120210 0.726659 0.504986
O O1 0.552992 0.500000 0.840031
O O2 0.359913 0.597907 0.067817
O O3 0.500000 0.623085 0.000000
O O4 0.552472 0.676734 0.798347
O O5 0.074153 0.169251 0.165335
O O6 0.888725 0.270155 0.396889
O O7 0.079854 0.315273 0.083399
O O8 0.208711 0.139093 0.118689
O O9 0.128926 0.000000 0.138988
O O10 0.292947 0.103706 0.890913
O O11 0.875801 0.599205 0.662270
O O12 0.760195 0.739616 0.811954
O O13 0.776888 0.671307 0.662130
O O14 0.766067 0.898494 0.775799
O O15 0.880206 0.825433 0.528289
O O16 0.000000 0.881341 0.500000
O O17 0.907380 0.000000 0.527259
O O18 0.501150 0.176292 0.620435
O O19 0.472158 0.000000 0.648818
#
# Coordination Sequence:
#
# PCOD9173599 Si02
#       8
#     8   8   8   8   8   8   8   8
#     4  10  21  38  60  81  99 128 178 234 280 320
#     4  11  20  33  52  74 103 138 173 219 269 313
#     4  11  19  27  45  74 105 141 181 217 251 298
#     4  10  20  34  52  74 106 145 176 215 265 316
#     4  10  20  31  45  66  98 143 184 215 249 294
#     4  11  20  30  47  76 112 152 184 208 248 312
#     4  10  18  31  47  66 100 140 176 211 253 303
#     4  11  22  34  50  78 114 146 175 210 259 321
#
# _framework density 20.956036999999998
#
# number of rings (size 3 to 8) (size 9 to 14) (size 15 to 20)
#    0.000    1.500    3.750    4.875    0.000    3.500 
#    0.000    0.625    0.000    0.000    0.000    0.000 
#    0.000   93.000    0.000    0.000    0.000    0.000 
#
# Total GULP energy -178621.844896 kJ/mol
# GULP energy per Si atom -5581.932653 kJ/mol
# Density = 2.090834 g / cm^3
# Si number density = 20.956037 Si / 1000 Ang^3
#
#
#
# Elastic Constant Matrix: (Units=GPa)
#
#
# Indices 1 2 3 4 5 6 
#
# 1 38.0269 -0.4928 5.0738 0.0000 20.7489 0.0000
# 2 -0.4928 71.4778 19.2475 0.0000 10.0644 0.0000
# 3 5.0738 19.2475 106.8871 0.0000 28.1516 0.0000
# 4 0.0000 0.0000 0.0000 8.8020 0.0000 3.9021
# 5 20.7489 10.0644 28.1516 0.0000 25.9930 0.0000
# 6 0.0000 0.0000 0.0000 3.9021 0.0000 12.2185
#
#
#
# Elastic Compliance Matrix: (Units=1/GPa)
#
#
# Indices 1 2 3 4 5 6 
#
# 1 0.059370 0.005900 0.012876 0.000000 -0.063622 0.000000
# 2 0.005900 0.015586 -0.000359 0.000000 -0.010356 0.000000
# 3 0.012876 -0.000359 0.016061 0.000000 -0.027534 0.000000
# 4 0.000000 0.000000 0.000000 0.132348 0.000000 -0.042267
# 5 -0.063622 -0.010356 -0.027534 0.000000 0.123088 0.000000
# 6 0.000000 0.000000 0.000000 -0.042267 0.000000 0.095342
#
#
# Mechanical properties :
#
#
# Convention : Reuss Voigt Hill
#
# Bulk Modulus (GPa) = 7.82163 29.33876 18.58019
# Shear Modulus (GPa) = 11.17125 22.24024 16.70575
#
# Velocity S-wave (km/s) = 2.31136 3.26126 2.82650
# Velocity P-wave (km/s) = 3.29601 5.31147 4.42014
#
# Compressibility (1/GPa) = 0.12785063
#
# Stress axis : x y z
#
# Youngs Moduli (GPa) = 16.84349 64.16054 62.26305
#
# Poissons Ratio (x) = -0.37857 -0.80169
# Poissons Ratio (y) = -0.09938 0.02237
# Poissons Ratio (z) = -0.21687 0.02305
#
# Static dielectric constant tensor:
#      x y z
#    x 1.749770 0.000000 0.024740 
#    y 0.000000 1.765030 0.000000 
#    z 0.024740 0.000000 1.846200 
# 
# From -- ./inp_files/240693.got.cif
#   From: 2010.05.17/outbox.cif.g08.bks.cpg/sg12_121_cif.got.tgz:240693.got - 2010.06.03 13:09:07.
