data_PCOD9173743
_publ_section_title
;
Structure prediction by ZEFSAII (Michael W. Deem and Ramdas Pophale) SiO2 
 PCOD9173743
Probable space group: C 2/M
;
_chemical_formula_sum "Si O2"
_cell_formula_units_Z 64
_cell_length_a 24.390826
_cell_length_b 8.891067
_cell_length_c 17.335314
_cell_angle_alpha 90.000000
_cell_angle_beta 95.170474
_cell_angle_gamma 90.000000
_cell_volume 3744.047431
_symmetry_space_group_name_H-M "C 2/M"
_symmetry_group_IT_number 12
_symmetry_cell_setting 'monoclinic'
loop_
_space_group_symop_operation_xyz
x,y,z
-x,y,-z
-x,-y,-z
x,-y,z
1/2+x,1/2+y,z
1/2-x,1/2+y,-z
1/2-x,1/2-y,-z
1/2+x,1/2-y,z
loop_
_atom_site_type_symbol
_atom_site_label
_atom_site_fract_x
_atom_site_fract_y
_atom_site_fract_z
Si Si1 0.734027 0.178927 0.079040
Si Si2 0.808947 0.818307 0.233855
Si Si3 0.779755 0.826238 0.675172
Si Si4 0.374130 0.179337 0.596360
Si Si5 0.050304 0.182955 0.259274
Si Si6 0.062542 0.180768 0.533943
Si Si7 0.929719 0.817571 0.285969
Si Si8 0.642855 0.673334 0.161826
O O1 0.777115 0.225866 0.151677
O O2 0.674410 0.231145 0.102210
O O3 0.735611 0.000000 0.073399
O O4 0.750000 0.250000 0.000000
O O5 0.775789 0.751759 0.302404
O O6 0.872205 0.767907 0.242248
O O7 0.806848 0.000000 0.238879
O O8 0.814482 0.741923 0.614070
O O9 0.819407 0.822286 0.756011
O O10 0.770857 0.000000 0.653520
O O11 0.417617 0.246261 0.664157
O O12 0.394726 0.238072 0.516646
O O13 0.374350 0.000000 0.600181
O O14 0.083543 0.223835 0.185978
O O15 0.986780 0.229932 0.253939
O O16 0.053902 0.000000 0.267360
O O17 0.069094 0.224402 0.623811
O O18 0.000000 0.214857 0.500000
O O19 0.069750 0.000000 0.527940
O O20 0.929984 0.000000 0.283571
O O21 0.639789 0.500000 0.135932
#
# Coordination Sequence:
#
# PCOD9173743 Si02
#       8
#     8   8   8   8   8   8   8   8
#     4  10  19  31  51  76 102 126 155 193 239 289
#     4   9  18  33  52  76 101 125 158 203 247 286
#     4   9  17  31  50  69  93 128 166 203 246 299
#     4  11  20  29  45  70  99 126 163 216 256 283
#     4   9  16  30  50  72  97 131 168 199 239 294
#     4  10  18  31  50  69  94 130 170 204 244 298
#     4   9  17  31  52  73  97 130 165 201 244 294
#     4   8  15  27  47  73  98 121 156 199 235 277
#
# _framework density 17.093800999999999
#
# number of rings (size 3 to 8) (size 9 to 14) (size 15 to 20)
#    0.000    2.625    1.250    2.625    0.000    3.750 
#    0.000    1.875    0.000    0.750    0.000    5.250 
#    0.000    0.000    0.000    0.000    0.000    0.000 
#
# Total GULP energy -178357.010757 kJ/mol
# GULP energy per Si atom -5573.656586 kJ/mol
# Density = 1.705490 g / cm^3
# Si number density = 17.093801 Si / 1000 Ang^3
#
#
#
# Elastic Constant Matrix: (Units=GPa)
#
#
# Indices 1 2 3 4 5 6 
#
# 1 148.7718 34.5329 60.4853 0.0000 -24.7688 0.0000
# 2 34.5329 41.1642 30.9940 0.0000 -13.4614 0.0000
# 3 60.4853 30.9940 69.1055 0.0000 -25.0725 0.0000
# 4 0.0000 0.0000 0.0000 17.0954 0.0000 -9.2923
# 5 -24.7688 -13.4614 -25.0725 0.0000 27.6849 0.0000
# 6 0.0000 0.0000 0.0000 -9.2923 0.0000 22.0873
#
#
#
# Elastic Compliance Matrix: (Units=1/GPa)
#
#
# Indices 1 2 3 4 5 6 
#
# 1 0.010689 -0.002798 -0.007633 0.000000 0.001290 0.000000
# 2 -0.002798 0.037771 -0.013011 0.000000 0.004078 0.000000
# 3 -0.007633 -0.013011 0.033085 0.000000 0.016808 0.000000
# 4 0.000000 0.000000 0.000000 0.075838 0.000000 0.031905
# 5 0.001290 0.004078 0.016808 0.000000 0.054480 0.000000
# 6 0.000000 0.000000 0.000000 0.031905 0.000000 0.058698
#
#
# Mechanical properties :
#
#
# Convention : Reuss Voigt Hill
#
# Bulk Modulus (GPa) = 28.85148 56.78511 42.81829
# Shear Modulus (GPa) = 15.19764 22.24213 18.71989
#
# Velocity S-wave (km/s) = 2.98497 3.61110 3.31286
# Velocity P-wave (km/s) = 5.36610 7.11889 6.30371
#
# Compressibility (1/GPa) = 0.03466027
#
# Stress axis : x y z
#
# Youngs Moduli (GPa) = 93.55189 26.47539 30.22534
#
# Poissons Ratio (x) = 0.07409 0.23070
# Poissons Ratio (y) = 0.26180 0.39327
# Poissons Ratio (z) = 0.71405 0.34448
#
# Static dielectric constant tensor:
#      x y z
#    x 1.603110 0.000000 -0.002100 
#    y 0.000000 1.578140 0.000000 
#    z -0.002100 0.000000 1.556460 
# 
# From -- ./inp_files/287719.got.cif
#   From: 2010.05.17/outbox.cif.g08.bks.cpg/sg12_144_cif.got.tgz:287719.got - 2010.06.03 13:09:07.
