data_PCOD9173461
_publ_section_title
;
Structure prediction by ZEFSAII (Michael W. Deem and Ramdas Pophale) SiO2 
 PCOD9173461
Probable space group: C 2/M
;
_chemical_formula_sum "Si O2"
_cell_formula_units_Z 64
_cell_length_a 24.481010
_cell_length_b 9.127921
_cell_length_c 19.176520
_cell_angle_alpha 90.000000
_cell_angle_beta 126.092982
_cell_angle_gamma 90.000000
_cell_volume 3462.706730
_symmetry_space_group_name_H-M "C 2/M"
_symmetry_group_IT_number 12
_symmetry_cell_setting 'monoclinic'
loop_
_space_group_symop_operation_xyz
x,y,z
-x,y,-z
-x,-y,-z
x,-y,z
1/2+x,1/2+y,z
1/2-x,1/2+y,-z
1/2-x,1/2-y,-z
1/2+x,1/2-y,z
loop_
_atom_site_type_symbol
_atom_site_label
_atom_site_fract_x
_atom_site_fract_y
_atom_site_fract_z
Si Si1 0.852938 0.829197 0.043859
Si Si2 0.224472 0.329760 0.373451
Si Si3 0.007097 0.324606 0.312992
Si Si4 0.369825 0.327257 0.223089
Si Si5 0.721510 0.174873 0.128535
Si Si6 0.995126 0.824869 0.839589
Si Si7 0.847210 0.671134 0.529226
Si Si8 0.858124 0.825301 0.809653
O O1 0.856979 0.811164 0.130140
O O2 0.929469 0.794839 0.076467
O O3 0.838079 0.000000 0.018060
O O4 0.800262 0.728736 0.964348
O O5 0.225162 0.500000 0.352620
O O6 0.182977 0.318802 0.414867
O O7 0.299327 0.270384 0.445827
O O8 0.187422 0.232023 0.288456
O O9 0.004226 0.500000 0.305683
O O10 0.937210 0.261801 0.290728
O O11 0.014693 0.257881 0.241006
O O12 0.074339 0.285880 0.406886
O O13 0.381258 0.500000 0.244658
O O14 0.298901 0.281001 0.203641
O O15 0.669906 0.247946 0.143032
O O16 0.718623 0.000000 0.129538
O O17 0.935340 0.788203 0.847622
O O18 0.992235 0.000000 0.823024
O O19 0.841886 0.500000 0.504563
O O20 0.853122 0.000000 0.812994
#
# Coordination Sequence:
#
# PCOD9173461 Si02
#       8
#     8   8   8   8   8   8   8   8
#     4   9  18  35  56  77 101 130 172 221 265 312
#     4  10  19  32  51  77 109 141 173 210 251 304
#     4  10  18  30  53  82 109 134 168 217 261 302
#     4   9  20  37  55  76 104 137 174 217 264 313
#     4  11  23  37  53  75 103 138 179 220 261 308
#     4   9  19  34  52  75 105 140 173 209 260 316
#     4   9  18  31  49  79 112 138 168 207 255 307
#     4  11  22  36  54  74 105 145 178 212 258 314
#
# _framework density 18.482651000000001
#
# number of rings (size 3 to 8) (size 9 to 14) (size 15 to 20)
#    0.000    2.250    1.250    2.625    0.000    5.500 
#    0.000    2.500    0.000    0.750    0.000    5.250 
#    0.000    0.000    0.000    0.000    0.000    0.000 
#
# Total GULP energy -178580.173859 kJ/mol
# GULP energy per Si atom -5580.630433 kJ/mol
# Density = 1.844058 g / cm^3
# Si number density = 18.482651 Si / 1000 Ang^3
#
#
#
# Elastic Constant Matrix: (Units=GPa)
#
#
# Indices 1 2 3 4 5 6 
#
# 1 74.5659 28.7331 12.5814 0.0000 27.8765 0.0000
# 2 28.7331 39.4797 13.1162 0.0000 16.5285 0.0000
# 3 12.5814 13.1162 27.4394 0.0000 24.2571 0.0000
# 4 0.0000 0.0000 0.0000 27.8059 0.0000 4.3327
# 5 27.8765 16.5285 24.2571 0.0000 30.5167 0.0000
# 6 0.0000 0.0000 0.0000 4.3327 0.0000 25.1445
#
#
#
# Elastic Compliance Matrix: (Units=1/GPa)
#
#
# Indices 1 2 3 4 5 6 
#
# 1 0.031455 -0.014022 0.036889 0.000000 -0.050461 0.000000
# 2 -0.014022 0.039008 -0.016357 0.000000 0.004683 0.000000
# 3 0.036889 -0.016357 0.165843 0.000000 -0.156664 0.000000
# 4 0.000000 0.000000 0.000000 0.036956 0.000000 -0.006368
# 5 -0.050461 0.004683 -0.156664 0.000000 0.200857 0.000000
# 6 0.000000 0.000000 0.000000 -0.006368 0.000000 0.040867
#
#
# Mechanical properties :
#
#
# Convention : Reuss Voigt Hill
#
# Bulk Modulus (GPa) = 4.01080 27.81627 15.91353
# Shear Modulus (GPa) = 8.54591 22.49705 15.52148
#
# Velocity S-wave (km/s) = 2.15262 3.49262 2.90105
# Velocity P-wave (km/s) = 2.89018 5.59885 4.45535
#
# Compressibility (1/GPa) = 0.24932668
#
# Stress axis : x y z
#
# Youngs Moduli (GPa) = 31.79137 25.63555 6.02980
#
# Poissons Ratio (x) = 0.35947 -0.22244
# Poissons Ratio (y) = 0.44579 0.09863
# Poissons Ratio (z) = -1.17276 0.41932
#
# Static dielectric constant tensor:
#      x y z
#    x 1.673370 0.000000 0.006770 
#    y 0.000000 1.610330 0.000000 
#    z 0.006770 0.000000 1.622320 
# 
# From -- ./inp_files/323730.got.cif
#   From: 2010.05.17/outbox.cif.g08.bks.cpg/sg12_162_cif.got.tgz:323730.got - 2010.06.03 13:09:07.
