data_PCOD9173964
_publ_section_title
;
Structure prediction by ZEFSAII (Michael W. Deem and Ramdas Pophale) SiO2 
 PCOD9173964
Probable space group: C 2/M
;
_chemical_formula_sum "Si O2"
_cell_formula_units_Z 52
_cell_length_a 24.209924
_cell_length_b 21.867061
_cell_length_c 7.152786
_cell_angle_alpha 90.000000
_cell_angle_beta 53.664754
_cell_angle_gamma 90.000000
_cell_volume 3050.416180
_symmetry_space_group_name_H-M "C 2/M"
_symmetry_group_IT_number 12
_symmetry_cell_setting 'monoclinic'
loop_
_space_group_symop_operation_xyz
x,y,z
-x,y,-z
-x,-y,-z
x,-y,z
1/2+x,1/2+y,z
1/2-x,1/2+y,-z
1/2-x,1/2-y,-z
1/2+x,1/2-y,z
loop_
_atom_site_type_symbol
_atom_site_label
_atom_site_fract_x
_atom_site_fract_y
_atom_site_fract_z
Si Si1 0.995323 0.749555 0.234238
Si Si2 0.000000 0.860143 0.500000
Si Si3 0.280675 0.336248 0.708017
Si Si4 0.717659 0.643582 0.740551
Si Si5 0.850952 0.708289 0.511436
Si Si6 0.647512 0.228303 0.938773
Si Si7 0.857110 0.071465 0.825441
O O1 0.930520 0.706114 0.404825
O O2 0.985186 0.814436 0.356345
O O3 0.000000 0.758177 0.000000
O O4 0.068810 0.724838 0.154793
O O5 0.066438 0.900913 0.326595
O O6 0.284559 0.353022 0.479729
O O7 0.321202 0.272067 0.651050
O O8 0.202136 0.318614 0.914009
O O9 0.313663 0.389234 0.763132
O O10 0.795725 0.654942 0.651930
O O11 0.675739 0.702748 0.901732
O O12 0.680622 0.585696 0.902747
O O13 0.849937 0.716831 0.288922
O O14 0.858126 0.000000 0.781542
#
# Coordination Sequence:
#
# PCOD9173964 Si02
#       7
#     8   4   8   8   8   8   8
#     4  10  18  31  51  79 108 130 151 191 254 314
#     4  12  23  34  48  68 100 138 175 204 232 278
#     4   9  18  34  52  73  98 126 164 211 251 289
#     4   9  18  34  52  73  98 126 164 211 251 289
#     4   8  15  29  53  78 100 125 155 197 256 311
#     4   8  15  29  53  78 100 125 155 197 256 311
#     4  12  25  36  49  68  96 140 184 209 231 274
#
# _framework density 17.046855000000001
#
# number of rings (size 3 to 8) (size 9 to 14) (size 15 to 20)
#    0.000    2.462    3.077    2.077    0.000    4.308 
#    0.000    0.000    0.000    2.769    0.000    2.154 
#    0.000    6.154    0.000    0.000    0.000    0.000 
#
# Total GULP energy -144963.945517 kJ/mol
# GULP energy per Si atom -5575.536366 kJ/mol
# Density = 1.700806 g / cm^3
# Si number density = 17.046855 Si / 1000 Ang^3
#
#
#
# Elastic Constant Matrix: (Units=GPa)
#
#
# Indices 1 2 3 4 5 6 
#
# 1 57.0152 16.3116 33.2367 0.0000 -18.3216 0.0000
# 2 16.3116 50.1960 17.4538 0.0000 -13.9704 0.0000
# 3 33.2367 17.4538 67.4284 0.0000 -23.4127 0.0000
# 4 0.0000 0.0000 0.0000 15.8110 0.0000 2.4818
# 5 -18.3216 -13.9704 -23.4127 0.0000 51.6655 0.0000
# 6 0.0000 0.0000 0.0000 2.4818 0.0000 13.8459
#
#
#
# Elastic Compliance Matrix: (Units=1/GPa)
#
#
# Indices 1 2 3 4 5 6 
#
# 1 0.025888 -0.003790 -0.010619 0.000000 0.003344 0.000000
# 2 -0.003790 0.023158 -0.002870 0.000000 0.003617 0.000000
# 3 -0.010619 -0.002870 0.022822 0.000000 0.005800 0.000000
# 4 0.000000 0.000000 0.000000 0.065078 0.000000 -0.011665
# 5 0.003344 0.003617 0.005800 0.000000 0.024148 0.000000
# 6 0.000000 0.000000 0.000000 -0.011665 0.000000 0.074315
#
#
# Mechanical properties :
#
#
# Convention : Reuss Voigt Hill
#
# Bulk Modulus (GPa) = 26.80229 34.29374 30.54802
# Shear Modulus (GPa) = 17.70521 23.44029 20.57275
#
# Velocity S-wave (km/s) = 3.22626 3.71219 3.47772
# Velocity P-wave (km/s) = 5.44382 6.20764 5.83824
#
# Compressibility (1/GPa) = 0.03731024
#
# Stress axis : x y z
#
# Youngs Moduli (GPa) = 38.62796 43.18117 43.81801
#
# Poissons Ratio (x) = 0.16364 0.46529
# Poissons Ratio (y) = 0.14639 0.12578
# Poissons Ratio (z) = 0.41018 0.12395
#
# Static dielectric constant tensor:
#      x y z
#    x 1.629190 0.000000 0.006670 
#    y 0.000000 1.519750 0.000000 
#    z 0.006670 0.000000 1.639950 
# 
# From -- ./inp_files/106336.got.cif
#   From: 2010.05.17/outbox.cif.g08.bks.cpg/sg12_54_cif.got.tgz:106336.got - 2010.06.03 13:09:07.
