data_PCOD9173042
_publ_section_title
;
Structure prediction by ZEFSAII (Michael W. Deem and Ramdas Pophale) SiO2 
 PCOD9173042
Probable space group: C 2/M
;
_chemical_formula_sum "Si O2"
_cell_formula_units_Z 64
_cell_length_a 30.829140
_cell_length_b 7.978269
_cell_length_c 15.386153
_cell_angle_alpha 90.000000
_cell_angle_beta 138.312916
_cell_angle_gamma 90.000000
_cell_volume 2516.878684
_symmetry_space_group_name_H-M "C 2/M"
_symmetry_group_IT_number 12
_symmetry_cell_setting 'monoclinic'
loop_
_space_group_symop_operation_xyz
x,y,z
-x,y,-z
-x,-y,-z
x,-y,z
1/2+x,1/2+y,z
1/2-x,1/2+y,-z
1/2-x,1/2-y,-z
1/2+x,1/2-y,z
loop_
_atom_site_type_symbol
_atom_site_label
_atom_site_fract_x
_atom_site_fract_y
_atom_site_fract_z
Si Si1 0.495315 0.795732 0.349420
Si Si2 0.691709 0.300603 0.080197
Si Si3 0.623181 0.193004 0.617165
Si Si4 0.075476 0.194875 0.030898
Si Si5 0.719986 0.305187 0.629736
Si Si6 0.331061 0.195138 0.677878
Si Si7 0.153418 0.804334 0.842202
Si Si8 0.552637 0.797899 0.250898
O O1 0.550877 0.734314 0.499285
O O2 0.422776 0.737758 0.258713
O O3 0.522505 0.739980 0.296517
O O4 0.494833 0.000000 0.350034
O O5 0.710610 0.500000 0.111688
O O6 0.732047 0.207652 0.214681
O O7 0.617297 0.291010 0.004322
O O8 0.691740 0.229562 0.982216
O O9 0.657902 0.210962 0.575855
O O10 0.665304 0.260907 0.759896
O O11 0.615327 0.000000 0.626411
O O12 0.002259 0.250978 0.902050
O O13 0.076580 0.000000 0.058563
O O14 0.116882 0.293540 0.164663
O O15 0.705207 0.500000 0.592846
O O16 0.763447 0.232232 0.615409
O O17 0.375240 0.268590 0.666402
O O18 0.317926 0.000000 0.641367
O O19 0.162649 0.000000 0.866453
O O20 0.557529 0.000000 0.260527
#
# Coordination Sequence:
#
# PCOD9173042 Si02
#       8
#     8   8   8   8   8   8   8   8
#     4  10  22  39  59  83 113 149 187 228 277 333
#     4   9  19  35  55  82 116 148 177 221 278 334
#     4  11  24  41  59  80 109 148 191 233 280 333
#     4  10  18  30  49  79 116 148 179 221 274 328
#     4  10  21  38  59  82 110 147 191 232 273 324
#     4   9  19  34  53  79 110 146 186 226 270 326
#     4  11  22  38  61  88 115 143 181 229 283 335
#     4  10  19  33  54  79 110 147 185 224 271 328
#
# _framework density 25.428319999999999
#
# number of rings (size 3 to 8) (size 9 to 14) (size 15 to 20)
#    0.000    2.000    1.250    2.250    0.000    7.000 
#    0.000    0.625    0.000    0.000    0.000    0.000 
#    0.000    0.000    0.000    0.000    0.000    0.000 
#
# Total GULP energy -178936.786148 kJ/mol
# GULP energy per Si atom -5591.774567 kJ/mol
# Density = 2.537044 g / cm^3
# Si number density = 25.428320 Si / 1000 Ang^3
#
#
#
# Elastic Constant Matrix: (Units=GPa)
#
#
# Indices 1 2 3 4 5 6 
#
# 1 132.1063 -8.3041 13.6196 0.0000 -7.5242 0.0000
# 2 -8.3041 45.5470 6.9816 0.0000 -7.7292 0.0000
# 3 13.6196 6.9816 91.0908 0.0000 -8.0013 0.0000
# 4 0.0000 0.0000 0.0000 22.0448 0.0000 0.5269
# 5 -7.5242 -7.7292 -8.0013 0.0000 50.5478 0.0000
# 6 0.0000 0.0000 0.0000 0.5269 0.0000 26.5121
#
#
#
# Elastic Compliance Matrix: (Units=1/GPa)
#
#
# Indices 1 2 3 4 5 6 
#
# 1 0.007882 0.001836 -0.001208 0.000000 0.001263 0.000000
# 2 0.001836 0.023157 -0.001739 0.000000 0.003539 0.000000
# 3 -0.001208 -0.001739 0.011411 0.000000 0.001361 0.000000
# 4 0.000000 0.000000 0.000000 0.045384 0.000000 -0.000902
# 5 0.001263 0.003539 0.001361 0.000000 0.020728 0.000000
# 6 0.000000 0.000000 0.000000 -0.000902 0.000000 0.037737
#
#
# Mechanical properties :
#
#
# Convention : Reuss Voigt Hill
#
# Bulk Modulus (GPa) = 24.85736 32.59314 28.72525
# Shear Modulus (GPa) = 30.87772 36.91739 33.89756
#
# Velocity S-wave (km/s) = 3.48847 3.81441 3.65507
# Velocity P-wave (km/s) = 5.10123 5.67848 5.39758
#
# Compressibility (1/GPa) = 0.04022954
#
# Stress axis : x y z
#
# Youngs Moduli (GPa) = 126.87803 43.18305 87.63106
#
# Poissons Ratio (x) = -0.07930 0.10588
# Poissons Ratio (y) = -0.23301 0.15235
# Poissons Ratio (z) = 0.15330 0.07508
#
# Static dielectric constant tensor:
#      x y z
#    x 2.076660 0.000000 -0.028340 
#    y 0.000000 1.887770 0.000000 
#    z -0.028340 0.000000 2.055860 
# 
# From -- ./inp_files/249985.got.cif
#   From: 2010.05.17/outbox.cif.g08.bks.cpg/sg12_125_cif.got.tgz:249985.got - 2010.06.03 13:09:07.
