data_PCOD9173765
_publ_section_title
;
Structure prediction by ZEFSAII (Michael W. Deem and Ramdas Pophale) SiO2 
 PCOD9173765
Probable space group: C 2/M
;
_chemical_formula_sum "Si O2"
_cell_formula_units_Z 64
_cell_length_a 23.428233
_cell_length_b 9.446881
_cell_length_c 18.982470
_cell_angle_alpha 90.000000
_cell_angle_beta 60.466030
_cell_angle_gamma 90.000000
_cell_volume 3655.372975
_symmetry_space_group_name_H-M "C 2/M"
_symmetry_group_IT_number 12
_symmetry_cell_setting 'monoclinic'
loop_
_space_group_symop_operation_xyz
x,y,z
-x,y,-z
-x,-y,-z
x,-y,z
1/2+x,1/2+y,z
1/2-x,1/2+y,-z
1/2-x,1/2-y,-z
1/2+x,1/2-y,z
loop_
_atom_site_type_symbol
_atom_site_label
_atom_site_fract_x
_atom_site_fract_y
_atom_site_fract_z
Si Si1 0.562384 0.335702 0.754414
Si Si2 0.316835 0.834380 0.585394
Si Si3 0.452843 0.332440 0.713166
Si Si4 0.962248 0.663529 0.448276
Si Si5 0.194602 0.336907 0.833751
Si Si6 0.811302 0.661723 0.334443
Si Si7 0.675580 0.167364 0.249771
Si Si8 0.433095 0.333467 0.080589
O O1 0.579545 0.500000 0.730647
O O2 0.492833 0.308097 0.760655
O O3 0.621088 0.240251 0.688573
O O4 0.557576 0.316776 0.841138
O O5 0.385745 0.802237 0.506220
O O6 0.254436 0.741634 0.601614
O O7 0.328513 0.815863 0.662493
O O8 0.301673 0.000000 0.583598
O O9 0.440836 0.500000 0.711673
O O10 0.501715 0.272432 0.624101
O O11 0.386220 0.245167 0.746626
O O12 0.967674 0.500000 0.419162
O O13 0.000000 0.667051 0.500000
O O14 0.200852 0.500000 0.851952
O O15 0.191159 0.336120 0.749983
O O16 0.257603 0.243368 0.814201
O O17 0.128536 0.263582 0.901436
O O18 0.811915 0.500000 0.358115
O O19 0.676035 0.000000 0.235014
O O20 0.418584 0.500000 0.076204
O O21 0.500000 0.297002 0.000000
#
# Coordination Sequence:
#
# PCOD9173765 Si02
#       8
#     8   8   8   8   8   8   8   8
#     4   9  19  35  51  71 102 133 162 198 245 299
#     4   9  17  30  49  69  93 125 162 208 255 291
#     4  11  22  33  48  72 101 133 165 204 253 297
#     4  10  19  34  50  69  96 129 171 211 250 294
#     4   9  17  29  47  76 107 129 157 203 252 291
#     4   9  17  29  48  72  96 124 163 206 245 292
#     4  10  18  31  50  71  97 132 171 207 244 290
#     4   9  17  32  56  81 102 130 166 200 239 293
#
# _framework density 17.508472999999999
#
# number of rings (size 3 to 8) (size 9 to 14) (size 15 to 20)
#    0.000    2.500    1.250    1.500    0.000    5.500 
#    0.000    0.625    0.000    0.750    0.000    0.000 
#    0.000    0.000    0.000    0.000    0.000    0.000 
#
# Total GULP energy -178506.170183 kJ/mol
# GULP energy per Si atom -5578.317818 kJ/mol
# Density = 1.746862 g / cm^3
# Si number density = 17.508473 Si / 1000 Ang^3
#
#
#
# Elastic Constant Matrix: (Units=GPa)
#
#
# Indices 1 2 3 4 5 6 
#
# 1 105.2394 91.8524 39.6798 0.0000 -35.7572 0.0000
# 2 91.8524 123.6079 45.9839 0.0000 -33.5270 0.0000
# 3 39.6798 45.9839 43.3740 0.0000 -32.7740 0.0000
# 4 0.0000 0.0000 0.0000 19.6729 0.0000 -10.5501
# 5 -35.7572 -33.5270 -32.7740 0.0000 29.7786 0.0000
# 6 0.0000 0.0000 0.0000 -10.5501 0.0000 30.7281
#
#
#
# Elastic Compliance Matrix: (Units=1/GPa)
#
#
# Indices 1 2 3 4 5 6 
#
# 1 0.036839 -0.025291 0.029816 0.000000 0.048575 0.000000
# 2 -0.025291 0.030775 -0.037152 0.000000 -0.036609 0.000000
# 3 0.029816 -0.037152 0.181805 0.000000 0.194065 0.000000
# 4 0.000000 0.000000 0.000000 0.062303 0.000000 0.021391
# 5 0.048575 -0.036609 0.194065 0.000000 0.264277 0.000000
# 6 0.000000 0.000000 0.000000 0.021391 0.000000 0.039888
#
#
# Mechanical properties :
#
#
# Convention : Reuss Voigt Hill
#
# Bulk Modulus (GPa) = 5.42996 69.69483 37.56240
# Shear Modulus (GPa) = 6.73373 22.34961 14.54167
#
# Velocity S-wave (km/s) = 1.96325 3.57669 2.88505
# Velocity P-wave (km/s) = 2.87179 7.54651 5.70951
#
# Compressibility (1/GPa) = 0.18416341
#
# Stress axis : x y z
#
# Youngs Moduli (GPa) = 27.14540 32.49351 5.50039
#
# Poissons Ratio (x) = 0.82180 -0.16400
# Poissons Ratio (y) = 0.68654 0.20435
# Poissons Ratio (z) = -0.80936 1.20721
#
# Static dielectric constant tensor:
#      x y z
#    x 1.601800 0.000000 0.013430 
#    y 0.000000 1.588800 0.000000 
#    z 0.013430 0.000000 1.578300 
# 
# From -- ./inp_files/319856.got.cif
#   From: 2010.05.17/outbox.cif.g08.bks.cpg/sg12_160_cif.got.tgz:319856.got - 2010.06.03 13:09:07.
