data_PCOD9173431
_publ_section_title
;
Structure prediction by ZEFSAII (Michael W. Deem and Ramdas Pophale) SiO2 
 PCOD9173431
Probable space group: C 2/M
;
_chemical_formula_sum "Si O2"
_cell_formula_units_Z 56
_cell_length_a 23.668445
_cell_length_b 8.697600
_cell_length_c 20.098088
_cell_angle_alpha 90.000000
_cell_angle_beta 51.029339
_cell_angle_gamma 90.000000
_cell_volume 3216.669824
_symmetry_space_group_name_H-M "C 2/M"
_symmetry_group_IT_number 12
_symmetry_cell_setting 'monoclinic'
loop_
_space_group_symop_operation_xyz
x,y,z
-x,y,-z
-x,-y,-z
x,-y,z
1/2+x,1/2+y,z
1/2-x,1/2+y,-z
1/2-x,1/2-y,-z
1/2+x,1/2-y,z
loop_
_atom_site_type_symbol
_atom_site_label
_atom_site_fract_x
_atom_site_fract_y
_atom_site_fract_z
Si Si1 0.920643 0.676889 0.023571
Si Si2 0.643706 0.316705 0.802796
Si Si3 0.823795 0.315093 0.475824
Si Si4 0.001299 0.684861 0.836687
Si Si5 0.024064 0.817080 0.678803
Si Si6 0.195740 0.313375 0.356594
Si Si7 0.950891 0.685696 0.601111
O O1 0.895018 0.500000 0.040595
O O2 0.939153 0.733230 0.935728
O O3 0.870633 0.774582 0.109513
O O4 0.000000 0.675445 0.000000
O O5 0.639683 0.500000 0.796782
O O6 0.578891 0.242133 0.807887
O O7 0.723267 0.261086 0.721455
O O8 0.825289 0.500000 0.469972
O O9 0.750000 0.250000 0.500000
O O10 0.893890 0.246410 0.388021
O O11 0.825231 0.271024 0.552660
O O12 0.002262 0.500000 0.835523
O O13 0.990768 0.749745 0.771132
O O14 0.982234 0.760686 0.644130
O O15 0.025334 0.000000 0.680901
O O16 0.197004 0.500000 0.353869
O O17 0.131325 0.265368 0.355090
O O18 0.953574 0.500000 0.606891
O O19 0.000000 0.722362 0.500000
#
# Coordination Sequence:
#
# PCOD9173431 Si02
#       7
#     8   8   8   8   8   8   8
#     4   8  16  31  50  74 105 140 178 213 253 317
#     4  10  18  30  52  83 114 138 167 216 270 319
#     4  11  21  36  54  77 108 144 178 213 260 315
#     4  10  20  35  54  76 105 144 183 216 257 318
#     4  12  24  36  52  79 109 136 174 227 273 316
#     4   9  19  34  53  76 103 136 177 215 255 312
#     4  10  19  38  61  74  94 140 187 221 260 315
#
# _framework density 17.409309
#
# number of rings (size 3 to 8) (size 9 to 14) (size 15 to 20)
#    0.000    2.000    1.429    4.286    0.000    4.571 
#    0.000    3.571    0.000    0.857    0.000    0.000 
#    0.000    0.000    0.000    0.000    0.000    0.000 
#
# Total GULP energy -156260.360703 kJ/mol
# GULP energy per Si atom -5580.727168 kJ/mol
# Density = 1.736968 g / cm^3
# Si number density = 17.409309 Si / 1000 Ang^3
#
#
#
# Elastic Constant Matrix: (Units=GPa)
#
#
# Indices 1 2 3 4 5 6 
#
# 1 57.6706 15.1768 9.0561 0.0003 22.4032 -0.0006
# 2 15.1768 53.7945 25.4671 0.0005 11.2963 -0.0010
# 3 9.0561 25.4671 88.6720 0.0003 28.5001 -0.0004
# 4 0.0003 0.0005 0.0003 23.6000 -0.0002 3.8422
# 5 22.4032 11.2963 28.5001 -0.0002 26.4222 0.0003
# 6 -0.0006 -0.0010 -0.0004 3.8422 0.0003 24.7116
#
#
#
# Elastic Compliance Matrix: (Units=1/GPa)
#
#
# Indices 1 2 3 4 5 6 
#
# 1 0.030353 -0.005991 0.009290 -0.000001 -0.033196 0.000001
# 2 -0.005991 0.022960 -0.006827 0.000000 0.002627 0.000001
# 3 0.009290 -0.006827 0.021250 -0.000001 -0.027880 0.000001
# 4 -0.000001 0.000000 -0.000001 0.043473 0.000002 -0.006759
# 5 -0.033196 0.002627 -0.027880 0.000002 0.094943 -0.000003
# 6 0.000001 0.000001 0.000001 -0.006759 -0.000003 0.041518
#
#
# Mechanical properties :
#
#
# Convention : Reuss Voigt Hill
#
# Bulk Modulus (GPa) = 14.81301 33.28189 24.04745
# Shear Modulus (GPa) = 17.60231 24.97589 21.28910
#
# Velocity S-wave (km/s) = 3.18321 3.79176 3.50073
# Velocity P-wave (km/s) = 4.69442 6.19102 5.49392
#
# Compressibility (1/GPa) = 0.06750823
#
# Stress axis : x y z
#
# Youngs Moduli (GPa) = 32.94572 43.55487 47.05830
#
# Poissons Ratio (x) = 0.26092 -0.43717
# Poissons Ratio (y) = 0.19736 0.32125
# Poissons Ratio (z) = -0.30606 0.29733
#
# Static dielectric constant tensor:
#      x y z
#    x 1.575130 0.000000 0.008000 
#    y 0.000000 1.588570 0.000000 
#    z 0.008000 0.000000 1.606440 
# 
# From -- ./inp_files/280879.got.cif
#   From: 2010.05.17/outbox.cif.g08.bks.cpg/sg12_141_cif.got.tgz:280879.got - 2010.06.03 13:09:07.
