data_PCOD9173723
_publ_section_title
;
Structure prediction by ZEFSAII (Michael W. Deem and Ramdas Pophale) SiO2 
 PCOD9173723
Probable space group: C 2/M
;
_chemical_formula_sum "Si O2"
_cell_formula_units_Z 44
_cell_length_a 7.503031
_cell_length_b 27.294637
_cell_length_c 10.392486
_cell_angle_alpha 90.000000
_cell_angle_beta 105.601911
_cell_angle_gamma 90.000000
_cell_volume 2049.882947
_symmetry_space_group_name_H-M "C 2/M"
_symmetry_group_IT_number 12
_symmetry_cell_setting 'monoclinic'
loop_
_space_group_symop_operation_xyz
x,y,z
-x,y,-z
-x,-y,-z
x,-y,z
1/2+x,1/2+y,z
1/2-x,1/2+y,-z
1/2-x,1/2-y,-z
1/2+x,1/2-y,z
loop_
_atom_site_type_symbol
_atom_site_label
_atom_site_fract_x
_atom_site_fract_y
_atom_site_fract_z
Si Si1 0.034434 0.604740 0.744477
Si Si2 0.515944 0.000000 0.657361
Si Si3 0.000506 0.293698 0.645690
Si Si4 0.682564 0.298813 0.773932
Si Si5 0.500000 0.844192 0.000000
Si Si6 0.413737 0.605594 0.341490
Si Si7 0.589212 0.500000 0.659353
O O1 0.089617 0.652163 0.671039
O O2 0.069852 0.621467 0.897428
O O3 0.104910 0.551585 0.717432
O O4 0.809932 0.602457 0.689435
O O5 0.500000 0.000000 0.500000
O O6 0.310577 0.000000 0.680460
O O7 0.091306 0.254069 0.758856
O O8 0.000000 0.276505 0.500000
O O9 0.794567 0.298058 0.660819
O O10 0.548864 0.345838 0.734760
O O11 0.833094 0.311713 0.911271
O O12 0.500000 0.610178 0.500000
O O13 0.466836 0.552504 0.293633
O O14 0.500000 0.500000 0.500000
#
# Coordination Sequence:
#
# PCOD9173723 Si02
#       7
#     8   4   8   8   4   8   4
#     4   9  19  31  50  71 101 130 159 202 239 292
#     4  10  18  31  49  76 103 127 154 194 251 292
#     4  10  19  32  48  73  99 127 160 203 252 288
#     4  10  20  31  49  69  98 129 162 204 238 291
#     4   8  18  35  48  72  96 127 170 200 236 280
#     4   8  14  26  43  67  93 118 153 197 240 279
#     4   8  14  26  45  66  93 122 154 190 231 286
#
# _framework density 21.464638999999998
#
# number of rings (size 3 to 8) (size 9 to 14) (size 15 to 20)
#    0.000    3.273    0.000    1.636    0.000    4.727 
#    0.000    2.727    0.000    0.000    0.000    0.000 
#    0.000   73.455    0.000    0.000    0.000    0.000 
#
# Total GULP energy -122519.104795 kJ/mol
# GULP energy per Si atom -5569.050218 kJ/mol
# Density = 2.141579 g / cm^3
# Si number density = 21.464639 Si / 1000 Ang^3
#
#
#
# Elastic Constant Matrix: (Units=GPa)
#
#
# Indices 1 2 3 4 5 6 
#
# 1 39.9137 9.7725 4.0879 0.0000 2.3292 0.0000
# 2 9.7725 228.7143 48.4649 0.0000 19.8536 0.0000
# 3 4.0879 48.4649 109.2712 0.0000 6.5841 0.0000
# 4 0.0000 0.0000 0.0000 17.1881 0.0000 -3.4345
# 5 2.3292 19.8536 6.5841 0.0000 13.3438 0.0000
# 6 0.0000 0.0000 0.0000 -3.4345 0.0000 16.8314
#
#
#
# Elastic Compliance Matrix: (Units=1/GPa)
#
#
# Indices 1 2 3 4 5 6 
#
# 1 0.025460 -0.000720 -0.000443 0.000000 -0.003154 0.000000
# 2 -0.000720 0.005424 -0.001958 0.000000 -0.006978 0.000000
# 3 -0.000443 -0.001958 0.010158 0.000000 -0.002022 0.000000
# 4 0.000000 0.000000 0.000000 0.060653 0.000000 0.012377
# 5 -0.003154 -0.006978 -0.002022 0.000000 0.086871 0.000000
# 6 0.000000 0.000000 0.000000 0.012377 0.000000 0.061938
#
#
# Mechanical properties :
#
#
# Convention : Reuss Voigt Hill
#
# Bulk Modulus (GPa) = 28.73630 55.83888 42.28759
# Shear Modulus (GPa) = 18.63259 30.51090 24.57174
#
# Velocity S-wave (km/s) = 2.94948 3.77430 3.38709
# Velocity P-wave (km/s) = 5.00161 6.71302 5.91949
#
# Compressibility (1/GPa) = 0.03479919
#
# Stress axis : x y z
#
# Youngs Moduli (GPa) = 39.27756 184.37650 98.44036
#
# Poissons Ratio (x) = 0.13279 0.04361
# Poissons Ratio (y) = 0.02829 0.19276
# Poissons Ratio (z) = 0.01740 0.36104
#
# Static dielectric constant tensor:
#      x y z
#    x 2.066100 0.000000 -0.077190 
#    y 0.000000 1.937050 0.000000 
#    z -0.077190 0.000000 1.779570 
# 
# From -- ./inp_files/123192.got.cif
#   From: 2010.05.17/outbox.cif.g08.bks.cpg/sg12_62_cif.got.tgz:123192.got - 2010.06.03 13:09:07.
