data_PCOD9173859
_publ_section_title
;
Structure prediction by ZEFSAII (Michael W. Deem and Ramdas Pophale) SiO2 
 PCOD9173859
Probable space group: C 2/M
;
_chemical_formula_sum "Si O2"
_cell_formula_units_Z 48
_cell_length_a 26.809476
_cell_length_b 7.447552
_cell_length_c 11.867430
_cell_angle_alpha 90.000000
_cell_angle_beta 90.000000
_cell_angle_gamma 90.000000
_cell_volume 2369.510015
_symmetry_space_group_name_H-M "C 2/M"
_symmetry_group_IT_number 12
_symmetry_cell_setting 'monoclinic'
loop_
_space_group_symop_operation_xyz
x,y,z
-x,y,-z
-x,-y,-z
x,-y,z
1/2+x,1/2+y,z
1/2-x,1/2+y,-z
1/2-x,1/2-y,-z
1/2+x,1/2-y,z
loop_
_atom_site_type_symbol
_atom_site_label
_atom_site_fract_x
_atom_site_fract_y
_atom_site_fract_z
Si Si1 0.307557 0.715272 0.129215
Si Si2 0.597745 0.297131 0.758418
Si Si3 0.000000 0.781268 0.368185
Si Si4 0.307557 0.715272 0.870785
Si Si5 0.097746 0.202869 0.241582
Si Si6 0.440804 0.210963 0.000000
O O1 0.314307 0.500000 0.125571
O O2 0.347395 0.785163 0.220810
O O3 0.250000 0.750000 0.156934
O O4 0.315999 0.781950 1.000000
O O5 0.604345 0.500000 0.713807
O O6 0.551460 0.215438 0.689268
O O7 0.578741 0.299755 0.887013
O O8 0.051460 0.715438 0.310732
O O9 0.000000 0.741286 0.500000
O O10 0.000000 0.000000 0.353292
O O11 0.314307 0.500000 0.874429
O O12 0.347395 0.785163 0.779190
O O13 0.078741 0.200245 0.112987
O O14 0.104345 0.000000 0.286193
O O15 0.427390 0.000000 0.000000
O O16 0.500000 0.223969 0.000000
#
# Coordination Sequence:
#
# PCOD9173859 Si02
#       6
#     8   8   8   8   8   8
#     4   9  17  28  43  67  96 127 159 187 228 284
#     4  10  18  31  51  70  96 129 160 194 238 287
#     4   9  18  31  51  76  94 117 160 209 246 275
#     4   9  17  28  43  67  96 127 159 187 228 284
#     4  10  18  31  51  70  96 129 160 194 238 287
#     4  11  21  29  42  71 104 127 156 190 235 294
#
# _framework density 20.257352999999998
#
# number of rings (size 3 to 8) (size 9 to 14) (size 15 to 20)
#    0.000    2.333    3.333    0.500    0.000    2.000 
#    0.000    0.000    0.000    3.000    0.000    0.000 
#    0.000    0.000    0.000    0.000    0.000    0.000 
#
# Total GULP energy -133748.333127 kJ/mol
# GULP energy per Si atom -5572.847214 kJ/mol
# Density = 2.021125 g / cm^3
# Si number density = 20.257353 Si / 1000 Ang^3
#
#
#
# Elastic Constant Matrix: (Units=GPa)
#
#
# Indices 1 2 3 4 5 6 
#
# 1 211.8158 9.4469 68.4930 0.0000 10.9702 0.0000
# 2 9.4469 66.6350 -8.9685 0.0000 1.6269 0.0000
# 3 68.4930 -8.9685 82.1827 0.0000 0.4821 0.0000
# 4 0.0000 0.0000 0.0000 -11.8871 0.0000 2.6873
# 5 10.9702 1.6269 0.4821 0.0000 10.5002 0.0000
# 6 0.0000 0.0000 0.0000 2.6873 0.0000 18.5310
#
#
#
# Elastic Compliance Matrix: (Units=1/GPa)
#
#
# Indices 1 2 3 4 5 6 
#
# 1 0.007115 -0.001657 -0.006070 0.000000 -0.006898 0.000000
# 2 -0.001657 0.015679 0.003097 0.000000 -0.000840 0.000000
# 3 -0.006070 0.003097 0.017536 0.000000 0.005057 0.000000
# 4 0.000000 0.000000 0.000000 -0.081455 0.000000 0.011812
# 5 -0.006898 -0.000840 0.005057 0.000000 0.102341 0.000000
# 6 0.000000 0.000000 0.000000 0.011812 0.000000 0.052251
#
#
# Mechanical properties :
#
#
# Convention : Reuss Voigt Hill
#
# Bulk Modulus (GPa) = 32.18609 55.39738 43.79173
# Shear Modulus (GPa) = 37.57010 22.87296 30.22153
#
# Velocity S-wave (km/s) = 4.31123 3.36388 3.86668
# Velocity P-wave (km/s) = 6.38007 6.51872 6.44977
#
# Compressibility (1/GPa) = 0.03106932
#
# Stress axis : x y z
#
# Youngs Moduli (GPa) = 140.54459 63.77772 57.02714
#
# Poissons Ratio (x) = 0.10570 0.34617
# Poissons Ratio (y) = 0.23293 -0.17663
# Poissons Ratio (z) = 0.85315 -0.19754
#
# Static dielectric constant tensor:
#      x y z
#    x 1.811700 0.000000 0.013060 
#    y 0.000000 1.812140 0.000000 
#    z 0.013060 0.000000 1.663820 
# 
# From -- ./inp_files/164164.got.cif
#   From: 2010.05.17/outbox.cif.g08.bks.cpg/sg12_83_cif.got.tgz:164164.got - 2010.06.03 13:09:07.
