data_PCOD9173181
_publ_section_title
;
Structure prediction by ZEFSAII (Michael W. Deem and Ramdas Pophale) SiO2 
 PCOD9173181
Probable space group: C 2/M
;
_chemical_formula_sum "Si O2"
_cell_formula_units_Z 56
_cell_length_a 21.034386
_cell_length_b 8.624810
_cell_length_c 20.352835
_cell_angle_alpha 90.000000
_cell_angle_beta 59.025819
_cell_angle_gamma 90.000000
_cell_volume 3165.828716
_symmetry_space_group_name_H-M "C 2/M"
_symmetry_group_IT_number 12
_symmetry_cell_setting 'monoclinic'
loop_
_space_group_symop_operation_xyz
x,y,z
-x,y,-z
-x,-y,-z
x,-y,z
1/2+x,1/2+y,z
1/2-x,1/2+y,-z
1/2-x,1/2-y,-z
1/2+x,1/2-y,z
loop_
_atom_site_type_symbol
_atom_site_label
_atom_site_fract_x
_atom_site_fract_y
_atom_site_fract_z
Si Si1 0.321406 0.813332 0.500522
Si Si2 0.466079 0.313031 0.821344
Si Si3 0.406665 0.813921 0.332537
Si Si4 0.794739 0.812287 0.913607
Si Si5 0.785228 0.314982 0.178025
Si Si6 0.237389 0.186088 0.668520
Si Si7 0.549667 0.686678 0.910695
O O1 0.250000 0.750000 0.500000
O O2 0.389230 0.765851 0.417386
O O3 0.305267 0.766147 0.584138
O O4 0.320142 0.000000 0.500526
O O5 0.466988 0.500000 0.817010
O O6 0.516083 0.247383 0.736227
O O7 0.380699 0.262553 0.868189
O O8 0.506731 0.267891 0.867404
O O9 0.339092 0.750006 0.323111
O O10 0.405001 0.000000 0.329312
O O11 0.756715 0.762576 0.865561
O O12 0.793174 0.000000 0.917239
O O13 0.750000 0.750000 0.000000
O O14 0.780036 0.500000 0.184438
O O15 0.754486 0.245515 0.262110
O O16 0.870706 0.264896 0.128097
O O17 0.231728 0.000000 0.672004
O O18 0.560004 0.500000 0.903978
O O19 0.500000 0.725474 0.000000
#
# Coordination Sequence:
#
# PCOD9173181 Si02
#       7
#     8   8   8   8   8   8   8
#     4   8  16  28  45  72 106 139 171 210 256 310
#     4  10  20  35  54  76 105 140 178 215 260 319
#     4  10  18  30  50  79 110 137 171 218 267 309
#     4  10  23  41  58  77 104 141 181 221 264 316
#     4  11  22  35  53  79 109 137 173 223 268 307
#     4  10  18  31  51  76 107 143 178 211 257 317
#     4  10  20  34  54  77 101 134 173 214 264 319
#
# _framework density 17.688891000000002
#
# number of rings (size 3 to 8) (size 9 to 14) (size 15 to 20)
#    0.000    2.143    1.429    2.143    0.000    4.286 
#    0.000    0.000    0.000    0.857    0.000    6.000 
#    0.000    0.000    0.000    0.000    0.000    0.000 
#
# Total GULP energy -156152.733175 kJ/mol
# GULP energy per Si atom -5576.883328 kJ/mol
# Density = 1.764863 g / cm^3
# Si number density = 17.688891 Si / 1000 Ang^3
#
#
#
# Elastic Constant Matrix: (Units=GPa)
#
#
# Indices 1 2 3 4 5 6 
#
# 1 103.5204 24.6529 69.5889 -0.0002 -7.0046 0.0000
# 2 24.6529 17.7521 33.8875 0.0005 -1.2544 0.0007
# 3 69.5889 33.8875 192.4982 0.0002 -9.0152 -0.0001
# 4 -0.0002 0.0005 0.0002 -83.8728 -0.0002 -0.1812
# 5 -7.0046 -1.2544 -9.0152 -0.0002 24.3787 -0.0001
# 6 0.0000 0.0007 -0.0001 -0.1812 -0.0001 19.4185
#
#
#
# Elastic Compliance Matrix: (Units=1/GPa)
#
#
# Indices 1 2 3 4 5 6 
#
# 1 0.015477 -0.016360 -0.002591 0.000000 0.002647 0.000001
# 2 -0.016360 0.102170 -0.012258 0.000001 -0.003977 -0.000004
# 3 -0.002591 -0.012258 0.008370 0.000000 0.001720 0.000000
# 4 0.000000 0.000001 0.000000 -0.011923 0.000000 -0.000111
# 5 0.002647 -0.003977 0.001720 0.000000 0.042211 0.000000
# 6 0.000001 -0.000004 0.000000 -0.000111 0.000000 0.051496
#
#
# Mechanical properties :
#
#
# Convention : Reuss Voigt Hill
#
# Bulk Modulus (GPa) = 15.72364 63.33659 39.53012
# Shear Modulus (GPa) = 17.15738 4.36096 10.75917
#
# Velocity S-wave (km/s) = 3.11778 1.57185 2.46894
# Velocity P-wave (km/s) = 4.67644 6.25922 5.52481
#
# Compressibility (1/GPa) = 0.06359850
#
# Stress axis : x y z
#
# Youngs Moduli (GPa) = 64.61285 9.78760 119.47509
#
# Poissons Ratio (x) = 0.16013 0.30955
# Poissons Ratio (y) = 1.05708 1.46453
# Poissons Ratio (z) = 0.16741 0.11998
#
# Static dielectric constant tensor:
#      x y z
#    x 1.570370 0.000000 0.005550 
#    y 0.000000 1.592460 0.000000 
#    z 0.005550 0.000000 1.637380 
# 
# From -- ./inp_files/314377.got.cif
#   From: 2010.05.17/outbox.cif.g08.bks.cpg/sg12_158_cif.got.tgz:314377.got - 2010.06.03 13:09:07.
