data_PCOD9173309
_publ_section_title
;
Structure prediction by ZEFSAII (Michael W. Deem and Ramdas Pophale) SiO2 
 PCOD9173309
Probable space group: C 2/M
;
_chemical_formula_sum "Si O2"
_cell_formula_units_Z 56
_cell_length_a 29.816712
_cell_length_b 7.834648
_cell_length_c 14.905317
_cell_angle_alpha 90.000000
_cell_angle_beta 119.437516
_cell_angle_gamma 90.000000
_cell_volume 3032.388584
_symmetry_space_group_name_H-M "C 2/M"
_symmetry_group_IT_number 12
_symmetry_cell_setting 'monoclinic'
loop_
_space_group_symop_operation_xyz
x,y,z
-x,y,-z
-x,-y,-z
x,-y,z
1/2+x,1/2+y,z
1/2-x,1/2+y,-z
1/2-x,1/2-y,-z
1/2+x,1/2-y,z
loop_
_atom_site_type_symbol
_atom_site_label
_atom_site_fract_x
_atom_site_fract_y
_atom_site_fract_z
Si Si1 0.881512 0.793751 0.060807
Si Si2 0.306761 0.700265 0.518542
Si Si3 0.702741 0.799183 0.887131
Si Si4 0.781935 0.706778 0.299718
Si Si5 0.007614 0.208967 0.902701
Si Si6 0.899613 0.791748 0.732304
Si Si7 0.832587 0.207139 0.831881
O O1 0.852010 0.739326 0.120948
O O2 0.938769 0.735986 0.090058
O O3 0.882385 0.000000 0.061753
O O4 0.844981 0.734089 0.943472
O O5 0.308702 0.500000 0.536738
O O6 0.250000 0.750000 0.500000
O O7 0.311353 0.734874 0.417161
O O8 0.356736 0.772723 0.620000
O O9 0.704474 0.729423 0.786911
O O10 0.708739 0.000000 0.882972
O O11 0.750000 0.750000 0.000000
O O12 0.783997 0.500000 0.302068
O O13 0.722826 0.762514 0.255954
O O14 0.958851 0.263643 0.794461
O O15 0.008612 0.000000 0.906081
O O16 0.000000 0.261056 0.000000
O O17 0.876756 0.744836 0.806851
O O18 0.900921 0.000000 0.727703
O O19 0.831627 0.000000 0.833219
#
# Coordination Sequence:
#
# PCOD9173309 Si02
#       7
#     8   8   8   8   8   8   8
#     4  10  18  30  51  79 106 133 169 209 253 308
#     4  11  21  32  50  75 105 137 170 210 256 305
#     4  11  22  35  53  75 103 138 171 211 261 310
#     4  10  20  35  51  70 100 136 173 210 251 301
#     4   9  15  25  48  78 103 132 170 206 247 305
#     4   9  16  27  45  73 105 132 162 205 250 293
#     4   9  14  25  46  72 103 131 158 200 248 296
#
# _framework density 18.467289999999998
#
# number of rings (size 3 to 8) (size 9 to 14) (size 15 to 20)
#    0.000    2.143    4.286    0.857    0.000    1.143 
#    0.000    0.000    0.000    3.000    0.000    6.000 
#    0.000    0.000    0.000    0.000    0.000    0.000 
#
# Total GULP energy -156010.678228 kJ/mol
# GULP energy per Si atom -5571.809937 kJ/mol
# Density = 1.842526 g / cm^3
# Si number density = 18.467290 Si / 1000 Ang^3
#
#
#
# Elastic Constant Matrix: (Units=GPa)
#
#
# Indices 1 2 3 4 5 6 
#
# 1 91.0791 -0.0985 41.3104 0.0000 3.3342 0.0000
# 2 -0.0985 21.0699 2.0227 0.0000 3.3468 0.0000
# 3 41.3104 2.0227 106.3714 0.0000 6.5634 0.0000
# 4 0.0000 0.0000 0.0000 15.8660 0.0000 -4.0240
# 5 3.3342 3.3468 6.5634 0.0000 27.3955 0.0000
# 6 0.0000 0.0000 0.0000 -4.0240 0.0000 16.6920
#
#
#
# Elastic Compliance Matrix: (Units=1/GPa)
#
#
# Indices 1 2 3 4 5 6 
#
# 1 0.013339 0.000632 -0.005164 0.000000 -0.000463 0.000000
# 2 0.000632 0.048464 -0.000809 0.000000 -0.005804 0.000000
# 3 -0.005164 -0.000809 0.011548 0.000000 -0.002039 0.000000
# 4 0.000000 0.000000 0.000000 0.067133 0.000000 0.016184
# 5 -0.000463 -0.005804 -0.002039 0.000000 0.037756 0.000000
# 6 0.000000 0.000000 0.000000 0.016184 0.000000 0.063811
#
#
# Mechanical properties :
#
#
# Convention : Reuss Voigt Hill
#
# Bulk Modulus (GPa) = 15.95693 33.88774 24.92234
# Shear Modulus (GPa) = 18.27343 23.67641 20.97492
#
# Velocity S-wave (km/s) = 3.14905 3.58449 3.37380
# Velocity P-wave (km/s) = 4.67776 5.95998 5.35737
#
# Compressibility (1/GPa) = 0.06266868
#
# Stress axis : x y z
#
# Youngs Moduli (GPa) = 74.96663 20.63404 86.59752
#
# Poissons Ratio (x) = -0.01304 0.44718
# Poissons Ratio (y) = -0.04736 0.07004
# Poissons Ratio (z) = 0.38712 0.01669
#
# Static dielectric constant tensor:
#      x y z
#    x 1.636000 0.000000 0.006460 
#    y 0.000000 1.686610 0.000000 
#    z 0.006460 0.000000 1.656660 
# 
# From -- ./inp_files/243268.got.cif
#   From: 2010.05.17/outbox.cif.g08.bks.cpg/sg12_122_cif.got.tgz:243268.got - 2010.06.03 13:09:07.
