data_PCOD9173391
_publ_section_title
;
Structure prediction by ZEFSAII (Michael W. Deem and Ramdas Pophale) SiO2 
 PCOD9173391
Probable space group: C 2/M
;
_chemical_formula_sum "Si O2"
_cell_formula_units_Z 64
_cell_length_a 22.585309
_cell_length_b 9.253634
_cell_length_c 17.168528
_cell_angle_alpha 90.000000
_cell_angle_beta 85.591504
_cell_angle_gamma 90.000000
_cell_volume 3577.540778
_symmetry_space_group_name_H-M "C 2/M"
_symmetry_group_IT_number 12
_symmetry_cell_setting 'monoclinic'
loop_
_space_group_symop_operation_xyz
x,y,z
-x,y,-z
-x,-y,-z
x,-y,z
1/2+x,1/2+y,z
1/2-x,1/2+y,-z
1/2-x,1/2-y,-z
1/2+x,1/2-y,z
loop_
_atom_site_type_symbol
_atom_site_label
_atom_site_fract_x
_atom_site_fract_y
_atom_site_fract_z
Si Si1 0.346153 0.828417 0.031925
Si Si2 0.045413 0.670124 0.860838
Si Si3 0.881386 0.832564 0.270266
Si Si4 0.910458 0.672601 0.870517
Si Si5 0.186633 0.171411 0.420296
Si Si6 0.658079 0.672910 0.248174
Si Si7 0.770259 0.831944 0.161733
Si Si8 0.827631 0.671345 0.420370
O O1 0.406678 0.805927 0.075844
O O2 0.295534 0.737334 0.079868
O O3 0.332373 0.000000 0.036275
O O4 0.363319 0.787554 0.942455
O O5 0.048947 0.500000 0.840826
O O6 0.065950 0.761912 0.784687
O O7 0.977782 0.701620 0.890668
O O8 0.823926 0.824288 0.219003
O O9 0.866069 0.746765 0.349912
O O10 0.892711 0.000000 0.286016
O O11 0.905310 0.500000 0.858744
O O12 0.895912 0.758536 0.793965
O O13 0.158905 0.208798 0.339714
O O14 0.162410 0.260772 0.495607
O O15 0.257734 0.197862 0.408390
O O16 0.178842 0.000000 0.435341
O O17 0.659798 0.500000 0.240704
O O18 0.716330 0.742425 0.202958
O O19 0.754115 0.000000 0.152212
O O20 0.837094 0.500000 0.419774
#
# Coordination Sequence:
#
# PCOD9173391 Si02
#       8
#     8   8   8   8   8   8   8   8
#     4   9  18  34  56  78 102 132 170 218 266 308
#     4   9  18  34  56  78 102 133 173 218 261 305
#     4  10  19  31  51  79 109 136 167 212 261 305
#     4  10  21  36  54  77 102 135 177 217 258 307
#     4   9  19  33  49  74 106 137 170 207 250 304
#     4  11  22  36  53  73 105 144 175 208 253 310
#     4  10  20  33  51  76 105 137 173 213 258 305
#     4  10  18  30  52  79 106 135 169 207 253 305
#
# _framework density 17.889382999999999
#
# number of rings (size 3 to 8) (size 9 to 14) (size 15 to 20)
#    0.000    2.250    1.250    1.875    0.000    5.500 
#    0.000    0.000    0.000    4.500    0.000    5.250 
#    0.000    0.000    0.000    0.000    0.000    0.000 
#
# Total GULP energy -178628.959312 kJ/mol
# GULP energy per Si atom -5582.154979 kJ/mol
# Density = 1.784867 g / cm^3
# Si number density = 17.889383 Si / 1000 Ang^3
#
#
#
# Elastic Constant Matrix: (Units=GPa)
#
#
# Indices 1 2 3 4 5 6 
#
# 1 15.7583 6.3795 2.8265 0.0000 -2.3121 0.0000
# 2 6.3795 48.4953 50.2918 0.0000 -5.7359 0.0000
# 3 2.8265 50.2918 115.2151 0.0000 -7.4994 0.0000
# 4 0.0000 0.0000 0.0000 31.0660 0.0000 -2.2688
# 5 -2.3121 -5.7359 -7.4994 0.0000 22.8709 0.0000
# 6 0.0000 0.0000 0.0000 -2.2688 0.0000 22.7138
#
#
#
# Elastic Compliance Matrix: (Units=1/GPa)
#
#
# Indices 1 2 3 4 5 6 
#
# 1 0.068642 -0.012833 0.004251 0.000000 0.005114 0.000000
# 2 -0.012833 0.040463 -0.017137 0.000000 0.003231 0.000000
# 3 0.004251 -0.017137 0.016148 0.000000 0.001427 0.000000
# 4 0.000000 0.000000 0.000000 0.032426 0.000000 0.003239
# 5 0.005114 0.003231 0.001427 0.000000 0.045519 0.000000
# 6 0.000000 0.000000 0.000000 0.003239 0.000000 0.044350
#
#
# Mechanical properties :
#
#
# Convention : Reuss Voigt Hill
#
# Bulk Modulus (GPa) = 13.54748 33.16269 23.35509
# Shear Modulus (GPa) = 15.45161 23.32820 19.38991
#
# Velocity S-wave (km/s) = 2.94212 3.61505 3.29580
# Velocity P-wave (km/s) = 4.37387 6.00022 5.25040
#
# Compressibility (1/GPa) = 0.07381446
#
# Stress axis : x y z
#
# Youngs Moduli (GPa) = 14.56837 24.71415 61.92579
#
# Poissons Ratio (x) = 0.31715 -0.26322
# Poissons Ratio (y) = 0.18695 1.06122
# Poissons Ratio (z) = -0.06192 0.42353
#
# Static dielectric constant tensor:
#      x y z
#    x 1.610890 0.000000 0.021130 
#    y 0.000000 1.591920 0.000000 
#    z 0.021130 0.000000 1.599650 
# 
# From -- ./inp_files/238766.got.cif
#   From: 2010.05.17/outbox.cif.g08.bks.cpg/sg12_120_cif.got.tgz:238766.got - 2010.06.03 13:09:07.
