data_PCOD9173714
_publ_section_title
;
Structure prediction by ZEFSAII (Michael W. Deem and Ramdas Pophale) SiO2 
 PCOD9173714
Probable space group: C 2/M
;
_chemical_formula_sum "Si O2"
_cell_formula_units_Z 64
_cell_length_a 7.564269
_cell_length_b 26.520987
_cell_length_c 20.267422
_cell_angle_alpha 90.000000
_cell_angle_beta 113.137890
_cell_angle_gamma 90.000000
_cell_volume 3738.833274
_symmetry_space_group_name_H-M "C 2/M"
_symmetry_group_IT_number 12
_symmetry_cell_setting 'monoclinic'
loop_
_space_group_symop_operation_xyz
x,y,z
-x,y,-z
-x,-y,-z
x,-y,z
1/2+x,1/2+y,z
1/2-x,1/2+y,-z
1/2-x,1/2-y,-z
1/2+x,1/2-y,z
loop_
_atom_site_type_symbol
_atom_site_label
_atom_site_fract_x
_atom_site_fract_y
_atom_site_fract_z
Si Si1 0.891977 0.304938 0.140255
Si Si2 0.690934 0.559635 0.221854
Si Si3 0.454159 0.133529 0.717316
Si Si4 0.386374 0.692714 0.582895
Si Si5 0.696266 0.190113 0.422866
Si Si6 0.960644 0.869694 0.279176
Si Si7 0.789397 0.812169 0.130279
Si Si8 0.533211 0.379443 0.077718
O O1 0.840618 0.246260 0.128050
O O2 0.707520 0.339259 0.100133
O O3 0.967143 0.321363 0.224062
O O4 0.066688 0.316562 0.116531
O O5 0.709180 0.500000 0.227022
O O6 0.561054 0.581939 0.262012
O O7 0.590921 0.578624 0.139561
O O8 0.895481 0.588217 0.255290
O O9 0.433862 0.153750 0.639987
O O10 0.243106 0.119789 0.714815
O O11 0.366403 0.751942 0.594960
O O12 0.224544 0.679944 0.504719
O O13 0.592399 0.686220 0.578130
O O14 0.399029 0.658776 0.649450
O O15 0.910994 0.832625 0.210866
O O16 0.854077 0.847277 0.079521
O O17 0.500000 0.399860 0.000000
#
# Coordination Sequence:
#
# PCOD9173714 Si02
#       8
#     8   8   8   8   8   8   8   8
#     4  10  18  31  49  74 105 140 173 198 238 298
#     4  10  22  39  59  78  92 123 177 223 264 306
#     4   9  19  33  52  75 103 135 170 216 255 296
#     4   9  17  28  45  75 111 145 173 199 243 298
#     4   9  17  28  45  75 111 145 173 199 243 298
#     4   9  19  33  52  75 103 135 170 216 255 296
#     4  10  18  31  49  74 105 140 173 198 238 298
#     4  10  22  37  52  75 105 132 161 205 258 310
#
# _framework density 17.117640000000002
#
# number of rings (size 3 to 8) (size 9 to 14) (size 15 to 20)
#    0.000    2.500    1.250    0.750    1.750    1.750 
#    0.000    0.000    0.000    1.500    0.000   10.500 
#    0.000    0.000    0.000    0.000    0.000    0.000 
#
# Total GULP energy -178486.271775 kJ/mol
# GULP energy per Si atom -5577.695993 kJ/mol
# Density = 1.707868 g / cm^3
# Si number density = 17.117640 Si / 1000 Ang^3
#
#
#
# Elastic Constant Matrix: (Units=GPa)
#
#
# Indices 1 2 3 4 5 6 
#
# 1 43.6426 -6.4112 -5.7193 0.0000 -2.9602 0.0000
# 2 -6.4112 58.6996 8.2112 0.0000 -5.6081 0.0000
# 3 -5.7193 8.2112 46.9783 0.0000 -12.9532 0.0000
# 4 0.0000 0.0000 0.0000 7.7705 0.0000 -1.8355
# 5 -2.9602 -5.6081 -12.9532 0.0000 15.8373 0.0000
# 6 0.0000 0.0000 0.0000 -1.8355 0.0000 16.0234
#
#
#
# Elastic Compliance Matrix: (Units=1/GPa)
#
#
# Indices 1 2 3 4 5 6 
#
# 1 0.024701 0.002914 0.005236 0.000000 0.009932 0.000000
# 2 0.002914 0.018089 -0.001150 0.000000 0.006010 0.000000
# 3 0.005236 -0.001150 0.028771 0.000000 0.024103 0.000000
# 4 0.000000 0.000000 0.000000 0.132270 0.000000 0.015152
# 5 0.009932 0.006010 0.024103 0.000000 0.086840 0.000000
# 6 0.000000 0.000000 0.000000 0.015152 0.000000 0.064144
#
#
# Mechanical properties :
#
#
# Convention : Reuss Voigt Hill
#
# Bulk Modulus (GPa) = 11.68735 15.72020 13.70378
# Shear Modulus (GPa) = 13.53783 18.14224 15.84004
#
# Velocity S-wave (km/s) = 2.81529 3.25908 3.04528
# Velocity P-wave (km/s) = 4.17257 4.83380 4.51531
#
# Compressibility (1/GPa) = 0.08556257
#
# Stress axis : x y z
#
# Youngs Moduli (GPa) = 40.48360 55.28152 34.75767
#
# Poissons Ratio (x) = -0.16111 -0.18200
# Poissons Ratio (y) = -0.11798 0.03997
# Poissons Ratio (z) = -0.21198 0.06357
#
# Static dielectric constant tensor:
#      x y z
#    x 1.601450 0.000000 -0.004360 
#    y 0.000000 1.517180 0.000000 
#    z -0.004360 0.000000 1.610270 
# 
# From -- ./inp_files/302134.got.cif
#   From: 2010.05.17/outbox.cif.g08.bks.cpg/sg12_152_cif.got.tgz:302134.got - 2010.06.03 13:09:07.
