data_PCOD9173523
_publ_section_title
;
Structure prediction by ZEFSAII (Michael W. Deem and Ramdas Pophale) SiO2 
 PCOD9173523
Probable space group: C 2/M
;
_chemical_formula_sum "Si O2"
_cell_formula_units_Z 60
_cell_length_a 25.604638
_cell_length_b 9.270554
_cell_length_c 14.793268
_cell_angle_alpha 90.000000
_cell_angle_beta 74.594069
_cell_angle_gamma 90.000000
_cell_volume 3385.291575
_symmetry_space_group_name_H-M "C 2/M"
_symmetry_group_IT_number 12
_symmetry_cell_setting 'monoclinic'
loop_
_space_group_symop_operation_xyz
x,y,z
-x,y,-z
-x,-y,-z
x,-y,z
1/2+x,1/2+y,z
1/2-x,1/2+y,-z
1/2-x,1/2-y,-z
1/2+x,1/2-y,z
loop_
_atom_site_type_symbol
_atom_site_label
_atom_site_fract_x
_atom_site_fract_y
_atom_site_fract_z
Si Si1 0.000000 0.750891 0.500000
Si Si2 0.505477 0.334048 0.292228
Si Si3 0.123000 0.825577 0.175122
Si Si4 0.193144 0.827179 0.771352
Si Si5 0.804304 0.827591 0.687792
Si Si6 0.302246 0.673152 0.017992
Si Si7 0.120843 0.659972 0.478420
Si Si8 0.896640 0.330826 0.303090
O O1 0.994673 0.832531 0.598065
O O2 0.943045 0.668003 0.516147
O O3 0.498083 0.500000 0.266365
O O4 0.563144 0.276581 0.230102
O O5 0.456413 0.237136 0.279810
O O6 0.166288 0.784012 0.231930
O O7 0.120401 0.000000 0.179223
O O8 0.146272 0.783405 0.067108
O O9 0.247562 0.754323 0.707750
O O10 0.191334 0.794284 0.879419
O O11 0.142038 0.757813 0.744899
O O12 0.194276 0.000000 0.759341
O O13 0.845383 0.778534 0.590729
O O14 0.796435 0.000000 0.690670
O O15 0.295620 0.500000 0.012090
O O16 0.250000 0.750000 0.000000
O O17 0.140981 0.500000 0.444690
O O18 0.125191 0.680375 0.583846
O O19 0.898108 0.500000 0.278931
#
# Coordination Sequence:
#
# PCOD9173523 Si02
#       8
#     4   8   8   8   8   8   8   8
#     4  10  18  30  54  86 114 150 188 230 282 330
#     4  10  19  34  57  84 115 149 189 233 275 334
#     4   9  18  34  55  85 118 147 179 224 284 338
#     4  11  23  39  60  85 111 148 193 238 282 336
#     4  11  21  35  58  86 117 152 184 229 286 339
#     4  10  20  36  59  86 114 144 185 232 284 339
#     4  10  21  36  54  81 115 151 193 234 278 333
#     4  10  23  41  58  79 112 157 194 232 283 334
#
# _framework density 17.723731000000001
#
# number of rings (size 3 to 8) (size 9 to 14) (size 15 to 20)
#    0.000    1.867    2.667    1.600    0.000    4.267 
#    0.000    1.333    0.000    4.000    0.000    0.000 
#    0.000    0.000    0.000    0.000    0.000    0.000 
#
# Total GULP energy -167365.535109 kJ/mol
# GULP energy per Si atom -5578.851170 kJ/mol
# Density = 1.768339 g / cm^3
# Si number density = 17.723731 Si / 1000 Ang^3
#
#
#
# Elastic Constant Matrix: (Units=GPa)
#
#
# Indices 1 2 3 4 5 6 
#
# 1 130.9119 49.9147 58.4028 0.0000 2.2255 0.0000
# 2 49.9147 72.7473 35.8446 0.0000 7.8890 0.0000
# 3 58.4028 35.8446 75.5541 0.0000 -7.4087 0.0000
# 4 0.0000 0.0000 0.0000 202.8081 0.0000 -7.8579
# 5 2.2255 7.8890 -7.4087 0.0000 31.7601 0.0000
# 6 0.0000 0.0000 0.0000 -7.8579 0.0000 18.0785
#
#
#
# Elastic Compliance Matrix: (Units=1/GPa)
#
#
# Indices 1 2 3 4 5 6 
#
# 1 0.013069 -0.004889 -0.007935 0.000000 -0.001552 0.000000
# 2 -0.004889 0.021227 -0.006933 0.000000 -0.006547 0.000000
# 3 -0.007935 -0.006933 0.023418 0.000000 0.007741 0.000000
# 4 0.000000 0.000000 0.000000 0.005015 0.000000 0.002180
# 5 -0.001552 -0.006547 0.007741 0.000000 0.035027 0.000000
# 6 0.000000 0.000000 0.000000 0.002180 0.000000 0.056262
#
#
# Mechanical properties :
#
#
# Convention : Reuss Voigt Hill
#
# Bulk Modulus (GPa) = 54.94863 63.05973 59.00418
# Shear Modulus (GPa) = 25.05010 59.53276 42.29143
#
# Velocity S-wave (km/s) = 3.76355 5.80191 4.89012
# Velocity P-wave (km/s) = 7.06795 8.97438 8.07760
#
# Compressibility (1/GPa) = 0.01819882
#
# Stress axis : x y z
#
# Youngs Moduli (GPa) = 76.51481 47.10952 42.70247
#
# Poissons Ratio (x) = 0.23032 0.33885
# Poissons Ratio (y) = 0.37409 0.29607
# Poissons Ratio (z) = 0.60716 0.32663
#
# Static dielectric constant tensor:
#      x y z
#    x 1.580530 0.000000 -0.010100 
#    y 0.000000 1.602260 0.000000 
#    z -0.010100 0.000000 1.606400 
# 
# From -- ./inp_files/238545.got.cif
#   From: 2010.05.17/outbox.cif.g08.bks.cpg/sg12_120_cif.got.tgz:238545.got - 2010.06.03 13:09:07.
