data_PCOD9173336
_publ_section_title
;
Structure prediction by ZEFSAII (Michael W. Deem and Ramdas Pophale) SiO2 
 PCOD9173336
Probable space group: C 2/M
;
_chemical_formula_sum "Si O2"
_cell_formula_units_Z 56
_cell_length_a 21.047483
_cell_length_b 18.440320
_cell_length_c 12.879851
_cell_angle_alpha 90.000000
_cell_angle_beta 39.253061
_cell_angle_gamma 90.000000
_cell_volume 3163.073967
_symmetry_space_group_name_H-M "C 2/M"
_symmetry_group_IT_number 12
_symmetry_cell_setting 'monoclinic'
loop_
_space_group_symop_operation_xyz
x,y,z
-x,y,-z
-x,-y,-z
x,-y,z
1/2+x,1/2+y,z
1/2-x,1/2+y,-z
1/2-x,1/2-y,-z
1/2+x,1/2-y,z
loop_
_atom_site_type_symbol
_atom_site_label
_atom_site_fract_x
_atom_site_fract_y
_atom_site_fract_z
Si Si1 0.084337 0.079473 0.116389
Si Si2 0.657031 0.207214 0.171290
Si Si3 0.241760 0.416315 0.939213
Si Si4 0.106646 0.235083 0.804042
Si Si5 0.285860 0.703353 0.709702
Si Si6 0.877987 0.078653 0.158199
Si Si7 0.960137 0.782710 0.328526
O O1 0.154540 0.082302 0.127448
O O2 0.009875 0.145903 0.215681
O O3 0.035097 0.000000 0.174500
O O4 0.149256 0.086172 0.929112
O O5 0.678993 0.228574 0.262418
O O6 0.551162 0.239940 0.268036
O O7 0.750000 0.250000 0.000000
O O8 0.667283 0.126464 0.112100
O O9 0.213846 0.500000 0.952240
O O10 0.261440 0.365234 0.814690
O O11 0.186892 0.279043 0.769066
O O12 0.148166 0.152138 0.750852
O O13 0.088139 0.258568 0.708870
O O14 0.000000 0.236049 0.000000
O O15 0.377573 0.692684 0.515193
O O16 0.842533 0.000000 0.241518
O O17 0.000000 0.076129 0.000000
#
# Coordination Sequence:
#
# PCOD9173336 Si02
#       7
#     8   8   8   8   8   8   8
#     4  10  18  30  51  82 112 141 174 223 283 338
#     4  10  19  36  59  77 107 146 190 222 272 332
#     4  10  21  37  59  82 110 145 191 234 274 331
#     4  11  20  34  56  78 110 148 194 230 271 328
#     4  11  23  35  54  83 116 145 184 231 292 330
#     4   9  16  27  47  76 104 133 173 218 269 322
#     4  12  21  34  53  84 116 150 180 234 285 335
#
# _framework density 17.704295999999999
#
# number of rings (size 3 to 8) (size 9 to 14) (size 15 to 20)
#    0.000    1.571    5.714    3.429    0.000    0.571 
#    0.000    1.429    0.000    6.429    0.000    0.000 
#    0.000    0.000    0.000    0.000    0.000    0.000 
#
# Total GULP energy -155968.039079 kJ/mol
# GULP energy per Si atom -5570.287110 kJ/mol
# Density = 1.766400 g / cm^3
# Si number density = 17.704296 Si / 1000 Ang^3
#
#
#
# Elastic Constant Matrix: (Units=GPa)
#
#
# Indices 1 2 3 4 5 6 
#
# 1 111.9264 29.7506 7.9835 0.0000 -4.7182 0.0000
# 2 29.7506 89.9253 14.2611 0.0000 -9.6370 0.0000
# 3 7.9835 14.2611 28.6689 0.0000 -6.6654 0.0000
# 4 0.0000 0.0000 0.0000 11.0101 0.0000 8.1668
# 5 -4.7182 -9.6370 -6.6654 0.0000 14.7437 0.0000
# 6 0.0000 0.0000 0.0000 8.1668 0.0000 17.7765
#
#
#
# Elastic Compliance Matrix: (Units=1/GPa)
#
#
# Indices 1 2 3 4 5 6 
#
# 1 0.009841 -0.003010 -0.001082 0.000000 0.000693 0.000000
# 2 -0.003010 0.013451 -0.004507 0.000000 0.005792 0.000000
# 3 -0.001082 -0.004507 0.040964 0.000000 0.015228 0.000000
# 4 0.000000 0.000000 0.000000 0.137776 0.000000 -0.063296
# 5 0.000693 0.005792 0.015228 0.000000 0.078717 0.000000
# 6 0.000000 0.000000 0.000000 -0.063296 0.000000 0.085333
#
#
# Mechanical properties :
#
#
# Convention : Reuss Voigt Hill
#
# Bulk Modulus (GPa) = 21.24966 37.16791 29.20878
# Shear Modulus (GPa) = 12.53238 20.60777 16.57008
#
# Velocity S-wave (km/s) = 2.66347 3.41544 3.06262
# Velocity P-wave (km/s) = 4.63545 6.04921 5.38889
#
# Compressibility (1/GPa) = 0.04705959
#
# Stress axis : x y z
#
# Youngs Moduli (GPa) = 101.61705 74.34116 24.41142
#
# Poissons Ratio (x) = 0.22376 0.02642
# Poissons Ratio (y) = 0.30586 0.11001
# Poissons Ratio (z) = 0.10996 0.33502
#
# Static dielectric constant tensor:
#      x y z
#    x 1.664430 0.000000 0.034980 
#    y 0.000000 1.646480 0.000000 
#    z 0.034980 0.000000 1.604510 
# 
# From -- ./inp_files/158211.got.cif
#   From: 2010.05.17/outbox.cif.g08.bks.cpg/sg12_80_cif.got.tgz:158211.got - 2010.06.03 13:09:07.
