data_PCOD9173241
_publ_section_title
;
Structure prediction by ZEFSAII (Michael W. Deem and Ramdas Pophale) SiO2 
 PCOD9173241
Probable space group: C 2/M
;
_chemical_formula_sum "Si O2"
_cell_formula_units_Z 56
_cell_length_a 12.715935
_cell_length_b 30.385290
_cell_length_c 8.354570
_cell_angle_alpha 90.000000
_cell_angle_beta 76.553413
_cell_angle_gamma 90.000000
_cell_volume 3139.527579
_symmetry_space_group_name_H-M "C 2/M"
_symmetry_group_IT_number 12
_symmetry_cell_setting 'monoclinic'
loop_
_space_group_symop_operation_xyz
x,y,z
-x,y,-z
-x,-y,-z
x,-y,z
1/2+x,1/2+y,z
1/2-x,1/2+y,-z
1/2-x,1/2-y,-z
1/2+x,1/2-y,z
loop_
_atom_site_type_symbol
_atom_site_label
_atom_site_fract_x
_atom_site_fract_y
_atom_site_fract_z
Si Si1 0.410583 0.644449 0.137165
Si Si2 0.074369 0.307873 0.216436
Si Si3 0.890084 0.618589 0.246867
Si Si4 0.251374 0.173922 0.082382
Si Si5 0.454408 0.709218 0.689201
Si Si6 0.705173 0.878438 0.366281
Si Si7 0.951570 0.549994 0.698853
O O1 0.475086 0.682873 0.205335
O O2 0.332899 0.621090 0.291459
O O3 0.500000 0.618868 0.000000
O O4 0.326355 0.662429 0.036831
O O5 0.034021 0.261263 0.291391
O O6 0.148354 0.333784 0.319976
O O7 0.976477 0.341351 0.217977
O O8 0.149147 0.299929 0.033161
O O9 0.805931 0.630517 0.138629
O O10 0.827889 0.617894 0.437830
O O11 0.961048 0.574315 0.219409
O O12 0.172471 0.197261 0.237720
O O13 0.500000 0.696649 0.500000
O O14 0.650453 0.917761 0.283999
O O15 0.928489 0.500000 0.753751
O O16 0.000000 0.549448 0.500000
#
# Coordination Sequence:
#
# PCOD9173241 Si02
#       7
#     8   8   8   8   8   8   8
#     4   9  20  35  48  66  96 132 167 204 245 284
#     4  10  20  33  47  68  99 131 162 203 251 292
#     4  10  18  30  51  75  98 128 161 196 240 296
#     4  10  21  33  47  67  98 133 164 199 249 292
#     4  11  21  34  50  69  92 126 177 217 238 274
#     4   9  17  32  51  72  98 128 164 199 241 285
#     4   8  15  29  52  81 106 124 150 194 244 293
#
# _framework density 17.83708
#
# number of rings (size 3 to 8) (size 9 to 14) (size 15 to 20)
#    0.000    2.429    0.000    3.857    0.000    5.714 
#    0.000    5.000    0.000   15.857    0.000    3.000 
#    0.000   19.429    0.000    0.000    0.000    0.000 
#
# Total GULP energy -155996.198767 kJ/mol
# GULP energy per Si atom -5571.292813 kJ/mol
# Density = 1.779648 g / cm^3
# Si number density = 17.837080 Si / 1000 Ang^3
#
#
#
# Elastic Constant Matrix: (Units=GPa)
#
#
# Indices 1 2 3 4 5 6 
#
# 1 78.3056 33.9442 34.6811 0.0000 -9.3045 0.0000
# 2 33.9442 81.5540 8.4910 0.0000 1.2888 0.0000
# 3 34.6811 8.4910 86.3348 0.0000 -14.0937 0.0000
# 4 0.0000 0.0000 0.0000 -1.7667 0.0000 1.8320
# 5 -9.3045 1.2888 -14.0937 0.0000 39.6521 0.0000
# 6 0.0000 0.0000 0.0000 1.8320 0.0000 8.3957
#
#
#
# Elastic Compliance Matrix: (Units=1/GPa)
#
#
# Indices 1 2 3 4 5 6 
#
# 1 0.019141 -0.007320 -0.006579 0.000000 0.002391 0.000000
# 2 -0.007320 0.015217 0.001149 0.000000 -0.001804 0.000000
# 3 -0.006579 0.001149 0.014708 0.000000 0.003647 0.000000
# 4 0.000000 0.000000 0.000000 -0.461581 0.000000 0.100721
# 5 0.002391 -0.001804 0.003647 0.000000 0.027135 0.000000
# 6 0.000000 0.000000 0.000000 0.100721 0.000000 0.097131
#
#
# Mechanical properties :
#
#
# Convention : Reuss Voigt Hill
#
# Bulk Modulus (GPa) = 42.43096 44.49188 43.46142
# Shear Modulus (GPa) = -19.61602 20.52807 0.45603
#
# Velocity S-wave (km/s) = -3.31982 3.39612 0.50618
# Velocity P-wave (km/s) = 3.02403 6.35420 4.97597
#
# Compressibility (1/GPa) = 0.02356770
#
# Stress axis : x y z
#
# Youngs Moduli (GPa) = 52.24278 65.71479 67.99085
#
# Poissons Ratio (x) = 0.48102 0.44731
# Poissons Ratio (y) = 0.38241 -0.07814
# Poissons Ratio (z) = 0.34370 -0.07553
#
# Static dielectric constant tensor:
#      x y z
#    x 1.629090 0.000000 -0.020470 
#    y 0.000000 1.587790 0.000000 
#    z -0.020470 0.000000 1.689630 
# 
# From -- ./inp_files/54198.got.cif
#   From: 2010.05.17/outbox.cif.g08.bks.cpg/sg12_28_cif.got.tgz:54198.got - 2010.06.03 13:09:07.
