data_PCOD9173267
_publ_section_title
;
Structure prediction by ZEFSAII (Michael W. Deem and Ramdas Pophale) SiO2 
 PCOD9173267
Probable space group: C 2/M
;
_chemical_formula_sum "Si O2"
_cell_formula_units_Z 48
_cell_length_a 10.821555
_cell_length_b 14.894573
_cell_length_c 15.388093
_cell_angle_alpha 90.000000
_cell_angle_beta 110.586550
_cell_angle_gamma 90.000000
_cell_volume 2321.904264
_symmetry_space_group_name_H-M "C 2/M"
_symmetry_group_IT_number 12
_symmetry_cell_setting 'monoclinic'
loop_
_space_group_symop_operation_xyz
x,y,z
-x,y,-z
-x,-y,-z
x,-y,z
1/2+x,1/2+y,z
1/2-x,1/2+y,-z
1/2-x,1/2-y,-z
1/2+x,1/2-y,z
loop_
_atom_site_type_symbol
_atom_site_label
_atom_site_fract_x
_atom_site_fract_y
_atom_site_fract_z
Si Si1 0.399894 0.355526 0.296853
Si Si2 0.806444 0.891755 0.895676
Si Si3 0.603042 0.855527 0.703147
Si Si4 0.910767 0.108245 0.104324
Si Si5 0.805385 0.640624 0.610769
Si Si6 0.697439 0.360354 0.394878
O O1 0.409587 0.250000 0.319174
O O2 0.361708 0.364596 0.186681
O O3 0.292679 0.391232 0.337787
O O4 0.547791 0.392738 0.344537
O O5 0.675028 0.864596 0.813319
O O6 0.937842 0.860853 0.875684
O O7 0.810034 0.000000 0.896744
O O8 0.825519 0.861831 1.000000
O O9 0.454892 0.891232 0.662212
O O10 0.703254 0.892738 0.655463
O O11 0.913289 0.000000 0.103256
O O12 0.751426 0.615186 0.502853
O O13 0.805913 0.750674 0.611826
#
# Coordination Sequence:
#
# PCOD9173267 Si02
#       6
#     8   8   8   8   8   8
#     4  10  18  30  51  77 102 129 165 210 250 287
#     4   9  18  34  55  74  95 132 176 208 242 299
#     4  10  18  30  51  77 102 129 165 210 250 287
#     4   9  18  34  55  74  95 132 176 208 242 299
#     4   9  18  28  46  75 106 132 161 201 252 299
#     4   9  16  30  48  71 102 138 169 197 236 297
#
# _framework density 20.672685999999999
#
# number of rings (size 3 to 8) (size 9 to 14) (size 15 to 20)
#    0.000    2.667    1.667    2.000    0.000    4.667 
#    0.000    1.667    0.000    8.000    0.000    0.000 
#    0.000    0.000    0.000    0.000    0.000    0.000 
#
# Total GULP energy -133932.685327 kJ/mol
# GULP energy per Si atom -5580.528555 kJ/mol
# Density = 2.062563 g / cm^3
# Si number density = 20.672686 Si / 1000 Ang^3
#
#
#
# Elastic Constant Matrix: (Units=GPa)
#
#
# Indices 1 2 3 4 5 6 
#
# 1 183.8067 10.0836 118.2479 0.0000 0.4251 0.0000
# 2 10.0836 45.4217 -9.8766 0.0000 0.4826 0.0000
# 3 118.2479 -9.8766 167.9537 0.0000 -0.0428 0.0000
# 4 0.0000 0.0000 0.0000 50.2907 0.0000 -1.4300
# 5 0.4251 0.4826 -0.0428 0.0000 23.9833 0.0000
# 6 0.0000 0.0000 0.0000 -1.4300 0.0000 -8.8385
#
#
#
# Elastic Compliance Matrix: (Units=1/GPa)
#
#
# Indices 1 2 3 4 5 6 
#
# 1 0.010629 -0.004037 -0.007721 0.000000 -0.000121 0.000000
# 2 -0.004037 0.023839 0.004244 0.000000 -0.000401 0.000000
# 3 -0.007721 0.004244 0.011640 0.000000 0.000072 0.000000
# 4 0.000000 0.000000 0.000000 0.019793 0.000000 -0.003202
# 5 -0.000121 -0.000401 0.000072 0.000000 0.041706 0.000000
# 6 0.000000 0.000000 0.000000 -0.003202 0.000000 -0.112624
#
#
# Mechanical properties :
#
#
# Convention : Reuss Voigt Hill
#
# Bulk Modulus (GPa) = 32.17491 70.45465 51.31478
# Shear Modulus (GPa) = 245.42741 31.66894 138.54817
#
# Velocity S-wave (km/s) = 10.90772 3.91822 8.19545
# Velocity P-wave (km/s) = 13.19983 7.39087 10.69721
#
# Compressibility (1/GPa) = 0.03108012
#
# Stress axis : x y z
#
# Youngs Moduli (GPa) = 94.07786 41.94743 85.91282
#
# Poissons Ratio (x) = 0.16936 0.66335
# Poissons Ratio (y) = 0.37983 -0.36464
# Poissons Ratio (z) = 0.72639 -0.17804
#
# Static dielectric constant tensor:
#      x y z
#    x 1.733300 0.000000 0.000440 
#    y 0.000000 1.768010 0.000000 
#    z 0.000440 0.000000 1.715160 
# 
# From -- ./inp_files/80606.got.cif
#   From: 2010.05.17/outbox.cif.g08.bks.cpg/sg12_41_cif.got.tgz:80606.got - 2010.06.03 13:09:07.
