data_PCOD9173843
_publ_section_title
;
Structure prediction by ZEFSAII (Michael W. Deem and Ramdas Pophale) SiO2 
 PCOD9173843
Probable space group: C 2/M
;
_chemical_formula_sum "Si O2"
_cell_formula_units_Z 56
_cell_length_a 28.939673
_cell_length_b 8.176883
_cell_length_c 12.282675
_cell_angle_alpha 90.000000
_cell_angle_beta 69.589984
_cell_angle_gamma 90.000000
_cell_volume 2724.058272
_symmetry_space_group_name_H-M "C 2/M"
_symmetry_group_IT_number 12
_symmetry_cell_setting 'monoclinic'
loop_
_space_group_symop_operation_xyz
x,y,z
-x,y,-z
-x,-y,-z
x,-y,z
1/2+x,1/2+y,z
1/2-x,1/2+y,-z
1/2-x,1/2-y,-z
1/2+x,1/2-y,z
loop_
_atom_site_type_symbol
_atom_site_label
_atom_site_fract_x
_atom_site_fract_y
_atom_site_fract_z
Si Si1 0.743990 0.196670 0.128407
Si Si2 0.649820 0.300819 0.947472
Si Si3 0.894794 0.195689 0.233554
Si Si4 0.500092 0.193064 0.126583
Si Si5 0.848727 0.696790 0.661803
Si Si6 0.408808 0.694139 0.802403
Si Si7 0.307670 0.803579 0.461807
O O1 0.796069 0.249751 0.135304
O O2 0.696712 0.262708 0.228178
O O3 0.741245 0.000000 0.135222
O O4 0.750000 0.250000 0.000000
O O5 0.649765 0.500000 0.952227
O O6 0.612384 0.249835 0.885626
O O7 0.633167 0.239747 0.079080
O O8 0.946599 0.273489 0.223845
O O9 0.845294 0.242823 0.338272
O O10 0.899654 0.000000 0.233240
O O11 0.541202 0.266252 0.173584
O O12 0.509225 0.000000 0.112711
O O13 0.500000 0.257434 0.000000
O O14 0.847414 0.500000 0.659814
O O15 0.897485 0.741937 0.690434
O O16 0.834800 0.752185 0.551743
O O17 0.404388 0.500000 0.799688
O O18 0.250000 0.750000 0.500000
O O19 0.306906 0.000000 0.461509
#
# Coordination Sequence:
#
# PCOD9173843 Si02
#       7
#     8   8   8   8   8   8   8
#     4  10  18  31  50  78 113 151 191 234 292 358
#     4   9  18  32  53  83 120 156 192 242 304 362
#     4  11  22  40  65  91 123 162 209 260 313 370
#     4  11  23  39  61  92 129 165 207 256 310 374
#     4  10  22  39  59  84 123 165 202 255 315 367
#     4  11  21  36  60  89 122 160 203 250 306 372
#     4  11  24  44  67  92 125 167 214 260 309 367
#
# _framework density 20.557562999999998
#
# number of rings (size 3 to 8) (size 9 to 14) (size 15 to 20)
#    0.000    1.571    2.857    2.571    0.000    4.000 
#    0.000    3.571    0.000    4.286    0.000    0.000 
#    0.000    0.000    0.000    0.000    0.000    0.000 
#
# Total GULP energy -156115.385812 kJ/mol
# GULP energy per Si atom -5575.549493 kJ/mol
# Density = 2.051077 g / cm^3
# Si number density = 20.557563 Si / 1000 Ang^3
#
#
#
# Elastic Constant Matrix: (Units=GPa)
#
#
# Indices 1 2 3 4 5 6 
#
# 1 125.6339 3.8097 32.7423 0.0000 17.1881 0.0000
# 2 3.8097 29.7530 3.2967 0.0000 7.9609 0.0000
# 3 32.7423 3.2967 72.5180 0.0000 18.0868 0.0000
# 4 0.0000 0.0000 0.0000 21.3129 0.0000 -0.9763
# 5 17.1881 7.9609 18.0868 0.0000 37.6291 0.0000
# 6 0.0000 0.0000 0.0000 -0.9763 0.0000 27.9906
#
#
#
# Elastic Compliance Matrix: (Units=1/GPa)
#
#
# Indices 1 2 3 4 5 6 
#
# 1 0.009226 -0.000124 -0.003540 0.000000 -0.002487 0.000000
# 2 -0.000124 0.035634 0.000343 0.000000 -0.007647 0.000000
# 3 -0.003540 0.000343 0.017029 0.000000 -0.006641 0.000000
# 4 0.000000 0.000000 0.000000 0.046995 0.000000 0.001639
# 5 -0.002487 -0.007647 -0.006641 0.000000 0.032521 0.000000
# 6 0.000000 0.000000 0.000000 0.001639 0.000000 0.035783
#
#
# Mechanical properties :
#
#
# Convention : Reuss Voigt Hill
#
# Bulk Modulus (GPa) = 18.10018 34.17803 26.13910
# Shear Modulus (GPa) = 24.72255 29.92363 27.32309
#
# Velocity S-wave (km/s) = 3.47162 3.81937 3.64964
# Velocity P-wave (km/s) = 4.98931 6.00931 5.52291
#
# Compressibility (1/GPa) = 0.05524808
#
# Stress axis : x y z
#
# Youngs Moduli (GPa) = 108.38786 28.06307 58.72474
#
# Poissons Ratio (x) = 0.00347 0.20788
# Poissons Ratio (y) = 0.01342 -0.02016
# Poissons Ratio (z) = 0.38367 -0.00963
#
# Static dielectric constant tensor:
#      x y z
#    x 1.802480 0.000000 0.025200 
#    y 0.000000 1.716750 0.000000 
#    z 0.025200 0.000000 1.735620 
# 
# From -- ./inp_files/180801.got.cif
#   From: 2010.05.17/outbox.cif.g08.bks.cpg/sg12_91_cif.got.tgz:180801.got - 2010.06.03 13:09:07.
