data_PCOD9173522
_publ_section_title
;
Structure prediction by ZEFSAII (Michael W. Deem and Ramdas Pophale) SiO2 
 PCOD9173522
Probable space group: C 2/M
;
_chemical_formula_sum "Si O2"
_cell_formula_units_Z 48
_cell_length_a 22.174078
_cell_length_b 13.763519
_cell_length_c 15.590075
_cell_angle_alpha 90.000000
_cell_angle_beta 145.340935
_cell_angle_gamma 90.000000
_cell_volume 2705.829197
_symmetry_space_group_name_H-M "C 2/M"
_symmetry_group_IT_number 12
_symmetry_cell_setting 'monoclinic'
loop_
_space_group_symop_operation_xyz
x,y,z
-x,y,-z
-x,-y,-z
x,-y,z
1/2+x,1/2+y,z
1/2-x,1/2+y,-z
1/2-x,1/2-y,-z
1/2+x,1/2-y,z
loop_
_atom_site_type_symbol
_atom_site_label
_atom_site_fract_x
_atom_site_fract_y
_atom_site_fract_z
Si Si1 0.219498 0.211622 0.167748
Si Si2 0.004973 0.111615 0.901424
Si Si3 0.450252 0.882725 0.690638
Si Si4 0.577260 0.884251 0.011693
Si Si5 0.419861 0.114837 0.325928
Si Si6 0.773476 0.118487 0.635881
O O1 0.319197 0.182038 0.227483
O O2 0.238372 0.162413 0.282799
O O3 0.111705 0.166102 0.002805
O O4 0.185734 0.323380 0.140720
O O5 0.889500 0.147675 0.736990
O O6 0.015824 0.000000 0.887891
O O7 0.000000 0.114288 0.000000
O O8 0.511533 0.860032 0.849125
O O9 0.517817 0.853651 0.686393
O O10 0.328133 0.851356 0.538279
O O11 0.445732 0.000000 0.681791
O O12 0.595496 0.000000 0.036796
O O13 0.500000 0.856458 0.000000
O O14 0.500000 0.120403 0.500000
O O15 0.388645 0.000000 0.281629
O O16 0.775432 0.000000 0.646378
#
# Coordination Sequence:
#
# PCOD9173522 Si02
#       6
#     8   8   8   8   8   8
#     4  11  18  29  50  77 109 134 170 208 262 318
#     4   8  14  23  40  71 108 136 153 191 263 329
#     4   9  18  33  53  79 106 136 175 214 254 307
#     4  10  22  39  54  70  99 145 194 226 246 281
#     4  10  18  30  54  86 114 133 156 204 272 336
#     4   9  15  27  50  79 107 130 159 210 273 326
#
# _framework density 17.739477999999998
#
# number of rings (size 3 to 8) (size 9 to 14) (size 15 to 20)
#    0.000    2.500    1.667    4.000    0.000    0.667 
#    0.000    3.333    0.000    0.500    0.000    2.333 
#    0.000    0.000    0.000    0.000    0.000    0.000 
#
# Total GULP energy -133773.311523 kJ/mol
# GULP energy per Si atom -5573.887980 kJ/mol
# Density = 1.769910 g / cm^3
# Si number density = 17.739478 Si / 1000 Ang^3
#
#
#
# Elastic Constant Matrix: (Units=GPa)
#
#
# Indices 1 2 3 4 5 6 
#
# 1 70.8423 18.1291 45.3423 0.0000 3.5606 0.0000
# 2 18.1291 62.4831 29.9812 0.0000 12.3284 0.0000
# 3 45.3423 29.9812 84.5015 0.0000 17.5775 0.0000
# 4 0.0000 0.0000 0.0000 22.3490 0.0000 11.9404
# 5 3.5606 12.3284 17.5775 0.0000 30.1427 0.0000
# 6 0.0000 0.0000 0.0000 11.9404 0.0000 3.4032
#
#
#
# Elastic Compliance Matrix: (Units=1/GPa)
#
#
# Indices 1 2 3 4 5 6 
#
# 1 0.022231 -0.001495 -0.012495 0.000000 0.005272 0.000000
# 2 -0.001495 0.019924 -0.005245 0.000000 -0.004914 0.000000
# 3 -0.012495 -0.005245 0.022358 0.000000 -0.009417 0.000000
# 4 0.000000 0.000000 0.000000 -0.051164 0.000000 0.179514
# 5 0.005272 -0.004914 -0.009417 0.000000 0.040054 0.000000
# 6 0.000000 0.000000 0.000000 0.179514 0.000000 -0.335999
#
#
# Mechanical properties :
#
#
# Convention : Reuss Voigt Hill
#
# Bulk Modulus (GPa) = 38.39625 44.97023 41.68324
# Shear Modulus (GPa) = -21.23636 19.47059 -0.88289
#
# Velocity S-wave (km/s) = -3.46370 3.31658 -0.70624
# Velocity P-wave (km/s) = 2.38646 6.33022 4.78366
#
# Compressibility (1/GPa) = 0.02604421
#
# Stress axis : x y z
#
# Youngs Moduli (GPa) = 44.98279 50.19018 44.72585
#
# Poissons Ratio (x) = 0.07503 0.55884
# Poissons Ratio (y) = 0.06724 0.23458
# Poissons Ratio (z) = 0.56206 0.26324
#
# Static dielectric constant tensor:
#      x y z
#    x 1.593430 0.000000 0.005440 
#    y 0.000000 1.636400 0.000000 
#    z 0.005440 0.000000 1.621270 
# 
# From -- ./inp_files/214643.got.cif
#   From: 2010.05.17/outbox.cif.g08.bks.cpg/sg12_108_cif.got.tgz:214643.got - 2010.06.03 13:09:07.
