data_PCOD9173210
_publ_section_title
;
Structure prediction by ZEFSAII (Michael W. Deem and Ramdas Pophale) SiO2 
 PCOD9173210
Probable space group: C 2/M
;
_chemical_formula_sum "Si O2"
_cell_formula_units_Z 64
_cell_length_a 29.381654
_cell_length_b 14.065865
_cell_length_c 9.675273
_cell_angle_alpha 90.000000
_cell_angle_beta 64.573682
_cell_angle_gamma 90.000000
_cell_volume 3611.271261
_symmetry_space_group_name_H-M "C 2/M"
_symmetry_group_IT_number 12
_symmetry_cell_setting 'monoclinic'
loop_
_space_group_symop_operation_xyz
x,y,z
-x,y,-z
-x,-y,-z
x,-y,z
1/2+x,1/2+y,z
1/2-x,1/2+y,-z
1/2-x,1/2-y,-z
1/2+x,1/2-y,z
loop_
_atom_site_type_symbol
_atom_site_label
_atom_site_fract_x
_atom_site_fract_y
_atom_site_fract_z
Si Si1 0.366938 0.891152 0.114313
Si Si2 0.791918 0.605888 0.951740
Si Si3 0.704786 0.742933 0.667591
Si Si4 0.124542 0.887958 0.428462
Si Si5 0.452229 0.736025 0.965968
Si Si6 0.716039 0.277188 0.211988
Si Si7 0.460625 0.613153 0.677974
Si Si8 0.613169 0.611839 0.744954
O O1 0.333787 0.832632 0.270871
O O2 0.378894 0.000000 0.140021
O O3 0.330084 0.896875 0.030193
O O4 0.415256 0.827734 0.008995
O O5 0.787480 0.500000 0.899878
O O6 0.809568 0.687015 0.824900
O O7 0.738179 0.645521 0.076270
O O8 0.750000 0.750000 0.500000
O O9 0.734986 0.739781 0.771775
O O10 0.669209 0.653236 0.690006
O O11 0.175750 0.829308 0.358529
O O12 0.092557 0.871262 0.331836
O O13 0.096358 0.865080 0.609171
O O14 0.135878 0.000000 0.419260
O O15 0.464846 0.684777 0.802694
O O16 0.500000 0.759723 0.000000
O O17 0.421169 0.659299 0.095591
O O18 0.500000 0.627586 0.500000
O O19 0.464586 0.500000 0.713285
O O20 0.612373 0.500000 0.762377
#
# Coordination Sequence:
#
# PCOD9173210 Si02
#       8
#     8   8   8   8   8   8   8   8
#     4   9  20  37  56  77 106 145 185 225 269 322
#     4   9  18  32  49  73 103 137 176 216 267 315
#     4  10  19  33  51  79 112 144 185 222 265 319
#     4  10  19  32  52  75 103 140 179 215 262 322
#     4  11  22  37  59  83 108 140 180 229 279 330
#     4  10  18  30  51  73 104 139 175 223 259 312
#     4  10  21  36  55  82 111 140 175 219 279 342
#     4  10  21  35  53  80 114 147 180 221 272 329
#
# _framework density 17.722290000000001
#
# number of rings (size 3 to 8) (size 9 to 14) (size 15 to 20)
#    0.000    2.125    1.250    2.250    0.000    4.750 
#    0.000    0.000    0.000    0.375    0.000    0.000 
#    0.000    0.000    0.000    0.000    0.000    0.000 
#
# Total GULP energy -178234.101138 kJ/mol
# GULP energy per Si atom -5569.815661 kJ/mol
# Density = 1.768195 g / cm^3
# Si number density = 17.722290 Si / 1000 Ang^3
#
#
#
# Elastic Constant Matrix: (Units=GPa)
#
#
# Indices 1 2 3 4 5 6 
#
# 1 49.7165 36.6024 15.8864 0.0000 -4.0823 0.0000
# 2 36.6024 91.5364 37.6791 0.0000 -1.0438 0.0000
# 3 15.8864 37.6791 83.2154 0.0000 -4.2860 0.0000
# 4 0.0000 0.0000 0.0000 11.6534 0.0000 2.8642
# 5 -4.0823 -1.0438 -4.2860 0.0000 23.1018 0.0000
# 6 0.0000 0.0000 0.0000 2.8642 0.0000 16.6636
#
#
#
# Elastic Compliance Matrix: (Units=1/GPa)
#
#
# Indices 1 2 3 4 5 6 
#
# 1 0.028987 -0.011502 -0.000090 0.000000 0.004586 0.000000
# 2 -0.011502 0.017997 -0.006074 0.000000 -0.002346 0.000000
# 3 -0.000090 -0.006074 0.014912 0.000000 0.002476 0.000000
# 4 0.000000 0.000000 0.000000 0.089597 0.000000 -0.015400
# 5 0.004586 -0.002346 0.002476 0.000000 0.044450 0.000000
# 6 0.000000 0.000000 0.000000 -0.015400 0.000000 0.062658
#
#
# Mechanical properties :
#
#
# Convention : Reuss Voigt Hill
#
# Bulk Modulus (GPa) = 37.64323 44.97825 41.31074
# Shear Modulus (GPa) = 16.51319 19.23711 17.87515
#
# Velocity S-wave (km/s) = 3.05581 3.29823 3.17933
# Velocity P-wave (km/s) = 5.80839 6.31973 6.06945
#
# Compressibility (1/GPa) = 0.02656520
#
# Stress axis : x y z
#
# Youngs Moduli (GPa) = 34.49805 55.56381 67.06018
#
# Poissons Ratio (x) = 0.63908 0.00602
# Poissons Ratio (y) = 0.39679 0.40733
# Poissons Ratio (z) = 0.00310 0.33750
#
# Static dielectric constant tensor:
#      x y z
#    x 1.634450 0.000000 0.012810 
#    y 0.000000 1.591330 0.000000 
#    z 0.012810 0.000000 1.650470 
# 
# From -- ./inp_files/111609.got.cif
#   From: 2010.05.17/outbox.cif.g08.bks.cpg/sg12_56_cif.got.tgz:111609.got - 2010.06.03 13:09:07.
