data_PCOD9173690
_publ_section_title
;
Structure prediction by ZEFSAII (Michael W. Deem and Ramdas Pophale) SiO2 
 PCOD9173690
Probable space group: C 2/M
;
_chemical_formula_sum "Si O2"
_cell_formula_units_Z 64
_cell_length_a 28.450369
_cell_length_b 9.029401
_cell_length_c 15.031346
_cell_angle_alpha 90.000000
_cell_angle_beta 88.415079
_cell_angle_gamma 90.000000
_cell_volume 3859.922062
_symmetry_space_group_name_H-M "C 2/M"
_symmetry_group_IT_number 12
_symmetry_cell_setting 'monoclinic'
loop_
_space_group_symop_operation_xyz
x,y,z
-x,y,-z
-x,-y,-z
x,-y,z
1/2+x,1/2+y,z
1/2-x,1/2+y,-z
1/2-x,1/2-y,-z
1/2+x,1/2-y,z
loop_
_atom_site_type_symbol
_atom_site_label
_atom_site_fract_x
_atom_site_fract_y
_atom_site_fract_z
Si Si1 0.248189 0.822117 0.598595
Si Si2 0.560140 0.178968 0.751421
Si Si3 0.091587 0.829649 0.482965
Si Si4 0.356917 0.321774 0.340352
Si Si5 0.836034 0.827954 0.686678
Si Si6 0.508377 0.324878 0.104178
Si Si7 0.588707 0.829176 0.204058
Si Si8 0.017278 0.330906 0.376657
O O1 0.250000 0.750000 0.500000
O O2 0.198094 0.787964 0.647160
O O3 0.290171 0.758658 0.656338
O O4 0.251869 0.000000 0.588897
O O5 0.612462 0.240750 0.736109
O O6 0.532281 0.243412 0.837147
O O7 0.529500 0.232946 0.666790
O O8 0.559006 0.000000 0.753301
O O9 0.119489 0.774375 0.567213
O O10 0.128201 0.824752 0.399147
O O11 0.045285 0.744749 0.454692
O O12 0.078677 0.000000 0.499034
O O13 0.361600 0.500000 0.331094
O O14 0.864033 0.751633 0.766138
O O15 0.825649 0.000000 0.706077
O O16 0.507776 0.500000 0.125404
O O17 0.558204 0.256276 0.132158
O O18 0.500000 0.305654 0.000000
O O19 0.554276 0.829874 0.292156
O O20 0.597151 0.000000 0.178992
O O21 0.007544 0.500000 0.399979
#
# Coordination Sequence:
#
# PCOD9173690 Si02
#       8
#     8   8   8   8   8   8   8   8
#     4  11  21  34  50  70  97 133 179 228 269 305
#     4  10  21  35  50  71  99 131 167 207 253 301
#     4   9  17  29  44  64  90 127 170 208 249 293
#     4  10  21  35  47  65  96 132 173 216 260 303
#     4  10  18  31  49  71 100 134 174 219 262 302
#     4  10  20  35  57  83 108 135 164 198 247 305
#     4   9  17  30  49  76 105 134 166 204 252 299
#     4   8  16  29  43  63  92 125 162 203 243 288
#
# _framework density 16.580646000000002
#
# number of rings (size 3 to 8) (size 9 to 14) (size 15 to 20)
#    0.000    2.375    1.250    2.625    0.000    7.000 
#    0.000    2.500    0.000    0.000    0.000    0.875 
#    0.000    0.000    0.000    0.000    0.000    0.000 
#
# Total GULP energy -178460.611384 kJ/mol
# GULP energy per Si atom -5576.894106 kJ/mol
# Density = 1.654291 g / cm^3
# Si number density = 16.580646 Si / 1000 Ang^3
#
#
#
# Elastic Constant Matrix: (Units=GPa)
#
#
# Indices 1 2 3 4 5 6 
#
# 1 126.4662 66.4911 40.6679 0.0000 14.6454 0.0000
# 2 66.4911 87.2401 42.1665 0.0000 10.7227 0.0000
# 3 40.6679 42.1665 65.2607 0.0000 14.8188 0.0000
# 4 0.0000 0.0000 0.0000 20.2046 0.0000 8.0735
# 5 14.6454 10.7227 14.8188 0.0000 19.7276 0.0000
# 6 0.0000 0.0000 0.0000 8.0735 0.0000 24.0029
#
#
#
# Elastic Compliance Matrix: (Units=1/GPa)
#
#
# Indices 1 2 3 4 5 6 
#
# 1 0.013727 -0.009127 -0.001772 0.000000 -0.003899 0.000000
# 2 -0.009127 0.022758 -0.009340 0.000000 0.001421 0.000000
# 3 -0.001772 -0.009340 0.025332 0.000000 -0.012636 0.000000
# 4 0.000000 0.000000 0.000000 0.057179 0.000000 -0.019232
# 5 -0.003899 0.001421 -0.012636 0.000000 0.062304 0.000000
# 6 0.000000 0.000000 0.000000 -0.019232 0.000000 0.048131
#
#
# Mechanical properties :
#
#
# Convention : Reuss Voigt Hill
#
# Bulk Modulus (GPa) = 46.86108 64.17978 55.52043
# Shear Modulus (GPa) = 18.04921 21.42979 19.73950
#
# Velocity S-wave (km/s) = 3.30293 3.59898 3.45413
# Velocity P-wave (km/s) = 6.54749 7.48745 7.03319
#
# Compressibility (1/GPa) = 0.02133967
#
# Stress axis : x y z
#
# Youngs Moduli (GPa) = 72.84951 43.94012 39.47652
#
# Poissons Ratio (x) = 0.40102 0.06995
# Poissons Ratio (y) = 0.66486 0.36872
# Poissons Ratio (z) = 0.12908 0.41041
#
# Static dielectric constant tensor:
#      x y z
#    x 1.567240 0.000000 -0.002360 
#    y 0.000000 1.566390 0.000000 
#    z -0.002360 0.000000 1.553690 
# 
# From -- ./inp_files/244106.got.cif
#   From: 2010.05.17/outbox.cif.g08.bks.cpg/sg12_123_cif.got.tgz:244106.got - 2010.06.03 13:09:07.
