data_PCOD9173182
_publ_section_title
;
Structure prediction by ZEFSAII (Michael W. Deem and Ramdas Pophale) SiO2 
 PCOD9173182
Probable space group: C 2/M
;
_chemical_formula_sum "Si O2"
_cell_formula_units_Z 64
_cell_length_a 19.419592
_cell_length_b 8.971625
_cell_length_c 23.998621
_cell_angle_alpha 90.000000
_cell_angle_beta 53.695448
_cell_angle_gamma 90.000000
_cell_volume 3369.523969
_symmetry_space_group_name_H-M "C 2/M"
_symmetry_group_IT_number 12
_symmetry_cell_setting 'monoclinic'
loop_
_space_group_symop_operation_xyz
x,y,z
-x,y,-z
-x,-y,-z
x,-y,z
1/2+x,1/2+y,z
1/2-x,1/2+y,-z
1/2-x,1/2-y,-z
1/2+x,1/2-y,z
loop_
_atom_site_type_symbol
_atom_site_label
_atom_site_fract_x
_atom_site_fract_y
_atom_site_fract_z
Si Si1 0.665917 0.320702 0.380337
Si Si2 0.980340 0.179572 0.637441
Si Si3 0.046024 0.331472 0.885599
Si Si4 0.642966 0.180417 0.216943
Si Si5 0.789625 0.177551 0.234982
Si Si6 0.831795 0.180139 0.490897
Si Si7 0.223362 0.328229 0.069873
Si Si8 0.619944 0.828944 0.974886
O O1 0.673221 0.500000 0.374030
O O2 0.580382 0.280266 0.386347
O O3 0.745522 0.248157 0.310247
O O4 0.663412 0.277509 0.446116
O O5 0.937251 0.253001 0.712037
O O6 0.078009 0.224072 0.580236
O O7 0.977177 0.000000 0.644172
O O8 0.049752 0.500000 0.861539
O O9 0.113778 0.231871 0.820879
O O10 0.946714 0.293005 0.943328
O O11 0.078010 0.334302 0.934287
O O12 0.726119 0.224450 0.214433
O O13 0.653793 0.230718 0.147496
O O14 0.639462 0.000000 0.218494
O O15 0.787373 0.000000 0.239228
O O16 0.750000 0.250000 0.500000
O O17 0.825890 0.000000 0.491113
O O18 0.205584 0.500000 0.068223
O O19 0.250000 0.250000 0.000000
O O20 0.310859 0.299934 0.061313
O O21 0.652172 0.000000 0.968665
#
# Coordination Sequence:
#
# PCOD9173182 Si02
#       8
#     8   8   8   8   8   8   8   8
#     4   9  18  34  56  81 109 143 181 222 269 317
#     4   9  18  34  59  85 106 136 181 227 264 312
#     4   9  17  30  50  75 103 133 168 211 263 319
#     4   9  19  34  51  76 107 135 170 219 272 317
#     4  10  18  30  50  79 110 137 172 222 270 314
#     4  10  21  37  57  83 114 145 178 216 264 322
#     4  11  22  36  52  73 103 140 180 223 268 319
#     4   9  18  32  50  73  99 131 172 216 261 315
#
# _framework density 18.993780000000001
#
# number of rings (size 3 to 8) (size 9 to 14) (size 15 to 20)
#    0.000    2.500    1.250    1.875    0.000    4.500 
#    0.000    2.500    0.000    5.250    0.000    0.000 
#    0.000    0.000    0.000    0.000    0.000    0.000 
#
# Total GULP energy -178246.826298 kJ/mol
# GULP energy per Si atom -5570.213322 kJ/mol
# Density = 1.895055 g / cm^3
# Si number density = 18.993780 Si / 1000 Ang^3
#
#
#
# Elastic Constant Matrix: (Units=GPa)
#
#
# Indices 1 2 3 4 5 6 
#
# 1 41.7251 13.0657 53.5115 0.0000 -3.2512 0.0002
# 2 13.0657 12.5723 41.6341 0.0000 0.6118 0.0004
# 3 53.5115 41.6341 183.4376 0.0000 -2.0806 0.0000
# 4 0.0000 0.0000 0.0000 28.2569 0.0000 -2.2667
# 5 -3.2512 0.6118 -2.0806 0.0000 27.5470 0.0000
# 6 0.0002 0.0004 0.0000 -2.2667 0.0000 24.9101
#
#
#
# Elastic Compliance Matrix: (Units=1/GPa)
#
#
# Indices 1 2 3 4 5 6 
#
# 1 0.039185 -0.013035 -0.008424 0.000000 0.004278 0.000000
# 2 -0.013035 0.329002 -0.071031 0.000000 -0.014210 -0.000005
# 3 -0.008424 -0.071031 0.024058 0.000000 0.002400 0.000001
# 4 0.000000 0.000000 0.000000 0.035650 0.000000 0.003244
# 5 0.004278 -0.014210 0.002400 0.000000 0.037303 0.000000
# 6 0.000000 -0.000005 0.000001 0.003244 0.000000 0.040440
#
#
# Mechanical properties :
#
#
# Convention : Reuss Voigt Hill
#
# Bulk Modulus (GPa) = 4.82473 50.46197 27.64335
# Shear Modulus (GPa) = 6.58150 24.77770 15.67960
#
# Velocity S-wave (km/s) = 1.86349 3.61573 2.87629
# Velocity P-wave (km/s) = 2.67877 6.63752 5.06125
#
# Compressibility (1/GPa) = 0.20726540
#
# Stress axis : x y z
#
# Youngs Moduli (GPa) = 25.52016 3.03949 41.56671
#
# Poissons Ratio (x) = 0.03962 0.35015
# Poissons Ratio (y) = 0.33265 2.95253
# Poissons Ratio (z) = 0.21498 0.21590
#
# Static dielectric constant tensor:
#      x y z
#    x 1.727490 0.000000 0.008430 
#    y 0.000000 1.650500 0.000000 
#    z 0.008430 0.000000 1.675730 
# 
# From -- ./inp_files/346049.got.cif
#   From: 2010.05.17/outbox.cif.g08.bks.cpg/sg12_174_cif.got.tgz:346049.got - 2010.06.03 13:09:07.
