data_PCOD9173509
_publ_section_title
;
Structure prediction by ZEFSAII (Michael W. Deem and Ramdas Pophale) SiO2 
 PCOD9173509
Probable space group: C 2/M
;
_chemical_formula_sum "Si O2"
_cell_formula_units_Z 64
_cell_length_a 12.832991
_cell_length_b 24.206464
_cell_length_c 11.141111
_cell_angle_alpha 90.000000
_cell_angle_beta 45.739404
_cell_angle_gamma 90.000000
_cell_volume 2478.595284
_symmetry_space_group_name_H-M "C 2/M"
_symmetry_group_IT_number 12
_symmetry_cell_setting 'monoclinic'
loop_
_space_group_symop_operation_xyz
x,y,z
-x,y,-z
-x,-y,-z
x,-y,z
1/2+x,1/2+y,z
1/2-x,1/2+y,-z
1/2-x,1/2-y,-z
1/2+x,1/2-y,z
loop_
_atom_site_type_symbol
_atom_site_label
_atom_site_fract_x
_atom_site_fract_y
_atom_site_fract_z
Si Si1 0.431281 0.706717 0.785467
Si Si2 0.828919 0.290026 0.139369
Si Si3 0.668015 0.440815 0.726931
Si Si4 0.168514 0.176549 0.754097
Si Si5 0.951864 0.676342 0.399916
Si Si6 0.461835 0.411479 0.667001
Si Si7 0.942846 0.441300 0.341916
Si Si8 0.663651 0.909840 0.817661
O O1 0.257448 0.703197 0.915122
O O2 0.503173 0.690492 0.852208
O O3 0.498230 0.765811 0.696409
O O4 0.477607 0.655299 0.663889
O O5 0.773972 0.231457 0.229534
O O6 0.799910 0.345318 0.237865
O O7 0.000000 0.288942 0.000000
O O8 0.639443 0.500000 0.807515
O O9 0.665651 0.385128 0.807009
O O10 0.557873 0.433586 0.700945
O O11 0.831531 0.442185 0.542345
O O12 0.275493 0.173616 0.551401
O O13 0.011576 0.620092 0.290591
O O14 0.000000 0.673716 0.500000
O O15 0.500000 0.428659 0.500000
O O16 0.289609 0.426760 0.809166
O O17 0.026183 0.500000 0.275743
O O18 0.843787 0.440444 0.301987
O O19 0.500000 0.914029 0.000000
#
# Coordination Sequence:
#
# PCOD9173509 Si02
#       8
#     8   8   8   8   8   8   8   8
#     4  10  20  32  54  85 113 139 180 231 282 342
#     4  10  21  36  55  81 113 148 184 222 280 350
#     4   9  19  34  53  80 106 139 188 236 276 320
#     4  10  20  34  55  81 112 146 180 233 286 335
#     4  11  20  34  56  83 113 145 184 237 290 329
#     4  10  18  30  54  83 109 141 181 227 280 340
#     4  10  21  36  54  79 111 148 191 232 276 335
#     4  10  21  36  54  82 120 151 178 225 288 348
#
# _framework density 25.821075
#
# number of rings (size 3 to 8) (size 9 to 14) (size 15 to 20)
#    0.000    2.000    2.500    1.500    1.750    1.750 
#    0.000    2.500    0.000    0.375    0.000    0.000 
#    0.000    0.000    0.000    0.000    0.000    0.000 
#
# Total GULP energy -178575.251791 kJ/mol
# GULP energy per Si atom -5580.476618 kJ/mol
# Density = 2.576231 g / cm^3
# Si number density = 25.821075 Si / 1000 Ang^3
#
#
#
# Elastic Constant Matrix: (Units=GPa)
#
#
# Indices 1 2 3 4 5 6 
#
# 1 68.9122 6.4196 6.7790 0.0000 -25.2026 0.0000
# 2 6.4196 210.5067 4.9556 0.0000 1.9601 0.0000
# 3 6.7790 4.9556 48.7201 0.0000 -20.5304 0.0000
# 4 0.0000 0.0000 0.0000 0.7869 0.0000 -19.9720
# 5 -25.2026 1.9601 -20.5304 0.0000 39.2353 0.0000
# 6 0.0000 0.0000 0.0000 -19.9720 0.0000 -61.4276
#
#
#
# Elastic Compliance Matrix: (Units=1/GPa)
#
#
# Indices 1 2 3 4 5 6 
#
# 1 0.019500 -0.000809 0.003418 0.000000 0.014355 0.000000
# 2 -0.000809 0.004808 -0.000894 0.000000 -0.001227 0.000000
# 3 0.003418 -0.000894 0.027049 0.000000 0.016394 0.000000
# 4 0.000000 0.000000 0.000000 0.137354 0.000000 -0.044658
# 5 0.014355 -0.001227 0.016394 0.000000 0.043348 0.000000
# 6 0.000000 0.000000 0.000000 -0.044658 0.000000 -0.001760
#
#
# Mechanical properties :
#
#
# Convention : Reuss Voigt Hill
#
# Bulk Modulus (GPa) = 18.25221 40.49415 29.37318
# Shear Modulus (GPa) = 20.39728 16.38458 18.39093
#
# Velocity S-wave (km/s) = 2.81365 2.52175 2.67169
# Velocity P-wave (km/s) = 4.19995 4.91890 4.57357
#
# Compressibility (1/GPa) = 0.05478789
#
# Stress axis : x y z
#
# Youngs Moduli (GPa) = 51.28158 208.00520 36.96988
#
# Poissons Ratio (x) = 0.16823 -0.12636
# Poissons Ratio (y) = 0.04148 0.03304
# Poissons Ratio (z) = -0.17528 0.18588
#
# Static dielectric constant tensor:
#      x y z
#    x 2.059390 0.000000 -0.016130 
#    y 0.000000 2.114000 0.000000 
#    z -0.016130 0.000000 2.088350 
# 
# From -- ./inp_files/218488.got.cif
#   From: 2010.05.17/outbox.cif.g08.bks.cpg/sg12_110_cif.got.tgz:218488.got - 2010.06.03 13:09:07.
