data_PCOD9173086
_publ_section_title
;
Structure prediction by ZEFSAII (Michael W. Deem and Ramdas Pophale) SiO2 
 PCOD9173086
Probable space group: C 2/M
;
_chemical_formula_sum "Si O2"
_cell_formula_units_Z 48
_cell_length_a 18.759067
_cell_length_b 8.809389
_cell_length_c 19.443295
_cell_angle_alpha 90.000000
_cell_angle_beta 60.355911
_cell_angle_gamma 90.000000
_cell_volume 2792.569084
_symmetry_space_group_name_H-M "C 2/M"
_symmetry_group_IT_number 12
_symmetry_cell_setting 'monoclinic'
loop_
_space_group_symop_operation_xyz
x,y,z
-x,y,-z
-x,-y,-z
x,-y,z
1/2+x,1/2+y,z
1/2-x,1/2+y,-z
1/2-x,1/2-y,-z
1/2+x,1/2-y,z
loop_
_atom_site_type_symbol
_atom_site_label
_atom_site_fract_x
_atom_site_fract_y
_atom_site_fract_z
Si Si1 0.993984 0.326471 0.919560
Si Si2 0.587929 0.681107 0.492099
Si Si3 0.322208 0.318513 0.010850
Si Si4 0.745476 0.182194 0.341347
Si Si5 0.834174 0.182038 0.163611
Si Si6 0.169749 0.681914 0.576505
O O1 0.987733 0.500000 0.899279
O O2 0.911061 0.237176 0.942391
O O3 0.078809 0.252065 0.855726
O O4 0.000000 0.325269 0.000000
O O5 0.500000 0.710027 0.500000
O O6 0.599738 0.500000 0.493497
O O7 0.660863 0.747341 0.409684
O O8 0.597032 0.758259 0.562731
O O9 0.318883 0.500000 0.010304
O O10 0.250000 0.250000 0.000000
O O11 0.314609 0.269498 0.094797
O O12 0.765626 0.219175 0.252753
O O13 0.818949 0.250102 0.353111
O O14 0.742684 0.000000 0.351531
O O15 0.843548 0.000000 0.157995
O O16 0.172113 0.500000 0.576340
O O17 0.250000 0.750000 0.500000
#
# Coordination Sequence:
#
# PCOD9173086 Si02
#       6
#     8   8   8   8   8   8
#     4   9  17  30  50  74  97 125 163 203 242 290
#     4  10  20  34  52  74 101 133 168 206 248 297
#     4  10  19  33  52  74 102 135 170 206 249 301
#     4  10  19  33  53  75 100 129 165 209 253 297
#     4   9  19  34  52  74 100 131 165 206 254 299
#     4  10  18  30  50  73  97 127 163 200 240 291
#
# _framework density 17.188472999999998
#
# number of rings (size 3 to 8) (size 9 to 14) (size 15 to 20)
#    0.000    2.333    0.000    5.500    0.000    5.333 
#    0.000    1.667    0.000    4.000    0.000    0.000 
#    0.000    0.000    0.000    0.000    0.000    0.000 
#
# Total GULP energy -133770.728941 kJ/mol
# GULP energy per Si atom -5573.780373 kJ/mol
# Density = 1.714935 g / cm^3
# Si number density = 17.188473 Si / 1000 Ang^3
#
#
#
# Elastic Constant Matrix: (Units=GPa)
#
#
# Indices 1 2 3 4 5 6 
#
# 1 133.6009 56.8169 42.3507 0.0000 0.1541 0.0001
# 2 56.8169 80.1784 32.9893 0.0000 1.0694 0.0002
# 3 42.3507 32.9893 79.1249 0.0000 0.2955 0.0000
# 4 0.0000 0.0000 0.0000 19.8663 0.0000 -2.0459
# 5 0.1541 1.0694 0.2955 0.0000 17.4690 0.0000
# 6 0.0001 0.0002 0.0000 -2.0459 0.0000 32.7315
#
#
#
# Elastic Compliance Matrix: (Units=1/GPa)
#
#
# Indices 1 2 3 4 5 6 
#
# 1 0.011386 -0.006718 -0.003295 0.000000 0.000367 0.000000
# 2 -0.006718 0.019030 -0.004335 0.000000 -0.001032 0.000000
# 3 -0.003295 -0.004335 0.016209 0.000000 0.000020 0.000000
# 4 0.000000 0.000000 0.000000 0.050663 0.000000 0.003167
# 5 0.000367 -0.001032 0.000020 0.000000 0.057304 0.000000
# 6 0.000000 0.000000 0.000000 0.003167 0.000000 0.030750
#
#
# Mechanical properties :
#
#
# Convention : Reuss Voigt Hill
#
# Bulk Modulus (GPa) = 55.77107 61.91312 58.84209
# Shear Modulus (GPa) = 22.72612 24.72984 23.72798
#
# Velocity S-wave (km/s) = 3.64011 3.79720 3.71948
# Velocity P-wave (km/s) = 7.08410 7.43796 7.26319
#
# Compressibility (1/GPa) = 0.01793044
#
# Stress axis : x y z
#
# Youngs Moduli (GPa) = 87.82889 52.54938 61.69463
#
# Poissons Ratio (x) = 0.35300 0.20327
# Poissons Ratio (y) = 0.59000 0.26742
# Poissons Ratio (z) = 0.28937 0.22778
#
# Static dielectric constant tensor:
#      x y z
#    x 1.588070 0.000000 0.022300 
#    y 0.000000 1.579310 0.000000 
#    z 0.022300 0.000000 1.606510 
# 
# From -- ./inp_files/313233.got.cif
#   From: 2010.05.17/outbox.cif.g08.bks.cpg/sg12_157_cif.got.tgz:313233.got - 2010.06.03 13:09:07.
