data_PCOD9173280
_publ_section_title
;
Structure prediction by ZEFSAII (Michael W. Deem and Ramdas Pophale) SiO2 
 PCOD9173280
Probable space group: C 2/M
;
_chemical_formula_sum "Si O2"
_cell_formula_units_Z 40
_cell_length_a 12.404572
_cell_length_b 28.907859
_cell_length_c 9.145186
_cell_angle_alpha 90.000000
_cell_angle_beta 33.446931
_cell_angle_gamma 90.000000
_cell_volume 1807.471247
_symmetry_space_group_name_H-M "C 2/M"
_symmetry_group_IT_number 12
_symmetry_cell_setting 'monoclinic'
loop_
_space_group_symop_operation_xyz
x,y,z
-x,y,-z
-x,-y,-z
x,-y,z
1/2+x,1/2+y,z
1/2-x,1/2+y,-z
1/2-x,1/2-y,-z
1/2+x,1/2-y,z
loop_
_atom_site_type_symbol
_atom_site_label
_atom_site_fract_x
_atom_site_fract_y
_atom_site_fract_z
Si Si1 0.975548 0.259062 0.702191
Si Si2 0.930380 0.360604 0.743643
Si Si3 0.181937 0.551428 0.963025
Si Si4 0.982840 0.831803 0.191989
Si Si5 0.089619 0.911356 0.541651
O O1 0.026690 0.312052 0.684552
O O2 0.077931 0.216188 0.665285
O O3 0.000000 0.255966 0.500000
O O4 0.750000 0.250000 0.000000
O O5 0.000000 0.370572 0.500000
O O6 0.936517 0.406193 0.834873
O O7 0.701347 0.346601 0.994263
O O8 0.106548 0.500000 0.072106
O O9 0.234605 0.560972 0.732897
O O10 0.403059 0.555888 0.784123
O O11 0.862266 0.876100 0.385132
O O12 0.000000 0.826193 0.000000
O O13 0.000000 0.883475 0.500000
#
# Coordination Sequence:
#
# PCOD9173280 Si02
#       5
#     8   8   8   8   8
#     4   9  18  31  50  68 100 137 167 194 243 300
#     4   9  18  32  47  69 104 131 159 200 248 291
#     4   8  14  26  50  74  90 122 176 207 226 283
#     4  10  18  30  51  77  99 126 163 204 246 291
#     4   7  14  26  47  73  98 121 156 204 244 280
#
# _framework density 22.130367
#
# number of rings (size 3 to 8) (size 9 to 14) (size 15 to 20)
#    1.200    2.000    0.000    1.800    2.800    0.400 
#    0.000    9.000    0.000   15.000    0.000    1.400 
#    0.000    0.000    0.000    0.000    0.000    0.000 
#
# Total GULP energy -111411.432165 kJ/mol
# GULP energy per Si atom -5570.571608 kJ/mol
# Density = 2.208000 g / cm^3
# Si number density = 22.130367 Si / 1000 Ang^3
#
#
#
# Elastic Constant Matrix: (Units=GPa)
#
#
# Indices 1 2 3 4 5 6 
#
# 1 55.0847 46.7399 16.6508 0.0000 -4.6605 0.0000
# 2 46.7399 218.4721 72.8217 0.0000 22.9863 0.0000
# 3 16.6508 72.8217 104.7178 0.0000 0.9842 0.0000
# 4 0.0000 0.0000 0.0000 8.1435 0.0000 -14.2037
# 5 -4.6605 22.9863 0.9842 0.0000 28.5689 0.0000
# 6 0.0000 0.0000 0.0000 -14.2037 0.0000 9.7315
#
#
#
# Elastic Compliance Matrix: (Units=1/GPa)
#
#
# Indices 1 2 3 4 5 6 
#
# 1 0.024066 -0.006227 0.000420 0.000000 0.008922 0.000000
# 2 -0.006227 0.008260 -0.004683 0.000000 -0.007500 0.000000
# 3 0.000420 -0.004683 0.012707 0.000000 0.003399 0.000000
# 4 0.000000 0.000000 0.000000 -0.079443 0.000000 -0.115952
# 5 0.008922 -0.007500 0.003399 0.000000 0.042376 0.000000
# 6 0.000000 0.000000 0.000000 -0.115952 0.000000 -0.066479
#
#
# Mechanical properties :
#
#
# Convention : Reuss Voigt Hill
#
# Bulk Modulus (GPa) = 41.57661 72.29992 56.93826
# Shear Modulus (GPa) = -169.40385 25.42626 -71.98880
#
# Velocity S-wave (km/s) = -8.75867 3.39327 -5.70964
# Velocity P-wave (km/s) = 9.13553 6.93493 4.20503
#
# Compressibility (1/GPa) = 0.02405199
#
# Stress axis : x y z
#
# Youngs Moduli (GPa) = 41.55293 121.07048 78.69407
#
# Poissons Ratio (x) = 0.75395 -0.03306
# Poissons Ratio (y) = 0.25876 0.36854
# Poissons Ratio (z) = -0.01746 0.56699
#
# Static dielectric constant tensor:
#      x y z
#    x 1.886590 0.000000 -0.054470 
#    y 0.000000 1.807850 0.000000 
#    z -0.054470 0.000000 1.822440 
# 
# From -- ./inp_files/78617.got.cif
#   From: 2010.05.17/outbox.cif.g08.bks.cpg/sg12_40_cif.got.tgz:78617.got - 2010.06.03 13:09:07.
