data_PCOD9173894
_publ_section_title
;
Structure prediction by ZEFSAII (Michael W. Deem and Ramdas Pophale) SiO2 
 PCOD9173894
Probable space group: C 2/M
;
_chemical_formula_sum "Si O2"
_cell_formula_units_Z 56
_cell_length_a 29.722205
_cell_length_b 8.679370
_cell_length_c 17.913659
_cell_angle_alpha 90.000000
_cell_angle_beta 131.512490
_cell_angle_gamma 90.000000
_cell_volume 3460.396751
_symmetry_space_group_name_H-M "C 2/M"
_symmetry_group_IT_number 12
_symmetry_cell_setting 'monoclinic'
loop_
_space_group_symop_operation_xyz
x,y,z
-x,y,-z
-x,-y,-z
x,-y,z
1/2+x,1/2+y,z
1/2-x,1/2+y,-z
1/2-x,1/2-y,-z
1/2+x,1/2-y,z
loop_
_atom_site_type_symbol
_atom_site_label
_atom_site_fract_x
_atom_site_fract_y
_atom_site_fract_z
Si Si1 0.847236 0.316479 0.090737
Si Si2 0.081465 0.682880 0.226981
Si Si3 0.769881 0.185017 0.134349
Si Si4 0.714840 0.315803 0.390644
Si Si5 0.461571 0.316275 0.139187
Si Si6 0.726906 0.814825 0.245576
Si Si7 0.593804 0.315521 0.082259
O O1 0.853890 0.500000 0.094277
O O2 0.820742 0.265592 0.141244
O O3 0.909981 0.238746 0.138720
O O4 0.794654 0.271371 0.973576
O O5 0.087971 0.500000 0.236165
O O6 0.145501 0.759579 0.316302
O O7 0.067003 0.737430 0.126494
O O8 0.026510 0.738281 0.217684
O O9 0.768790 0.222043 0.220878
O O10 0.775445 0.000000 0.132141
O O11 0.716353 0.500000 0.391239
O O12 0.750000 0.250000 0.500000
O O13 0.742764 0.250654 0.344142
O O14 0.468185 0.500000 0.150002
O O15 0.436713 0.274900 0.029298
O O16 0.662336 0.741420 0.155750
O O17 0.720777 0.000000 0.243201
O O18 0.591012 0.500000 0.088746
#
# Coordination Sequence:
#
# PCOD9173894 Si02
#       7
#     8   8   8   8   8   8   8
#     4  10  19  30  46  68  97 135 176 213 247 287
#     4  11  22  34  50  71  97 129 166 205 248 298
#     4   9  18  31  46  68  99 134 171 210 250 292
#     4  11  22  38  57  78 102 127 161 204 254 302
#     4  11  21  32  46  67  99 136 172 207 247 292
#     4  10  18  31  51  74 101 132 168 207 251 297
#     4  10  19  30  45  67  97 133 170 205 243 290
#
# _framework density 16.183115000000001
#
# number of rings (size 3 to 8) (size 9 to 14) (size 15 to 20)
#    0.000    1.714    1.429    6.429    0.000    5.143 
#    0.000    0.000    0.000    0.000    0.000    1.000 
#    0.000    8.000    0.000    0.000    0.000    0.000 
#
# Total GULP energy -156290.497598 kJ/mol
# GULP energy per Si atom -5581.803486 kJ/mol
# Density = 1.614628 g / cm^3
# Si number density = 16.183115 Si / 1000 Ang^3
#
#
#
# Elastic Constant Matrix: (Units=GPa)
#
#
# Indices 1 2 3 4 5 6 
#
# 1 102.0549 18.6745 32.0961 0.0000 -3.5417 0.0000
# 2 18.6745 48.3381 20.1934 0.0000 -2.5331 0.0000
# 3 32.0961 20.1934 62.1014 0.0000 -12.9413 0.0000
# 4 0.0000 0.0000 0.0000 19.8192 0.0000 -0.3281
# 5 -3.5417 -2.5331 -12.9413 0.0000 16.2450 0.0000
# 6 0.0000 0.0000 0.0000 -0.3281 0.0000 31.2457
#
#
#
# Elastic Compliance Matrix: (Units=1/GPa)
#
#
# Indices 1 2 3 4 5 6 
#
# 1 0.012012 -0.002268 -0.005993 0.000000 -0.002509 0.000000
# 2 -0.002268 0.024487 -0.007311 0.000000 -0.002501 0.000000
# 3 -0.005993 -0.007311 0.025261 0.000000 0.017677 0.000000
# 4 0.000000 0.000000 0.000000 0.050465 0.000000 0.000530
# 5 -0.002509 -0.002501 0.017677 0.000000 0.074703 0.000000
# 6 0.000000 0.000000 0.000000 0.000530 0.000000 0.032010
#
#
# Mechanical properties :
#
#
# Convention : Reuss Voigt Hill
#
# Bulk Modulus (GPa) = 32.66428 39.38026 36.02227
# Shear Modulus (GPa) = 19.20949 22.89735 21.05342
#
# Velocity S-wave (km/s) = 3.44904 3.76559 3.61078
# Velocity P-wave (km/s) = 6.00742 6.57975 6.30009
#
# Compressibility (1/GPa) = 0.03061448
#
# Stress axis : x y z
#
# Youngs Moduli (GPa) = 83.25354 40.83778 39.58605
#
# Poissons Ratio (x) = 0.09263 0.23725
# Poissons Ratio (y) = 0.18884 0.28942
# Poissons Ratio (z) = 0.49897 0.29858
#
# Static dielectric constant tensor:
#      x y z
#    x 1.521950 0.000000 -0.054560 
#    y 0.000000 1.538490 0.000000 
#    z -0.054560 0.000000 1.462620 
# 
# From -- ./inp_files/291940.got.cif
#   From: 2010.05.17/outbox.cif.g08.bks.cpg/sg12_146_cif.got.tgz:291940.got - 2010.06.03 13:09:07.
