data_PCOD9173252
_publ_section_title
;
Structure prediction by ZEFSAII (Michael W. Deem and Ramdas Pophale) SiO2 
 PCOD9173252
Probable space group: C 2/M
;
_chemical_formula_sum "Si O2"
_cell_formula_units_Z 56
_cell_length_a 31.773045
_cell_length_b 9.137198
_cell_length_c 19.060882
_cell_angle_alpha 90.000000
_cell_angle_beta 145.577968
_cell_angle_gamma 90.000000
_cell_volume 3128.108057
_symmetry_space_group_name_H-M "C 2/M"
_symmetry_group_IT_number 12
_symmetry_cell_setting 'monoclinic'
loop_
_space_group_symop_operation_xyz
x,y,z
-x,y,-z
-x,-y,-z
x,-y,z
1/2+x,1/2+y,z
1/2-x,1/2+y,-z
1/2-x,1/2-y,-z
1/2+x,1/2-y,z
loop_
_atom_site_type_symbol
_atom_site_label
_atom_site_fract_x
_atom_site_fract_y
_atom_site_fract_z
Si Si1 0.963741 0.827681 0.545982
Si Si2 0.690113 0.668274 0.599586
Si Si3 0.180435 0.671961 0.111734
Si Si4 0.761742 0.830985 0.942370
Si Si5 0.281309 0.327832 0.611781
Si Si6 0.413395 0.676792 0.894291
Si Si7 0.909629 0.668793 0.330821
O O1 0.897516 0.809731 0.510111
O O2 0.930408 0.753699 0.430207
O O3 0.042884 0.749210 0.664639
O O4 0.975113 0.000000 0.551189
O O5 0.702214 0.500000 0.591400
O O6 0.739111 0.681172 0.737988
O O7 0.723468 0.785330 0.592968
O O8 0.163446 0.500000 0.079860
O O9 0.187819 0.750505 0.046611
O O10 0.122415 0.746791 0.086227
O O11 0.677972 0.829273 0.797669
O O12 0.785406 0.000000 0.984609
O O13 0.750000 0.750000 0.000000
O O14 0.284772 0.500000 0.603831
O O15 0.250000 0.250000 0.500000
O O16 0.361034 0.282254 0.755438
O O17 0.407676 0.500000 0.895004
O O18 0.500000 0.713234 0.000000
O O19 0.932576 0.500000 0.364566
#
# Coordination Sequence:
#
# PCOD9173252 Si02
#       7
#     8   8   8   8   8   8   8
#     4  10  18  30  51  76 102 134 169 209 255 308
#     4   9  18  32  52  78 106 137 175 217 260 315
#     4  10  19  34  56  81 109 139 180 229 273 325
#     4  11  23  37  54  75 105 144 186 229 275 325
#     4  10  20  34  55  81 110 143 177 221 273 326
#     4   9  19  37  60  85 112 145 186 228 276 335
#     4  10  20  32  48  73 103 133 168 215 262 306
#
# _framework density 17.902194999999999
#
# number of rings (size 3 to 8) (size 9 to 14) (size 15 to 20)
#    0.000    2.143    1.429    3.000    0.000    4.286 
#    0.000    1.429    0.000    1.714    0.000    0.000 
#    0.000    0.000    0.000    0.000    0.000    0.000 
#
# Total GULP energy -155972.666335 kJ/mol
# GULP energy per Si atom -5570.452369 kJ/mol
# Density = 1.786145 g / cm^3
# Si number density = 17.902195 Si / 1000 Ang^3
#
#
#
# Elastic Constant Matrix: (Units=GPa)
#
#
# Indices 1 2 3 4 5 6 
#
# 1 102.7931 62.1103 49.2145 0.0000 4.8576 0.0000
# 2 62.1103 99.8718 42.6541 0.0000 -3.4501 0.0000
# 3 49.2145 42.6541 48.4746 0.0000 -0.3212 0.0000
# 4 0.0000 0.0000 0.0000 23.1895 0.0000 -2.2912
# 5 4.8576 -3.4501 -0.3212 0.0000 35.1234 0.0000
# 6 0.0000 0.0000 0.0000 -2.2912 0.0000 30.3383
#
#
#
# Elastic Compliance Matrix: (Units=1/GPa)
#
#
# Indices 1 2 3 4 5 6 
#
# 1 0.021703 -0.006741 -0.016128 0.000000 -0.003811 0.000000
# 2 -0.006741 0.018209 -0.009161 0.000000 0.002637 0.000000
# 3 -0.016128 -0.009161 0.045077 0.000000 0.001743 0.000000
# 4 0.000000 0.000000 0.000000 0.043447 0.000000 0.003281
# 5 -0.003811 0.002637 0.001743 0.000000 0.029273 0.000000
# 6 0.000000 0.000000 0.000000 0.003281 0.000000 0.033209
#
#
# Mechanical properties :
#
#
# Convention : Reuss Voigt Hill
#
# Bulk Modulus (GPa) = 47.78307 62.12190 54.95248
# Shear Modulus (GPa) = 19.08730 24.20762 21.64746
#
# Velocity S-wave (km/s) = 3.26881 3.68124 3.48114
# Velocity P-wave (km/s) = 6.40281 7.26944 6.84984
#
# Compressibility (1/GPa) = 0.02092791
#
# Stress axis : x y z
#
# Youngs Moduli (GPa) = 46.07663 54.91917 22.18438
#
# Poissons Ratio (x) = 0.37018 0.35780
# Poissons Ratio (y) = 0.31058 0.20324
# Poissons Ratio (z) = 0.74314 0.50313
#
# Static dielectric constant tensor:
#      x y z
#    x 1.631320 0.000000 0.009820 
#    y 0.000000 1.614540 0.000000 
#    z 0.009820 0.000000 1.636360 
# 
# From -- ./inp_files/295152.got.cif
#   From: 2010.05.17/outbox.cif.g08.bks.cpg/sg12_148_cif.got.tgz:295152.got - 2010.06.03 13:09:07.
