data_PCOD9173947
_publ_section_title
;
Structure prediction by ZEFSAII (Michael W. Deem and Ramdas Pophale) SiO2 
 PCOD9173947
Probable space group: C 2/M
;
_chemical_formula_sum "Si O2"
_cell_formula_units_Z 48
_cell_length_a 19.553258
_cell_length_b 14.336799
_cell_length_c 24.621178
_cell_angle_alpha 90.000000
_cell_angle_beta 155.957919
_cell_angle_gamma 90.000000
_cell_volume 2811.960156
_symmetry_space_group_name_H-M "C 2/M"
_symmetry_group_IT_number 12
_symmetry_cell_setting 'monoclinic'
loop_
_space_group_symop_operation_xyz
x,y,z
-x,y,-z
-x,-y,-z
x,-y,z
1/2+x,1/2+y,z
1/2-x,1/2+y,-z
1/2-x,1/2-y,-z
1/2+x,1/2-y,z
loop_
_atom_site_type_symbol
_atom_site_label
_atom_site_fract_x
_atom_site_fract_y
_atom_site_fract_z
Si Si1 0.617586 0.724492 0.949730
Si Si2 0.673507 0.611427 0.095689
Si Si3 0.251888 0.694523 0.651961
Si Si4 0.518882 0.892613 0.076899
Si Si5 0.933418 0.388221 0.376581
Si Si6 0.198114 0.101074 0.637328
O O1 0.449856 0.678036 0.801989
O O2 0.569198 0.818785 0.947549
O O3 0.750000 0.750000 0.000000
O O4 0.684661 0.656584 0.045025
O O5 0.665184 0.500000 0.084687
O O6 0.831967 0.634503 0.248550
O O7 0.500000 0.640972 0.000000
O O8 0.166382 0.664438 0.647397
O O9 0.240542 0.805862 0.635588
O O10 0.127728 0.643296 0.519935
O O11 0.709913 0.890676 0.237647
O O12 0.459149 0.000000 0.039912
O O13 0.500000 0.868189 0.000000
O O14 0.923142 0.500000 0.378456
O O15 0.000000 0.100441 0.500000
O O16 0.252005 0.000000 0.653461
#
# Coordination Sequence:
#
# PCOD9173947 Si02
#       6
#     8   8   8   8   8   8
#     4  11  23  35  52  80 114 150 180 216 272 338
#     4  10  20  35  57  83 109 141 185 236 279 320
#     4  10  18  31  51  77 111 140 174 227 275 323
#     4   9  19  34  53  74 100 134 176 224 263 303
#     4  10  19  32  54  84 109 135 181 236 281 318
#     4   9  16  26  44  73 100 126 163 209 263 308
#
# _framework density 17.069942999999999
#
# number of rings (size 3 to 8) (size 9 to 14) (size 15 to 20)
#    0.000    2.167    3.333    1.500    2.333    1.333 
#    0.000    0.833    0.000    0.000    0.000    9.333 
#    0.000    0.000    0.000    0.000    0.000    0.000 
#
# Total GULP energy -133622.671057 kJ/mol
# GULP energy per Si atom -5567.611294 kJ/mol
# Density = 1.703109 g / cm^3
# Si number density = 17.069943 Si / 1000 Ang^3
#
#
#
# Elastic Constant Matrix: (Units=GPa)
#
#
# Indices 1 2 3 4 5 6 
#
# 1 77.0498 18.4129 59.0712 -0.0023 -3.3512 -0.0004
# 2 18.4129 73.6582 44.2170 0.0052 -8.1206 -0.0012
# 3 59.0712 44.2170 155.9766 0.0078 -6.7530 -0.0080
# 4 -0.0023 0.0052 0.0078 30.4860 -0.0027 -8.0268
# 5 -3.3512 -8.1206 -6.7530 -0.0027 13.6191 -0.0010
# 6 -0.0004 -0.0012 -0.0080 -8.0268 -0.0010 1.7708
#
#
#
# Elastic Compliance Matrix: (Units=1/GPa)
#
#
# Indices 1 2 3 4 5 6 
#
# 1 0.018314 -0.000408 -0.006781 0.000018 0.000901 0.000057
# 2 -0.000408 0.017181 -0.004371 0.000011 0.007977 0.000046
# 3 -0.006781 -0.004371 0.010253 -0.000045 0.000809 -0.000164
# 4 0.000018 0.000011 -0.000045 -0.169548 -0.000103 -0.768529
# 5 0.000901 0.007977 0.000809 -0.000103 0.078805 -0.000411
# 6 0.000057 0.000046 -0.000164 -0.768529 -0.000411 -2.918889
#
#
# Mechanical properties :
#
#
# Convention : Reuss Voigt Hill
#
# Bulk Modulus (GPa) = 44.19113 61.12078 52.65596
# Shear Modulus (GPa) = -1.70461 21.50743 9.90141
#
# Velocity S-wave (km/s) = -1.00039 3.55344 2.41103
# Velocity P-wave (km/s) = 4.96086 7.26084 6.21811
#
# Compressibility (1/GPa) = 0.02262897
#
# Stress axis : x y z
#
# Youngs Moduli (GPa) = 54.60228 58.20233 97.52774
#
# Poissons Ratio (x) = 0.02375 0.66136
# Poissons Ratio (y) = 0.02228 0.42627
# Poissons Ratio (z) = 0.37027 0.25439
#
# Static dielectric constant tensor:
#      x y z
#    x 1.523080 0.000000 -0.001810 
#    y 0.000000 1.631770 0.000000 
#    z -0.001810 0.000000 1.613890 
# 
# From -- ./inp_files/316355.got.cif
#   From: 2010.05.17/outbox.cif.g08.bks.cpg/sg12_159_cif.got.tgz:316355.got - 2010.06.03 13:09:07.
