data_PCOD9173614
_publ_section_title
;
Structure prediction by ZEFSAII (Michael W. Deem and Ramdas Pophale) SiO2 
 PCOD9173614
Probable space group: C 2/M
;
_chemical_formula_sum "Si O2"
_cell_formula_units_Z 52
_cell_length_a 13.139706
_cell_length_b 21.181895
_cell_length_c 9.140120
_cell_angle_alpha 90.000000
_cell_angle_beta 103.629235
_cell_angle_gamma 90.000000
_cell_volume 2472.279263
_symmetry_space_group_name_H-M "C 2/M"
_symmetry_group_IT_number 12
_symmetry_cell_setting 'monoclinic'
loop_
_space_group_symop_operation_xyz
x,y,z
-x,y,-z
-x,-y,-z
x,-y,z
1/2+x,1/2+y,z
1/2-x,1/2+y,-z
1/2-x,1/2-y,-z
1/2+x,1/2-y,z
loop_
_atom_site_type_symbol
_atom_site_label
_atom_site_fract_x
_atom_site_fract_y
_atom_site_fract_z
Si Si1 0.565538 0.567434 0.370993
Si Si2 0.626270 0.318235 0.034157
Si Si3 0.101562 0.713762 0.265064
Si Si4 0.000000 0.379414 0.000000
Si Si5 0.722747 0.375777 0.610073
Si Si6 0.766985 0.426909 0.954329
Si Si7 0.445860 0.691780 0.290718
O O1 0.500000 0.561841 0.500000
O O2 0.556200 0.500000 0.289808
O O3 0.683849 0.580506 0.465413
O O4 0.513328 0.627808 0.278895
O O5 0.649397 0.267142 0.169283
O O6 0.500000 0.329815 0.000000
O O7 0.701454 0.379237 0.038310
O O8 0.628723 0.289610 0.870748
O O9 0.035809 0.666436 0.141722
O O10 0.180457 0.669791 0.378684
O O11 0.023618 0.751844 0.338809
O O12 0.893058 0.416332 0.005510
O O13 0.736789 0.410531 0.773021
O O14 0.626277 0.328476 0.602012
O O15 0.741628 0.500000 0.973643
#
# Coordination Sequence:
#
# PCOD9173614 Si02
#       7
#     8   8   8   4   8   8   8
#     4   9  17  31  47  67  94 124 158 194 241 287
#     4   9  18  32  48  72 100 129 160 201 243 295
#     4  10  18  31  47  73  96 124 164 194 245 287
#     4  10  19  30  50  66  99 132 158 208 234 286
#     4   9  19  29  49  68  94 128 154 205 238 284
#     4  10  20  31  47  71  98 132 166 197 242 290
#     4   9  17  29  47  70  95 123 155 197 242 286
#
# _framework density 21.033221999999999
#
# number of rings (size 3 to 8) (size 9 to 14) (size 15 to 20)
#    0.000    2.615    2.308    0.692    2.154    6.462 
#    0.000    2.308    0.000    0.000    0.000    0.000 
#    0.000    1.231    0.000    0.000    0.000    0.000 
#
# Total GULP energy -144743.017199 kJ/mol
# GULP energy per Si atom -5567.039123 kJ/mol
# Density = 2.098535 g / cm^3
# Si number density = 21.033222 Si / 1000 Ang^3
#
#
#
# Elastic Constant Matrix: (Units=GPa)
#
#
# Indices 1 2 3 4 5 6 
#
# 1 68.0061 24.8846 -4.0256 0.0000 26.5153 0.0000
# 2 24.8846 67.6544 -6.7196 0.0000 14.1508 0.0000
# 3 -4.0256 -6.7196 20.9138 0.0000 7.2383 0.0000
# 4 0.0000 0.0000 0.0000 8.9860 0.0000 -2.4497
# 5 26.5153 14.1508 7.2383 0.0000 27.3829 0.0000
# 6 0.0000 0.0000 0.0000 -2.4497 0.0000 21.4231
#
#
#
# Elastic Compliance Matrix: (Units=1/GPa)
#
#
# Indices 1 2 3 4 5 6 
#
# 1 0.028213 -0.002640 0.014931 0.000000 -0.029902 0.000000
# 2 -0.002640 0.018568 0.008689 0.000000 -0.009336 0.000000
# 3 0.014931 0.008689 0.066085 0.000000 -0.036417 0.000000
# 4 0.000000 0.000000 0.000000 0.114865 0.000000 0.013134
# 5 -0.029902 -0.009336 -0.036417 0.000000 0.079924 0.000000
# 6 0.000000 0.000000 0.000000 0.013134 0.000000 0.048181
#
#
# Mechanical properties :
#
#
# Convention : Reuss Voigt Hill
#
# Bulk Modulus (GPa) = 6.45883 20.53922 13.49902
# Shear Modulus (GPa) = 13.68048 21.05405 17.36726
#
# Velocity S-wave (km/s) = 2.55310 3.16728 2.87663
# Velocity P-wave (km/s) = 3.43053 4.81267 4.17914
#
# Compressibility (1/GPa) = 0.15482681
#
# Stress axis : x y z
#
# Youngs Moduli (GPa) = 35.44468 53.85691 15.13195
#
# Poissons Ratio (x) = 0.14218 -0.22594
# Poissons Ratio (y) = 0.09357 -0.13148
# Poissons Ratio (z) = -0.52924 -0.46795
#
# Static dielectric constant tensor:
#      x y z
#    x 1.816590 0.000000 0.036820 
#    y 0.000000 1.823960 0.000000 
#    z 0.036820 0.000000 1.859720 
# 
# From -- ./inp_files/147203.got.cif
#   From: 2010.05.17/outbox.cif.g08.bks.cpg/sg12_74_cif.got.tgz:147203.got - 2010.06.03 13:09:07.
