data_PCOD9173994
_publ_section_title
;
Structure prediction by ZEFSAII (Michael W. Deem and Ramdas Pophale) SiO2 
 PCOD9173994
Probable space group: C 2/M
;
_chemical_formula_sum "Si O2"
_cell_formula_units_Z 56
_cell_length_a 20.492340
_cell_length_b 7.487244
_cell_length_c 25.002798
_cell_angle_alpha 90.000000
_cell_angle_beta 45.060122
_cell_angle_gamma 90.000000
_cell_volume 2715.453641
_symmetry_space_group_name_H-M "C 2/M"
_symmetry_group_IT_number 12
_symmetry_cell_setting 'monoclinic'
loop_
_space_group_symop_operation_xyz
x,y,z
-x,y,-z
-x,-y,-z
x,-y,z
1/2+x,1/2+y,z
1/2-x,1/2+y,-z
1/2-x,1/2-y,-z
1/2+x,1/2-y,z
loop_
_atom_site_type_symbol
_atom_site_label
_atom_site_fract_x
_atom_site_fract_y
_atom_site_fract_z
Si Si1 0.940262 0.715900 0.871966
Si Si2 0.562895 0.212948 0.296567
Si Si3 0.211388 0.718545 0.125656
Si Si4 0.587976 0.781941 0.699615
Si Si5 0.224454 0.786310 0.453868
Si Si6 0.079375 0.208698 0.993510
Si Si7 0.977428 0.786072 0.454602
O O1 0.938694 0.500000 0.873686
O O2 0.848128 0.773082 0.892414
O O3 0.946502 0.778752 0.929030
O O4 0.028466 0.772213 0.785501
O O5 0.651410 0.275504 0.211947
O O6 0.472187 0.276518 0.316985
O O7 0.551250 0.252401 0.365378
O O8 0.563612 0.000000 0.290708
O O9 0.213366 0.500000 0.122806
O O10 0.316226 0.783444 0.069162
O O11 0.692430 0.719771 0.631817
O O12 0.589088 0.000000 0.699119
O O13 0.250000 0.750000 0.500000
O O14 0.122771 0.713948 0.503130
O O15 0.221173 0.000000 0.448409
O O16 0.088027 0.000000 0.973701
O O17 0.000000 0.283585 0.000000
O O18 0.000000 0.716582 0.500000
O O19 0.970598 0.000000 0.462028
#
# Coordination Sequence:
#
# PCOD9173994 Si02
#       7
#     8   8   8   8   8   8   8
#     4   9  17  32  54  75  95 122 165 207 233 276
#     4   9  16  31  54  73  92 123 168 207 234 281
#     4   8  16  32  54  75  94 125 163 200 242 285
#     4   8  15  29  50  74  94 119 158 204 245 274
#     4  10  18  31  52  72  96 129 165 201 239 285
#     4  10  20  34  50  71 104 135 155 187 244 299
#     4  10  21  34  46  69 105 135 158 195 249 295
#
# _framework density 20.622703000000001
#
# number of rings (size 3 to 8) (size 9 to 14) (size 15 to 20)
#    0.000    2.857    1.429    2.143    0.000    0.571 
#    2.571    4.286    0.000    0.000    0.000    0.000 
#    0.000    0.000    0.000    0.000    0.000    0.000 
#
# Total GULP energy -156143.834595 kJ/mol
# GULP energy per Si atom -5576.565521 kJ/mol
# Density = 2.057576 g / cm^3
# Si number density = 20.622703 Si / 1000 Ang^3
#
#
#
# Elastic Constant Matrix: (Units=GPa)
#
#
# Indices 1 2 3 4 5 6 
#
# 1 136.3470 -0.7560 85.1493 -0.0003 9.2906 -0.0009
# 2 -0.7560 54.9565 -7.9114 -0.0001 -4.7847 0.0090
# 3 85.1493 -7.9114 143.2901 -0.0001 6.2668 -0.0004
# 4 -0.0003 -0.0001 -0.0001 18.1813 0.0000 7.2838
# 5 9.2906 -4.7847 6.2668 0.0000 29.6801 -0.0002
# 6 -0.0009 0.0090 -0.0004 7.2838 -0.0002 -34.6720
#
#
#
# Elastic Compliance Matrix: (Units=1/GPa)
#
#
# Indices 1 2 3 4 5 6 
#
# 1 0.011867 -0.001055 -0.007005 0.000000 -0.002406 0.000000
# 2 -0.001055 0.018664 0.001525 -0.000002 0.003017 0.000004
# 3 -0.007005 0.001525 0.011223 0.000000 0.000069 0.000000
# 4 0.000000 -0.000002 0.000000 0.050732 0.000000 0.010658
# 5 -0.002406 0.003017 0.000069 0.000000 0.034917 0.000001
# 6 0.000000 0.000004 0.000000 0.010658 0.000001 -0.026603
#
#
# Mechanical properties :
#
#
# Convention : Reuss Voigt Hill
#
# Bulk Modulus (GPa) = 34.86139 54.17304 44.51721
# Shear Modulus (GPa) = 40.50881 19.84533 30.17707
#
# Velocity S-wave (km/s) = 4.43683 3.10547 3.82945
# Velocity P-wave (km/s) = 6.57178 6.25973 6.41766
#
# Compressibility (1/GPa) = 0.02868503
#
# Stress axis : x y z
#
# Youngs Moduli (GPa) = 84.26851 53.57926 89.10582
#
# Poissons Ratio (x) = 0.05650 0.62417
# Poissons Ratio (y) = 0.08887 -0.13591
# Poissons Ratio (z) = 0.59029 -0.08172
#
# Static dielectric constant tensor:
#      x y z
#    x 1.723140 0.000000 -0.019380 
#    y 0.000000 1.790040 0.000000 
#    z -0.019380 0.000000 1.736260 
# 
# From -- ./inp_files/280430.got.cif
#   From: 2010.05.17/outbox.cif.g08.bks.cpg/sg12_141_cif.got.tgz:280430.got - 2010.06.03 13:09:07.
