data_PCOD9173634
_publ_section_title
;
Structure prediction by ZEFSAII (Michael W. Deem and Ramdas Pophale) SiO2 
 PCOD9173634
Probable space group: C 2/M
;
_chemical_formula_sum "Si O2"
_cell_formula_units_Z 48
_cell_length_a 24.182371
_cell_length_b 8.583965
_cell_length_c 21.676932
_cell_angle_alpha 90.000000
_cell_angle_beta 141.407552
_cell_angle_gamma 90.000000
_cell_volume 2806.814419
_symmetry_space_group_name_H-M "C 2/M"
_symmetry_group_IT_number 12
_symmetry_cell_setting 'monoclinic'
loop_
_space_group_symop_operation_xyz
x,y,z
-x,y,-z
-x,-y,-z
x,-y,z
1/2+x,1/2+y,z
1/2-x,1/2+y,-z
1/2-x,1/2-y,-z
1/2+x,1/2-y,z
loop_
_atom_site_type_symbol
_atom_site_label
_atom_site_fract_x
_atom_site_fract_y
_atom_site_fract_z
Si Si1 0.942390 0.812552 0.629391
Si Si2 0.230076 0.816362 0.721182
Si Si3 0.426171 0.689090 0.885742
Si Si4 0.549736 0.813944 0.606824
Si Si5 0.721922 0.818275 0.579761
Si Si6 0.932082 0.817375 0.753244
O O1 0.845188 0.746701 0.528847
O O2 0.970187 0.754828 0.722057
O O3 0.004075 0.758473 0.627125
O O4 0.938592 0.000000 0.627415
O O5 0.328885 0.751348 0.817981
O O6 0.152104 0.735069 0.691307
O O7 0.209230 0.776776 0.631603
O O8 0.228070 0.000000 0.729595
O O9 0.420058 0.500000 0.877835
O O10 0.450755 0.747030 0.837930
O O11 0.500000 0.731876 0.000000
O O12 0.500000 0.762803 0.500000
O O13 0.541793 0.000000 0.603171
O O14 0.825295 0.808244 0.653471
O O15 0.701549 0.000000 0.574347
O O16 0.956733 0.000000 0.777460
#
# Coordination Sequence:
#
# PCOD9173634 Si02
#       6
#     8   8   8   8   8   8
#     4  11  20  30  47  72 104 138 171 210 253 298
#     4  11  21  33  52  78 106 134 171 218 260 299
#     4   9  18  36  61  82 103 134 169 208 258 313
#     4  11  22  35  51  70 101 143 181 215 247 300
#     4  10  18  31  48  69 102 140 175 206 244 303
#     4   8  17  31  48  74 104 132 167 209 254 303
#
# _framework density 17.101237999999999
#
# number of rings (size 3 to 8) (size 9 to 14) (size 15 to 20)
#    0.000    2.000    1.667    4.500    0.000    1.000 
#    0.000    7.500    0.000    1.000    0.000    0.000 
#    0.000    0.000    0.000    0.000    0.000    0.000 
#
# Total GULP energy -133838.193795 kJ/mol
# GULP energy per Si atom -5576.591408 kJ/mol
# Density = 1.706232 g / cm^3
# Si number density = 17.101238 Si / 1000 Ang^3
#
#
#
# Elastic Constant Matrix: (Units=GPa)
#
#
# Indices 1 2 3 4 5 6 
#
# 1 61.0179 1.2526 46.1233 0.0000 -15.4862 0.0000
# 2 1.2526 19.9327 13.7026 0.0000 -1.0957 0.0000
# 3 46.1233 13.7026 111.0671 0.0000 -14.7785 0.0000
# 4 0.0000 0.0000 0.0000 17.8188 0.0000 3.3888
# 5 -15.4862 -1.0957 -14.7785 0.0000 16.9819 0.0000
# 6 0.0000 0.0000 0.0000 3.3888 0.0000 14.5681
#
#
#
# Elastic Compliance Matrix: (Units=1/GPa)
#
#
# Indices 1 2 3 4 5 6 
#
# 1 0.028433 0.006223 -0.010260 0.000000 0.017401 0.000000
# 2 0.006223 0.056286 -0.009376 0.000000 0.001147 0.000000
# 3 -0.010260 -0.009376 0.014810 0.000000 0.002928 0.000000
# 4 0.000000 0.000000 0.000000 0.058718 0.000000 -0.013659
# 5 0.017401 0.001147 0.002928 0.000000 0.077377 0.000000
# 6 0.000000 0.000000 0.000000 -0.013659 0.000000 0.071821
#
#
# Mechanical properties :
#
#
# Convention : Reuss Voigt Hill
#
# Bulk Modulus (GPa) = 13.75439 34.90830 24.33134
# Shear Modulus (GPa) = 13.94683 18.60303 16.27493
#
# Velocity S-wave (km/s) = 2.85887 3.30179 3.08828
# Velocity P-wave (km/s) = 4.35407 5.91547 5.19378
#
# Compressibility (1/GPa) = 0.07270408
#
# Stress axis : x y z
#
# Youngs Moduli (GPa) = 35.17094 17.76636 67.52022
#
# Poissons Ratio (x) = -0.11056 0.69273
# Poissons Ratio (y) = -0.21886 0.63305
# Poissons Ratio (z) = 0.36084 0.16657
#
# Static dielectric constant tensor:
#      x y z
#    x 1.603920 0.000000 -0.019370 
#    y 0.000000 1.578110 0.000000 
#    z -0.019370 0.000000 1.570840 
# 
# From -- ./inp_files/323515.got.cif
#   From: 2010.05.17/outbox.cif.g08.bks.cpg/sg12_162_cif.got.tgz:323515.got - 2010.06.03 13:09:07.
