data_PCOD9173555
_publ_section_title
;
Structure prediction by ZEFSAII (Michael W. Deem and Ramdas Pophale) SiO2 
 PCOD9173555
Probable space group: C 2/M
;
_chemical_formula_sum "Si O2"
_cell_formula_units_Z 64
_cell_length_a 17.285945
_cell_length_b 18.572636
_cell_length_c 19.173788
_cell_angle_alpha 90.000000
_cell_angle_beta 32.838791
_cell_angle_gamma 90.000000
_cell_volume 3338.073696
_symmetry_space_group_name_H-M "C 2/M"
_symmetry_group_IT_number 12
_symmetry_cell_setting 'monoclinic'
loop_
_space_group_symop_operation_xyz
x,y,z
-x,y,-z
-x,-y,-z
x,-y,z
1/2+x,1/2+y,z
1/2-x,1/2+y,-z
1/2-x,1/2-y,-z
1/2+x,1/2-y,z
loop_
_atom_site_type_symbol
_atom_site_label
_atom_site_fract_x
_atom_site_fract_y
_atom_site_fract_z
Si Si1 0.150280 0.697956 0.240797
Si Si2 0.406656 0.651538 0.136425
Si Si3 0.402408 0.414698 0.291810
Si Si4 0.340578 0.177757 0.916193
Si Si5 0.314662 0.794617 0.515859
Si Si6 0.372786 0.789024 0.238327
Si Si7 0.647286 0.919461 0.846766
Si Si8 0.679368 0.362485 0.165368
O O1 0.247421 0.665351 0.227873
O O2 0.187355 0.654959 0.141444
O O3 0.183318 0.781630 0.195123
O O4 0.983549 0.697311 0.384266
O O5 0.420879 0.604327 0.195417
O O6 0.450018 0.732135 0.128260
O O7 0.500000 0.627492 0.000000
O O8 0.397631 0.500000 0.305165
O O9 0.261506 0.372031 0.422146
O O10 0.530349 0.380318 0.240850
O O11 0.507627 0.194113 0.794983
O O12 0.250000 0.250000 0.000000
O O13 0.293923 0.128778 0.015916
O O14 0.250000 0.750000 0.500000
O O15 0.259122 0.750646 0.625573
O O16 0.333075 0.859814 0.226852
O O17 0.773904 0.912848 0.806929
O O18 0.638432 0.000000 0.825029
O O19 0.500000 0.904184 0.000000
#
# Coordination Sequence:
#
# PCOD9173555 Si02
#       8
#     8   8   8   8   8   8   8   8
#     4  11  20  35  64  95 117 154 213 255 303 354
#     4  11  21  38  63  94 124 159 201 257 312 365
#     4  11  25  42  62  90 126 165 203 252 313 374
#     4  10  18  30  56  90 117 149 198 260 303 354
#     4  11  21  41  64  89 118 165 212 255 291 357
#     4  11  20  35  58  84 125 156 204 253 306 354
#     4  11  22  36  56  88 129 163 199 253 317 374
#     4  11  19  37  62  89 122 160 202 256 310 370
#
# _framework density 19.172733999999998
#
# number of rings (size 3 to 8) (size 9 to 14) (size 15 to 20)
#    0.000    1.125    5.000    5.250    0.000    2.250 
#    0.000    1.875    0.000    3.000    0.000    0.000 
#    0.000    0.000    0.000    0.000    0.000    0.000 
#
# Total GULP energy -178580.422455 kJ/mol
# GULP energy per Si atom -5580.638202 kJ/mol
# Density = 1.912910 g / cm^3
# Si number density = 19.172734 Si / 1000 Ang^3
#
#
#
# Elastic Constant Matrix: (Units=GPa)
#
#
# Indices 1 2 3 4 5 6 
#
# 1 107.8903 15.1180 18.6698 -0.0014 -10.6194 0.0003
# 2 15.1180 72.3035 11.6040 -0.0037 5.9949 0.0014
# 3 18.6698 11.6040 81.7875 -0.0066 -11.8025 0.0026
# 4 -0.0014 -0.0037 -0.0066 10.1966 0.0029 1.7038
# 5 -10.6194 5.9949 -11.8025 0.0029 30.3293 -0.0008
# 6 0.0003 0.0014 0.0026 1.7038 -0.0008 20.4853
#
#
#
# Elastic Compliance Matrix: (Units=1/GPa)
#
#
# Indices 1 2 3 4 5 6 
#
# 1 0.010170 -0.002163 -0.001525 -0.000001 0.003395 0.000000
# 2 -0.002163 0.015037 -0.002307 0.000005 -0.004628 -0.000001
# 3 -0.001525 -0.002307 0.013658 0.000007 0.005237 -0.000002
# 4 -0.000001 0.000005 0.000007 0.099454 -0.000009 -0.008272
# 5 0.003395 -0.004628 0.005237 -0.000009 0.037113 0.000002
# 6 0.000000 -0.000001 -0.000002 -0.008272 0.000002 0.049503
#
#
# Mechanical properties :
#
#
# Convention : Reuss Voigt Hill
#
# Bulk Modulus (GPa) = 37.21050 39.19610 38.20330
# Shear Modulus (GPa) = 20.33479 26.64153 23.48816
#
# Velocity S-wave (km/s) = 3.26023 3.73171 3.50391
# Velocity P-wave (km/s) = 5.79848 6.24945 6.02818
#
# Compressibility (1/GPa) = 0.02687413
#
# Stress axis : x y z
#
# Youngs Moduli (GPa) = 98.33040 66.50308 73.21735
#
# Poissons Ratio (x) = 0.14386 0.11163
# Poissons Ratio (y) = 0.21271 0.16894
# Poissons Ratio (z) = 0.14992 0.15345
#
# Static dielectric constant tensor:
#      x y z
#    x 1.728010 0.000000 0.007760 
#    y 0.000000 1.671590 0.000000 
#    z 0.007760 0.000000 1.694250 
# 
# From -- ./inp_files/317360.got.cif
#   From: 2010.05.17/outbox.cif.g08.bks.cpg/sg12_159_cif.got.tgz:317360.got - 2010.06.03 13:09:07.
