data_PCOD9173366
_publ_section_title
;
Structure prediction by ZEFSAII (Michael W. Deem and Ramdas Pophale) SiO2 
 PCOD9173366
Probable space group: C 2/M
;
_chemical_formula_sum "Si O2"
_cell_formula_units_Z 48
_cell_length_a 25.115315
_cell_length_b 7.404482
_cell_length_c 13.980672
_cell_angle_alpha 90.000000
_cell_angle_beta 53.506561
_cell_angle_gamma 90.000000
_cell_volume 2090.147215
_symmetry_space_group_name_H-M "C 2/M"
_symmetry_group_IT_number 12
_symmetry_cell_setting 'monoclinic'
loop_
_space_group_symop_operation_xyz
x,y,z
-x,y,-z
-x,-y,-z
x,-y,z
1/2+x,1/2+y,z
1/2-x,1/2+y,-z
1/2-x,1/2-y,-z
1/2+x,1/2-y,z
loop_
_atom_site_type_symbol
_atom_site_label
_atom_site_fract_x
_atom_site_fract_y
_atom_site_fract_z
Si Si1 0.062234 0.720830 0.703235
Si Si2 0.700038 0.784046 0.640461
Si Si3 0.338934 0.214662 0.788461
Si Si4 0.431254 0.219751 0.523151
Si Si5 0.086073 0.721074 0.100580
Si Si6 0.703185 0.216044 0.848299
O O1 0.062064 0.500000 0.704035
O O2 0.126362 0.780952 0.693074
O O3 0.070890 0.779285 0.583832
O O4 0.990264 0.778204 0.817598
O O5 0.750000 0.750000 0.500000
O O6 0.720208 0.714693 0.723917
O O7 0.696391 0.000000 0.651287
O O8 0.372876 0.283651 0.654764
O O9 0.377096 0.281569 0.841297
O O10 0.261101 0.245383 0.862069
O O11 0.349306 0.000000 0.778700
O O12 0.500000 0.270286 0.500000
O O13 0.429524 0.000000 0.522003
O O14 0.085518 0.500000 0.101461
O O15 0.132586 0.779711 0.963620
O O16 0.699266 0.000000 0.847137
#
# Coordination Sequence:
#
# PCOD9173366 Si02
#       6
#     8   8   8   8   8   8
#     4   9  16  28  48  74 100 126 163 210 250 286
#     4  10  21  36  54  75 100 131 166 206 251 299
#     4  10  18  30  52  77 100 132 171 207 243 289
#     4   9  14  23  43  73  98 115 151 208 251 275
#     4   9  17  30  49  75 103 130 166 210 250 288
#     4  10  21  34  48  72 106 137 163 200 251 300
#
# _framework density 22.96489
#
# number of rings (size 3 to 8) (size 9 to 14) (size 15 to 20)
#    0.000    2.500    1.667    1.500    0.000    2.667 
#    0.000    3.333    0.000    2.500    0.000    2.333 
#    0.000    0.000    0.000    0.000    0.000    0.000 
#
# Total GULP energy -134087.518344 kJ/mol
# GULP energy per Si atom -5586.979931 kJ/mol
# Density = 2.291262 g / cm^3
# Si number density = 22.964890 Si / 1000 Ang^3
#
#
#
# Elastic Constant Matrix: (Units=GPa)
#
#
# Indices 1 2 3 4 5 6 
#
# 1 125.0351 -4.3361 38.1820 -0.0001 -14.9226 0.0000
# 2 -4.3361 73.3923 -3.4156 -0.0001 2.0693 -0.0002
# 3 38.1820 -3.4156 116.9122 0.0000 -20.0211 0.0000
# 4 -0.0001 -0.0001 0.0000 -10.7445 0.0000 4.1626
# 5 -14.9226 2.0693 -20.0211 0.0000 34.1696 0.0000
# 6 0.0000 -0.0002 0.0000 4.1626 0.0000 3.6990
#
#
#
# Elastic Compliance Matrix: (Units=1/GPa)
#
#
# Indices 1 2 3 4 5 6 
#
# 1 0.009077 0.000349 -0.002533 0.000000 0.002459 0.000000
# 2 0.000349 0.013671 0.000189 0.000000 -0.000565 0.000001
# 3 -0.002533 0.000189 0.010220 0.000000 0.004871 0.000000
# 4 0.000000 0.000000 0.000000 -0.064814 0.000000 0.072936
# 5 0.002459 -0.000565 0.004871 0.000000 0.033228 0.000000
# 6 0.000000 0.000001 0.000000 0.072936 0.000000 0.188264
#
#
# Mechanical properties :
#
#
# Convention : Reuss Voigt Hill
#
# Bulk Modulus (GPa) = 34.51006 41.80003 38.15504
# Shear Modulus (GPa) = 24.59479 24.41877 24.50678
#
# Velocity S-wave (km/s) = 3.27612 3.26438 3.27026
# Velocity P-wave (km/s) = 5.41946 5.69644 5.55968
#
# Compressibility (1/GPa) = 0.02897706
#
# Stress axis : x y z
#
# Youngs Moduli (GPa) = 110.17049 73.14889 97.84418
#
# Poissons Ratio (x) = -0.02553 0.24785
# Poissons Ratio (y) = -0.03846 -0.01846
# Poissons Ratio (z) = 0.27908 -0.01380
#
# Static dielectric constant tensor:
#      x y z
#    x 1.835160 0.000000 0.015160 
#    y 0.000000 1.916080 0.000000 
#    z 0.015160 0.000000 1.861350 
# 
# From -- ./inp_files/174393.got.cif
#   From: 2010.05.17/outbox.cif.g08.bks.cpg/sg12_88_cif.got.tgz:174393.got - 2010.06.03 13:09:07.
