data_PCOD9173304
_publ_section_title
;
Structure prediction by ZEFSAII (Michael W. Deem and Ramdas Pophale) SiO2 
 PCOD9173304
Probable space group: C 2/M
;
_chemical_formula_sum "Si O2"
_cell_formula_units_Z 64
_cell_length_a 26.431150
_cell_length_b 7.547852
_cell_length_c 15.135054
_cell_angle_alpha 90.000000
_cell_angle_beta 100.562639
_cell_angle_gamma 90.000000
_cell_volume 2968.255397
_symmetry_space_group_name_H-M "C 2/M"
_symmetry_group_IT_number 12
_symmetry_cell_setting 'monoclinic'
loop_
_space_group_symop_operation_xyz
x,y,z
-x,y,-z
-x,-y,-z
x,-y,z
1/2+x,1/2+y,z
1/2-x,1/2+y,-z
1/2-x,1/2-y,-z
1/2+x,1/2-y,z
loop_
_atom_site_type_symbol
_atom_site_label
_atom_site_fract_x
_atom_site_fract_y
_atom_site_fract_z
Si Si1 0.592582 0.717188 0.124325
Si Si2 0.598130 0.292170 0.927588
Si Si3 0.301216 0.801644 0.137193
Si Si4 0.293373 0.716809 0.786691
Si Si5 0.524417 0.283391 0.598874
Si Si6 0.502180 0.716496 0.784176
Si Si7 0.360427 0.296763 0.328596
Si Si8 0.232782 0.289452 0.593370
O O1 0.592176 0.500000 0.123751
O O2 0.648305 0.771547 0.178620
O O3 0.544827 0.773408 0.169149
O O4 0.588334 0.780269 0.022056
O O5 0.587095 0.500000 0.929840
O O6 0.657463 0.276142 0.917227
O O7 0.556929 0.223428 0.842846
O O8 0.246676 0.720403 0.150050
O O9 0.332439 0.802796 0.240030
O O10 0.290613 0.000000 0.102800
O O11 0.291819 0.500000 0.789019
O O12 0.271682 0.770909 0.683683
O O13 0.500000 0.220357 0.500000
O O14 0.523784 0.500000 0.595893
O O15 0.497055 0.228029 0.680837
O O16 0.583759 0.229534 0.628142
O O17 0.502251 0.500000 0.783264
O O18 0.366094 0.500000 0.298653
O O19 0.322229 0.291275 0.399126
O O20 0.228002 0.500000 0.600767
O O21 0.250000 0.250000 0.500000
#
# Coordination Sequence:
#
# PCOD9173304 Si02
#       8
#     8   8   8   8   8   8   8   8
#     4   9  17  29  49  74 103 133 165 215 271 311
#     4  10  18  30  51  79 100 126 171 217 263 316
#     4  10  19  32  51  72 101 139 174 210 255 309
#     4   8  17  32  47  71 103 133 169 212 257 308
#     4   9  17  28  46  77 108 130 162 212 264 311
#     4   9  16  28  46  73 105 130 162 210 259 308
#     4  10  18  32  53  77 104 132 170 218 262 307
#     4  10  20  34  53  77 104 137 178 216 259 313
#
# _framework density 21.561487
#
# number of rings (size 3 to 8) (size 9 to 14) (size 15 to 20)
#    0.000    2.625    1.250    2.250    0.000    3.000 
#    0.000    3.750    0.000    6.750    0.000    0.000 
#    0.000    0.000    0.000    0.000    0.000    0.000 
#
# Total GULP energy -178598.113710 kJ/mol
# GULP energy per Si atom -5581.191053 kJ/mol
# Density = 2.151241 g / cm^3
# Si number density = 21.561487 Si / 1000 Ang^3
#
#
#
# Elastic Constant Matrix: (Units=GPa)
#
#
# Indices 1 2 3 4 5 6 
#
# 1 106.9643 -3.9124 49.4680 0.0000 -20.6915 0.0000
# 2 -3.9124 51.9242 -0.9158 0.0000 3.4852 0.0000
# 3 49.4680 -0.9158 119.4516 0.0000 -28.1913 0.0000
# 4 0.0000 0.0000 0.0000 0.9709 0.0000 -4.1500
# 5 -20.6915 3.4852 -28.1913 0.0000 33.4245 0.0000
# 6 0.0000 0.0000 0.0000 -4.1500 0.0000 14.1515
#
#
#
# Elastic Compliance Matrix: (Units=1/GPa)
#
#
# Indices 1 2 3 4 5 6 
#
# 1 0.012001 0.000567 -0.004028 0.000000 0.003973 0.000000
# 2 0.000567 0.019437 -0.000601 0.000000 -0.002183 0.000000
# 3 -0.004028 -0.000601 0.011813 0.000000 0.007532 0.000000
# 4 0.000000 0.000000 0.000000 -4.063588 0.000000 -1.191658
# 5 0.003973 -0.002183 0.007532 0.000000 0.038958 0.000000
# 6 0.000000 0.000000 0.000000 -1.191658 0.000000 -0.278793
#
#
# Mechanical properties :
#
#
# Convention : Reuss Voigt Hill
#
# Bulk Modulus (GPa) = 28.46821 40.84663 34.65742
# Shear Modulus (GPa) = -1.17915 25.28941 12.05513
#
# Velocity S-wave (km/s) = -0.74031 3.42847 2.36710
# Velocity P-wave (km/s) = 3.53570 5.88710 4.85588
#
# Compressibility (1/GPa) = 0.03512690
#
# Stress axis : x y z
#
# Youngs Moduli (GPa) = 83.32660 51.44709 84.65417
#
# Poissons Ratio (x) = -0.02915 0.34098
# Poissons Ratio (y) = -0.04721 0.05085
# Poissons Ratio (z) = 0.33564 0.03091
#
# Static dielectric constant tensor:
#      x y z
#    x 1.761830 0.000000 -0.008430 
#    y 0.000000 1.887160 0.000000 
#    z -0.008430 0.000000 1.762460 
# 
# From -- ./inp_files/244049.got.cif
#   From: 2010.05.17/outbox.cif.g08.bks.cpg/sg12_123_cif.got.tgz:244049.got - 2010.06.03 13:09:07.
