data_PCOD9173845
_publ_section_title
;
Structure prediction by ZEFSAII (Michael W. Deem and Ramdas Pophale) SiO2 
 PCOD9173845
Probable space group: C 2/M
;
_chemical_formula_sum "Si O2"
_cell_formula_units_Z 64
_cell_length_a 23.943680
_cell_length_b 18.784735
_cell_length_c 14.892510
_cell_angle_alpha 90.000000
_cell_angle_beta 151.778201
_cell_angle_gamma 90.000000
_cell_volume 3167.527265
_symmetry_space_group_name_H-M "C 2/M"
_symmetry_group_IT_number 12
_symmetry_cell_setting 'monoclinic'
loop_
_space_group_symop_operation_xyz
x,y,z
-x,y,-z
-x,-y,-z
x,-y,z
1/2+x,1/2+y,z
1/2-x,1/2+y,-z
1/2-x,1/2-y,-z
1/2+x,1/2-y,z
loop_
_atom_site_type_symbol
_atom_site_label
_atom_site_fract_x
_atom_site_fract_y
_atom_site_fract_z
Si Si1 0.078936 0.842657 0.343928
Si Si2 0.538052 0.818777 0.460190
Si Si3 0.814809 0.584307 0.635977
Si Si4 0.746943 0.766096 0.153278
Si Si5 0.380734 0.694277 0.183344
Si Si6 0.929108 0.915659 0.985606
Si Si7 0.502069 0.788779 0.107939
Si Si8 0.689739 0.081451 0.578338
O O1 0.210792 0.872843 0.539762
O O2 0.067408 0.767611 0.270010
O O3 0.002379 0.842731 0.326737
O O4 0.004301 0.896047 0.176842
O O5 0.500000 0.854255 0.500000
O O6 0.646842 0.765471 0.636810
O O7 0.428928 0.773093 0.273000
O O8 0.577028 0.872118 0.439308
O O9 0.830167 0.500000 0.683180
O O10 0.930029 0.635199 0.798805
O O11 0.773919 0.583621 0.473685
O O12 0.805902 0.822655 0.166337
O O13 0.696066 0.703930 0.015123
O O14 0.632889 0.792136 0.047084
O O15 0.796328 0.888174 0.789405
O O16 0.917693 0.000000 0.962046
O O17 0.000000 0.890185 0.000000
O O18 0.500000 0.764994 0.000000
O O19 0.666184 0.000000 0.568780
#
# Coordination Sequence:
#
# PCOD9173845 Si02
#       8
#     8   8   8   8   8   8   8   8
#     4  11  20  34  58  88 112 142 192 241 279 333
#     4  10  20  34  54  77 110 148 180 230 292 338
#     4  11  24  39  55  80 118 159 187 225 290 347
#     4   9  19  36  54  80 113 144 181 229 292 340
#     4   9  19  34  55  79 109 148 182 230 286 335
#     4  10  18  31  50  78 116 152 178 219 286 344
#     4  11  24  36  58  88 112 145 190 244 284 334
#     4  10  19  31  51  76 109 150 187 222 269 339
#
# _framework density 20.205034999999999
#
# number of rings (size 3 to 8) (size 9 to 14) (size 15 to 20)
#    0.000    1.875    1.250    4.125    3.500    0.500 
#    0.000    0.000    0.000    3.000    0.000    0.875 
#    0.000    0.000    0.000    0.000    0.000    0.000 
#
# Total GULP energy -178243.177690 kJ/mol
# GULP energy per Si atom -5570.099303 kJ/mol
# Density = 2.015905 g / cm^3
# Si number density = 20.205035 Si / 1000 Ang^3
#
#
#
# Elastic Constant Matrix: (Units=GPa)
#
#
# Indices 1 2 3 4 5 6 
#
# 1 135.8518 31.4111 18.1500 0.0000 35.7719 0.0000
# 2 31.4111 64.4974 30.7714 0.0000 16.8180 0.0000
# 3 18.1500 30.7714 64.5352 0.0000 20.2706 0.0000
# 4 0.0000 0.0000 0.0000 20.6679 0.0000 -3.8580
# 5 35.7719 16.8180 20.2706 0.0000 36.1571 0.0000
# 6 0.0000 0.0000 0.0000 -3.8580 0.0000 13.6090
#
#
#
# Elastic Compliance Matrix: (Units=1/GPa)
#
#
# Indices 1 2 3 4 5 6 
#
# 1 0.010485 -0.003386 0.001735 0.000000 -0.009771 0.000000
# 2 -0.003386 0.021880 -0.008904 0.000000 -0.001835 0.000000
# 3 0.001735 -0.008904 0.022443 0.000000 -0.010157 0.000000
# 4 0.000000 0.000000 0.000000 0.051088 0.000000 0.014483
# 5 -0.009771 -0.001835 -0.010157 0.000000 0.043872 0.000000
# 6 0.000000 0.000000 0.000000 0.014483 0.000000 0.077586
#
#
# Mechanical properties :
#
#
# Convention : Reuss Voigt Hill
#
# Bulk Modulus (GPa) = 29.67549 47.28326 38.47938
# Shear Modulus (GPa) = 19.25313 26.39026 22.82170
#
# Velocity S-wave (km/s) = 3.09024 3.61795 3.36446
# Velocity P-wave (km/s) = 5.23945 6.39573 5.84624
#
# Compressibility (1/GPa) = 0.03369785
#
# Stress axis : x y z
#
# Youngs Moduli (GPa) = 95.37516 45.70333 44.55639
#
# Poissons Ratio (x) = 0.15476 -0.07730
# Poissons Ratio (y) = 0.32296 0.39673
# Poissons Ratio (z) = -0.16546 0.40694
#
# Static dielectric constant tensor:
#      x y z
#    x 1.814360 0.000000 0.013240 
#    y 0.000000 1.727230 0.000000 
#    z 0.013240 0.000000 1.765070 
# 
# From -- ./inp_files/241503.got.cif
#   From: 2010.05.17/outbox.cif.g08.bks.cpg/sg12_121_cif.got.tgz:241503.got - 2010.06.03 13:09:07.
