data_PCOD9173479
_publ_section_title
;
Structure prediction by ZEFSAII (Michael W. Deem and Ramdas Pophale) SiO2 
 PCOD9173479
Probable space group: C 2/M
;
_chemical_formula_sum "Si O2"
_cell_formula_units_Z 40
_cell_length_a 10.719116
_cell_length_b 18.906358
_cell_length_c 17.227090
_cell_angle_alpha 90.000000
_cell_angle_beta 145.900006
_cell_angle_gamma 90.000000
_cell_volume 1957.320770
_symmetry_space_group_name_H-M "C 2/M"
_symmetry_group_IT_number 12
_symmetry_cell_setting 'monoclinic'
loop_
_space_group_symop_operation_xyz
x,y,z
-x,y,-z
-x,-y,-z
x,-y,z
1/2+x,1/2+y,z
1/2-x,1/2+y,-z
1/2-x,1/2-y,-z
1/2+x,1/2-y,z
loop_
_atom_site_type_symbol
_atom_site_label
_atom_site_fract_x
_atom_site_fract_y
_atom_site_fract_z
Si Si1 0.252505 0.867040 0.095542
Si Si2 0.239330 0.783365 0.850996
Si Si3 0.476343 0.229839 0.574703
Si Si4 0.914045 0.078927 0.148574
Si Si5 0.411786 0.923389 0.335188
O O1 0.329334 0.785270 0.132808
O O2 0.387099 0.909784 0.230000
O O3 0.000000 0.864292 0.000000
O O4 0.239412 0.902742 0.005300
O O5 0.177080 0.757060 0.732646
O O6 0.115054 0.855442 0.808704
O O7 0.500000 0.795100 0.000000
O O8 0.500000 0.257306 0.500000
O O9 0.250000 0.250000 0.500000
O O10 0.471464 0.144901 0.571134
O O11 0.164141 0.077547 0.243785
O O12 0.862909 0.000000 0.152158
O O13 0.513709 0.000000 0.403575
#
# Coordination Sequence:
#
# PCOD9173479 Si02
#       5
#     8   8   8   8   8
#     4   8  15  28  49  79 110 140 180 235 293 343
#     4  10  21  36  57  82 114 156 202 245 294 357
#     4  11  24  42  63  89 122 159 199 247 301 356
#     4  10  18  30  53  85 119 152 195 251 301 346
#     4   9  18  33  55  84 115 150 194 245 301 357
#
# _framework density 20.4361
#
# number of rings (size 3 to 8) (size 9 to 14) (size 15 to 20)
#    0.000    2.400    0.000    3.600    0.000    6.400 
#    0.000    1.000    0.000    2.400    0.000    0.000 
#    0.000    0.000    0.000    0.000    0.000    0.000 
#
# Total GULP energy -111653.166182 kJ/mol
# GULP energy per Si atom -5582.658309 kJ/mol
# Density = 2.038959 g / cm^3
# Si number density = 20.436100 Si / 1000 Ang^3
#
#
#
# Elastic Constant Matrix: (Units=GPa)
#
#
# Indices 1 2 3 4 5 6 
#
# 1 59.9126 38.8066 28.9405 -0.0004 -10.1621 -0.0004
# 2 38.8066 173.6239 18.1646 -0.0002 -1.3809 -0.0002
# 3 28.9405 18.1646 66.4442 -0.0017 -8.6108 -0.0014
# 4 -0.0004 -0.0002 -0.0017 14.5753 -0.0003 6.9096
# 5 -10.1621 -1.3809 -8.6108 -0.0003 21.8724 -0.0003
# 6 -0.0004 -0.0002 -0.0014 6.9096 -0.0003 21.3870
#
#
#
# Elastic Compliance Matrix: (Units=1/GPa)
#
#
# Indices 1 2 3 4 5 6 
#
# 1 0.025281 -0.004677 -0.008692 0.000000 0.008029 0.000000
# 2 -0.004677 0.006796 -0.000049 0.000000 -0.001763 0.000000
# 3 -0.008692 -0.000049 0.019311 0.000002 0.003561 0.000001
# 4 0.000000 0.000000 0.000002 0.081018 0.000001 -0.026175
# 5 0.008029 -0.001763 0.003561 0.000001 0.050740 0.000001
# 6 0.000000 0.000000 0.000001 -0.026175 0.000001 0.055214
#
#
# Mechanical properties :
#
#
# Convention : Reuss Voigt Hill
#
# Bulk Modulus (GPa) = 40.73201 52.42270 46.57736
# Shear Modulus (GPa) = 18.28944 25.83821 22.06383
#
# Velocity S-wave (km/s) = 2.99483 3.55962 3.28937
# Velocity P-wave (km/s) = 5.65096 6.52703 6.10473
#
# Compressibility (1/GPa) = 0.02455071
#
# Stress axis : x y z
#
# Youngs Moduli (GPa) = 39.55518 147.14268 51.78343
#
# Poissons Ratio (x) = 0.68823 0.45012
# Poissons Ratio (y) = 0.18501 0.00255
# Poissons Ratio (z) = 0.34383 0.00724
#
# Static dielectric constant tensor:
#      x y z
#    x 1.635840 0.000000 0.036980 
#    y 0.000000 1.747210 0.000000 
#    z 0.036980 0.000000 1.726730 
# 
# From -- ./inp_files/241224.got.cif
#   From: 2010.05.17/outbox.cif.g08.bks.cpg/sg12_121_cif.got.tgz:241224.got - 2010.06.03 13:09:07.
