data_PCOD9173266
_publ_section_title
;
Structure prediction by ZEFSAII (Michael W. Deem and Ramdas Pophale) SiO2 
 PCOD9173266
Probable space group: C 2/M
;
_chemical_formula_sum "Si O2"
_cell_formula_units_Z 44
_cell_length_a 24.311216
_cell_length_b 10.729909
_cell_length_c 11.882155
_cell_angle_alpha 90.000000
_cell_angle_beta 36.843753
_cell_angle_gamma 90.000000
_cell_volume 1858.595272
_symmetry_space_group_name_H-M "C 2/M"
_symmetry_group_IT_number 12
_symmetry_cell_setting 'monoclinic'
loop_
_space_group_symop_operation_xyz
x,y,z
-x,y,-z
-x,-y,-z
x,-y,z
1/2+x,1/2+y,z
1/2-x,1/2+y,-z
1/2-x,1/2-y,-z
1/2+x,1/2-y,z
loop_
_atom_site_type_symbol
_atom_site_label
_atom_site_fract_x
_atom_site_fract_y
_atom_site_fract_z
Si Si1 0.851994 0.000000 0.851300
Si Si2 0.595409 0.769053 0.010988
Si Si3 0.190935 0.000000 0.320995
Si Si4 0.879192 0.000000 0.060541
Si Si5 0.686525 0.771058 0.319511
Si Si6 0.184126 0.500000 0.475771
Si Si7 0.081532 0.725890 0.284782
Si Si8 0.626262 0.000000 0.826914
O O1 0.784241 0.000000 0.854156
O O2 0.911076 0.875242 0.740032
O O3 0.826301 0.000000 0.024848
O O4 0.563855 0.628759 0.031973
O O5 0.705843 0.749549 0.837732
O O6 0.577611 0.875562 0.950526
O O7 0.570840 0.818121 0.175466
O O8 0.142243 0.865706 0.415196
O O9 0.276502 0.000000 0.264647
O O10 0.796609 0.000000 0.286323
O O11 0.654501 0.877045 0.456449
O O12 0.669361 0.807991 0.217597
O O13 0.147389 0.500000 0.661325
O O14 0.000000 0.688229 0.500000
#
# Coordination Sequence:
#
# PCOD9173266 Si02
#       8
#     4   8   4   4   8   4   8   4
#     4   8  15  30  48  76 108 128 143 188 259 302
#     4   9  18  32  50  73 102 130 157 197 247 292
#     4   8  16  29  50  74  98 126 155 190 241 299
#     4   8  16  29  50  74  98 126 155 190 241 299
#     4   9  18  32  50  73 102 130 157 197 247 292
#     4  10  20  32  47  70  99 131 169 210 243 275
#     4  10  18  30  51  77 102 128 162 197 238 298
#     4  10  20  32  47  70  99 131 169 210 243 275
#
# _framework density 23.673793
#
# number of rings (size 3 to 8) (size 9 to 14) (size 15 to 20)
#    0.000    2.909    0.000    0.818    0.000   11.636 
#    0.000    1.818    0.000    2.182    0.000    0.000 
#    0.000   45.091    0.000    0.000    0.000    0.000 
#
# Total GULP energy -122735.655007 kJ/mol
# GULP energy per Si atom -5578.893409 kJ/mol
# Density = 2.361991 g / cm^3
# Si number density = 23.673793 Si / 1000 Ang^3
#
#
#
# Elastic Constant Matrix: (Units=GPa)
#
#
# Indices 1 2 3 4 5 6 
#
# 1 65.1560 16.9703 45.8544 0.0000 13.3183 0.0000
# 2 16.9703 158.0003 82.2638 0.0000 34.1136 0.0000
# 3 45.8544 82.2638 147.3913 0.0000 55.2479 0.0000
# 4 0.0000 0.0000 0.0000 47.8612 0.0000 37.0086
# 5 13.3183 34.1136 55.2479 0.0000 31.4121 0.0000
# 6 0.0000 0.0000 0.0000 37.0086 0.0000 23.4062
#
#
#
# Elastic Compliance Matrix: (Units=1/GPa)
#
#
# Indices 1 2 3 4 5 6 
#
# 1 0.020411 0.001367 -0.009722 0.000000 0.006961 0.000000
# 2 0.001367 0.009094 -0.004642 0.000000 -0.002291 0.000000
# 3 -0.009722 -0.004642 0.026312 0.000000 -0.037115 0.000000
# 4 0.000000 0.000000 0.000000 -0.093853 0.000000 0.148395
# 5 0.006961 -0.002291 -0.037115 0.000000 0.096650 0.000000
# 6 0.000000 0.000000 0.000000 0.148395 0.000000 -0.191911
#
#
# Mechanical properties :
#
#
# Convention : Reuss Voigt Hill
#
# Bulk Modulus (GPa) = 33.53196 73.41382 53.47289
# Shear Modulus (GPa) = -51.35497 35.56650 -7.89424
#
# Velocity S-wave (km/s) = -4.66260 3.88023 -1.82807
# Velocity P-wave (km/s) = 3.84598 7.15212 4.26388
#
# Compressibility (1/GPa) = 0.02982229
#
# Stress axis : x y z
#
# Youngs Moduli (GPa) = 48.99341 109.96466 38.00525
#
# Poissons Ratio (x) = -0.15028 0.36949
# Poissons Ratio (y) = -0.06695 0.17642
# Poissons Ratio (z) = 0.47631 0.51045
#
# Static dielectric constant tensor:
#      x y z
#    x 1.939210 0.000000 -0.044620 
#    y 0.000000 2.004720 0.000000 
#    z -0.044620 0.000000 1.897980 
# 
# From -- ./inp_files/84215.got.cif
#   From: 2010.05.17/outbox.cif.g08.bks.cpg/sg12_43_cif.got.tgz:84215.got - 2010.06.03 13:09:07.
