data_PCOD9173347
_publ_section_title
;
Structure prediction by ZEFSAII (Michael W. Deem and Ramdas Pophale) SiO2 
 PCOD9173347
Probable space group: C 2/M
;
_chemical_formula_sum "Si O2"
_cell_formula_units_Z 64
_cell_length_a 9.785699
_cell_length_b 20.481216
_cell_length_c 21.933942
_cell_angle_alpha 90.000000
_cell_angle_beta 54.894408
_cell_angle_gamma 90.000000
_cell_volume 3596.394074
_symmetry_space_group_name_H-M "C 2/M"
_symmetry_group_IT_number 12
_symmetry_cell_setting 'monoclinic'
loop_
_space_group_symop_operation_xyz
x,y,z
-x,y,-z
-x,-y,-z
x,-y,z
1/2+x,1/2+y,z
1/2-x,1/2+y,-z
1/2-x,1/2-y,-z
1/2+x,1/2-y,z
loop_
_atom_site_type_symbol
_atom_site_label
_atom_site_fract_x
_atom_site_fract_y
_atom_site_fract_z
Si Si1 0.841172 0.280981 0.581304
Si Si2 0.738418 0.927692 0.364611
Si Si3 0.949833 0.425724 0.189279
Si Si4 0.126068 0.579389 0.021855
Si Si5 0.099037 0.119257 0.250930
Si Si6 0.954169 0.078796 0.871882
Si Si7 0.024028 0.255952 0.323288
Si Si8 0.172776 0.609886 0.242380
O O1 0.825923 0.360558 0.588061
O O2 0.667873 0.248482 0.605539
O O3 0.000000 0.263691 0.500000
O O4 0.868163 0.255165 0.642896
O O5 0.687137 0.921596 0.306207
O O6 0.940064 0.921579 0.315499
O O7 0.687602 0.000000 0.399980
O O8 0.905769 0.500000 0.184223
O O9 0.772755 0.390714 0.240605
O O10 0.056333 0.398470 0.104953
O O11 0.060232 0.425425 0.221375
O O12 0.128189 0.500000 0.021624
O O13 0.315152 0.598611 0.956773
O O14 0.000000 0.599172 0.000000
O O15 0.118163 0.098335 0.175805
O O16 0.048319 0.194189 0.273289
O O17 0.136118 0.111164 0.830092
O O18 0.976984 0.000000 0.867751
O O19 0.084222 0.320630 0.274099
#
# Coordination Sequence:
#
# PCOD9173347 Si02
#       8
#     8   8   8   8   8   8   8   8
#     4  10  20  35  56  77 101 132 162 199 240 291
#     4   9  18  33  51  75 103 129 160 200 249 296
#     4  11  19  28  48  76  99 125 164 209 258 297
#     4   9  17  29  46  71 100 128 165 209 250 298
#     4  10  18  30  52  71  95 131 167 209 241 285
#     4  10  18  32  52  72  98 131 165 207 258 299
#     4  10  21  36  52  75 101 130 169 202 239 284
#     4  10  20  32  48  70 103 134 162 205 252 291
#
# _framework density 17.795603
#
# number of rings (size 3 to 8) (size 9 to 14) (size 15 to 20)
#    0.000    2.125    1.250    4.875    0.000    0.750 
#    0.000    1.875    0.000    4.500    0.000    0.000 
#    0.000   23.000    0.000    0.000    0.000    0.000 
#
# Total GULP energy -178290.944202 kJ/mol
# GULP energy per Si atom -5571.592006 kJ/mol
# Density = 1.775510 g / cm^3
# Si number density = 17.795603 Si / 1000 Ang^3
#
#
#
# Elastic Constant Matrix: (Units=GPa)
#
#
# Indices 1 2 3 4 5 6 
#
# 1 73.6232 8.7088 10.3468 0.0000 -20.2035 0.0000
# 2 8.7088 73.4151 21.4617 0.0000 -11.5570 0.0000
# 3 10.3468 21.4617 63.2126 0.0000 -19.6265 0.0000
# 4 0.0000 0.0000 0.0000 13.7581 0.0000 -4.6864
# 5 -20.2035 -11.5570 -19.6265 0.0000 26.8457 0.0000
# 6 0.0000 0.0000 0.0000 -4.6864 0.0000 14.7109
#
#
#
# Elastic Compliance Matrix: (Units=1/GPa)
#
#
# Indices 1 2 3 4 5 6 
#
# 1 0.017243 -0.000316 0.001645 0.000000 0.014043 0.000000
# 2 -0.000316 0.015396 -0.004129 0.000000 0.003372 0.000000
# 3 0.001645 -0.004129 0.021713 0.000000 0.015335 0.000000
# 4 0.000000 0.000000 0.000000 0.081532 0.000000 0.025973
# 5 0.014043 0.003372 0.015335 0.000000 0.060481 0.000000
# 6 0.000000 0.000000 0.000000 0.025973 0.000000 0.076251
#
#
# Mechanical properties :
#
#
# Convention : Reuss Voigt Hill
#
# Bulk Modulus (GPa) = 20.51121 32.36504 26.43812
# Shear Modulus (GPa) = 16.97988 22.37852 19.67920
#
# Velocity S-wave (km/s) = 3.09230 3.55002 3.32903
# Velocity P-wave (km/s) = 4.92958 5.91862 5.44660
#
# Compressibility (1/GPa) = 0.04875382
#
# Stress axis : x y z
#
# Youngs Moduli (GPa) = 57.99622 64.95018 46.05459
#
# Poissons Ratio (x) = 0.02050 -0.07576
# Poissons Ratio (y) = 0.01830 0.19014
# Poissons Ratio (z) = -0.09541 0.26816
#
# Static dielectric constant tensor:
#      x y z
#    x 1.602620 0.000000 -0.010990 
#    y 0.000000 1.613430 0.000000 
#    z -0.010990 0.000000 1.617720 
# 
# From -- ./inp_files/301420.got.cif
#   From: 2010.05.17/outbox.cif.g08.bks.cpg/sg12_151_cif.got.tgz:301420.got - 2010.06.03 13:09:07.
