data_PCOD9173207
_publ_section_title
;
Structure prediction by ZEFSAII (Michael W. Deem and Ramdas Pophale) SiO2 
 PCOD9173207
Probable space group: C 2/M
;
_chemical_formula_sum "Si O2"
_cell_formula_units_Z 56
_cell_length_a 21.881727
_cell_length_b 18.623336
_cell_length_c 20.026901
_cell_angle_alpha 90.000000
_cell_angle_beta 157.985822
_cell_angle_gamma 90.000000
_cell_volume 3059.103273
_symmetry_space_group_name_H-M "C 2/M"
_symmetry_group_IT_number 12
_symmetry_cell_setting 'monoclinic'
loop_
_space_group_symop_operation_xyz
x,y,z
-x,y,-z
-x,-y,-z
x,-y,z
1/2+x,1/2+y,z
1/2-x,1/2+y,-z
1/2-x,1/2-y,-z
1/2+x,1/2-y,z
loop_
_atom_site_type_symbol
_atom_site_label
_atom_site_fract_x
_atom_site_fract_y
_atom_site_fract_z
Si Si1 0.197832 0.317533 0.034147
Si Si2 0.528035 0.304024 0.451088
Si Si3 0.292637 0.080413 0.229858
Si Si4 0.190584 0.847378 0.392574
Si Si5 0.859094 0.637588 0.430977
Si Si6 0.664072 0.178417 0.324709
Si Si7 0.322873 0.648758 0.023746
O O1 0.362667 0.324057 0.244138
O O2 0.218121 0.359742 0.984690
O O3 0.189767 0.232985 0.007648
O O4 0.020993 0.334925 0.886346
O O5 0.500000 0.322822 0.500000
O O6 0.562923 0.217534 0.483772
O O7 0.689698 0.336193 0.579157
O O8 0.260497 0.130573 0.261818
O O9 0.487376 0.085248 0.417713
O O10 0.239341 0.000000 0.191019
O O11 0.223250 0.106904 0.089551
O O12 0.254921 0.881626 0.389933
O O13 0.303816 0.858590 0.571287
O O14 0.180951 0.762863 0.362029
O O15 0.009367 0.868613 0.228979
#
# Coordination Sequence:
#
# PCOD9173207 Si02
#       7
#     8   8   8   8   8   8   8
#     4  10  18  30  51  72  98 127 168 211 265 312
#     4  11  18  30  48  72 105 131 164 205 259 313
#     4  11  21  34  48  68  98 143 189 217 253 297
#     4   9  17  29  47  67  92 122 174 221 255 303
#     4  10  18  32  47  64  94 136 178 216 253 286
#     4   9  18  28  44  74  97 127 166 208 258 319
#     4  10  18  31  49  70  92 127 170 222 263 297
#
# _framework density 18.306018999999999
#
# number of rings (size 3 to 8) (size 9 to 14) (size 15 to 20)
#    0.000    2.000    4.286    1.714    4.000    1.143 
#    0.000    6.429    0.000    0.000    0.000    0.000 
#    0.000    0.571    0.000    4.000    0.000    4.000 
#
# Total GULP energy -155912.387869 kJ/mol
# GULP energy per Si atom -5568.299567 kJ/mol
# Density = 1.826435 g / cm^3
# Si number density = 18.306019 Si / 1000 Ang^3
#
#
#
# Elastic Constant Matrix: (Units=GPa)
#
#
# Indices 1 2 3 4 5 6 
#
# 1 135.2769 9.4272 61.6672 -0.0002 11.3721 0.0010
# 2 9.4272 10.7585 8.0351 -0.0015 -7.0658 0.0002
# 3 61.6672 8.0351 119.9865 -0.0004 5.0956 0.0016
# 4 -0.0002 -0.0015 -0.0004 2.8310 -0.0009 -1.5551
# 5 11.3721 -7.0658 5.0956 -0.0009 31.1108 0.0001
# 6 0.0010 0.0002 0.0016 -1.5551 0.0001 0.7604
#
#
#
# Elastic Compliance Matrix: (Units=1/GPa)
#
#
# Indices 1 2 3 4 5 6 
#
# 1 0.010568 -0.009256 -0.004590 0.000055 -0.005213 0.000112
# 2 -0.009256 0.126527 -0.005116 -0.000555 0.032958 -0.001147
# 3 -0.004590 -0.005116 0.011091 0.000089 -0.001301 0.000166
# 4 0.000055 -0.000555 0.000089 -2.862422 -0.000229 -5.853862
# 5 -0.005213 0.032958 -0.001301 -0.000229 0.041747 -0.000472
# 6 0.000112 -0.001147 0.000166 -5.853862 -0.000472-10.656528
#
#
# Mechanical properties :
#
#
# Convention : Reuss Voigt Hill
#
# Bulk Modulus (GPa) = 9.06927 47.14230 28.10579
# Shear Modulus (GPa) = -0.37723 19.39994 9.51135
#
# Velocity S-wave (km/s) = -0.45444 3.25892 2.28189
# Velocity P-wave (km/s) = 2.16556 6.32211 4.72539
#
# Compressibility (1/GPa) = 0.11026244
#
# Stress axis : x y z
#
# Youngs Moduli (GPa) = 94.62509 7.90347 90.16149
#
# Poissons Ratio (x) = 0.07315 0.41386
# Poissons Ratio (y) = 0.87585 0.46123
# Poissons Ratio (z) = 0.43435 0.04043
#
# Static dielectric constant tensor:
#      x y z
#    x 1.668410 0.000000 -0.011990 
#    y 0.000000 1.627550 0.000000 
#    z -0.011990 0.000000 1.670940 
# 
# From -- ./inp_files/286088.got.cif
#   From: 2010.05.17/outbox.cif.g08.bks.cpg/sg12_144_cif.got.tgz:286088.got - 2010.06.03 13:09:07.
