data_PCOD9173663
_publ_section_title
;
Structure prediction by ZEFSAII (Michael W. Deem and Ramdas Pophale) SiO2 
 PCOD9173663
Probable space group: C 2/M
;
_chemical_formula_sum "Si O2"
_cell_formula_units_Z 64
_cell_length_a 29.982039
_cell_length_b 7.405920
_cell_length_c 14.614484
_cell_angle_alpha 90.000000
_cell_angle_beta 108.219591
_cell_angle_gamma 90.000000
_cell_volume 3082.376210
_symmetry_space_group_name_H-M "C 2/M"
_symmetry_group_IT_number 12
_symmetry_cell_setting 'monoclinic'
loop_
_space_group_symop_operation_xyz
x,y,z
-x,y,-z
-x,-y,-z
x,-y,z
1/2+x,1/2+y,z
1/2-x,1/2+y,-z
1/2-x,1/2-y,-z
1/2+x,1/2-y,z
loop_
_atom_site_type_symbol
_atom_site_label
_atom_site_fract_x
_atom_site_fract_y
_atom_site_fract_z
Si Si1 0.410261 0.789230 0.157815
Si Si2 0.750203 0.285084 0.108118
Si Si3 0.304071 0.781114 0.633789
Si Si4 0.397825 0.793858 0.790566
Si Si5 0.198699 0.711366 0.576320
Si Si6 0.498718 0.778169 0.892437
Si Si7 0.655856 0.222233 0.731335
Si Si8 0.647475 0.282846 0.054763
O O1 0.456376 0.715167 0.136941
O O2 0.389110 0.716622 0.239109
O O3 0.420129 0.000000 0.179797
O O4 0.368859 0.774176 0.056131
O O5 0.750107 0.500000 0.122189
O O6 0.797190 0.216876 0.185224
O O7 0.699919 0.217102 0.110749
O O8 0.750000 0.250000 0.000000
O O9 0.350903 0.714729 0.714713
O O10 0.253357 0.726974 0.641157
O O11 0.304883 0.715148 0.528820
O O12 0.303931 0.000000 0.635498
O O13 0.449899 0.716744 0.815115
O O14 0.387693 0.791889 0.892410
O O15 0.400316 0.000000 0.758865
O O16 0.188252 0.500000 0.561207
O O17 0.164218 0.782128 0.632559
O O18 0.498765 0.000000 0.893553
O O19 0.500000 0.722407 0.000000
O O20 0.655253 0.000000 0.731748
O O21 0.646281 0.500000 0.057746
#
# Coordination Sequence:
#
# PCOD9173663 Si02
#       8
#     8   8   8   8   8   8   8   8
#     4  10  18  31  49  65  87 124 165 192 224 279
#     4  10  19  29  41  61  89 120 151 181 216 264
#     4   9  18  31  50  74  95 121 154 193 236 275
#     4  10  19  32  49  68  92 122 160 198 234 278
#     4   9  17  32  51  71  98 124 151 188 233 286
#     4   9  16  28  48  69  87 119 164 203 231 265
#     4   9  17  29  47  66  88 123 157 184 224 276
#     4  11  21  30  43  68  97 123 153 192 237 276
#
# _framework density 20.763200999999999
#
# number of rings (size 3 to 8) (size 9 to 14) (size 15 to 20)
#    0.000    2.375    2.500    1.125    0.000    2.000 
#    0.000    2.500    0.000    0.750    0.000    5.250 
#    0.000    0.000    0.000    8.500    0.000    9.000 
#
# Total GULP energy -178563.826101 kJ/mol
# GULP energy per Si atom -5580.119566 kJ/mol
# Density = 2.071594 g / cm^3
# Si number density = 20.763201 Si / 1000 Ang^3
#
#
#
# Elastic Constant Matrix: (Units=GPa)
#
#
# Indices 1 2 3 4 5 6 
#
# 1 145.5872 0.3392 39.3198 0.0000 -26.3152 0.0000
# 2 0.3392 69.0268 -7.0900 0.0000 -4.0563 0.0000
# 3 39.3198 -7.0900 69.7360 0.0000 -18.3188 0.0000
# 4 0.0000 0.0000 0.0000 5.0264 0.0000 3.5046
# 5 -26.3152 -4.0563 -18.3188 0.0000 35.9508 0.0000
# 6 0.0000 0.0000 0.0000 3.5046 0.0000 0.7034
#
#
#
# Elastic Compliance Matrix: (Units=1/GPa)
#
#
# Indices 1 2 3 4 5 6 
#
# 1 0.008682 -0.000168 -0.003750 0.000000 0.004425 0.000000
# 2 -0.000168 0.014888 0.002329 0.000000 0.002744 0.000000
# 3 -0.003750 0.002329 0.018517 0.000000 0.006954 0.000000
# 4 0.000000 0.000000 0.000000 -0.080425 0.000000 0.400691
# 5 0.004425 0.002744 0.006954 0.000000 0.034908 0.000000
# 6 0.000000 0.000000 0.000000 0.400691 0.000000 -0.574692
#
#
# Mechanical properties :
#
#
# Convention : Reuss Voigt Hill
#
# Bulk Modulus (GPa) = 25.69980 38.83200 32.26590
# Shear Modulus (GPa) = -8.89721 25.12154 8.11217
#
# Velocity S-wave (km/s) = -2.07229 3.48215 1.97876
# Velocity P-wave (km/s) = 2.58430 5.90847 4.56008
#
# Compressibility (1/GPa) = 0.03891080
#
# Stress axis : x y z
#
# Youngs Moduli (GPa) = 115.18481 67.16634 54.00317
#
# Poissons Ratio (x) = 0.01127 0.20249
# Poissons Ratio (y) = 0.01932 -0.12578
# Poissons Ratio (z) = 0.43190 -0.15643
#
# Static dielectric constant tensor:
#      x y z
#    x 1.766480 0.000000 -0.008570 
#    y 0.000000 1.946310 0.000000 
#    z -0.008570 0.000000 1.736090 
# 
# From -- ./inp_files/248311.got.cif
#   From: 2010.05.17/outbox.cif.g08.bks.cpg/sg12_125_cif.got.tgz:248311.got - 2010.06.03 13:09:07.
