data_PCOD9173992
_publ_section_title
;
Structure prediction by ZEFSAII (Michael W. Deem and Ramdas Pophale) SiO2 
 PCOD9173992
Probable space group: C 2/M
;
_chemical_formula_sum "Si O2"
_cell_formula_units_Z 64
_cell_length_a 21.188071
_cell_length_b 7.613962
_cell_length_c 24.392307
_cell_angle_alpha 90.000000
_cell_angle_beta 124.319774
_cell_angle_gamma 90.000000
_cell_volume 3250.008115
_symmetry_space_group_name_H-M "C 2/M"
_symmetry_group_IT_number 12
_symmetry_cell_setting 'monoclinic'
loop_
_space_group_symop_operation_xyz
x,y,z
-x,y,-z
-x,-y,-z
x,-y,z
1/2+x,1/2+y,z
1/2-x,1/2+y,-z
1/2-x,1/2-y,-z
1/2+x,1/2-y,z
loop_
_atom_site_type_symbol
_atom_site_label
_atom_site_fract_x
_atom_site_fract_y
_atom_site_fract_z
Si Si1 0.686398 0.715099 0.678466
Si Si2 0.461515 0.287998 0.327033
Si Si3 0.136710 0.707402 0.434981
Si Si4 0.339848 0.288897 0.042761
Si Si5 0.263358 0.296133 0.415177
Si Si6 0.128738 0.214373 0.822693
Si Si7 0.277007 0.211069 0.828494
Si Si8 0.915950 0.208797 0.969187
O O1 0.684104 0.500000 0.676443
O O2 0.603406 0.770345 0.661226
O O3 0.709415 0.779279 0.629522
O O4 0.748621 0.768223 0.754721
O O5 0.459919 0.500000 0.326296
O O6 0.547220 0.233562 0.382405
O O7 0.433206 0.229368 0.252801
O O8 0.152356 0.500000 0.446593
O O9 0.188953 0.778120 0.410310
O O10 0.168994 0.786730 0.507027
O O11 0.347275 0.500000 0.046208
O O12 0.377628 0.224878 0.117995
O O13 0.250000 0.250000 0.000000
O O14 0.377151 0.218589 0.005405
O O15 0.245518 0.500000 0.395173
O O16 0.211307 0.268836 0.839097
O O17 0.127781 0.000000 0.822513
O O18 0.358769 0.266849 0.890482
O O19 0.275729 0.000000 0.827656
O O20 0.923758 0.000000 0.981340
O O21 0.000000 0.282000 0.000000
#
# Coordination Sequence:
#
# PCOD9173992 Si02
#       8
#     8   8   8   8   8   8   8   8
#     4   8  16  32  55  77  93 122 167 207 238 278
#     4   9  17  32  53  74  97 126 162 201 242 287
#     4  10  20  33  50  74 104 131 156 196 244 284
#     4  10  18  31  52  72  94 127 167 206 241 284
#     4   9  18  35  55  71  95 132 169 196 230 287
#     4   8  15  29  50  73  93 120 162 205 239 278
#     4   9  16  31  54  74  94 122 163 209 245 280
#     4  10  21  34  46  68 104 136 160 194 247 301
#
# _framework density 19.692257000000001
#
# number of rings (size 3 to 8) (size 9 to 14) (size 15 to 20)
#    0.000    2.875    1.250    1.875    0.000    1.250 
#    2.250    6.875    0.000    0.000    0.000    0.000 
#    0.000    0.000    0.000    0.000    0.000    0.000 
#
# Total GULP energy -178421.839842 kJ/mol
# GULP energy per Si atom -5575.682495 kJ/mol
# Density = 1.964744 g / cm^3
# Si number density = 19.692257 Si / 1000 Ang^3
#
#
#
# Elastic Constant Matrix: (Units=GPa)
#
#
# Indices 1 2 3 4 5 6 
#
# 1 150.4370 2.1090 114.3259 0.0000 -2.6404 0.0000
# 2 2.1090 39.0269 -5.3711 0.0000 -6.3365 -0.0001
# 3 114.3259 -5.3711 143.5558 0.0000 -10.4916 0.0000
# 4 0.0000 0.0000 0.0000 14.9452 0.0000 5.7244
# 5 -2.6404 -6.3365 -10.4916 0.0000 35.1946 0.0000
# 6 0.0000 -0.0001 0.0000 5.7244 0.0000 11.9779
#
#
#
# Elastic Compliance Matrix: (Units=1/GPa)
#
#
# Indices 1 2 3 4 5 6 
#
# 1 0.017562 -0.003513 -0.014381 0.000000 -0.003602 0.000000
# 2 -0.003513 0.027362 0.004255 0.000000 0.005931 0.000000
# 3 -0.014381 0.004255 0.018969 0.000000 0.005342 0.000000
# 4 0.000000 0.000000 0.000000 0.081904 0.000000 -0.039143
# 5 -0.003602 0.005931 0.005342 0.000000 0.030803 0.000000
# 6 0.000000 0.000000 0.000000 -0.039143 0.000000 0.102194
#
#
# Mechanical properties :
#
#
# Convention : Reuss Voigt Hill
#
# Bulk Modulus (GPa) = 27.31184 61.68303 44.49743
# Shear Modulus (GPa) = 15.70956 27.22059 21.46508
#
# Velocity S-wave (km/s) = 2.82752 3.72196 3.30514
# Velocity P-wave (km/s) = 4.95573 7.06131 6.10006
#
# Compressibility (1/GPa) = 0.03661416
#
# Stress axis : x y z
#
# Youngs Moduli (GPa) = 56.93976 36.54730 52.71898
#
# Poissons Ratio (x) = 0.12840 0.75816
# Poissons Ratio (y) = 0.20004 -0.22432
# Poissons Ratio (z) = 0.81886 -0.15551
#
# Static dielectric constant tensor:
#      x y z
#    x 1.687450 0.000000 -0.025000 
#    y 0.000000 1.747040 0.000000 
#    z -0.025000 0.000000 1.677600 
# 
# From -- ./inp_files/345569.got.cif
#   From: 2010.05.17/outbox.cif.g08.bks.cpg/sg12_173_cif.got.tgz:345569.got - 2010.06.03 13:09:07.
