data_PCOD9173989
_publ_section_title
;
Structure prediction by ZEFSAII (Michael W. Deem and Ramdas Pophale) SiO2 
 PCOD9173989
Probable space group: C 2/M
;
_chemical_formula_sum "Si O2"
_cell_formula_units_Z 64
_cell_length_a 15.457032
_cell_length_b 7.378153
_cell_length_c 28.738687
_cell_angle_alpha 90.000000
_cell_angle_beta 60.213253
_cell_angle_gamma 90.000000
_cell_volume 2844.464762
_symmetry_space_group_name_H-M "C 2/M"
_symmetry_group_IT_number 12
_symmetry_cell_setting 'monoclinic'
loop_
_space_group_symop_operation_xyz
x,y,z
-x,y,-z
-x,-y,-z
x,-y,z
1/2+x,1/2+y,z
1/2-x,1/2+y,-z
1/2-x,1/2-y,-z
1/2+x,1/2-y,z
loop_
_atom_site_type_symbol
_atom_site_label
_atom_site_fract_x
_atom_site_fract_y
_atom_site_fract_z
Si Si1 0.689478 0.781327 0.739563
Si Si2 0.442043 0.719562 0.393096
Si Si3 0.390345 0.291348 0.508014
Si Si4 0.536954 0.711573 0.200458
Si Si5 0.394713 0.279144 0.718618
Si Si6 0.240287 0.710166 0.623648
Si Si7 0.604190 0.212490 0.994381
Si Si8 0.170900 0.779913 0.080420
O O1 0.578788 0.723735 0.781573
O O2 0.779389 0.726839 0.748935
O O3 0.721256 0.713976 0.679768
O O4 0.686707 0.000000 0.738550
O O5 0.444865 0.500000 0.396202
O O6 0.403488 0.788533 0.453133
O O7 0.548197 0.778153 0.343808
O O8 0.363585 0.776604 0.375319
O O9 0.500000 0.296188 0.500000
O O10 0.354561 0.500000 0.510989
O O11 0.318880 0.208219 0.566111
O O12 0.563006 0.500000 0.196990
O O13 0.552936 0.785804 0.248233
O O14 0.608439 0.785851 0.141419
O O15 0.399646 0.500000 0.716243
O O16 0.271612 0.500000 0.622393
O O17 0.713642 0.284506 0.949430
O O18 0.604857 0.000000 0.981812
O O19 0.500000 0.285115 0.000000
O O20 0.614350 0.228470 0.047683
O O21 0.173482 0.000000 0.079580
#
# Coordination Sequence:
#
# PCOD9173989 Si02
#       8
#     8   8   8   8   8   8   8   8
#     4  10  20  34  53  75 100 135 178 220 263 310
#     4  10  18  31  52  72  93 129 170 205 256 323
#     4   9  17  29  47  71  96 123 163 212 257 311
#     4  10  20  36  54  75 107 141 175 216 259 304
#     4   9  18  33  53  74  98 134 177 215 256 313
#     4  10  19  31  48  72 100 126 161 216 268 307
#     4   9  18  34  57  84 111 141 177 214 252 297
#     4   9  19  34  53  79 111 144 174 211 260 305
#
# _framework density 22.499839000000001
#
# number of rings (size 3 to 8) (size 9 to 14) (size 15 to 20)
#    0.000    2.500    1.250    1.125    0.000    4.750 
#    0.000    3.750    0.000    3.000    0.000    0.000 
#    0.000    0.000    0.000    0.000    0.000    0.000 
#
# Total GULP energy -178540.328131 kJ/mol
# GULP energy per Si atom -5579.385254 kJ/mol
# Density = 2.244863 g / cm^3
# Si number density = 22.499839 Si / 1000 Ang^3
#
#
#
# Elastic Constant Matrix: (Units=GPa)
#
#
# Indices 1 2 3 4 5 6 
#
# 1 101.7808 -6.2469 32.7648 0.0000 -26.4340 0.0001
# 2 -6.2469 77.0835 4.7383 0.0000 0.7210 0.0001
# 3 32.7648 4.7383 141.4800 0.0001 -29.9733 0.0001
# 4 0.0000 0.0000 0.0001 27.1992 0.0000 10.4017
# 5 -26.4340 0.7210 -29.9733 0.0000 20.6897 0.0001
# 6 0.0001 0.0001 0.0001 10.4017 0.0001 19.1407
#
#
#
# Elastic Compliance Matrix: (Units=1/GPa)
#
#
# Indices 1 2 3 4 5 6 
#
# 1 0.014843 0.000967 0.000780 0.000000 0.020061 0.000000
# 2 0.000967 0.013098 -0.000718 0.000000 -0.000261 0.000000
# 3 0.000780 -0.000718 0.010284 0.000000 0.015921 0.000000
# 4 0.000000 0.000000 0.000000 0.046411 0.000000 -0.025221
# 5 0.020061 -0.000261 0.015921 0.000000 0.097037 0.000000
# 6 0.000000 0.000000 0.000000 -0.025221 0.000000 0.065951
#
#
# Mechanical properties :
#
#
# Convention : Reuss Voigt Hill
#
# Bulk Modulus (GPa) = 24.82326 42.53962 33.68144
# Shear Modulus (GPa) = 19.30544 32.67845 25.99195
#
# Velocity S-wave (km/s) = 2.93239 3.81515 3.40252
# Velocity P-wave (km/s) = 4.74571 6.19313 5.51709
#
# Compressibility (1/GPa) = 0.04028479
#
# Stress axis : x y z
#
# Youngs Moduli (GPa) = 67.37003 76.34809 97.23440
#
# Poissons Ratio (x) = -0.07385 -0.07585
# Poissons Ratio (y) = -0.06517 0.06980
# Poissons Ratio (z) = -0.05255 0.05481
#
# Static dielectric constant tensor:
#      x y z
#    x 1.802380 0.000000 -0.010040 
#    y 0.000000 1.949520 0.000000 
#    z -0.010040 0.000000 1.841850 
# 
# From -- ./inp_files/375018.got.cif
#   From: 2010.05.17/outbox.cif.g08.bks.cpg/sg12_188_cif.got.tgz:375018.got - 2010.06.03 13:09:07.
