data_PCOD9173636
_publ_section_title
;
Structure prediction by ZEFSAII (Michael W. Deem and Ramdas Pophale) SiO2 
 PCOD9173636
Probable space group: C 2/M
;
_chemical_formula_sum "Si O2"
_cell_formula_units_Z 64
_cell_length_a 29.193847
_cell_length_b 8.888950
_cell_length_c 14.744961
_cell_angle_alpha 90.000000
_cell_angle_beta 72.383567
_cell_angle_gamma 90.000000
_cell_volume 3646.915229
_symmetry_space_group_name_H-M "C 2/M"
_symmetry_group_IT_number 12
_symmetry_cell_setting 'monoclinic'
loop_
_space_group_symop_operation_xyz
x,y,z
-x,y,-z
-x,-y,-z
x,-y,z
1/2+x,1/2+y,z
1/2-x,1/2+y,-z
1/2-x,1/2-y,-z
1/2+x,1/2-y,z
loop_
_atom_site_type_symbol
_atom_site_label
_atom_site_fract_x
_atom_site_fract_y
_atom_site_fract_z
Si Si1 0.480046 0.171772 0.301551
Si Si2 0.895918 0.325253 0.211517
Si Si3 0.314267 0.320583 0.382549
Si Si4 0.446009 0.327043 0.493537
Si Si5 0.132649 0.817120 0.311340
Si Si6 0.445898 0.182116 0.003157
Si Si7 0.925876 0.821016 0.820243
Si Si8 0.711461 0.318402 0.401252
O O1 0.446864 0.178809 0.232978
O O2 0.447641 0.223399 0.404856
O O3 0.525124 0.280866 0.262656
O O4 0.496730 0.000000 0.303472
O O5 0.880782 0.500000 0.215883
O O6 0.857236 0.238677 0.294667
O O7 0.908047 0.269702 0.103338
O O8 0.312720 0.500000 0.378739
O O9 0.316987 0.279678 0.488252
O O10 0.263831 0.253131 0.378236
O O11 0.500000 0.326824 0.500000
O O12 0.433515 0.500000 0.475991
O O13 0.409556 0.275823 0.592855
O O14 0.117342 0.767974 0.219933
O O15 0.181758 0.769042 0.330500
O O16 0.133090 0.000000 0.308340
O O17 0.446379 0.000000 0.000680
O O18 0.500000 0.229925 0.000000
O O19 0.430967 0.242877 0.914211
O O20 0.922510 0.000000 0.834212
O O21 0.715906 0.500000 0.396609
#
# Coordination Sequence:
#
# PCOD9173636 Si02
#       8
#     8   8   8   8   8   8   8   8
#     4  11  21  33  48  72 105 141 179 216 258 312
#     4  10  21  36  55  75 104 143 176 214 270 326
#     4  10  20  34  56  85 110 132 173 227 266 309
#     4  10  18  31  48  69 103 142 175 212 255 307
#     4   9  18  33  52  74 104 144 180 211 259 319
#     4  10  20  38  56  74 105 143 180 221 269 321
#     4  11  21  34  52  76 104 138 181 222 260 307
#     4   9  18  35  57  78 108 146 176 207 262 326
#
# _framework density 17.549077
#
# number of rings (size 3 to 8) (size 9 to 14) (size 15 to 20)
#    0.000    2.000    2.500    1.875    0.000    3.500 
#    0.000    1.875    0.000    0.750    0.000    0.000 
#    0.000    0.000    0.000    0.000    0.000    0.000 
#
# Total GULP energy -178508.161182 kJ/mol
# GULP energy per Si atom -5578.380037 kJ/mol
# Density = 1.750913 g / cm^3
# Si number density = 17.549077 Si / 1000 Ang^3
#
#
#
# Elastic Constant Matrix: (Units=GPa)
#
#
# Indices 1 2 3 4 5 6 
#
# 1 80.6962 17.8678 40.5889 0.0000 17.0111 0.0000
# 2 17.8678 21.7632 22.7225 0.0000 3.2357 0.0000
# 3 40.5889 22.7225 95.2465 0.0000 19.3965 0.0000
# 4 0.0000 0.0000 0.0000 20.5651 0.0000 -0.5698
# 5 17.0111 3.2357 19.3965 0.0000 30.5825 0.0000
# 6 0.0000 0.0000 0.0000 -0.5698 0.0000 19.0967
#
#
#
# Elastic Compliance Matrix: (Units=1/GPa)
#
#
# Indices 1 2 3 4 5 6 
#
# 1 0.017877 -0.009495 -0.004056 0.000000 -0.006366 0.000000
# 2 -0.009495 0.066507 -0.013163 0.000000 0.006593 0.000000
# 3 -0.004056 -0.013163 0.016794 0.000000 -0.007002 0.000000
# 4 0.000000 0.000000 0.000000 0.048666 0.000000 0.001452
# 5 -0.006366 0.006593 -0.007002 0.000000 0.039983 0.000000
# 6 0.000000 0.000000 0.000000 0.001452 0.000000 0.052408
#
#
# Mechanical properties :
#
#
# Convention : Reuss Voigt Hill
#
# Bulk Modulus (GPa) = 20.94268 40.00716 30.47492
# Shear Modulus (GPa) = 16.04715 21.81729 18.93222
#
# Velocity S-wave (km/s) = 3.02721 3.52975 3.28810
# Velocity P-wave (km/s) = 4.91715 6.28164 5.64080
#
# Compressibility (1/GPa) = 0.04774939
#
# Stress axis : x y z
#
# Youngs Moduli (GPa) = 55.93766 15.03591 59.54561
#
# Poissons Ratio (x) = 0.14277 0.24154
# Poissons Ratio (y) = 0.53115 0.78378
# Poissons Ratio (z) = 0.22691 0.19791
#
# Static dielectric constant tensor:
#      x y z
#    x 1.603770 0.000000 0.021920 
#    y 0.000000 1.593040 0.000000 
#    z 0.021920 0.000000 1.607410 
# 
# From -- ./inp_files/243756.got.cif
#   From: 2010.05.17/outbox.cif.g08.bks.cpg/sg12_122_cif.got.tgz:243756.got - 2010.06.03 13:09:07.
