data_PCOD9173072
_publ_section_title
;
Structure prediction by ZEFSAII (Michael W. Deem and Ramdas Pophale) SiO2 
 PCOD9173072
Probable space group: C 2/M
;
_chemical_formula_sum "Si O2"
_cell_formula_units_Z 64
_cell_length_a 19.790679
_cell_length_b 13.959229
_cell_length_c 25.819879
_cell_angle_alpha 90.000000
_cell_angle_beta 145.631046
_cell_angle_gamma 90.000000
_cell_volume 4026.758002
_symmetry_space_group_name_H-M "C 2/M"
_symmetry_group_IT_number 12
_symmetry_cell_setting 'monoclinic'
loop_
_space_group_symop_operation_xyz
x,y,z
-x,y,-z
-x,-y,-z
x,-y,z
1/2+x,1/2+y,z
1/2-x,1/2+y,-z
1/2-x,1/2-y,-z
1/2+x,1/2-y,z
loop_
_atom_site_type_symbol
_atom_site_label
_atom_site_fract_x
_atom_site_fract_y
_atom_site_fract_z
Si Si1 0.167493 0.386072 0.793615
Si Si2 0.187656 0.110144 0.456142
Si Si3 0.112574 0.607778 0.535112
Si Si4 0.133577 0.110023 0.299256
Si Si5 0.433845 0.208358 0.599438
Si Si6 0.418623 0.387457 0.897039
Si Si7 0.446732 0.708877 0.113276
Si Si8 0.193049 0.613360 0.933655
O O1 0.144086 0.500000 0.772601
O O2 0.285047 0.364540 0.833219
O O3 0.187004 0.369134 0.867463
O O4 0.053809 0.327155 0.702023
O O5 0.162088 0.116740 0.378252
O O6 0.316335 0.157573 0.550599
O O7 0.086163 0.178598 0.414025
O O8 0.184690 0.000000 0.469832
O O9 0.133488 0.500000 0.527102
O O10 0.235829 0.633692 0.641836
O O11 0.076557 0.673916 0.465566
O O12 0.000000 0.603898 0.500000
O O13 0.030591 0.177962 0.214023
O O14 0.102016 0.000000 0.266836
O O15 0.420688 0.500000 0.880791
O O16 0.475113 0.319606 0.888335
O O17 0.500000 0.382220 0.000000
O O18 0.398489 0.816579 0.093530
O O19 0.326830 0.644321 0.034891
O O20 0.173062 0.500000 0.929791
#
# Coordination Sequence:
#
# PCOD9173072 Si02
#       8
#     8   8   8   8   8   8   8   8
#     4  10  19  31  51  78 104 126 159 206 254 298
#     4   9  18  32  48  70  99 127 159 201 237 279
#     4   9  18  30  44  69 100 123 150 193 239 283
#     4   9  17  29  47  70  96 122 154 192 236 290
#     4  10  18  30  50  72  96 128 161 193 241 293
#     4  10  19  32  50  75 105 129 157 205 254 296
#     4  11  20  32  53  75  97 135 166 197 248 302
#     4  10  21  35  50  74 103 129 164 209 244 287
#
# _framework density 15.89368
#
# number of rings (size 3 to 8) (size 9 to 14) (size 15 to 20)
#    0.000    2.250    1.250    3.750    1.750    0.000 
#    0.000    0.000    0.000    1.500    0.000    0.000 
#    0.000    0.000    0.000    0.000    0.000    0.000 
#
# Total GULP energy -178194.846727 kJ/mol
# GULP energy per Si atom -5568.588960 kJ/mol
# Density = 1.585750 g / cm^3
# Si number density = 15.893680 Si / 1000 Ang^3
#
#
#
# Elastic Constant Matrix: (Units=GPa)
#
#
# Indices 1 2 3 4 5 6 
#
# 1 72.6339 46.1460 19.9351 0.0000 11.3451 0.0000
# 2 46.1460 99.7798 43.2387 0.0000 11.5098 0.0000
# 3 19.9351 43.2387 95.9931 0.0001 22.3361 0.0000
# 4 0.0000 0.0000 0.0001 26.3265 0.0000 -1.4744
# 5 11.3451 11.5098 22.3361 0.0000 18.1317 0.0000
# 6 0.0000 0.0000 0.0000 -1.4744 0.0000 30.4938
#
#
#
# Elastic Compliance Matrix: (Units=1/GPa)
#
#
# Indices 1 2 3 4 5 6 
#
# 1 0.020631 -0.009375 0.002183 0.000000 -0.009647 0.000000
# 2 -0.009375 0.016738 -0.006287 0.000000 0.002986 0.000000
# 3 0.002183 -0.006287 0.017081 0.000000 -0.018417 0.000000
# 4 0.000000 0.000000 0.000000 0.038088 0.000000 0.001842
# 5 -0.009647 0.002986 -0.018417 0.000000 0.081981 0.000000
# 6 0.000000 0.000000 0.000000 0.001842 0.000000 0.032883
#
#
# Mechanical properties :
#
#
# Convention : Reuss Voigt Hill
#
# Bulk Modulus (GPa) = 36.37338 54.11626 45.24482
# Shear Modulus (GPa) = 20.53189 25.59620 23.06404
#
# Velocity S-wave (km/s) = 3.59810 4.01741 3.81352
# Velocity P-wave (km/s) = 6.34010 7.45938 6.92240
#
# Compressibility (1/GPa) = 0.02749264
#
# Stress axis : x y z
#
# Youngs Moduli (GPa) = 48.46985 59.74532 58.54312
#
# Poissons Ratio (x) = 0.56009 -0.12779
# Poissons Ratio (y) = 0.45439 0.36807
# Poissons Ratio (z) = -0.10581 0.37563
#
# Static dielectric constant tensor:
#      x y z
#    x 1.563950 0.000000 0.010680 
#    y 0.000000 1.546370 0.000000 
#    z 0.010680 0.000000 1.540260 
# 
# From -- ./inp_files/366073.got.cif
#   From: 2010.05.17/outbox.cif.g08.bks.cpg/sg12_184_cif.got.tgz:366073.got - 2010.06.03 13:09:07.
