data_PCOD9173650
_publ_section_title
;
Structure prediction by ZEFSAII (Michael W. Deem and Ramdas Pophale) SiO2 
 PCOD9173650
Probable space group: C 2/M
;
_chemical_formula_sum "Si O2"
_cell_formula_units_Z 64
_cell_length_a 22.036076
_cell_length_b 23.530322
_cell_length_c 9.167038
_cell_angle_alpha 90.000000
_cell_angle_beta 55.118894
_cell_angle_gamma 90.000000
_cell_volume 3899.288047
_symmetry_space_group_name_H-M "C 2/M"
_symmetry_group_IT_number 12
_symmetry_cell_setting 'monoclinic'
loop_
_space_group_symop_operation_xyz
x,y,z
-x,y,-z
-x,-y,-z
x,-y,z
1/2+x,1/2+y,z
1/2-x,1/2+y,-z
1/2-x,1/2-y,-z
1/2+x,1/2-y,z
loop_
_atom_site_type_symbol
_atom_site_label
_atom_site_fract_x
_atom_site_fract_y
_atom_site_fract_z
Si Si1 0.862761 0.755599 0.407024
Si Si2 0.085041 0.732693 0.341826
Si Si3 0.822724 0.931624 0.497856
Si Si4 0.634750 0.660252 0.078857
Si Si5 0.081087 0.146928 0.838491
Si Si6 0.085233 0.935646 0.336886
Si Si7 0.715445 0.812144 0.009261
Si Si8 0.280165 0.831686 0.341620
O O1 0.877043 0.742789 0.554903
O O2 0.924937 0.797178 0.255751
O O3 0.790939 0.796231 0.504573
O O4 0.846772 0.698391 0.337791
O O5 0.097658 0.788394 0.222645
O O6 0.134512 0.685451 0.191825
O O7 0.000000 0.721643 0.500000
O O8 0.875591 0.903322 0.303167
O O9 0.863145 0.917822 0.597327
O O10 0.745232 0.896883 0.599659
O O11 0.816677 0.000000 0.493189
O O12 0.593711 0.604273 0.187709
O O13 0.625993 0.667914 0.919284
O O14 0.720060 0.650643 0.007937
O O15 0.000000 0.128891 0.000000
O O16 0.000000 0.933678 0.500000
O O17 0.105330 0.000000 0.273569
O O18 0.750000 0.750000 0.000000
O O19 0.710938 0.820835 0.842878
#
# Coordination Sequence:
#
# PCOD9173650 Si02
#       8
#     8   8   8   8   8   8   8   8
#     4  10  19  31  51  72 102 135 171 208 262 312
#     4  11  21  32  50  75 105 134 165 206 256 320
#     4  10  21  36  51  71 103 141 182 219 252 300
#     4  11  19  32  50  69 103 137 176 206 244 301
#     4  11  22  32  48  76 109 144 174 212 260 311
#     4  10  19  32  50  70  96 133 174 213 249 288
#     4  10  18  31  48  73  96 132 167 207 253 309
#     4  10  18  33  51  74  99 133 174 218 261 302
#
# _framework density 16.413253000000001
#
# number of rings (size 3 to 8) (size 9 to 14) (size 15 to 20)
#    0.000    1.625    3.750    4.125    3.500    0.750 
#    0.000    0.000    0.000    0.000    0.000    0.000 
#    0.000    8.000    0.000    0.000    0.000    0.000 
#
# Total GULP energy -178277.707224 kJ/mol
# GULP energy per Si atom -5571.178351 kJ/mol
# Density = 1.637590 g / cm^3
# Si number density = 16.413253 Si / 1000 Ang^3
#
#
#
# Elastic Constant Matrix: (Units=GPa)
#
#
# Indices 1 2 3 4 5 6 
#
# 1 30.6439 15.5966 13.4510 0.0000 7.3443 0.0000
# 2 15.5966 61.3521 31.4715 0.0000 3.6918 0.0000
# 3 13.4510 31.4715 93.9166 0.0000 1.4514 0.0000
# 4 0.0000 0.0000 0.0000 12.7950 0.0000 -1.4553
# 5 7.3443 3.6918 1.4514 0.0000 33.8093 0.0000
# 6 0.0000 0.0000 0.0000 -1.4553 0.0000 16.5683
#
#
#
# Elastic Compliance Matrix: (Units=1/GPa)
#
#
# Indices 1 2 3 4 5 6 
#
# 1 0.039899 -0.008226 -0.002840 0.000000 -0.007647 0.000000
# 2 -0.008226 0.021497 -0.006021 0.000000 -0.000302 0.000000
# 3 -0.002840 -0.006021 0.013061 0.000000 0.000714 0.000000
# 4 0.000000 0.000000 0.000000 0.078944 0.000000 0.006934
# 5 -0.007647 -0.000302 0.000714 0.000000 0.031241 0.000000
# 6 0.000000 0.000000 0.000000 0.006934 0.000000 0.060965
#
#
# Mechanical properties :
#
#
# Convention : Reuss Voigt Hill
#
# Bulk Modulus (GPa) = 24.82389 34.10567 29.46478
# Shear Modulus (GPa) = 17.05266 20.99407 19.02336
#
# Velocity S-wave (km/s) = 3.22678 3.58032 3.40814
# Velocity P-wave (km/s) = 5.38887 6.15760 5.78602
#
# Compressibility (1/GPa) = 0.04028378
#
# Stress axis : x y z
#
# Youngs Moduli (GPa) = 25.06340 46.51757 76.56359
#
# Poissons Ratio (x) = 0.38266 0.21742
# Poissons Ratio (y) = 0.20617 0.46098
# Poissons Ratio (z) = 0.07117 0.28008
#
# Static dielectric constant tensor:
#      x y z
#    x 1.608870 0.000000 -0.032650 
#    y 0.000000 1.628390 0.000000 
#    z -0.032650 0.000000 1.589550 
# 
# From -- ./inp_files/78823.got.cif
#   From: 2010.05.17/outbox.cif.g08.bks.cpg/sg12_40_cif.got.tgz:78823.got - 2010.06.03 13:09:07.
