data_PCOD9173535
_publ_section_title
;
Structure prediction by ZEFSAII (Michael W. Deem and Ramdas Pophale) SiO2 
 PCOD9173535
Probable space group: C 2/M
;
_chemical_formula_sum "Si O2"
_cell_formula_units_Z 56
_cell_length_a 9.272721
_cell_length_b 30.314515
_cell_length_c 20.983515
_cell_angle_alpha 90.000000
_cell_angle_beta 150.800771
_cell_angle_gamma 90.000000
_cell_volume 2877.534293
_symmetry_space_group_name_H-M "C 2/M"
_symmetry_group_IT_number 12
_symmetry_cell_setting 'monoclinic'
loop_
_space_group_symop_operation_xyz
x,y,z
-x,y,-z
-x,-y,-z
x,-y,z
1/2+x,1/2+y,z
1/2-x,1/2+y,-z
1/2-x,1/2-y,-z
1/2+x,1/2-y,z
loop_
_atom_site_type_symbol
_atom_site_label
_atom_site_fract_x
_atom_site_fract_y
_atom_site_fract_z
Si Si1 0.843817 0.346872 0.764785
Si Si2 0.761916 0.274280 0.150575
Si Si3 0.682279 0.000000 0.913187
Si Si4 0.344716 0.096238 0.640983
Si Si5 0.688281 0.403752 0.004978
Si Si6 0.346182 0.693346 0.649457
Si Si7 0.657058 0.000000 0.345516
Si Si8 0.305879 0.652728 0.770465
O O1 0.873934 0.384879 0.723347
O O2 0.519260 0.333557 0.661656
O O3 0.010446 0.304147 0.801916
O O4 0.047714 0.368264 0.897348
O O5 0.645129 0.306474 0.161932
O O6 0.951723 0.236109 0.257344
O O7 0.500000 0.260941 0.000000
O O8 0.690428 0.953346 0.952246
O O9 0.418988 0.000000 0.759342
O O10 0.000000 0.000000 0.000000
O O11 0.472326 0.046929 0.681694
O O12 0.471875 0.134798 0.646326
O O13 0.000000 0.091838 0.500000
O O14 0.500000 0.398790 0.000000
O O15 0.475733 0.388567 0.866550
O O16 0.367458 0.665950 0.722929
O O17 0.000000 0.702557 0.500000
O O18 0.000000 0.000000 0.500000
#
# Coordination Sequence:
#
# PCOD9173535 Si02
#       8
#     8   8   4   8   8   8   4   8
#     4  11  21  39  63  84 123 155 202 249 299 355
#     4  11  23  42  66  90 115 154 206 256 300 359
#     4  10  18  30  60  93 130 146 187 258 299 349
#     4  10  19  34  60  86 117 160 197 245 297 352
#     4  11  18  37  62  98 119 152 197 249 304 354
#     4  12  29  42  57  88 123 163 207 251 305 358
#     4  10  18  30  54  94 121 150 201 242 294 358
#     4  11  22  40  62  86 123 152 205 249 300 363
#
# _framework density 19.461106999999998
#
# number of rings (size 3 to 8) (size 9 to 14) (size 15 to 20)
#    0.000    1.143    5.714    2.571    2.000    5.714 
#    0.000    0.000    0.000    4.286    0.000    7.000 
#    0.000    0.000    0.000    0.000    0.000    0.000 
#
# Total GULP energy -156007.782323 kJ/mol
# GULP energy per Si atom -5571.706512 kJ/mol
# Density = 1.941681 g / cm^3
# Si number density = 19.461107 Si / 1000 Ang^3
#
#
#
# Elastic Constant Matrix: (Units=GPa)
#
#
# Indices 1 2 3 4 5 6 
#
# 1 45.2180 10.9525 18.7016 0.0005 0.0958 -0.0007
# 2 10.9525 92.1783 37.6400 -0.0046 -0.9594 -0.0021
# 3 18.7016 37.6400 108.1989 -0.0138 -0.2719 -0.0084
# 4 0.0005 -0.0046 -0.0138 22.6467 -0.0005 -9.8014
# 5 0.0958 -0.9594 -0.2719 -0.0005 22.2436 -0.0009
# 6 -0.0007 -0.0021 -0.0084 -9.8014 -0.0009 -14.0377
#
#
#
# Elastic Compliance Matrix: (Units=1/GPa)
#
#
# Indices 1 2 3 4 5 6 
#
# 1 0.023961 -0.001350 -0.003673 -0.000002 -0.000206 0.000003
# 2 -0.001350 0.012726 -0.004193 0.000000 0.000503 0.000000
# 3 -0.003673 -0.004193 0.011335 0.000003 -0.000026 -0.000008
# 4 -0.000002 0.000000 0.000003 0.033909 0.000000 -0.023676
# 5 -0.000206 0.000503 -0.000026 0.000000 0.044979 -0.000003
# 6 0.000003 0.000000 -0.000008 -0.023676 -0.000003 -0.054705
#
#
# Mechanical properties :
#
#
# Convention : Reuss Voigt Hill
#
# Bulk Modulus (GPa) = 33.79131 42.24260 38.01695
# Shear Modulus (GPa) = 49.75121 18.05726 33.90423
#
# Velocity S-wave (km/s) = 5.06161 3.04939 4.17844
# Velocity P-wave (km/s) = 7.18061 5.84394 6.54648
#
# Compressibility (1/GPa) = 0.02959341
#
# Stress axis : x y z
#
# Youngs Moduli (GPa) = 41.73389 78.57841 88.21857
#
# Poissons Ratio (x) = 0.10604 0.32400
# Poissons Ratio (y) = 0.05632 0.36987
# Poissons Ratio (z) = 0.15327 0.32945
#
# Static dielectric constant tensor:
#      x y z
#    x 1.667680 -0.000010 0.148040 
#    y -0.000010 1.711970 0.000040 
#    z 0.148040 0.000040 1.306260 
# 
# From -- ./inp_files/303097.got.cif
#   From: 2010.05.17/outbox.cif.g08.bks.cpg/sg12_152_cif.got.tgz:303097.got - 2010.06.03 13:09:07.
