data_PCOD9173214
_publ_section_title
;
Structure prediction by ZEFSAII (Michael W. Deem and Ramdas Pophale) SiO2 
 PCOD9173214
Probable space group: C 2/M
;
_chemical_formula_sum "Si O2"
_cell_formula_units_Z 64
_cell_length_a 31.886339
_cell_length_b 7.925407
_cell_length_c 15.802750
_cell_angle_alpha 90.000000
_cell_angle_beta 57.743611
_cell_angle_gamma 90.000000
_cell_volume 3377.216956
_symmetry_space_group_name_H-M "C 2/M"
_symmetry_group_IT_number 12
_symmetry_cell_setting 'monoclinic'
loop_
_space_group_symop_operation_xyz
x,y,z
-x,y,-z
-x,-y,-z
x,-y,z
1/2+x,1/2+y,z
1/2-x,1/2+y,-z
1/2-x,1/2-y,-z
1/2+x,1/2-y,z
loop_
_atom_site_type_symbol
_atom_site_label
_atom_site_fract_x
_atom_site_fract_y
_atom_site_fract_z
Si Si1 0.676731 0.800310 0.920419
Si Si2 0.624021 0.695494 0.427403
Si Si3 0.014008 0.206108 0.850152
Si Si4 0.421721 0.703708 0.058644
Si Si5 0.458872 0.295987 0.366354
Si Si6 0.441268 0.192907 0.655306
Si Si7 0.287497 0.706242 0.777141
Si Si8 0.643832 0.698402 0.141462
O O1 0.633152 0.765369 0.901121
O O2 0.730943 0.735394 0.835260
O O3 0.681302 0.000000 0.927509
O O4 0.660061 0.726689 0.028437
O O5 0.633897 0.500000 0.437164
O O6 0.592668 0.769448 0.538742
O O7 0.586584 0.703585 0.387577
O O8 0.675432 0.769115 0.336371
O O9 0.053926 0.255915 0.878613
O O10 0.027979 0.265604 0.741798
O O11 0.013237 0.000000 0.849061
O O12 0.960204 0.258883 0.943550
O O13 0.421081 0.500000 0.058168
O O14 0.456018 0.500000 0.366312
O O15 0.504141 0.251091 0.379381
O O16 0.406360 0.210481 0.775645
O O17 0.442206 0.000000 0.626022
O O18 0.287809 0.500000 0.772984
O O19 0.313165 0.751855 0.838972
O O20 0.634663 0.500000 0.163941
#
# Coordination Sequence:
#
# PCOD9173214 Si02
#       8
#     8   8   8   8   8   8   8   8
#     4  11  20  30  47  72  98 123 155 195 241 287
#     4   9  18  33  50  67  91 128 169 202 231 271
#     4   8  16  31  51  72  92 118 154 196 236 278
#     4   9  17  32  51  70  95 124 153 188 236 290
#     4  10  18  30  51  73  92 122 166 205 236 276
#     4  11  21  31  45  70 103 131 155 190 238 286
#     4   8  17  32  47  65  93 127 162 198 233 273
#     4  10  19  33  50  68  94 128 164 196 228 274
#
# _framework density 18.950516
#
# number of rings (size 3 to 8) (size 9 to 14) (size 15 to 20)
#    0.000    2.500    0.000    4.875    0.000    3.000 
#    0.000    7.500    0.000    0.750    0.000    0.000 
#    0.000    0.000    0.000    0.000    0.000    0.125 
#
# Total GULP energy -178538.884016 kJ/mol
# GULP energy per Si atom -5579.340126 kJ/mol
# Density = 1.890738 g / cm^3
# Si number density = 18.950516 Si / 1000 Ang^3
#
#
#
# Elastic Constant Matrix: (Units=GPa)
#
#
# Indices 1 2 3 4 5 6 
#
# 1 70.3031 -2.7355 25.3158 0.0000 -24.1583 0.0000
# 2 -2.7355 26.5533 -4.0786 -0.0001 -0.5465 0.0000
# 3 25.3158 -4.0786 79.5487 0.0000 -16.7276 0.0000
# 4 0.0000 -0.0001 0.0000 4.9809 0.0000 -2.3628
# 5 -24.1583 -0.5465 -16.7276 0.0000 24.1760 0.0000
# 6 0.0000 0.0000 0.0000 -2.3628 0.0000 13.6529
#
#
#
# Elastic Compliance Matrix: (Units=1/GPa)
#
#
# Indices 1 2 3 4 5 6 
#
# 1 0.022325 0.002311 -0.002673 0.000000 0.020511 0.000000
# 2 0.002311 0.038336 0.002221 0.000001 0.004713 0.000000
# 3 -0.002673 0.002221 0.015195 0.000000 0.007893 0.000000
# 4 0.000000 0.000001 0.000000 0.218722 0.000000 0.037853
# 5 0.020511 0.004713 0.007893 0.000000 0.067427 0.000000
# 6 0.000000 0.000000 0.000000 0.037853 0.000000 0.079796
#
#
# Mechanical properties :
#
#
# Convention : Reuss Voigt Hill
#
# Bulk Modulus (GPa) = 12.56670 23.71207 18.13939
# Shear Modulus (GPa) = 10.76177 19.08885 14.92531
#
# Velocity S-wave (km/s) = 2.38563 3.17724 2.80945
# Velocity P-wave (km/s) = 3.77280 5.09898 4.48518
#
# Compressibility (1/GPa) = 0.07957536
#
# Stress axis : x y z
#
# Youngs Moduli (GPa) = 44.79296 26.08484 65.81036
#
# Poissons Ratio (x) = -0.06029 0.17592
# Poissons Ratio (y) = -0.10354 -0.14617
# Poissons Ratio (z) = 0.11974 -0.05794
#
# Static dielectric constant tensor:
#      x y z
#    x 1.632060 0.000000 -0.019840 
#    y 0.000000 1.690260 0.000000 
#    z -0.019840 0.000000 1.689450 
# 
# From -- ./inp_files/248955.got.cif
#   From: 2010.05.17/outbox.cif.g08.bks.cpg/sg12_125_cif.got.tgz:248955.got - 2010.06.03 13:09:07.
