data_PCOD9173907
_publ_section_title
;
Structure prediction by ZEFSAII (Michael W. Deem and Ramdas Pophale) SiO2 
 PCOD9173907
Probable space group: C 2/M
;
_chemical_formula_sum "Si O2"
_cell_formula_units_Z 64
_cell_length_a 21.260080
_cell_length_b 8.320331
_cell_length_c 20.631683
_cell_angle_alpha 90.000000
_cell_angle_beta 103.475511
_cell_angle_gamma 90.000000
_cell_volume 3549.083299
_symmetry_space_group_name_H-M "C 2/M"
_symmetry_group_IT_number 12
_symmetry_cell_setting 'monoclinic'
loop_
_space_group_symop_operation_xyz
x,y,z
-x,y,-z
-x,-y,-z
x,-y,z
1/2+x,1/2+y,z
1/2-x,1/2+y,-z
1/2-x,1/2-y,-z
1/2+x,1/2-y,z
loop_
_atom_site_type_symbol
_atom_site_label
_atom_site_fract_x
_atom_site_fract_y
_atom_site_fract_z
Si Si1 0.928077 0.194002 0.672066
Si Si2 0.051648 0.194243 0.957815
Si Si3 0.699336 0.194648 0.542120
Si Si4 0.942942 0.306277 0.532945
Si Si5 0.193100 0.310106 0.032604
Si Si6 0.322251 0.694004 0.828399
Si Si7 0.716416 0.304441 0.320266
Si Si8 0.466841 0.695697 0.820809
O O1 0.952310 0.258786 0.609789
O O2 0.853038 0.242222 0.665776
O O3 0.966364 0.247502 0.745797
O O4 0.929376 0.000000 0.670391
O O5 0.024042 0.249528 0.881673
O O6 0.051439 0.000000 0.958238
O O7 0.123381 0.248182 0.991933
O O8 0.000000 0.246850 0.000000
O O9 0.750000 0.250000 0.500000
O O10 0.627540 0.252323 0.507540
O O11 0.726761 0.249102 0.618438
O O12 0.698585 0.000000 0.541979
O O13 0.942064 0.500000 0.529196
O O14 0.000000 0.247332 0.500000
O O15 0.192226 0.500000 0.030614
O O16 0.202273 0.255361 0.109043
O O17 0.250000 0.250000 0.000000
O O18 0.321244 0.500000 0.829778
O O19 0.283960 0.747943 0.754712
O O20 0.397369 0.741684 0.834893
O O21 0.717000 0.500000 0.319477
O O22 0.467432 0.500000 0.820391
#
# Coordination Sequence:
#
# PCOD9173907 Si02
#       8
#     8   8   8   8   8   8   8   8
#     4   9  16  30  52  77 103 133 174 214 252 304
#     4  10  18  34  60  84 108 141 179 217 266 322
#     4  10  18  31  51  75 101 133 175 220 259 305
#     4  10  21  34  47  69 106 144 171 206 264 321
#     4  12  25  39  55  79 112 147 182 222 268 319
#     4   9  16  33  56  78 104 138 177 216 268 325
#     4   8  15  28  52  79 101 128 171 221 261 308
#     4   8  15  29  54  83 107 135 170 213 263 316
#
# _framework density 18.032826
#
# number of rings (size 3 to 8) (size 9 to 14) (size 15 to 20)
#    0.000    2.500    2.500    2.625    0.000    0.500 
#    0.000    5.000    0.000    1.500    0.000    0.000 
#    0.000    0.000    0.000    0.000    0.000    0.000 
#
# Total GULP energy -178430.284675 kJ/mol
# GULP energy per Si atom -5575.946396 kJ/mol
# Density = 1.799178 g / cm^3
# Si number density = 18.032826 Si / 1000 Ang^3
#
#
#
# Elastic Constant Matrix: (Units=GPa)
#
#
# Indices 1 2 3 4 5 6 
#
# 1 118.4963 17.3145 92.9642 0.0000 -8.1002 0.0000
# 2 17.3145 10.8192 20.3262 0.0000 1.4944 0.0000
# 3 92.9642 20.3262 197.2472 0.0000 -5.1261 0.0000
# 4 0.0000 0.0000 0.0000 22.2928 0.0000 -3.8990
# 5 -8.1002 1.4944 -5.1261 0.0000 26.5657 0.0000
# 6 0.0000 0.0000 0.0000 -3.8990 0.0000 15.6174
#
#
#
# Elastic Compliance Matrix: (Units=1/GPa)
#
#
# Indices 1 2 3 4 5 6 
#
# 1 0.015227 -0.014516 -0.005567 0.000000 0.004385 0.000000
# 2 -0.014516 0.130527 -0.006950 0.000000 -0.013110 0.000000
# 3 -0.005567 -0.006950 0.008418 0.000000 0.000318 0.000000
# 4 0.000000 0.000000 0.000000 0.046906 0.000000 0.011710
# 5 0.004385 -0.013110 0.000318 0.000000 0.039779 0.000000
# 6 0.000000 0.000000 0.000000 0.011710 0.000000 0.066955
#
#
# Mechanical properties :
#
#
# Convention : Reuss Voigt Hill
#
# Bulk Modulus (GPa) = 9.98937 65.30808 37.64872
# Shear Modulus (GPa) = 12.65034 25.95903 19.30469
#
# Velocity S-wave (km/s) = 2.65149 3.79825 3.27545
# Velocity P-wave (km/s) = 3.86335 7.45187 5.93531
#
# Compressibility (1/GPa) = 0.10010639
#
# Stress axis : x y z
#
# Youngs Moduli (GPa) = 65.67110 7.66124 118.79374
#
# Poissons Ratio (x) = 0.11121 0.66132
# Poissons Ratio (y) = 0.95330 0.82559
# Poissons Ratio (z) = 0.36559 0.05324
#
# Static dielectric constant tensor:
#      x y z
#    x 1.502650 0.000000 0.050430 
#    y 0.000000 1.627620 0.000000 
#    z 0.050430 0.000000 1.630820 
# 
# From -- ./inp_files/319247.got.cif
#   From: 2010.05.17/outbox.cif.g08.bks.cpg/sg12_160_cif.got.tgz:319247.got - 2010.06.03 13:09:07.
