data_PCOD9173940
_publ_section_title
;
Structure prediction by ZEFSAII (Michael W. Deem and Ramdas Pophale) SiO2 
 PCOD9173940
Probable space group: C 2/M
;
_chemical_formula_sum "Si O2"
_cell_formula_units_Z 40
_cell_length_a 14.010515
_cell_length_b 17.975496
_cell_length_c 25.081898
_cell_angle_alpha 90.000000
_cell_angle_beta 22.809839
_cell_angle_gamma 90.000000
_cell_volume 2448.848550
_symmetry_space_group_name_H-M "C 2/M"
_symmetry_group_IT_number 12
_symmetry_cell_setting 'monoclinic'
loop_
_space_group_symop_operation_xyz
x,y,z
-x,y,-z
-x,-y,-z
x,-y,z
1/2+x,1/2+y,z
1/2-x,1/2+y,-z
1/2-x,1/2-y,-z
1/2+x,1/2-y,z
loop_
_atom_site_type_symbol
_atom_site_label
_atom_site_fract_x
_atom_site_fract_y
_atom_site_fract_z
Si Si1 0.117030 0.912435 0.311671
Si Si2 0.785419 0.832640 0.569505
Si Si3 0.853202 0.772266 0.003765
Si Si4 0.550686 0.085605 0.173302
Si Si5 0.135825 0.217330 0.223326
O O1 0.373472 0.905279 0.212745
O O2 0.123751 0.864544 0.254335
O O3 0.913198 0.874645 0.454803
O O4 0.071294 0.000000 0.327571
O O5 0.615512 0.889244 0.690901
O O6 0.615185 0.763447 0.641046
O O7 0.000000 0.808196 0.500000
O O8 0.774369 0.857009 0.055118
O O9 0.719487 0.723555 0.118674
O O10 0.750000 0.750000 0.000000
O O11 0.142709 0.758756 0.859575
O O12 0.622650 0.000000 0.140376
#
# Coordination Sequence:
#
# PCOD9173940 Si02
#       5
#     8   8   8   8   8
#     4  10  18  31  51  77 105 130 166 211 251 302
#     4   9  18  32  52  77 101 131 170 211 252 301
#     4  10  19  35  52  73 104 133 170 211 245 305
#     4   9  17  31  52  77 102 131 165 212 261 292
#     4  10  20  33  53  78  97 137 174 204 255 301
#
# _framework density 16.334206999999999
#
# number of rings (size 3 to 8) (size 9 to 14) (size 15 to 20)
#    0.000    2.400    2.000    1.200    0.000    2.400 
#    0.000   12.000    0.000    0.600    0.000    0.000 
#    0.000    0.000    0.000    0.000    0.000    0.000 
#
# Total GULP energy -111501.861392 kJ/mol
# GULP energy per Si atom -5575.093070 kJ/mol
# Density = 1.629703 g / cm^3
# Si number density = 16.334207 Si / 1000 Ang^3
#
#
#
# Elastic Constant Matrix: (Units=GPa)
#
#
# Indices 1 2 3 4 5 6 
#
# 1 89.9262 43.3374 23.5281 0.0233 2.4050 0.0348
# 2 43.3374 101.4773 39.9999 0.0390 -1.4702 0.0188
# 3 23.5281 39.9999 59.7080 0.0700 -18.2048 0.1151
# 4 0.0233 0.0390 0.0700 12.7793 -0.0058 -3.0346
# 5 2.4050 -1.4702 -18.2048 -0.0058 14.5173 -0.0617
# 6 0.0348 0.0188 0.1151 -3.0346 -0.0617 24.9868
#
#
#
# Elastic Compliance Matrix: (Units=1/GPa)
#
#
# Indices 1 2 3 4 5 6 
#
# 1 0.015101 -0.003935 -0.006797 0.000013 -0.011424 -0.000013
# 2 -0.003935 0.017193 -0.014957 0.000035 -0.016363 0.000025
# 3 -0.006797 -0.014957 0.047483 -0.000193 0.059155 -0.000076
# 4 0.000013 0.000035 -0.000193 0.080576 -0.000168 0.009786
# 5 -0.011424 -0.016363 0.059155 -0.000168 0.143300 0.000089
# 6 -0.000013 0.000025 -0.000076 0.009786 0.000089 0.041210
#
#
# Mechanical properties :
#
#
# Convention : Reuss Voigt Hill
#
# Bulk Modulus (GPa) = 35.21263 51.64915 43.43089
# Shear Modulus (GPa) = 12.32412 20.07310 16.19861
#
# Velocity S-wave (km/s) = 2.74979 3.50937 3.15254
# Velocity P-wave (km/s) = 5.62905 6.93612 6.31649
#
# Compressibility (1/GPa) = 0.02839890
#
# Stress axis : x y z
#
# Youngs Moduli (GPa) = 66.22235 58.16176 21.06006
#
# Poissons Ratio (x) = 0.22887 0.14316
# Poissons Ratio (y) = 0.26059 0.31499
# Poissons Ratio (z) = 0.45015 0.86991
#
# Static dielectric constant tensor:
#      x y z
#    x 1.554960 0.000010 0.004620 
#    y 0.000010 1.520970 0.000050 
#    z 0.004620 0.000050 1.553130 
# 
# From -- ./inp_files/74975.got.cif
#   From: 2010.05.17/outbox.cif.g08.bks.cpg/sg12_38_cif.got.tgz:74975.got - 2010.06.03 13:09:07.
