data_PCOD9173486
_publ_section_title
;
Structure prediction by ZEFSAII (Michael W. Deem and Ramdas Pophale) SiO2 
 PCOD9173486
Probable space group: C 2/M
;
_chemical_formula_sum "Si O2"
_cell_formula_units_Z 60
_cell_length_a 14.854416
_cell_length_b 7.830247
_cell_length_c 20.612406
_cell_angle_alpha 90.000000
_cell_angle_beta 90.133794
_cell_angle_gamma 90.000000
_cell_volume 2397.499626
_symmetry_space_group_name_H-M "C 2/M"
_symmetry_group_IT_number 12
_symmetry_cell_setting 'monoclinic'
loop_
_space_group_symop_operation_xyz
x,y,z
-x,y,-z
-x,-y,-z
x,-y,z
1/2+x,1/2+y,z
1/2-x,1/2+y,-z
1/2-x,1/2-y,-z
1/2+x,1/2-y,z
loop_
_atom_site_type_symbol
_atom_site_label
_atom_site_fract_x
_atom_site_fract_y
_atom_site_fract_z
Si Si1 0.231994 0.302068 0.270579
Si Si2 0.592913 0.205199 0.379955
Si Si3 0.302822 0.805186 0.088283
Si Si4 0.852030 0.294943 0.483285
Si Si5 0.967570 0.179771 0.141684
Si Si6 0.904465 0.707913 0.338332
Si Si7 0.883295 0.000000 0.784131
Si Si8 0.880693 0.304934 0.950265
O O1 0.210398 0.500000 0.253451
O O2 0.182764 0.259964 0.339934
O O3 0.337566 0.286307 0.286043
O O4 0.192312 0.151917 0.226875
O O5 0.593618 0.270579 0.453662
O O6 0.508099 0.264802 0.338311
O O7 0.584965 0.000000 0.384592
O O8 0.383458 0.804554 0.140228
O O9 0.209599 0.705473 0.093453
O O10 0.272565 0.000000 0.078405
O O11 0.350075 0.744953 0.021191
O O12 0.863464 0.500000 0.481891
O O13 0.750000 0.250000 0.500000
O O14 0.875266 0.237484 0.411257
O O15 0.037856 0.147321 0.199309
O O16 0.037326 0.209595 0.082921
O O17 0.918192 0.000000 0.131855
O O18 0.898866 0.500000 0.333293
O O19 0.909319 0.500000 0.956397
#
# Coordination Sequence:
#
# PCOD9173486 Si02
#       8
#     8   8   8   8   8   8   4   8
#     4  11  22  42  67  85 117 158 207 268 314 366
#     4   9  19  35  59  88 120 155 200 247 313 384
#     4  10  20  35  61  96 133 168 203 248 308 377
#     4  10  18  30  53  87 121 161 192 234 308 385
#     4  10  22  39  60  85 121 162 207 263 303 363
#     4  10  19  35  61  87 121 159 196 250 311 383
#     4  10  26  46  65  88 118 164 222 266 316 368
#     4  10  20  35  61  96 132 168 205 246 307 380
#
# _framework density 25.026074999999999
#
# number of rings (size 3 to 8) (size 9 to 14) (size 15 to 20)
#    0.400    1.600    2.000    2.000    0.000    5.867 
#    1.200    1.333    0.000    1.600    0.000    0.000 
#    0.000    0.000    0.000    0.000    0.000    0.000 
#
# Total GULP energy -167049.845583 kJ/mol
# GULP energy per Si atom -5568.328186 kJ/mol
# Density = 2.496911 g / cm^3
# Si number density = 25.026075 Si / 1000 Ang^3
#
#
#
# Elastic Constant Matrix: (Units=GPa)
#
#
# Indices 1 2 3 4 5 6 
#
# 1 116.1942 4.8965 30.1256 0.0000 46.5753 0.0000
# 2 4.8965 73.8523 23.9881 0.0000 14.0024 0.0000
# 3 30.1256 23.9881 99.9113 0.0000 8.9671 0.0000
# 4 0.0000 0.0000 0.0000 8.1174 0.0000 11.4164
# 5 46.5753 14.0024 8.9671 0.0000 46.2063 0.0000
# 6 0.0000 0.0000 0.0000 11.4164 0.0000 33.7922
#
#
#
# Elastic Compliance Matrix: (Units=1/GPa)
#
#
# Indices 1 2 3 4 5 6 
#
# 1 0.016183 0.003432 -0.004220 0.000000 -0.016533 0.000000
# 2 0.003432 0.016113 -0.004228 0.000000 -0.007522 0.000000
# 3 -0.004220 -0.004228 0.012009 0.000000 0.003204 0.000000
# 4 0.000000 0.000000 0.000000 0.234718 0.000000 -0.079298
# 5 -0.016533 -0.007522 0.003204 0.000000 0.039965 0.000000
# 6 0.000000 0.000000 0.000000 -0.079298 0.000000 0.056383
#
#
# Mechanical properties :
#
#
# Convention : Reuss Voigt Hill
#
# Bulk Modulus (GPa) = 29.17755 45.33091 37.25423
# Shear Modulus (GPa) = 12.59997 33.01968 22.80983
#
# Velocity S-wave (km/s) = 2.24626 3.63631 3.02229
# Velocity P-wave (km/s) = 4.29089 5.98190 5.20552
#
# Compressibility (1/GPa) = 0.03427293
#
# Stress axis : x y z
#
# Youngs Moduli (GPa) = 61.79342 62.06335 83.27186
#
# Poissons Ratio (x) = -0.21303 0.35139
# Poissons Ratio (y) = -0.21210 0.35211
# Poissons Ratio (z) = 0.26075 0.26243
#
# Static dielectric constant tensor:
#      x y z
#    x 1.928640 0.000000 -0.009930 
#    y 0.000000 1.916740 0.000000 
#    z -0.009930 0.000000 2.097930 
# 
# From -- ./inp_files/338067.got.cif
#   From: 2010.05.17/outbox.cif.g08.bks.cpg/sg12_170_cif.got.tgz:338067.got - 2010.06.03 13:09:07.
