data_PCOD9173672
_publ_section_title
;
Structure prediction by ZEFSAII (Michael W. Deem and Ramdas Pophale) SiO2 
 PCOD9173672
Probable space group: C 2/M
;
_chemical_formula_sum "Si O2"
_cell_formula_units_Z 48
_cell_length_a 22.210404
_cell_length_b 20.121986
_cell_length_c 9.124649
_cell_angle_alpha 90.000000
_cell_angle_beta 136.821180
_cell_angle_gamma 90.000000
_cell_volume 2790.459888
_symmetry_space_group_name_H-M "C 2/M"
_symmetry_group_IT_number 12
_symmetry_cell_setting 'monoclinic'
loop_
_space_group_symop_operation_xyz
x,y,z
-x,y,-z
-x,-y,-z
x,-y,z
1/2+x,1/2+y,z
1/2-x,1/2+y,-z
1/2-x,1/2-y,-z
1/2+x,1/2-y,z
loop_
_atom_site_type_symbol
_atom_site_label
_atom_site_fract_x
_atom_site_fract_y
_atom_site_fract_z
Si Si1 0.460990 0.150858 0.685764
Si Si2 0.454069 0.280181 0.274072
Si Si3 0.312235 0.297486 0.811137
Si Si4 0.835304 0.668859 0.216619
Si Si5 0.851051 0.422427 0.990071
Si Si6 0.808567 0.346103 0.650188
O O1 0.480769 0.229208 0.693708
O O2 0.407912 0.131678 0.445125
O O3 0.551467 0.110475 0.855161
O O4 0.395920 0.144085 0.706821
O O5 0.500000 0.311835 0.500000
O O6 0.382730 0.229823 0.219641
O O7 0.401113 0.318557 0.053649
O O8 0.236865 0.304051 0.800446
O O9 0.274205 0.337851 0.605185
O O10 0.319840 0.222104 0.763815
O O11 0.804795 0.617598 0.039563
O O12 0.857640 0.500000 0.029679
O O13 0.801477 0.405341 0.752095
#
# Coordination Sequence:
#
# PCOD9173672 Si02
#       6
#     8   8   8   8   8   8
#     4   9  18  31  44  68 102 134 165 195 238 280
#     4   9  16  27  47  70  95 125 154 201 244 291
#     4  10  18  31  49  67  96 136 163 203 254 304
#     4   9  18  31  47  68  96 135 169 203 242 278
#     4  11  21  32  48  69 100 140 179 201 226 281
#     4  10  20  30  46  71 100 137 164 196 252 293
#
# _framework density 17.201464999999999
#
# number of rings (size 3 to 8) (size 9 to 14) (size 15 to 20)
#    0.000    2.333    3.333    2.500    0.000    2.667 
#    0.000    2.500    0.000    0.000    0.000    0.000 
#    0.000    4.000    0.000    0.000    0.000    0.000 
#
# Total GULP energy -133639.896627 kJ/mol
# GULP energy per Si atom -5568.329026 kJ/mol
# Density = 1.716231 g / cm^3
# Si number density = 17.201465 Si / 1000 Ang^3
#
#
#
# Elastic Constant Matrix: (Units=GPa)
#
#
# Indices 1 2 3 4 5 6 
#
# 1 39.3259 7.7470 11.6804 0.0000 -22.6164 0.0000
# 2 7.7470 21.4175 7.3241 0.0000 -6.0129 0.0000
# 3 11.6804 7.3241 118.8372 0.0000 -13.9455 0.0000
# 4 0.0000 0.0000 0.0000 12.9196 0.0000 1.1067
# 5 -22.6164 -6.0129 -13.9455 0.0000 21.7128 0.0000
# 6 0.0000 0.0000 0.0000 1.1067 0.0000 7.0492
#
#
#
# Elastic Compliance Matrix: (Units=1/GPa)
#
#
# Indices 1 2 3 4 5 6 
#
# 1 0.064232 -0.005145 0.001825 0.000000 0.066652 0.000000
# 2 -0.005145 0.051320 -0.001750 0.000000 0.007729 0.000000
# 3 0.001825 -0.001750 0.009203 0.000000 0.007328 0.000000
# 4 0.000000 0.000000 0.000000 0.078457 0.000000 -0.012317
# 5 0.066652 0.007729 0.007328 0.000000 0.122328 0.000000
# 6 0.000000 0.000000 0.000000 -0.012317 0.000000 0.143793
#
#
# Mechanical properties :
#
#
# Convention : Reuss Voigt Hill
#
# Bulk Modulus (GPa) = 8.72483 25.89816 17.31149
# Shear Modulus (GPa) = 9.65849 18.52492 14.09171
#
# Velocity S-wave (km/s) = 2.37215 3.28523 2.86530
# Velocity P-wave (km/s) = 3.54767 5.42944 4.58611
#
# Compressibility (1/GPa) = 0.11461546
#
# Stress axis : x y z
#
# Youngs Moduli (GPa) = 15.56860 19.48545 108.65760
#
# Poissons Ratio (x) = 0.10026 -0.19835
# Poissons Ratio (y) = 0.08010 0.19018
# Poissons Ratio (z) = -0.02842 0.03410
#
# Static dielectric constant tensor:
#      x y z
#    x 1.593820 0.000000 0.004330 
#    y 0.000000 1.556460 0.000000 
#    z 0.004330 0.000000 1.689910 
# 
# From -- ./inp_files/50635.got.cif
#   From: 2010.05.17/outbox.cif.g08.bks.cpg/sg12_26_cif.got.tgz:50635.got - 2010.06.03 13:09:07.
