data_PCOD9173441
_publ_section_title
;
Structure prediction by ZEFSAII (Michael W. Deem and Ramdas Pophale) SiO2 
 PCOD9173441
Probable space group: C 2/M
;
_chemical_formula_sum "Si O2"
_cell_formula_units_Z 60
_cell_length_a 9.649318
_cell_length_b 21.233002
_cell_length_c 23.402711
_cell_angle_alpha 90.000000
_cell_angle_beta 137.875192
_cell_angle_gamma 90.000000
_cell_volume 3216.128982
_symmetry_space_group_name_H-M "C 2/M"
_symmetry_group_IT_number 12
_symmetry_cell_setting 'monoclinic'
loop_
_space_group_symop_operation_xyz
x,y,z
-x,y,-z
-x,-y,-z
x,-y,z
1/2+x,1/2+y,z
1/2-x,1/2+y,-z
1/2-x,1/2-y,-z
1/2+x,1/2-y,z
loop_
_atom_site_type_symbol
_atom_site_label
_atom_site_fract_x
_atom_site_fract_y
_atom_site_fract_z
Si Si1 0.348895 0.347738 0.191309
Si Si2 0.475420 0.299228 0.119554
Si Si3 0.563075 0.205036 0.740402
Si Si4 0.711108 0.701465 0.538472
Si Si5 0.727019 0.572910 0.354602
Si Si6 0.792322 0.573268 0.510125
Si Si7 0.000000 0.148569 0.000000
Si Si8 0.048721 0.346414 0.858177
O O1 0.331710 0.341061 0.117096
O O2 0.400416 0.276376 0.226875
O O3 0.544394 0.388044 0.270813
O O4 0.142237 0.369284 0.161677
O O5 0.709445 0.312607 0.212611
O O6 0.492398 0.314025 0.057688
O O7 0.418914 0.226082 0.110516
O O8 0.393045 0.203339 0.640077
O O9 0.499741 0.162941 0.775908
O O10 0.500000 0.724730 0.500000
O O11 0.750000 0.750000 0.500000
O O12 0.682656 0.629670 0.509100
O O13 0.691409 0.500000 0.330128
O O14 0.733063 0.579042 0.425270
O O15 0.962298 0.587167 0.408153
O O16 0.755799 0.500000 0.515711
O O17 0.769780 0.118173 0.929566
#
# Coordination Sequence:
#
# PCOD9173441 Si02
#       8
#     8   8   8   8   8   8   4   8
#     4  10  18  30  53  74 104 136 172 224 267 320
#     4   9  18  30  49  71 103 142 165 218 260 328
#     4   9  20  34  45  71 109 144 175 214 280 313
#     4  12  27  35  54  83 113 158 198 235 279 344
#     4   9  18  33  58  80 102 137 185 235 283 327
#     4   9  20  38  56  78 109 151 191 245 293 325
#     4  10  18  32  44  74 109 132 175 200 268 342
#     4   9  19  30  49  71 104 140 169 217 263 326
#
# _framework density 18.655968999999999
#
# number of rings (size 3 to 8) (size 9 to 14) (size 15 to 20)
#    0.000    2.400    0.000    3.600   11.200    0.800 
#    0.000    0.000    0.000    0.000    0.000    2.800 
#    0.000    0.000    0.000    0.000    0.000    0.000 
#
# Total GULP energy -167099.312791 kJ/mol
# GULP energy per Si atom -5569.977093 kJ/mol
# Density = 1.861351 g / cm^3
# Si number density = 18.655969 Si / 1000 Ang^3
#
#
#
# Elastic Constant Matrix: (Units=GPa)
#
#
# Indices 1 2 3 4 5 6 
#
# 1 120.4457 29.1019 35.3287 -0.0002 6.8130 -0.0001
# 2 29.1019 25.7296 13.2236 0.0000 1.9408 0.0000
# 3 35.3287 13.2236 86.1294 -0.0007 1.7203 -0.0003
# 4 -0.0002 0.0000 -0.0007 10.2209 -0.0003 1.9268
# 5 6.8130 1.9408 1.7203 -0.0003 19.8353 -0.0002
# 6 -0.0001 0.0000 -0.0003 1.9268 -0.0002 18.4149
#
#
#
# Elastic Compliance Matrix: (Units=1/GPa)
#
#
# Indices 1 2 3 4 5 6 
#
# 1 0.012300 -0.012093 -0.003133 0.000000 -0.002770 0.000000
# 2 -0.012093 0.054339 -0.003365 -0.000001 -0.000871 0.000000
# 3 -0.003133 -0.003365 0.013407 0.000001 0.000243 0.000000
# 4 0.000000 -0.000001 0.000001 0.099807 0.000001 -0.010443
# 5 -0.002770 -0.000871 0.000243 0.000001 0.051431 0.000000
# 6 0.000000 0.000000 0.000000 -0.010443 0.000000 0.055396
#
#
# Mechanical properties :
#
#
# Convention : Reuss Voigt Hill
#
# Bulk Modulus (GPa) = 23.32967 43.06811 33.19889
# Shear Modulus (GPa) = 14.78626 20.00425 17.39526
#
# Velocity S-wave (km/s) = 2.81833 3.27811 3.05687
# Velocity P-wave (km/s) = 4.80863 6.12075 5.50393
#
# Compressibility (1/GPa) = 0.04286387
#
# Stress axis : x y z
#
# Youngs Moduli (GPa) = 81.30003 18.40301 74.58545
#
# Poissons Ratio (x) = 0.22255 0.23370
# Poissons Ratio (y) = 0.98316 0.25098
# Poissons Ratio (z) = 0.25474 0.06193
#
# Static dielectric constant tensor:
#      x y z
#    x 1.725780 0.000000 0.023300 
#    y 0.000000 1.625320 0.000000 
#    z 0.023300 0.000000 1.672190 
# 
# From -- ./inp_files/334085.got.cif
#   From: 2010.05.17/outbox.cif.g08.bks.cpg/sg12_168_cif.got.tgz:334085.got - 2010.06.03 13:09:07.
