data_PCOD9173402
_publ_section_title
;
Structure prediction by ZEFSAII (Michael W. Deem and Ramdas Pophale) SiO2 
 PCOD9173402
Probable space group: C 2/M
;
_chemical_formula_sum "Si O2"
_cell_formula_units_Z 64
_cell_length_a 22.970547
_cell_length_b 9.120137
_cell_length_c 19.910949
_cell_angle_alpha 90.000000
_cell_angle_beta 119.909251
_cell_angle_gamma 90.000000
_cell_volume 3615.694300
_symmetry_space_group_name_H-M "C 2/M"
_symmetry_group_IT_number 12
_symmetry_cell_setting 'monoclinic'
loop_
_space_group_symop_operation_xyz
x,y,z
-x,y,-z
-x,-y,-z
x,-y,z
1/2+x,1/2+y,z
1/2-x,1/2+y,-z
1/2-x,1/2-y,-z
1/2+x,1/2-y,z
loop_
_atom_site_type_symbol
_atom_site_label
_atom_site_fract_x
_atom_site_fract_y
_atom_site_fract_z
Si Si1 0.230469 0.175067 0.367342
Si Si2 0.648151 0.174501 0.919233
Si Si3 0.034451 0.674963 0.750552
Si Si4 0.905277 0.825354 0.634942
Si Si5 0.734957 0.829001 0.231280
Si Si6 0.787594 0.826304 0.920264
Si Si7 0.397124 0.329608 0.334933
Si Si8 0.373557 0.676789 0.469321
O O1 0.169897 0.207391 0.383358
O O2 0.212616 0.240685 0.284190
O O3 0.300405 0.249267 0.428543
O O4 0.239100 0.000000 0.368176
O O5 0.582488 0.219469 0.839905
O O6 0.713015 0.198283 0.908597
O O7 0.645321 0.000000 0.931650
O O8 0.661832 0.262258 0.995139
O O9 0.032305 0.500000 0.748140
O O10 0.067783 0.733918 0.701188
O O11 0.960527 0.741952 0.709772
O O12 0.911394 0.786094 0.559688
O O13 0.915383 0.000000 0.647096
O O14 0.708695 0.757043 0.147980
O O15 0.816553 0.821616 0.278151
O O16 0.716636 0.000000 0.225547
O O17 0.796413 0.000000 0.916535
O O18 0.417932 0.500000 0.339273
O O19 0.408485 0.283733 0.418883
O O20 0.364324 0.500000 0.462308
#
# Coordination Sequence:
#
# PCOD9173402 Si02
#       8
#     8   8   8   8   8   8   8   8
#     4  10  20  34  55  80 104 133 173 223 266 304
#     4   9  19  33  48  74 109 140 170 209 256 309
#     4  11  22  35  52  74 106 142 176 215 255 306
#     4  10  22  38  54  74 103 140 179 216 261 315
#     4  10  19  32  53  79 108 140 171 211 262 313
#     4  10  18  30  52  80 108 136 171 213 255 306
#     4   9  18  32  51  74 102 138 173 208 258 312
#     4   9  19  36  56  78 103 134 173 219 267 313
#
# _framework density 17.700610999999999
#
# number of rings (size 3 to 8) (size 9 to 14) (size 15 to 20)
#    0.000    2.250    1.250    2.625    0.000    5.500 
#    0.000    2.500    0.000    0.750    0.000    5.250 
#    0.000    0.000    0.000    0.000    0.000    0.000 
#
# Total GULP energy -178604.575111 kJ/mol
# GULP energy per Si atom -5581.392972 kJ/mol
# Density = 1.766032 g / cm^3
# Si number density = 17.700611 Si / 1000 Ang^3
#
#
#
# Elastic Constant Matrix: (Units=GPa)
#
#
# Indices 1 2 3 4 5 6 
#
# 1 8.7748 1.3250 4.4184 0.0000 -1.0259 0.0000
# 2 1.3250 24.1850 27.8513 0.0000 -1.1605 0.0000
# 3 4.4184 27.8513 107.8722 0.0000 -2.6896 0.0000
# 4 0.0000 0.0000 0.0000 27.8046 0.0000 -0.0891
# 5 -1.0259 -1.1605 -2.6896 0.0000 21.8051 0.0000
# 6 0.0000 0.0000 0.0000 -0.0891 0.0000 25.6466
#
#
#
# Elastic Compliance Matrix: (Units=1/GPa)
#
#
# Indices 1 2 3 4 5 6 
#
# 1 0.116909 -0.001133 -0.004374 0.000000 0.004900 0.000000
# 2 -0.001133 0.058889 -0.015128 0.000000 0.001215 0.000000
# 3 -0.004374 -0.015128 0.013371 0.000000 0.000638 0.000000
# 4 0.000000 0.000000 0.000000 0.035966 0.000000 0.000125
# 5 0.004900 0.001215 0.000638 0.000000 0.046235 0.000000
# 6 0.000000 0.000000 0.000000 0.000125 0.000000 0.038992
#
#
# Mechanical properties :
#
#
# Convention : Reuss Voigt Hill
#
# Bulk Modulus (GPa) = 6.76130 23.11348 14.93739
# Shear Modulus (GPa) = 12.47095 22.20041 17.33568
#
# Velocity S-wave (km/s) = 2.65721 3.54534 3.13290
# Velocity P-wave (km/s) = 3.63902 5.46311 4.64155
#
# Compressibility (1/GPa) = 0.14790049
#
# Stress axis : x y z
#
# Youngs Moduli (GPa) = 8.55364 16.98097 74.78808
#
# Poissons Ratio (x) = 0.01924 0.32711
# Poissons Ratio (y) = 0.00969 1.13138
# Poissons Ratio (z) = 0.03741 0.25689
#
# Static dielectric constant tensor:
#      x y z
#    x 1.593470 0.000000 0.000220 
#    y 0.000000 1.585450 0.000000 
#    z 0.000220 0.000000 1.603330 
# 
# From -- ./inp_files/295739.got.cif
#   From: 2010.05.17/outbox.cif.g08.bks.cpg/sg12_148_cif.got.tgz:295739.got - 2010.06.03 13:09:07.
