data_PCOD9173376
_publ_section_title
;
Structure prediction by ZEFSAII (Michael W. Deem and Ramdas Pophale) SiO2 
 PCOD9173376
Probable space group: C 2/M
;
_chemical_formula_sum "Si O2"
_cell_formula_units_Z 48
_cell_length_a 25.699488
_cell_length_b 7.464099
_cell_length_c 12.852544
_cell_angle_alpha 90.000000
_cell_angle_beta 107.497911
_cell_angle_gamma 90.000000
_cell_volume 2351.340127
_symmetry_space_group_name_H-M "C 2/M"
_symmetry_group_IT_number 12
_symmetry_cell_setting 'monoclinic'
loop_
_space_group_symop_operation_xyz
x,y,z
-x,y,-z
-x,-y,-z
x,-y,z
1/2+x,1/2+y,z
1/2-x,1/2+y,-z
1/2-x,1/2-y,-z
1/2+x,1/2-y,z
loop_
_atom_site_type_symbol
_atom_site_label
_atom_site_fract_x
_atom_site_fract_y
_atom_site_fract_z
Si Si1 0.935096 0.283086 0.134568
Si Si2 0.443643 0.783543 0.730376
Si Si3 0.757677 0.715092 0.882162
Si Si4 0.122501 0.719009 0.110300
Si Si5 0.060215 0.789039 0.510793
Si Si6 0.645721 0.290597 0.726160
O O1 0.935331 0.500000 0.136087
O O2 0.890654 0.222485 0.191697
O O3 0.995188 0.221999 0.203931
O O4 0.916663 0.226862 0.008580
O O5 0.401998 0.723038 0.794413
O O6 0.429371 0.728697 0.605067
O O7 0.444475 0.000000 0.732750
O O8 0.758278 0.500000 0.871252
O O9 0.816221 0.780483 0.877444
O O10 0.705145 0.786290 0.788243
O O11 0.750000 0.750000 0.000000
O O12 0.122934 0.500000 0.110646
O O13 0.108363 0.712631 0.611574
O O14 0.000000 0.713106 0.500000
O O15 0.057326 0.000000 0.535800
O O16 0.654658 0.500000 0.707066
#
# Coordination Sequence:
#
# PCOD9173376 Si02
#       6
#     8   8   8   8   8   8
#     4  10  18  30  52  78 103 130 163 206 252 300
#     4  10  20  33  52  77 103 132 170 209 248 298
#     4  10  19  33  54  76 101 132 167 205 248 298
#     4   9  18  33  51  75 106 135 160 202 260 303
#     4  10  20  35  52  70 101 139 170 205 251 297
#     4  10  20  33  51  76 102 131 168 207 248 297
#
# _framework density 20.413891
#
# number of rings (size 3 to 8) (size 9 to 14) (size 15 to 20)
#    0.000    2.167    3.333    0.500    0.000    3.000 
#    0.000    2.500    0.000    2.000    0.000    0.000 
#    0.000    0.000    0.000    0.000    0.000    0.000 
#
# Total GULP energy -134038.808706 kJ/mol
# GULP energy per Si atom -5584.950363 kJ/mol
# Density = 2.036743 g / cm^3
# Si number density = 20.413891 Si / 1000 Ang^3
#
#
#
# Elastic Constant Matrix: (Units=GPa)
#
#
# Indices 1 2 3 4 5 6 
#
# 1 70.5999 -8.8751 47.7645 0.0000 12.4156 0.0000
# 2 -8.8751 59.3198 -8.4228 0.0000 11.6500 0.0000
# 3 47.7645 -8.4228 163.0685 0.0000 15.3151 0.0000
# 4 0.0000 0.0000 0.0000 21.1132 0.0000 -7.6832
# 5 12.4156 11.6500 15.3151 0.0000 36.0922 0.0000
# 6 0.0000 0.0000 0.0000 -7.6832 0.0000 10.8873
#
#
#
# Elastic Compliance Matrix: (Units=1/GPa)
#
#
# Indices 1 2 3 4 5 6 
#
# 1 0.018790 0.003196 -0.004827 0.000000 -0.005447 0.000000
# 2 0.003196 0.018920 0.000748 0.000000 -0.007524 0.000000
# 3 -0.004827 0.000748 0.007761 0.000000 -0.001874 0.000000
# 4 0.000000 0.000000 0.000000 0.063730 0.000000 0.044975
# 5 -0.005447 -0.007524 -0.001874 0.000000 0.032804 0.000000
# 6 0.000000 0.000000 0.000000 0.044975 0.000000 0.123589
#
#
# Mechanical properties :
#
#
# Convention : Reuss Voigt Hill
#
# Bulk Modulus (GPa) = 22.88186 39.32461 31.10323
# Shear Modulus (GPa) = 17.73497 31.11998 24.42747
#
# Velocity S-wave (km/s) = 2.95069 3.90866 3.46296
# Velocity P-wave (km/s) = 4.77933 6.29886 5.59096
#
# Compressibility (1/GPa) = 0.04370275
#
# Stress axis : x y z
#
# Youngs Moduli (GPa) = 53.22069 52.85514 128.85037
#
# Poissons Ratio (x) = -0.16890 0.62197
# Poissons Ratio (y) = -0.17007 -0.09636
# Poissons Ratio (z) = 0.25690 -0.03953
#
# Static dielectric constant tensor:
#      x y z
#    x 1.707470 0.000000 0.034810 
#    y 0.000000 1.736360 0.000000 
#    z 0.034810 0.000000 1.697140 
# 
# From -- ./inp_files/94329.got.cif
#   From: 2010.05.17/outbox.cif.g08.bks.cpg/sg12_48_cif.got.tgz:94329.got - 2010.06.03 13:09:07.
