data_PCOD9173764
_publ_section_title
;
Structure prediction by ZEFSAII (Michael W. Deem and Ramdas Pophale) SiO2 
 PCOD9173764
Probable space group: C 2/M
;
_chemical_formula_sum "Si O2"
_cell_formula_units_Z 48
_cell_length_a 31.026876
_cell_length_b 9.333999
_cell_length_c 10.046494
_cell_angle_alpha 90.000000
_cell_angle_beta 102.941508
_cell_angle_gamma 90.000000
_cell_volume 2835.609233
_symmetry_space_group_name_H-M "C 2/M"
_symmetry_group_IT_number 12
_symmetry_cell_setting 'monoclinic'
loop_
_space_group_symop_operation_xyz
x,y,z
-x,y,-z
-x,-y,-z
x,-y,z
1/2+x,1/2+y,z
1/2-x,1/2+y,-z
1/2-x,1/2-y,-z
1/2+x,1/2-y,z
loop_
_atom_site_type_symbol
_atom_site_label
_atom_site_fract_x
_atom_site_fract_y
_atom_site_fract_z
Si Si1 0.788962 0.835324 0.854151
Si Si2 0.886830 0.669381 0.222543
Si Si3 0.702004 0.665310 0.816399
Si Si4 0.123402 0.668349 0.103047
Si Si5 0.024199 0.832955 0.657922
Si Si6 0.028626 0.668500 0.154236
O O1 0.745503 0.743574 0.791224
O O2 0.833929 0.762671 0.834667
O O3 0.784666 0.000000 0.809079
O O4 0.792894 0.834627 0.018632
O O5 0.886198 0.500000 0.250131
O O6 0.842418 0.746253 0.242567
O O7 0.930288 0.744792 0.308690
O O8 0.887407 0.686308 0.061738
O O9 0.698954 0.500000 0.772023
O O10 0.133695 0.500000 0.128866
O O11 0.079355 0.703471 0.154593
O O12 0.000000 0.822387 0.500000
O O13 0.992534 0.765645 0.747661
O O14 0.033289 0.000000 0.692968
O O15 0.025975 0.500000 0.190116
O O16 0.000000 0.684692 0.000000
#
# Coordination Sequence:
#
# PCOD9173764 Si02
#       6
#     8   8   8   8   8   8
#     4   9  16  25  39  64  97 131 166 201 244 299
#     4  10  18  31  50  71  97 131 170 211 255 303
#     4   9  16  26  41  64  96 131 165 203 251 300
#     4   9  17  29  47  71 100 129 162 208 256 301
#     4  11  24  38  51  73 105 138 174 215 257 304
#     4  10  19  35  55  77 101 132 173 215 259 307
#
# _framework density 16.927579000000001
#
# number of rings (size 3 to 8) (size 9 to 14) (size 15 to 20)
#    0.000    2.333    1.667    2.000    0.000    7.000 
#    0.000    0.000    0.000    0.000    0.000    1.167 
#    0.000    0.000    0.000    0.000    0.000    0.000 
#
# Total GULP energy -133872.648000 kJ/mol
# GULP energy per Si atom -5578.027000 kJ/mol
# Density = 1.688905 g / cm^3
# Si number density = 16.927579 Si / 1000 Ang^3
#
#
#
# Elastic Constant Matrix: (Units=GPa)
#
#
# Indices 1 2 3 4 5 6 
#
# 1 152.1048 105.2238 31.6328 0.0000 29.1750 0.0000
# 2 105.2238 151.0727 42.5667 0.0000 21.5826 0.0000
# 3 31.6328 42.5667 23.9891 0.0000 6.4780 0.0000
# 4 0.0000 0.0000 0.0000 16.5811 0.0000 4.0716
# 5 29.1750 21.5826 6.4780 0.0000 13.0321 0.0000
# 6 0.0000 0.0000 0.0000 4.0716 0.0000 36.2525
#
#
#
# Elastic Compliance Matrix: (Units=1/GPa)
#
#
# Indices 1 2 3 4 5 6 
#
# 1 0.017082 -0.007869 -0.002025 0.000000 -0.024201 0.000000
# 2 -0.007869 0.018658 -0.022111 0.000000 -0.002291 0.000000
# 3 -0.002025 -0.022111 0.083716 0.000000 -0.000460 0.000000
# 4 0.000000 0.000000 0.000000 0.062020 0.000000 -0.006966
# 5 -0.024201 -0.002291 -0.000460 0.000000 0.134937 0.000000
# 6 0.000000 0.000000 0.000000 -0.006966 0.000000 0.028367
#
#
# Mechanical properties :
#
#
# Convention : Reuss Voigt Hill
#
# Bulk Modulus (GPa) = 18.03670 76.22368 47.13019
# Shear Modulus (GPa) = 11.70215 23.02269 17.36242
#
# Velocity S-wave (km/s) = 2.63212 3.69191 3.20611
# Velocity P-wave (km/s) = 4.46271 7.95617 6.45044
#
# Compressibility (1/GPa) = 0.05544251
#
# Stress axis : x y z
#
# Youngs Moduli (GPa) = 58.54268 53.59643 11.94521
#
# Poissons Ratio (x) = 0.42177 0.02419
# Poissons Ratio (y) = 0.46069 0.26413
# Poissons Ratio (z) = 0.11858 1.18510
#
# Static dielectric constant tensor:
#      x y z
#    x 1.561890 0.000000 0.005260 
#    y 0.000000 1.567510 0.000000 
#    z 0.005260 0.000000 1.539970 
# 
# From -- ./inp_files/185737.got.cif
#   From: 2010.05.17/outbox.cif.g08.bks.cpg/sg12_93_cif.got.tgz:185737.got - 2010.06.03 13:09:07.
