data_PCOD9173794
_publ_section_title
;
Structure prediction by ZEFSAII (Michael W. Deem and Ramdas Pophale) SiO2 
 PCOD9173794
Probable space group: C 2/M
;
_chemical_formula_sum "Si O2"
_cell_formula_units_Z 40
_cell_length_a 24.301100
_cell_length_b 8.085881
_cell_length_c 8.015884
_cell_angle_alpha 90.000000
_cell_angle_beta 82.591247
_cell_angle_gamma 90.000000
_cell_volume 1561.937903
_symmetry_space_group_name_H-M "C 2/M"
_symmetry_group_IT_number 12
_symmetry_cell_setting 'monoclinic'
loop_
_space_group_symop_operation_xyz
x,y,z
-x,y,-z
-x,-y,-z
x,-y,z
1/2+x,1/2+y,z
1/2-x,1/2+y,-z
1/2-x,1/2-y,-z
1/2+x,1/2-y,z
loop_
_atom_site_type_symbol
_atom_site_label
_atom_site_fract_x
_atom_site_fract_y
_atom_site_fract_z
Si Si1 0.211789 0.193610 0.170638
Si Si2 0.915250 0.201509 0.461099
Si Si3 0.481212 0.300937 0.774352
Si Si4 0.619110 0.811354 0.992623
Si Si5 0.309969 0.690862 0.338300
O O1 0.155179 0.286468 0.148289
O O2 0.252217 0.225120 0.311424
O O3 0.199107 0.000000 0.170478
O O4 0.250000 0.250000 0.000000
O O5 0.945849 0.238305 0.620967
O O6 0.852593 0.261476 0.458930
O O7 0.957206 0.258134 0.298313
O O8 0.912382 0.000000 0.453911
O O9 0.483364 0.500000 0.792309
O O10 0.443887 0.232610 0.937796
O O11 0.624824 0.000000 0.935863
O O12 0.649921 0.701405 0.841942
O O13 0.297834 0.500000 0.376373
#
# Coordination Sequence:
#
# PCOD9173794 Si02
#       5
#     8   8   8   8   8
#     4  10  18  31  50  73  99 132 165 203 249 296
#     4   8  17  33  56  77  98 129 168 206 249 297
#     4   9  17  35  56  75  98 131 169 207 246 294
#     4  11  21  33  49  75 104 134 167 205 246 293
#     4  10  18  32  53  78 102 130 164 205 249 296
#
# _framework density 25.609214000000001
#
# number of rings (size 3 to 8) (size 9 to 14) (size 15 to 20)
#    0.000    2.400    0.000    7.800    0.000    0.800 
#    0.000   11.000    0.000    0.000    0.000    0.000 
#    0.000    0.000    0.000    0.000    0.000    0.000 
#
# Total GULP energy -111846.267640 kJ/mol
# GULP energy per Si atom -5592.313382 kJ/mol
# Density = 2.555093 g / cm^3
# Si number density = 25.609214 Si / 1000 Ang^3
#
#
#
# Elastic Constant Matrix: (Units=GPa)
#
#
# Indices 1 2 3 4 5 6 
#
# 1 171.2834 3.0691 12.8626 0.0000 -6.5694 0.0000
# 2 3.0691 70.5850 -5.8332 0.0000 -1.0957 0.0000
# 3 12.8626 -5.8332 86.5563 0.0000 1.7385 0.0000
# 4 0.0000 0.0000 0.0000 12.7151 0.0000 3.5170
# 5 -6.5694 -1.0957 1.7385 0.0000 52.5589 0.0000
# 6 0.0000 0.0000 0.0000 3.5170 0.0000 15.2596
#
#
#
# Elastic Compliance Matrix: (Units=1/GPa)
#
#
# Indices 1 2 3 4 5 6 
#
# 1 0.005943 -0.000323 -0.000920 0.000000 0.000766 0.000000
# 2 -0.000323 0.014268 0.001005 0.000000 0.000224 0.000000
# 3 -0.000920 0.001005 0.011767 0.000000 -0.000483 0.000000
# 4 0.000000 0.000000 0.000000 0.084002 0.000000 -0.019360
# 5 0.000766 0.000224 -0.000483 0.000000 0.019143 0.000000
# 6 0.000000 0.000000 0.000000 -0.019360 0.000000 0.069995
#
#
# Mechanical properties :
#
#
# Convention : Reuss Voigt Hill
#
# Bulk Modulus (GPa) = 31.74382 38.73576 35.23979
# Shear Modulus (GPa) = 23.13819 37.32848 30.23334
#
# Velocity S-wave (km/s) = 3.00911 3.82202 3.43966
# Velocity P-wave (km/s) = 4.94928 5.88521 5.43742
#
# Compressibility (1/GPa) = 0.03150220
#
# Stress axis : x y z
#
# Youngs Moduli (GPa) = 168.27772 70.08761 84.98087
#
# Poissons Ratio (x) = 0.02261 0.07820
# Poissons Ratio (y) = 0.05428 -0.08540
# Poissons Ratio (z) = 0.15485 -0.07044
#
# Static dielectric constant tensor:
#      x y z
#    x 2.036130 0.000000 0.061800 
#    y 0.000000 1.882360 0.000000 
#    z 0.061800 0.000000 2.142530 
# 
# From -- ./inp_files/101102.got.cif
#   From: 2010.05.17/outbox.cif.g08.bks.cpg/sg12_51_cif.got.tgz:101102.got - 2010.06.03 13:09:07.
