data_PCOD9173965
_publ_section_title
;
Structure prediction by ZEFSAII (Michael W. Deem and Ramdas Pophale) SiO2 
 PCOD9173965
Probable space group: C 2/M
;
_chemical_formula_sum "Si O2"
_cell_formula_units_Z 48
_cell_length_a 20.838639
_cell_length_b 14.973090
_cell_length_c 16.334948
_cell_angle_alpha 90.000000
_cell_angle_beta 27.571160
_cell_angle_gamma 90.000000
_cell_volume 2359.058550
_symmetry_space_group_name_H-M "C 2/M"
_symmetry_group_IT_number 12
_symmetry_cell_setting 'monoclinic'
loop_
_space_group_symop_operation_xyz
x,y,z
-x,y,-z
-x,-y,-z
x,-y,z
1/2+x,1/2+y,z
1/2-x,1/2+y,-z
1/2-x,1/2-y,-z
1/2+x,1/2-y,z
loop_
_atom_site_type_symbol
_atom_site_label
_atom_site_fract_x
_atom_site_fract_y
_atom_site_fract_z
Si Si1 0.136829 0.898852 0.490547
Si Si2 0.603254 0.108026 0.115540
Si Si3 0.711537 0.149945 0.520534
Si Si4 0.965155 0.106675 0.128625
Si Si5 0.382194 0.390231 0.881837
Si Si6 0.642554 0.890741 0.883575
O O1 0.238934 0.902672 0.454060
O O2 0.225271 0.856653 0.317387
O O3 0.102598 0.000000 0.503499
O O4 0.994281 0.859463 0.686965
O O5 0.450181 0.139299 0.311326
O O6 0.727908 0.137052 0.033225
O O7 0.600055 0.000000 0.119981
O O8 0.637570 0.135499 0.983640
O O9 0.750000 0.250000 0.500000
O O10 0.808325 0.122205 0.335721
O O11 0.986782 0.000000 0.101184
O O12 0.061950 0.140571 0.093277
O O13 0.000000 0.143786 0.000000
O O14 0.387871 0.500000 0.875175
O O15 0.647669 0.000000 0.874830
O O16 0.500000 0.864885 0.000000
#
# Coordination Sequence:
#
# PCOD9173965 Si02
#       6
#     8   8   8   8   8   8
#     4   9  16  31  50  70 102 139 172 207 248 312
#     4  10  18  31  51  79 108 135 171 219 264 304
#     4  11  21  33  49  77 103 137 176 212 267 320
#     4   9  18  37  60  77  98 136 183 224 264 317
#     4   8  16  29  51  80 105 131 171 221 268 304
#     4   9  15  24  45  75 101 131 166 199 245 300
#
# _framework density 20.347100000000001
#
# number of rings (size 3 to 8) (size 9 to 14) (size 15 to 20)
#    0.000    2.667    1.667    2.500    0.000    0.667 
#    3.000    7.500    0.000    4.000    8.667    0.000 
#    0.000    0.000    0.000    0.000    0.000    0.000 
#
# Total GULP energy -133921.752271 kJ/mol
# GULP energy per Si atom -5580.073011 kJ/mol
# Density = 2.030079 g / cm^3
# Si number density = 20.347100 Si / 1000 Ang^3
#
#
#
# Elastic Constant Matrix: (Units=GPa)
#
#
# Indices 1 2 3 4 5 6 
#
# 1 112.8308 5.5577 115.1840 0.0000 -3.9001 0.0000
# 2 5.5577 41.0043 -2.5202 0.0000 -1.6922 0.0000
# 3 115.1840 -2.5202 183.6335 0.0000 -10.1113 0.0000
# 4 0.0000 0.0000 0.0000 -121.4046 0.0000 6.0278
# 5 -3.9001 -1.6922 -10.1113 0.0000 42.6290 0.0000
# 6 0.0000 0.0000 0.0000 6.0278 0.0000 2.2598
#
#
#
# Elastic Compliance Matrix: (Units=1/GPa)
#
#
# Indices 1 2 3 4 5 6 
#
# 1 0.025539 -0.004525 -0.016174 0.000000 -0.001679 0.000000
# 2 -0.004525 0.025258 0.003260 0.000000 0.001362 0.000000
# 3 -0.016174 0.003260 0.015767 0.000000 0.002389 0.000000
# 4 0.000000 0.000000 0.000000 -0.007274 0.000000 0.019402
# 5 -0.001679 0.001362 0.002389 0.000000 0.023925 0.000000
# 6 0.000000 0.000000 0.000000 0.019402 0.000000 0.390771
#
#
# Mechanical properties :
#
#
# Convention : Reuss Voigt Hill
#
# Bulk Modulus (GPa) = 31.56003 63.76797 47.66400
# Shear Modulus (GPa) = 9.62602 -0.68670 4.46966
#
# Velocity S-wave (km/s) = 2.17742 -0.58157 1.48374
# Velocity P-wave (km/s) = 4.67612 5.56391 5.13922
#
# Compressibility (1/GPa) = 0.03168564
#
# Stress axis : x y z
#
# Youngs Moduli (GPa) = 39.15630 39.59216 63.42413
#
# Poissons Ratio (x) = 0.17915 1.02580
# Poissons Ratio (y) = 0.17718 -0.20675
# Poissons Ratio (z) = 0.63330 -0.12906
#
# Static dielectric constant tensor:
#      x y z
#    x 1.711700 0.000000 0.010300 
#    y 0.000000 1.799640 0.000000 
#    z 0.010300 0.000000 1.719430 
# 
# From -- ./inp_files/290517.got.cif
#   From: 2010.05.17/outbox.cif.g08.bks.cpg/sg12_146_cif.got.tgz:290517.got - 2010.06.03 13:09:07.
