data_PCOD9173968
_publ_section_title
;
Structure prediction by ZEFSAII (Michael W. Deem and Ramdas Pophale) SiO2 
 PCOD9173968
Probable space group: C 2/M
;
_chemical_formula_sum "Si O2"
_cell_formula_units_Z 64
_cell_length_a 18.433286
_cell_length_b 18.398374
_cell_length_c 14.264578
_cell_angle_alpha 90.000000
_cell_angle_beta 51.574623
_cell_angle_gamma 90.000000
_cell_volume 3789.961742
_symmetry_space_group_name_H-M "C 2/M"
_symmetry_group_IT_number 12
_symmetry_cell_setting 'monoclinic'
loop_
_space_group_symop_operation_xyz
x,y,z
-x,y,-z
-x,-y,-z
x,-y,z
1/2+x,1/2+y,z
1/2-x,1/2+y,-z
1/2-x,1/2-y,-z
1/2+x,1/2-y,z
loop_
_atom_site_type_symbol
_atom_site_label
_atom_site_fract_x
_atom_site_fract_y
_atom_site_fract_z
Si Si1 0.751676 0.915060 0.418551
Si Si2 0.171399 0.204874 0.009017
Si Si3 0.577666 0.585577 0.575771
Si Si4 0.205741 0.861223 0.319835
Si Si5 0.516126 0.789575 0.878352
Si Si6 0.873176 0.086349 0.807878
Si Si7 0.124062 0.584157 0.695382
Si Si8 0.703005 0.705868 0.765559
O O1 0.844340 0.905415 0.407027
O O2 0.666505 0.900140 0.558193
O O3 0.759505 0.860131 0.326402
O O4 0.747111 0.000000 0.394622
O O5 0.154137 0.131023 0.079018
O O6 0.077116 0.252069 0.082350
O O7 0.250000 0.250000 0.000000
O O8 0.197498 0.189932 0.880319
O O9 0.573984 0.500000 0.554422
O O10 0.614271 0.626253 0.454889
O O11 0.477801 0.606932 0.693830
O O12 0.190902 0.890196 0.227551
O O13 0.288429 0.904618 0.304960
O O14 0.234279 0.777377 0.297015
O O15 0.548734 0.857802 0.790083
O O16 0.600721 0.731686 0.813707
O O17 0.500000 0.812506 0.000000
O O18 0.869491 0.000000 0.824480
O O19 0.094367 0.500000 0.722487
#
# Coordination Sequence:
#
# PCOD9173968 Si02
#       8
#     8   8   8   8   8   8   8   8
#     4   9  18  33  54  79 106 137 175 221 263 309
#     4  11  22  39  53  72 107 140 177 224 258 308
#     4   9  18  31  49  79 112 136 166 212 264 318
#     4  10  18  31  51  79 111 138 168 211 266 319
#     4   9  20  35  54  78 105 140 179 220 268 310
#     4  11  21  33  52  76 106 142 173 209 265 323
#     4   9  18  33  54  81 110 137 175 222 263 307
#     4  10  20  35  55  77 105 139 179 220 262 311
#
# _framework density 16.886714000000001
#
# number of rings (size 3 to 8) (size 9 to 14) (size 15 to 20)
#    0.000    2.250    1.250    3.000    0.000    7.250 
#    0.000    0.625    0.000    4.500    0.000    1.750 
#    0.000    0.000    0.000    0.000    0.000    0.000 
#
# Total GULP energy -178543.035957 kJ/mol
# GULP energy per Si atom -5579.469874 kJ/mol
# Density = 1.684828 g / cm^3
# Si number density = 16.886714 Si / 1000 Ang^3
#
#
#
# Elastic Constant Matrix: (Units=GPa)
#
#
# Indices 1 2 3 4 5 6 
#
# 1 62.6060 43.1400 41.8465 0.0000 10.2113 0.0000
# 2 43.1400 99.6260 80.2377 0.0000 19.8763 0.0000
# 3 41.8465 80.2377 109.6677 0.0000 21.1259 0.0000
# 4 0.0000 0.0000 0.0000 27.3544 0.0000 -8.9485
# 5 10.2113 19.8763 21.1259 0.0000 21.0268 0.0000
# 6 0.0000 0.0000 0.0000 -8.9485 0.0000 4.5334
#
#
#
# Elastic Compliance Matrix: (Units=1/GPa)
#
#
# Indices 1 2 3 4 5 6 
#
# 1 0.023382 -0.007034 -0.003558 0.000000 -0.001132 0.000000
# 2 -0.007034 0.027261 -0.016065 0.000000 -0.006213 0.000000
# 3 -0.003558 -0.016065 0.023525 0.000000 -0.006722 0.000000
# 4 0.000000 0.000000 0.000000 0.103191 0.000000 0.203691
# 5 -0.001132 -0.006213 -0.006722 0.000000 0.060735 0.000000
# 6 0.000000 0.000000 0.000000 0.203691 0.000000 0.622656
#
#
# Mechanical properties :
#
#
# Convention : Reuss Voigt Hill
#
# Bulk Modulus (GPa) = 47.94902 66.92756 57.43829
# Shear Modulus (GPa) = 5.42879 17.69460 11.56170
#
# Velocity S-wave (km/s) = 1.79494 3.24055 2.61944
# Velocity P-wave (km/s) = 5.72293 7.32945 6.57544
#
# Compressibility (1/GPa) = 0.02085548
#
# Stress axis : x y z
#
# Youngs Moduli (GPa) = 42.76723 36.68210 42.50858
#
# Poissons Ratio (x) = 0.25801 0.15124
# Poissons Ratio (y) = 0.30081 0.68289
# Poissons Ratio (z) = 0.15216 0.58929
#
# Static dielectric constant tensor:
#      x y z
#    x 1.564940 0.000000 -0.006380 
#    y 0.000000 1.547910 0.000000 
#    z -0.006380 0.000000 1.570500 
# 
# From -- ./inp_files/225670.got.cif
#   From: 2010.05.17/outbox.cif.g08.bks.cpg/sg12_113_cif.got.tgz:225670.got - 2010.06.03 13:09:07.
