data_PCOD9173579
_publ_section_title
;
Structure prediction by ZEFSAII (Michael W. Deem and Ramdas Pophale) SiO2 
 PCOD9173579
Probable space group: C 2/M
;
_chemical_formula_sum "Si O2"
_cell_formula_units_Z 60
_cell_length_a 24.373199
_cell_length_b 7.901484
_cell_length_c 12.847113
_cell_angle_alpha 90.000000
_cell_angle_beta 66.057889
_cell_angle_gamma 90.000000
_cell_volume 2261.267823
_symmetry_space_group_name_H-M "C 2/M"
_symmetry_group_IT_number 12
_symmetry_cell_setting 'monoclinic'
loop_
_space_group_symop_operation_xyz
x,y,z
-x,y,-z
-x,-y,-z
x,-y,z
1/2+x,1/2+y,z
1/2-x,1/2+y,-z
1/2-x,1/2-y,-z
1/2+x,1/2-y,z
loop_
_atom_site_type_symbol
_atom_site_label
_atom_site_fract_x
_atom_site_fract_y
_atom_site_fract_z
Si Si1 0.008329 0.302298 0.113365
Si Si2 0.843325 0.000000 0.485661
Si Si3 0.565157 0.197407 0.587895
Si Si4 0.880506 0.195716 0.216738
Si Si5 0.196406 0.804496 0.154431
Si Si6 0.758450 0.310580 0.310237
Si Si7 0.927394 0.694390 0.669472
Si Si8 0.136857 0.802091 0.004039
O O1 0.022628 0.500000 0.102558
O O2 0.941093 0.283281 0.210139
O O3 0.069457 0.213874 0.101226
O O4 0.000000 0.242639 0.000000
O O5 0.891660 0.851017 0.414365
O O6 0.797716 0.852110 0.572350
O O7 0.493912 0.229312 0.661543
O O8 0.568590 0.204314 0.458092
O O9 0.581004 0.000000 0.599972
O O10 0.813450 0.207231 0.315764
O O11 0.896401 0.000000 0.192768
O O12 0.867886 0.266900 0.108974
O O13 0.235860 0.730321 0.218364
O O14 0.128847 0.804593 0.253433
O O15 0.184761 0.726894 0.048901
O O16 0.214510 0.000000 0.130827
O O17 0.783252 0.500000 0.272684
O O18 0.913103 0.500000 0.709782
O O19 0.151584 0.000000 0.984674
#
# Coordination Sequence:
#
# PCOD9173579 Si02
#       8
#     8   4   8   8   8   8   8   8
#     4   9  17  31  51  70  87 113 155 206 254 295
#     4  10  18  31  48  68  95 134 167 204 247 289
#     4   9  17  28  44  67  93 127 165 202 244 293
#     4  10  19  32  49  67  92 127 164 209 249 285
#     4  10  18  31  45  65  98 135 164 195 239 291
#     4   9  19  31  42  67  93 129 168 201 229 288
#     4   9  17  27  41  65  93 125 160 201 237 289
#     4   9  19  32  48  69  94 126 164 201 248 296
#
# _framework density 26.533785000000002
#
# number of rings (size 3 to 8) (size 9 to 14) (size 15 to 20)
#    0.400    2.267    1.333    1.600    0.933    4.800 
#    0.000    0.000    0.000    0.000    0.000    0.000 
#    0.000    1.067    1.333    0.267    0.000    0.000 
#
# Total GULP energy -167143.658821 kJ/mol
# GULP energy per Si atom -5571.455294 kJ/mol
# Density = 2.647339 g / cm^3
# Si number density = 26.533785 Si / 1000 Ang^3
#
#
#
# Elastic Constant Matrix: (Units=GPa)
#
#
# Indices 1 2 3 4 5 6 
#
# 1 181.3259 39.2513 8.7670 0.0000 -2.5407 0.0000
# 2 39.2513 82.7469 19.9753 0.0000 -19.9835 0.0000
# 3 8.7670 19.9753 75.0744 0.0000 -16.9111 0.0000
# 4 0.0000 0.0000 0.0000 40.2724 0.0000 -16.7441
# 5 -2.5407 -19.9835 -16.9111 0.0000 43.8839 0.0000
# 6 0.0000 0.0000 0.0000 -16.7441 0.0000 22.8812
#
#
#
# Elastic Compliance Matrix: (Units=1/GPa)
#
#
# Indices 1 2 3 4 5 6 
#
# 1 0.006194 -0.003182 -0.000134 0.000000 -0.001142 0.000000
# 2 -0.003182 0.015630 -0.002437 0.000000 0.005994 0.000000
# 3 -0.000134 -0.002437 0.015038 0.000000 0.004677 0.000000
# 4 0.000000 0.000000 0.000000 0.035690 0.000000 0.026117
# 5 -0.001142 0.005994 0.004677 0.000000 0.027253 0.000000
# 6 0.000000 0.000000 0.000000 0.026117 0.000000 0.062816
#
#
# Mechanical properties :
#
#
# Convention : Reuss Voigt Hill
#
# Bulk Modulus (GPa) = 39.43696 52.79272 46.11484
# Shear Modulus (GPa) = 27.38545 39.48441 33.43493
#
# Velocity S-wave (km/s) = 3.21611 3.86175 3.55362
# Velocity P-wave (km/s) = 5.35597 6.31061 5.85278
#
# Compressibility (1/GPa) = 0.02535692
#
# Stress axis : x y z
#
# Youngs Moduli (GPa) = 161.44308 63.97883 66.49901
#
# Poissons Ratio (x) = 0.20356 0.00891
# Poissons Ratio (y) = 0.51365 0.16206
# Poissons Ratio (z) = 0.02163 0.15591
#
# Static dielectric constant tensor:
#      x y z
#    x 2.123180 0.000000 0.124580 
#    y 0.000000 1.955640 0.000000 
#    z 0.124580 0.000000 2.294230 
# 
# From -- ./inp_files/288328.got.cif
#   From: 2010.05.17/outbox.cif.g08.bks.cpg/sg12_145_cif.got.tgz:288328.got - 2010.06.03 13:09:07.
