data_PCOD9173406
_publ_section_title
;
Structure prediction by ZEFSAII (Michael W. Deem and Ramdas Pophale) SiO2 
 PCOD9173406
Probable space group: C 2/M
;
_chemical_formula_sum "Si O2"
_cell_formula_units_Z 56
_cell_length_a 14.477033
_cell_length_b 9.368871
_cell_length_c 21.859195
_cell_angle_alpha 90.000000
_cell_angle_beta 119.067557
_cell_angle_gamma 90.000000
_cell_volume 2591.409252
_symmetry_space_group_name_H-M "C 2/M"
_symmetry_group_IT_number 12
_symmetry_cell_setting 'monoclinic'
loop_
_space_group_symop_operation_xyz
x,y,z
-x,y,-z
-x,-y,-z
x,-y,z
1/2+x,1/2+y,z
1/2-x,1/2+y,-z
1/2-x,1/2-y,-z
1/2+x,1/2-y,z
loop_
_atom_site_type_symbol
_atom_site_label
_atom_site_fract_x
_atom_site_fract_y
_atom_site_fract_z
Si Si1 0.652285 0.831561 0.439158
Si Si2 0.547093 0.336720 0.182471
Si Si3 0.696802 0.333724 0.336396
Si Si4 0.220150 0.164759 0.084805
Si Si5 0.084461 0.336220 0.949969
Si Si6 0.357052 0.665825 0.220965
Si Si7 0.079048 0.667384 0.637029
O O1 0.750000 0.750000 0.500000
O O2 0.647729 0.775505 0.368088
O O3 0.535620 0.798967 0.427294
O O4 0.670447 0.000000 0.448898
O O5 0.328251 0.500000 0.220150
O O6 0.652957 0.305211 0.254353
O O7 0.512697 0.234230 0.117129
O O8 0.455376 0.329441 0.204934
O O9 0.669577 0.500000 0.341961
O O10 0.822912 0.319249 0.377172
O O11 0.317698 0.166356 0.067301
O O12 0.264062 0.246075 0.158158
O O13 0.195455 0.000000 0.089395
O O14 0.125309 0.246045 0.020587
O O15 0.065141 0.500000 0.959547
O O16 0.549908 0.500000 0.161473
O O17 0.394702 0.736504 0.295945
O O18 0.075917 0.500000 0.655365
#
# Coordination Sequence:
#
# PCOD9173406 Si02
#       7
#     8   8   8   8   8   8   8
#     4  11  24  42  65  92 122 155 191 235 285 342
#     4   9  17  30  51  77 107 147 189 234 287 343
#     4  10  21  40  63  88 119 156 196 238 285 343
#     4   9  16  26  42  68 105 147 192 240 290 346
#     4   9  16  25  41  69 105 144 189 241 290 341
#     4  10  18  30  52  80 111 148 192 241 291 343
#     4  10  22  39  61  88 119 155 195 237 287 344
#
# _framework density 21.609864000000002
#
# number of rings (size 3 to 8) (size 9 to 14) (size 15 to 20)
#    0.000    2.286    1.429    1.714    0.000    6.286 
#    0.000    2.857    0.000    0.857    0.000    6.000 
#    0.000    0.000    0.000    0.000    0.000    0.000 
#
# Total GULP energy -156547.863080 kJ/mol
# GULP energy per Si atom -5590.995110 kJ/mol
# Density = 2.156068 g / cm^3
# Si number density = 21.609864 Si / 1000 Ang^3
#
#
#
# Elastic Constant Matrix: (Units=GPa)
#
#
# Indices 1 2 3 4 5 6 
#
# 1 61.5311 14.2654 9.9261 0.0000 18.3741 0.0000
# 2 14.2654 97.4468 40.6029 0.0000 24.4036 0.0000
# 3 9.9261 40.6029 65.6464 0.0000 30.1468 0.0000
# 4 0.0000 0.0000 0.0000 43.0642 0.0000 5.9531
# 5 18.3741 24.4036 30.1468 0.0000 38.0655 0.0000
# 6 0.0000 0.0000 0.0000 5.9531 0.0000 5.3048
#
#
#
# Elastic Compliance Matrix: (Units=1/GPa)
#
#
# Indices 1 2 3 4 5 6 
#
# 1 0.019298 -0.001317 0.002808 0.000000 -0.010694 0.000000
# 2 -0.001317 0.014181 -0.007369 0.000000 -0.002620 0.000000
# 3 0.002808 -0.007369 0.028004 0.000000 -0.018810 0.000000
# 4 0.000000 0.000000 0.000000 0.027485 0.000000 -0.030844
# 5 -0.010694 -0.002620 -0.018810 0.000000 0.048009 0.000000
# 6 0.000000 0.000000 0.000000 -0.030844 0.000000 0.223124
#
#
# Mechanical properties :
#
#
# Convention : Reuss Voigt Hill
#
# Bulk Modulus (GPa) = 20.10965 39.35702 29.73333
# Shear Modulus (GPa) = 12.87221 27.94221 20.40721
#
# Velocity S-wave (km/s) = 2.44327 3.59977 3.07636
# Velocity P-wave (km/s) = 4.15757 5.96070 5.13884
#
# Compressibility (1/GPa) = 0.04972737
#
# Stress axis : x y z
#
# Youngs Moduli (GPa) = 51.81938 70.51534 35.70871
#
# Poissons Ratio (x) = 0.09285 -0.10026
# Poissons Ratio (y) = 0.06823 0.26314
# Poissons Ratio (z) = -0.14549 0.51963
#
# Static dielectric constant tensor:
#      x y z
#    x 1.836430 0.000000 0.010140 
#    y 0.000000 1.723420 0.000000 
#    z 0.010140 0.000000 1.762450 
# 
# From -- ./inp_files/339025.got.cif
#   From: 2010.05.17/outbox.cif.g08.bks.cpg/sg12_170_cif.got.tgz:339025.got - 2010.06.03 13:09:07.
