data_PCOD9173439
_publ_section_title
;
Structure prediction by ZEFSAII (Michael W. Deem and Ramdas Pophale) SiO2 
 PCOD9173439
Probable space group: C 2/M
;
_chemical_formula_sum "Si O2"
_cell_formula_units_Z 52
_cell_length_a 24.336343
_cell_length_b 20.608284
_cell_length_c 6.654806
_cell_angle_alpha 90.000000
_cell_angle_beta 105.109830
_cell_angle_gamma 90.000000
_cell_volume 3222.199335
_symmetry_space_group_name_H-M "C 2/M"
_symmetry_group_IT_number 12
_symmetry_cell_setting 'monoclinic'
loop_
_space_group_symop_operation_xyz
x,y,z
-x,y,-z
-x,-y,-z
x,-y,z
1/2+x,1/2+y,z
1/2-x,1/2+y,-z
1/2-x,1/2-y,-z
1/2+x,1/2-y,z
loop_
_atom_site_type_symbol
_atom_site_label
_atom_site_fract_x
_atom_site_fract_y
_atom_site_fract_z
Si Si1 0.309460 0.860606 0.108726
Si Si2 0.253885 0.928225 0.679561
Si Si3 0.625911 0.775122 0.162760
Si Si4 0.008778 0.569790 0.274378
Si Si5 0.000000 0.310846 0.000000
Si Si6 0.777781 0.813099 0.631287
Si Si7 0.864637 0.602597 0.550522
O O1 0.263090 0.830961 0.219594
O O2 0.354042 0.896077 0.301455
O O3 0.274873 0.905384 0.919281
O O4 0.344029 0.810048 0.000788
O O5 0.220284 0.871500 0.528927
O O6 0.311432 0.930918 0.603092
O O7 0.227604 0.000000 0.659848
O O8 0.660418 0.709686 0.235815
O O9 0.635265 0.824249 0.359845
O O10 0.557772 0.770815 0.080373
O O11 0.984985 0.500000 0.183257
O O12 0.076899 0.572568 0.316430
O O13 0.000000 0.572847 0.500000
O O14 0.986169 0.636002 0.159373
O O15 0.750000 0.750000 0.500000
#
# Coordination Sequence:
#
# PCOD9173439 Si02
#       7
#     8   8   8   8   4   8   8
#     4  10  18  30  53  72  99 128 168 201 250 290
#     4  10  21  32  46  74 103 129 161 200 252 302
#     4  10  19  32  50  74  95 129 166 208 245 289
#     4  10  19  30  43  61  89 133 175 201 232 274
#     4  10  21  34  46  66  97 124 164 212 246 278
#     4  11  19  34  54  76  99 131 165 206 250 296
#     4   9  18  31  47  66  98 129 166 207 241 275
#
# _framework density 16.138045999999999
#
# number of rings (size 3 to 8) (size 9 to 14) (size 15 to 20)
#    0.000    2.000    4.615    2.077    0.000    3.077 
#    0.000    3.846    0.000    0.000    0.000    0.538 
#    0.000    1.231    0.000    0.000    0.000    0.000 
#
# Total GULP energy -144745.815200 kJ/mol
# GULP energy per Si atom -5567.146738 kJ/mol
# Density = 1.610132 g / cm^3
# Si number density = 16.138046 Si / 1000 Ang^3
#
#
#
# Elastic Constant Matrix: (Units=GPa)
#
#
# Indices 1 2 3 4 5 6 
#
# 1 56.7887 24.1155 13.6928 0.0000 17.1186 0.0000
# 2 24.1155 75.7809 30.3037 0.0000 11.0557 0.0000
# 3 13.6928 30.3037 96.4844 0.0000 -5.9911 0.0000
# 4 0.0000 0.0000 0.0000 21.9950 0.0000 8.5931
# 5 17.1186 11.0557 -5.9911 0.0000 27.4703 0.0000
# 6 0.0000 0.0000 0.0000 8.5931 0.0000 23.8407
#
#
#
# Elastic Compliance Matrix: (Units=1/GPa)
#
#
# Indices 1 2 3 4 5 6 
#
# 1 0.024492 -0.004580 -0.002910 0.000000 -0.014054 0.000000
# 2 -0.004580 0.017499 -0.005176 0.000000 -0.005317 0.000000
# 3 -0.002910 -0.005176 0.012819 0.000000 0.006692 0.000000
# 4 0.000000 0.000000 0.000000 0.052917 0.000000 -0.019073
# 5 -0.014054 -0.005317 0.006692 0.000000 0.048761 0.000000
# 6 0.000000 0.000000 0.000000 -0.019073 0.000000 0.048820
#
#
# Mechanical properties :
#
#
# Convention : Reuss Voigt Hill
#
# Bulk Modulus (GPa) = 33.92441 40.58643 37.25542
# Shear Modulus (GPa) = 20.79298 25.39067 23.09182
#
# Velocity S-wave (km/s) = 3.59339 3.97084 3.78682
# Velocity P-wave (km/s) = 6.18737 6.79909 6.50043
#
# Compressibility (1/GPa) = 0.02947730
#
# Stress axis : x y z
#
# Youngs Moduli (GPa) = 40.82916 57.14567 78.01114
#
# Poissons Ratio (x) = 0.26173 0.22702
# Poissons Ratio (y) = 0.18700 0.40381
# Poissons Ratio (z) = 0.11882 0.29580
#
# Static dielectric constant tensor:
#      x y z
#    x 1.636740 0.000000 0.075820 
#    y 0.000000 1.576300 0.000000 
#    z 0.075820 0.000000 1.643620 
# 
# From -- ./inp_files/29082.got.cif
#   From: 2010.05.17/outbox.cif.g08.bks.cpg/sg12_15_cif.got.tgz:29082.got - 2010.06.03 13:09:07.
