data_PCOD9173886
_publ_section_title
;
Structure prediction by ZEFSAII (Michael W. Deem and Ramdas Pophale) SiO2 
 PCOD9173886
Probable space group: C 2/M
;
_chemical_formula_sum "Si O2"
_cell_formula_units_Z 48
_cell_length_a 15.889344
_cell_length_b 7.986728
_cell_length_c 16.309426
_cell_angle_alpha 90.000000
_cell_angle_beta 62.428152
_cell_angle_gamma 90.000000
_cell_volume 1834.672401
_symmetry_space_group_name_H-M "C 2/M"
_symmetry_group_IT_number 12
_symmetry_cell_setting 'monoclinic'
loop_
_space_group_symop_operation_xyz
x,y,z
-x,y,-z
-x,-y,-z
x,-y,z
1/2+x,1/2+y,z
1/2-x,1/2+y,-z
1/2-x,1/2-y,-z
1/2+x,1/2-y,z
loop_
_atom_site_type_symbol
_atom_site_label
_atom_site_fract_x
_atom_site_fract_y
_atom_site_fract_z
Si Si1 0.193314 0.201161 0.443256
Si Si2 0.360253 0.802092 0.938849
Si Si3 0.882602 0.807836 0.107158
Si Si4 0.509744 0.695912 0.607159
Si Si5 0.381812 0.195925 0.282890
Si Si6 0.832238 0.802628 0.777948
O O1 0.250000 0.250000 0.500000
O O2 0.086241 0.265722 0.507276
O O3 0.270255 0.247515 0.339570
O O4 0.184323 0.000000 0.443577
O O5 0.385107 0.713602 0.842290
O O6 0.367708 0.000000 0.923663
O O7 0.250000 0.750000 0.000000
O O8 0.406564 0.755398 0.005110
O O9 0.916762 0.717239 0.174392
O O10 0.767588 0.788888 0.165745
O O11 0.909036 0.000000 0.102129
O O12 0.494419 0.500000 0.595790
O O13 0.564736 0.707308 0.669489
O O14 0.405543 0.763873 0.676476
O O15 0.388812 0.000000 0.301195
O O16 0.811906 0.000000 0.772471
#
# Coordination Sequence:
#
# PCOD9173886 Si02
#       6
#     8   8   8   8   8   8
#     4   8  15  29  49  72  97 129 166 200 239 290
#     4  10  18  31  51  73  98 128 165 203 243 295
#     4  11  21  34  52  73 100 132 168 207 247 293
#     4   9  18  33  53  76 102 132 165 202 245 295
#     4  10  19  32  52  76 102 131 166 207 248 292
#     4  10  19  33  53  76 102 131 165 203 245 294
#
# _framework density 26.162709
#
# number of rings (size 3 to 8) (size 9 to 14) (size 15 to 20)
#    0.000    2.333    0.000    6.000    0.000    2.000 
#    0.000    1.667    0.000   10.000    0.000    0.000 
#    0.000    0.000    0.000    0.000    0.000    0.000 
#
# Total GULP energy -134215.289956 kJ/mol
# GULP energy per Si atom -5592.303748 kJ/mol
# Density = 2.610316 g / cm^3
# Si number density = 26.162709 Si / 1000 Ang^3
#
#
#
# Elastic Constant Matrix: (Units=GPa)
#
#
# Indices 1 2 3 4 5 6 
#
# 1 106.9914 1.2711 15.5353 0.0000 -0.9260 0.0000
# 2 1.2711 71.9868 3.7078 0.0000 3.2563 0.0000
# 3 15.5353 3.7078 200.1644 0.0000 -5.0247 0.0000
# 4 0.0000 0.0000 0.0000 11.4281 0.0000 -2.5657
# 5 -0.9260 3.2563 -5.0247 0.0000 60.2984 0.0000
# 6 0.0000 0.0000 0.0000 -2.5657 0.0000 10.1680
#
#
#
# Elastic Compliance Matrix: (Units=1/GPa)
#
#
# Indices 1 2 3 4 5 6 
#
# 1 0.009455 -0.000134 -0.000729 0.000000 0.000092 0.000000
# 2 -0.000134 0.013943 -0.000267 0.000000 -0.000777 0.000000
# 3 -0.000729 -0.000267 0.005068 0.000000 0.000426 0.000000
# 4 0.000000 0.000000 0.000000 0.092758 0.000000 0.023406
# 5 0.000092 -0.000777 0.000426 0.000000 0.016663 0.000000
# 6 0.000000 0.000000 0.000000 0.023406 0.000000 0.104254
#
#
# Mechanical properties :
#
#
# Convention : Reuss Voigt Hill
#
# Bulk Modulus (GPa) = 38.15974 46.68566 42.42270
# Shear Modulus (GPa) = 19.75223 40.28745 30.01984
#
# Velocity S-wave (km/s) = 2.75066 3.92839 3.39105
# Velocity P-wave (km/s) = 4.97045 6.20156 5.61982
#
# Compressibility (1/GPa) = 0.02620563
#
# Stress axis : x y z
#
# Youngs Moduli (GPa) = 105.76656 71.72199 197.31207
#
# Poissons Ratio (x) = 0.00958 0.14385
# Poissons Ratio (y) = 0.01412 0.05277
# Poissons Ratio (z) = 0.07711 0.01918
#
# Static dielectric constant tensor:
#      x y z
#    x 2.174880 0.000000 0.009820 
#    y 0.000000 1.912090 0.000000 
#    z 0.009820 0.000000 2.078060 
# 
# From -- ./inp_files/280775.got.cif
#   From: 2010.05.17/outbox.cif.g08.bks.cpg/sg12_141_cif.got.tgz:280775.got - 2010.06.03 13:09:07.
