data_PCOD9173130
_publ_section_title
;
Structure prediction by ZEFSAII (Michael W. Deem and Ramdas Pophale) SiO2 
 PCOD9173130
Probable space group: C 2/M
;
_chemical_formula_sum "Si O2"
_cell_formula_units_Z 64
_cell_length_a 25.074868
_cell_length_b 8.029029
_cell_length_c 17.460572
_cell_angle_alpha 90.000000
_cell_angle_beta 93.734955
_cell_angle_gamma 90.000000
_cell_volume 3507.815588
_symmetry_space_group_name_H-M "C 2/M"
_symmetry_group_IT_number 12
_symmetry_cell_setting 'monoclinic'
loop_
_space_group_symop_operation_xyz
x,y,z
-x,y,-z
-x,-y,-z
x,-y,z
1/2+x,1/2+y,z
1/2-x,1/2+y,-z
1/2-x,1/2-y,-z
1/2+x,1/2-y,z
loop_
_atom_site_type_symbol
_atom_site_label
_atom_site_fract_x
_atom_site_fract_y
_atom_site_fract_z
Si Si1 0.407093 0.204459 0.130583
Si Si2 0.705183 0.301329 0.603107
Si Si3 0.113738 0.702717 0.044131
Si Si4 0.693734 0.195908 0.178398
Si Si5 0.311164 0.196474 0.228298
Si Si6 0.472503 0.802545 0.840746
Si Si7 0.891457 0.806566 0.708933
Si Si8 0.324264 0.702221 0.565787
O O1 0.362920 0.259179 0.187613
O O2 0.467282 0.262816 0.153728
O O3 0.407452 0.000000 0.131952
O O4 0.391104 0.258405 0.043392
O O5 0.700317 0.500000 0.608259
O O6 0.685566 0.225865 0.680593
O O7 0.675389 0.244019 0.522770
O O8 0.767566 0.259079 0.595337
O O9 0.111402 0.500000 0.041967
O O10 0.167774 0.747030 0.094847
O O11 0.064720 0.762423 0.093265
O O12 0.756262 0.223926 0.193037
O O13 0.660398 0.289343 0.240916
O O14 0.681939 0.000000 0.188117
O O15 0.306364 0.000000 0.213876
O O16 0.439813 0.775589 0.759542
O O17 0.476454 0.000000 0.854014
O O18 0.871957 0.738742 0.625181
O O19 0.904838 0.000000 0.701437
O O20 0.324213 0.500000 0.567216
#
# Coordination Sequence:
#
# PCOD9173130 Si02
#       8
#     8   8   8   8   8   8   8   8
#     4   9  18  32  50  71  96 132 170 204 244 291
#     4  10  19  31  49  72  99 129 163 199 237 288
#     4   8  15  29  51  75  95 119 162 213 251 287
#     4  10  19  31  49  73  98 128 165 202 244 292
#     4  11  21  32  47  69 102 137 166 197 242 296
#     4   9  17  31  53  76  96 123 166 210 245 286
#     4  10  18  30  50  75 103 127 152 195 252 300
#     4   9  18  31  49  74 100 127 158 196 244 295
#
# _framework density 18.244973000000002
#
# number of rings (size 3 to 8) (size 9 to 14) (size 15 to 20)
#    0.000    2.500    1.250    2.625    0.000    3.000 
#    0.000    1.250    0.000   14.250    0.000    5.250 
#    0.000    0.000    0.000    0.000    0.000    0.000 
#
# Total GULP energy -178426.121009 kJ/mol
# GULP energy per Si atom -5575.816282 kJ/mol
# Density = 1.820345 g / cm^3
# Si number density = 18.244973 Si / 1000 Ang^3
#
#
#
# Elastic Constant Matrix: (Units=GPa)
#
#
# Indices 1 2 3 4 5 6 
#
# 1 84.4294 -4.7150 80.9211 0.0000 -1.7363 0.0000
# 2 -4.7150 10.9542 -4.7978 0.0000 -2.8792 0.0000
# 3 80.9211 -4.7978 127.0263 0.0000 17.3611 0.0000
# 4 0.0000 0.0000 0.0000 15.3640 0.0000 4.0063
# 5 -1.7363 -2.8792 17.3611 0.0000 15.1174 0.0000
# 6 0.0000 0.0000 0.0000 4.0063 0.0000 16.2536
#
#
#
# Elastic Compliance Matrix: (Units=1/GPa)
#
#
# Indices 1 2 3 4 5 6 
#
# 1 0.053839 0.020172 -0.041405 0.000000 0.057575 0.000000
# 2 0.020172 0.103850 -0.014172 0.000000 0.038371 0.000000
# 3 -0.041405 -0.014172 0.041199 0.000000 -0.054768 0.000000
# 4 0.000000 0.000000 0.000000 0.069558 0.000000 -0.017145
# 5 0.057575 0.038371 -0.054768 0.000000 0.142966 0.000000
# 6 0.000000 0.000000 0.000000 -0.017145 0.000000 0.065751
#
#
# Mechanical properties :
#
#
# Convention : Reuss Voigt Hill
#
# Bulk Modulus (GPa) = 7.80777 40.58071 24.19424
# Shear Modulus (GPa) = 8.46504 19.41378 13.93941
#
# Velocity S-wave (km/s) = 2.15632 3.26554 2.76708
# Velocity P-wave (km/s) = 3.23857 6.04224 4.84753
#
# Compressibility (1/GPa) = 0.12807757
#
# Stress axis : x y z
#
# Youngs Moduli (GPa) = 18.57390 9.62930 24.27244
#
# Poissons Ratio (x) = -0.19424 1.00499
# Poissons Ratio (y) = -0.37467 0.34400
# Poissons Ratio (z) = 0.76905 0.13647
#
# Static dielectric constant tensor:
#      x y z
#    x 1.608170 0.000000 0.022720 
#    y 0.000000 1.660680 0.000000 
#    z 0.022720 0.000000 1.641690 
# 
# From -- ./inp_files/287690.got.cif
#   From: 2010.05.17/outbox.cif.g08.bks.cpg/sg12_144_cif.got.tgz:287690.got - 2010.06.03 13:09:07.
