data_PCOD9173108
_publ_section_title
;
Structure prediction by ZEFSAII (Michael W. Deem and Ramdas Pophale) SiO2 
 PCOD9173108
Probable space group: C 2/M
;
_chemical_formula_sum "Si O2"
_cell_formula_units_Z 48
_cell_length_a 24.594100
_cell_length_b 8.699814
_cell_length_c 15.412110
_cell_angle_alpha 90.000000
_cell_angle_beta 120.912150
_cell_angle_gamma 90.000000
_cell_volume 2829.228413
_symmetry_space_group_name_H-M "C 2/M"
_symmetry_group_IT_number 12
_symmetry_cell_setting 'monoclinic'
loop_
_space_group_symop_operation_xyz
x,y,z
-x,y,-z
-x,-y,-z
x,-y,z
1/2+x,1/2+y,z
1/2-x,1/2+y,-z
1/2-x,1/2-y,-z
1/2+x,1/2-y,z
loop_
_atom_site_type_symbol
_atom_site_label
_atom_site_fract_x
_atom_site_fract_y
_atom_site_fract_z
Si Si1 0.930879 0.814212 0.762815
Si Si2 0.109948 0.180011 0.081309
Si Si3 0.242217 0.680874 0.226456
Si Si4 0.697262 0.817579 0.890331
Si Si5 0.211959 0.184828 0.387660
Si Si6 0.932885 0.181304 0.148374
O O1 0.928585 0.779223 0.863870
O O2 0.862303 0.764890 0.671007
O O3 0.996235 0.758885 0.773679
O O4 0.933179 0.000000 0.757997
O O5 0.172245 0.283592 0.131411
O O6 0.129949 0.000000 0.107793
O O7 0.074113 0.190962 0.961693
O O8 0.253066 0.500000 0.242045
O O9 0.288798 0.754934 0.194493
O O10 0.241140 0.755650 0.320959
O O11 0.627023 0.767641 0.861242
O O12 0.703941 0.000000 0.897318
O O13 0.750000 0.750000 0.000000
O O14 0.250000 0.250000 0.500000
O O15 0.213153 0.000000 0.388916
O O16 0.927888 0.000000 0.167347
#
# Coordination Sequence:
#
# PCOD9173108 Si02
#       6
#     8   8   8   8   8   8
#     4   8  16  30  50  77 105 137 175 213 260 319
#     4   9  16  28  48  73 105 141 176 213 254 307
#     4  11  21  34  53  78 107 140 180 222 265 311
#     4  12  23  35  50  73 107 147 185 220 258 307
#     4  10  20  37  60  84 108 136 173 220 271 319
#     4  10  18  30  50  74 105 144 180 213 255 310
#
# _framework density 16.965757
#
# number of rings (size 3 to 8) (size 9 to 14) (size 15 to 20)
#    0.000    2.000    1.667    5.000    0.000    2.000 
#    0.000    4.167    0.000    6.000    0.000    7.000 
#    0.000    0.000    0.000    0.000    0.000    0.000 
#
# Total GULP energy -133846.864525 kJ/mol
# GULP energy per Si atom -5576.952689 kJ/mol
# Density = 1.692714 g / cm^3
# Si number density = 16.965757 Si / 1000 Ang^3
#
#
#
# Elastic Constant Matrix: (Units=GPa)
#
#
# Indices 1 2 3 4 5 6 
#
# 1 152.1331 50.0106 59.5688 0.0000 6.2761 0.0000
# 2 50.0106 90.1843 41.4180 0.0000 1.6503 0.0000
# 3 59.5688 41.4180 87.3368 0.0000 -0.0721 0.0000
# 4 0.0000 0.0000 0.0000 22.5908 0.0000 -3.5713
# 5 6.2761 1.6503 -0.0721 0.0000 8.8488 0.0000
# 6 0.0000 0.0000 0.0000 -3.5713 0.0000 23.3518
#
#
#
# Elastic Compliance Matrix: (Units=1/GPa)
#
#
# Indices 1 2 3 4 5 6 
#
# 1 0.009904 -0.002899 -0.005386 0.000000 -0.006528 0.000000
# 2 -0.002899 0.015089 -0.005179 0.000000 -0.000800 0.000000
# 3 -0.005386 -0.005179 0.017583 0.000000 0.004929 0.000000
# 4 0.000000 0.000000 0.000000 0.045362 0.000000 0.006937
# 5 -0.006528 -0.000800 0.004929 0.000000 0.117829 0.000000
# 6 0.000000 0.000000 0.000000 0.006937 0.000000 0.043884
#
#
# Mechanical properties :
#
#
# Convention : Reuss Voigt Hill
#
# Bulk Modulus (GPa) = 63.90224 70.18323 67.04274
# Shear Modulus (GPa) = 17.74324 22.86874 20.30599
#
# Velocity S-wave (km/s) = 3.23743 3.67541 3.46335
# Velocity P-wave (km/s) = 7.19179 7.71161 7.45623
#
# Compressibility (1/GPa) = 0.01564890
#
# Stress axis : x y z
#
# Youngs Moduli (GPa) = 100.96435 66.27175 56.87168
#
# Poissons Ratio (x) = 0.19215 0.30630
# Poissons Ratio (y) = 0.29274 0.29453
# Poissons Ratio (z) = 0.54377 0.34322
#
# Static dielectric constant tensor:
#      x y z
#    x 1.600200 0.000000 0.010330 
#    y 0.000000 1.577180 0.000000 
#    z 0.010330 0.000000 1.560500 
# 
# From -- ./inp_files/230429.got.cif
#   From: 2010.05.17/outbox.cif.g08.bks.cpg/sg12_116_cif.got.tgz:230429.got - 2010.06.03 13:09:07.
