data_PCOD9173693
_publ_section_title
;
Structure prediction by ZEFSAII (Michael W. Deem and Ramdas Pophale) SiO2 
 PCOD9173693
Probable space group: C 2/M
;
_chemical_formula_sum "Si O2"
_cell_formula_units_Z 64
_cell_length_a 18.937901
_cell_length_b 9.135375
_cell_length_c 27.317799
_cell_angle_alpha 90.000000
_cell_angle_beta 133.310746
_cell_angle_gamma 90.000000
_cell_volume 3438.926940
_symmetry_space_group_name_H-M "C 2/M"
_symmetry_group_IT_number 12
_symmetry_cell_setting 'monoclinic'
loop_
_space_group_symop_operation_xyz
x,y,z
-x,y,-z
-x,-y,-z
x,-y,z
1/2+x,1/2+y,z
1/2-x,1/2+y,-z
1/2-x,1/2-y,-z
1/2+x,1/2-y,z
loop_
_atom_site_type_symbol
_atom_site_label
_atom_site_fract_x
_atom_site_fract_y
_atom_site_fract_z
Si Si1 0.547865 0.667137 0.468110
Si Si2 0.942579 0.826259 0.720898
Si Si3 0.132730 0.670212 0.654495
Si Si4 0.767461 0.673908 0.796930
Si Si5 0.045750 0.826631 0.156193
Si Si6 0.345633 0.830056 0.064386
Si Si7 0.772229 0.329026 0.408690
Si Si8 0.358851 0.168580 0.188178
O O1 0.500000 0.666390 0.500000
O O2 0.548742 0.500000 0.450811
O O3 0.475797 0.768576 0.402962
O O4 0.655350 0.732471 0.524553
O O5 0.934399 0.806209 0.775987
O O6 0.840410 0.784562 0.647675
O O7 0.035709 0.734748 0.748679
O O8 0.958676 0.000000 0.720282
O O9 0.133791 0.500000 0.669458
O O10 0.192576 0.768305 0.720323
O O11 0.185394 0.679334 0.626581
O O12 0.774239 0.500000 0.799419
O O13 0.869674 0.747210 0.832953
O O14 0.723371 0.734055 0.826176
O O15 0.942431 0.755488 0.094750
O O16 0.045742 0.000000 0.147029
O O17 0.347824 0.826681 0.124494
O O18 0.347876 0.000000 0.050042
O O19 0.250000 0.750000 0.000000
O O20 0.777700 0.500000 0.425760
O O21 0.351430 0.000000 0.200608
#
# Coordination Sequence:
#
# PCOD9173693 Si02
#       8
#     8   8   8   8   8   8   8   8
#     4   9  17  27  40  67 102 136 176 226 275 321
#     4   9  17  32  53  78 106 139 181 225 273 322
#     4  10  18  31  49  71 102 142 181 222 275 329
#     4  12  23  35  54  81 113 146 182 227 274 322
#     4  10  19  35  58  84 113 146 182 224 268 318
#     4  10  21  39  63  90 116 147 182 220 263 315
#     4   9  16  28  47  72 101 137 179 223 272 326
#     4  10  22  38  56  81 112 145 182 220 266 321
#
# _framework density 18.610457
#
# number of rings (size 3 to 8) (size 9 to 14) (size 15 to 20)
#    0.000    2.125    1.250    3.000    0.000    4.500 
#    0.000    0.625    0.000    4.500    0.000    0.000 
#    0.000    0.000    0.000    0.000    0.000    0.000 
#
# Total GULP energy -178683.401227 kJ/mol
# GULP energy per Si atom -5583.856288 kJ/mol
# Density = 1.856810 g / cm^3
# Si number density = 18.610457 Si / 1000 Ang^3
#
#
#
# Elastic Constant Matrix: (Units=GPa)
#
#
# Indices 1 2 3 4 5 6 
#
# 1 55.5702 60.1724 31.9583 0.0000 23.5513 0.0000
# 2 60.1724 147.1251 56.9954 0.0000 31.8760 0.0000
# 3 31.9583 56.9954 106.8317 0.0000 44.0728 0.0000
# 4 0.0000 0.0000 0.0000 33.5588 0.0000 7.3363
# 5 23.5513 31.8760 44.0728 0.0000 25.1151 0.0000
# 6 0.0000 0.0000 0.0000 7.3363 0.0000 26.2937
#
#
#
# Elastic Compliance Matrix: (Units=1/GPa)
#
#
# Indices 1 2 3 4 5 6 
#
# 1 0.046048 -0.013222 0.015105 0.000000 -0.052907 0.000000
# 2 -0.013222 0.013175 -0.004674 0.000000 0.003879 0.000000
# 3 0.015105 -0.004674 0.038876 0.000000 -0.076453 0.000000
# 4 0.000000 0.000000 0.000000 0.031734 0.000000 -0.008854
# 5 -0.052907 0.003879 -0.076453 0.000000 0.218669 0.000000
# 6 0.000000 0.000000 0.000000 -0.008854 0.000000 0.040502
#
#
# Mechanical properties :
#
#
# Convention : Reuss Voigt Hill
#
# Bulk Modulus (GPa) = 10.80878 67.53103 39.16990
# Shear Modulus (GPa) = 11.75300 27.68692 19.71996
#
# Velocity S-wave (km/s) = 2.51575 3.86127 3.25871
# Velocity P-wave (km/s) = 3.77613 7.49964 5.93733
#
# Compressibility (1/GPa) = 0.09251742
#
# Stress axis : x y z
#
# Youngs Moduli (GPa) = 21.71662 75.90296 25.72302
#
# Poissons Ratio (x) = 1.00359 -0.38856
# Poissons Ratio (y) = 0.28714 0.12023
# Poissons Ratio (z) = -0.32804 0.35476
#
# Static dielectric constant tensor:
#      x y z
#    x 1.649120 0.000000 -0.013140 
#    y 0.000000 1.618710 0.000000 
#    z -0.013140 0.000000 1.624470 
# 
# From -- ./inp_files/378502.got.cif
#   From: 2010.05.17/outbox.cif.g08.bks.cpg/sg12_190_cif.got.tgz:378502.got - 2010.06.03 13:09:07.
