data_PCOD9173319
_publ_section_title
;
Structure prediction by ZEFSAII (Michael W. Deem and Ramdas Pophale) SiO2 
 PCOD9173319
Probable space group: C 2/M
;
_chemical_formula_sum "Si O2"
_cell_formula_units_Z 36
_cell_length_a 8.151009
_cell_length_b 19.809824
_cell_length_c 13.636447
_cell_angle_alpha 90.000000
_cell_angle_beta 139.667096
_cell_angle_gamma 90.000000
_cell_volume 1425.116236
_symmetry_space_group_name_H-M "C 2/M"
_symmetry_group_IT_number 12
_symmetry_cell_setting 'monoclinic'
loop_
_space_group_symop_operation_xyz
x,y,z
-x,y,-z
-x,-y,-z
x,-y,z
1/2+x,1/2+y,z
1/2-x,1/2+y,-z
1/2-x,1/2-y,-z
1/2+x,1/2-y,z
loop_
_atom_site_type_symbol
_atom_site_label
_atom_site_fract_x
_atom_site_fract_y
_atom_site_fract_z
Si Si1 0.768634 0.154867 0.751739
Si Si2 0.000000 0.234211 0.500000
Si Si3 0.261793 0.105702 0.531721
Si Si4 0.240768 0.572861 0.241813
Si Si5 0.801273 0.327859 0.046416
O O1 0.690660 0.219887 0.651013
O O2 0.547234 0.102811 0.625459
O O3 0.719353 0.168083 0.845221
O O4 0.062681 0.135867 0.885610
O O5 0.831673 0.183191 0.489578
O O6 0.263346 0.073539 0.640442
O O7 0.040808 0.079580 0.361234
O O8 0.146160 0.500000 0.165007
O O9 0.062436 0.636181 0.135014
O O10 0.750000 0.250000 0.000000
#
# Coordination Sequence:
#
# PCOD9173319 Si02
#       5
#     8   4   8   8   8
#     4  10  19  31  50  78 108 138 176 217 265 311
#     4  10  18  30  51  80 105 136 178 218 262 308
#     4   9  17  29  48  76 103 134 176 222 257 303
#     4   9  17  32  52  75 103 138 177 218 262 317
#     4  10  20  34  50  79 113 140 170 218 272 315
#
# _framework density 25.261095999999998
#
# number of rings (size 3 to 8) (size 9 to 14) (size 15 to 20)
#    0.000    2.667    0.000    6.000    0.000    0.000 
#    0.000   10.000    0.000    0.000    0.000   94.889 
#    0.000    0.000    0.000    0.000    0.000    0.000 
#
# Total GULP energy -100549.863682 kJ/mol
# GULP energy per Si atom -5586.103538 kJ/mol
# Density = 2.520360 g / cm^3
# Si number density = 25.261096 Si / 1000 Ang^3
#
#
#
# Elastic Constant Matrix: (Units=GPa)
#
#
# Indices 1 2 3 4 5 6 
#
# 1 60.7499 2.2996 59.3312 -0.0001 13.8651 0.0000
# 2 2.2996 96.3611 51.0443 0.0000 17.4990 0.0000
# 3 59.3312 51.0443 199.0393 -0.0004 21.6221 -0.0002
# 4 -0.0001 0.0000 -0.0004 -22.6279 -0.0002 -3.1152
# 5 13.8651 17.4990 21.6221 -0.0002 74.5845 -0.0001
# 6 0.0000 0.0000 -0.0002 -3.1152 -0.0001 1.4801
#
#
#
# Elastic Compliance Matrix: (Units=1/GPa)
#
#
# Indices 1 2 3 4 5 6 
#
# 1 0.025100 0.004367 -0.008243 0.000000 -0.003301 0.000000
# 2 0.004367 0.013061 -0.004368 0.000000 -0.002610 0.000000
# 3 -0.008243 -0.004368 0.008594 0.000000 0.000066 0.000001
# 4 0.000000 0.000000 0.000000 -0.034265 0.000000 -0.072118
# 5 -0.003301 -0.002610 0.000066 0.000000 0.014615 0.000000
# 6 0.000000 0.000000 0.000001 -0.072118 0.000000 0.523850
#
#
# Mechanical properties :
#
#
# Convention : Reuss Voigt Hill
#
# Bulk Modulus (GPa) = 33.03908 64.61117 48.82512
# Shear Modulus (GPa) = 8.65752 26.91902 17.78827
#
# Velocity S-wave (km/s) = 1.85328 3.26794 2.65651
# Velocity P-wave (km/s) = 4.20559 6.31444 5.36466
#
# Compressibility (1/GPa) = 0.03026719
#
# Stress axis : x y z
#
# Youngs Moduli (GPa) = 39.84097 76.56322 116.35526
#
# Poissons Ratio (x) = -0.33436 0.95915
# Poissons Ratio (y) = -0.17399 0.50822
# Poissons Ratio (z) = 0.32842 0.33441
#
# Static dielectric constant tensor:
#      x y z
#    x 2.110070 0.000000 0.029290 
#    y 0.000000 2.020090 0.000000 
#    z 0.029290 0.000000 2.023880 
# 
# From -- ./inp_files/264914.got.cif
#   From: 2010.05.17/outbox.cif.g08.bks.cpg/sg12_133_cif.got.tgz:264914.got - 2010.06.03 13:09:07.
