data_PCOD9173408
_publ_section_title
;
Structure prediction by ZEFSAII (Michael W. Deem and Ramdas Pophale) SiO2 
 PCOD9173408
Probable space group: C 2/M
;
_chemical_formula_sum "Si O2"
_cell_formula_units_Z 50
_cell_length_a 14.855975
_cell_length_b 7.610789
_cell_length_c 17.546817
_cell_angle_alpha 90.000000
_cell_angle_beta 83.506144
_cell_angle_gamma 90.000000
_cell_volume 1971.213991
_symmetry_space_group_name_H-M "C 2/M"
_symmetry_group_IT_number 12
_symmetry_cell_setting 'monoclinic'
loop_
_space_group_symop_operation_xyz
x,y,z
-x,y,-z
-x,-y,-z
x,-y,z
1/2+x,1/2+y,z
1/2-x,1/2+y,-z
1/2-x,1/2-y,-z
1/2+x,1/2-y,z
loop_
_atom_site_type_symbol
_atom_site_label
_atom_site_fract_x
_atom_site_fract_y
_atom_site_fract_z
Si Si1 0.367294 0.705400 0.072531
Si Si2 0.782924 0.785117 0.678559
Si Si3 0.915309 0.705599 0.355332
Si Si4 0.647154 0.707956 0.481220
Si Si5 0.000000 0.500000 0.000000
Si Si6 0.818448 0.786388 0.848994
Si Si7 0.010711 0.205233 0.805219
O O1 0.389058 0.500000 0.053533
O O2 0.402202 0.761293 0.155202
O O3 0.421576 0.843984 0.017795
O O4 0.240568 0.778729 0.911715
O O5 0.683228 0.723809 0.661687
O O6 0.852713 0.724243 0.605726
O O7 0.799108 0.732439 0.763207
O O8 0.783905 0.000000 0.676899
O O9 0.913621 0.500000 0.342601
O O10 0.920023 0.733321 0.445332
O O11 0.984538 0.774631 0.286053
O O12 0.636861 0.500000 0.478809
O O13 0.750000 0.750000 0.500000
O O14 0.920243 0.716901 0.850066
O O15 0.817014 0.000000 0.852791
O O16 0.005207 0.000000 0.818928
#
# Coordination Sequence:
#
# PCOD9173408 Si02
#       7
#     8   8   8   8   2   8   8
#     4  11  24  45  72 103 132 166 212 254 307 386
#     4   8  15  28  52  80 110 162 215 259 315 377
#     4  10  18  30  52  80 114 165 214 263 320 373
#     4   9  16  27  44  74 114 155 211 266 316 371
#     4  12  26  48  80  98 132 178 194 256 320 374
#     4  10  19  39  66  94 129 170 211 263 322 373
#     4  10  22  37  63  96 129 164 214 265 313 375
#
# _framework density 25.365081
#
# number of rings (size 3 to 8) (size 9 to 14) (size 15 to 20)
#    0.000    2.240    2.400    2.160    1.120    0.640 
#    0.000    2.400    0.000    4.800    0.000    0.000 
#    0.000    0.000    0.000    0.000    0.000    0.000 
#
# Total GULP energy -139429.196203 kJ/mol
# GULP energy per Si atom -5577.167848 kJ/mol
# Density = 2.530735 g / cm^3
# Si number density = 25.365081 Si / 1000 Ang^3
#
#
#
# Elastic Constant Matrix: (Units=GPa)
#
#
# Indices 1 2 3 4 5 6 
#
# 1 95.2197 9.4342 49.4528 0.0000 -40.6552 0.0000
# 2 9.4342 85.6522 2.3095 0.0000 -16.2579 0.0000
# 3 49.4528 2.3095 149.5256 0.0000 -23.7036 0.0000
# 4 0.0000 0.0000 0.0000 12.0728 0.0000 -12.7904
# 5 -40.6552 -16.2579 -23.7036 0.0000 43.6080 0.0000
# 6 0.0000 0.0000 0.0000 -12.7904 0.0000 8.2197
#
#
#
# Elastic Compliance Matrix: (Units=1/GPa)
#
#
# Indices 1 2 3 4 5 6 
#
# 1 0.019382 0.001080 -0.003828 0.000000 0.016391 0.000000
# 2 0.001080 0.012674 0.000389 0.000000 0.005943 0.000000
# 3 -0.003828 0.000389 0.008103 0.000000 0.000981 0.000000
# 4 0.000000 0.000000 0.000000 -0.127716 0.000000 -0.198734
# 5 0.016391 0.005943 0.000981 0.000000 0.040961 0.000000
# 6 0.000000 0.000000 0.000000 -0.198734 0.000000 -0.187584
#
#
# Mechanical properties :
#
#
# Convention : Reuss Voigt Hill
#
# Bulk Modulus (GPa) = 28.21683 50.31007 39.26345
# Shear Modulus (GPa) = -22.97298 30.72683 3.87693
#
# Velocity S-wave (km/s) = -3.01274 3.48427 1.23765
# Velocity P-wave (km/s) = 0.97657 6.00535 4.18990
#
# Compressibility (1/GPa) = 0.03543985
#
# Stress axis : x y z
#
# Youngs Moduli (GPa) = 51.59534 78.90294 123.40433
#
# Poissons Ratio (x) = -0.08518 0.47244
# Poissons Ratio (y) = -0.05570 -0.04804
# Poissons Ratio (z) = 0.19753 -0.03072
#
# Static dielectric constant tensor:
#      x y z
#    x 2.042760 0.000000 0.034080 
#    y 0.000000 1.920180 0.000000 
#    z 0.034080 0.000000 2.069760 
# 
# From -- ./inp_files/230098.got.cif
#   From: 2010.05.17/outbox.cif.g08.bks.cpg/sg12_116_cif.got.tgz:230098.got - 2010.06.03 13:09:07.
