data_PCOD9173639
_publ_section_title
;
Structure prediction by ZEFSAII (Michael W. Deem and Ramdas Pophale) SiO2 
 PCOD9173639
Probable space group: C 2/M
;
_chemical_formula_sum "Si O2"
_cell_formula_units_Z 64
_cell_length_a 19.300336
_cell_length_b 8.833550
_cell_length_c 21.114540
_cell_angle_alpha 90.000000
_cell_angle_beta 94.701808
_cell_angle_gamma 90.000000
_cell_volume 3587.713985
_symmetry_space_group_name_H-M "C 2/M"
_symmetry_group_IT_number 12
_symmetry_cell_setting 'monoclinic'
loop_
_space_group_symop_operation_xyz
x,y,z
-x,y,-z
-x,-y,-z
x,-y,z
1/2+x,1/2+y,z
1/2-x,1/2+y,-z
1/2-x,1/2-y,-z
1/2+x,1/2-y,z
loop_
_atom_site_type_symbol
_atom_site_label
_atom_site_fract_x
_atom_site_fract_y
_atom_site_fract_z
Si Si1 0.278335 0.178484 0.713504
Si Si2 0.976554 0.679000 0.226142
Si Si3 0.491241 0.181657 0.426112
Si Si4 0.678575 0.182240 0.023208
Si Si5 0.771380 0.181568 0.851057
Si Si6 0.586321 0.320621 0.325359
Si Si7 0.381928 0.816574 0.108746
Si Si8 0.364386 0.176639 0.330429
O O1 0.284872 0.258132 0.782313
O O2 0.339270 0.242308 0.674311
O O3 0.203007 0.221817 0.680962
O O4 0.285212 0.000000 0.721641
O O5 0.994396 0.500000 0.223319
O O6 0.945576 0.735341 0.157118
O O7 0.913196 0.691238 0.271911
O O8 0.040392 0.767334 0.261526
O O9 0.500000 0.221708 0.500000
O O10 0.544988 0.264440 0.384065
O O11 0.414427 0.213763 0.392991
O O12 0.501445 0.000000 0.419789
O O13 0.676044 0.249691 0.093136
O O14 0.682880 0.000000 0.026200
O O15 0.750000 0.250000 0.000000
O O16 0.621501 0.224431 0.965703
O O17 0.692374 0.227520 0.865617
O O18 0.774438 0.000000 0.853122
O O19 0.593062 0.500000 0.325849
O O20 0.383535 0.000000 0.111909
O O21 0.343299 0.000000 0.332405
#
# Coordination Sequence:
#
# PCOD9173639 Si02
#       8
#     8   8   8   8   8   8   8   8
#     4  12  23  35  53  78 108 143 183 224 266 321
#     4   9  16  32  54  76 104 141 179 219 268 320
#     4   9  19  39  65  88 112 144 177 209 253 311
#     4   9  16  26  41  68 101 137 177 220 268 320
#     4  10  18  31  48  70 102 140 176 220 277 324
#     4  11  23  37  54  80 112 143 177 220 267 313
#     4   8  14  26  47  71 100 135 173 216 266 319
#     4   9  17  32  56  83 111 140 173 216 264 309
#
# _framework density 17.838657999999999
#
# number of rings (size 3 to 8) (size 9 to 14) (size 15 to 20)
#    0.000    2.375    1.250    4.500    0.000    2.250 
#    0.000    1.875    0.000    0.750    0.000    5.250 
#    0.000    0.000    0.000    0.000    0.000    0.000 
#
# Total GULP energy -178463.553036 kJ/mol
# GULP energy per Si atom -5576.986032 kJ/mol
# Density = 1.779806 g / cm^3
# Si number density = 17.838658 Si / 1000 Ang^3
#
#
#
# Elastic Constant Matrix: (Units=GPa)
#
#
# Indices 1 2 3 4 5 6 
#
# 1 41.0934 29.5657 19.3878 0.0000 3.2849 0.0000
# 2 29.5657 74.1392 33.6774 0.0000 3.7070 0.0000
# 3 19.3878 33.6774 100.5638 0.0000 25.3016 0.0000
# 4 0.0000 0.0000 0.0000 24.7762 0.0000 2.2908
# 5 3.2849 3.7070 25.3016 0.0000 19.2324 0.0000
# 6 0.0000 0.0000 0.0000 2.2908 0.0000 24.7497
#
#
#
# Elastic Compliance Matrix: (Units=1/GPa)
#
#
# Indices 1 2 3 4 5 6 
#
# 1 0.034620 -0.012740 -0.002299 0.000000 -0.000433 0.000000
# 2 -0.012740 0.021056 -0.006161 0.000000 0.006222 0.000000
# 3 -0.002299 -0.006161 0.018016 0.000000 -0.022121 0.000000
# 4 0.000000 0.000000 0.000000 0.040710 0.000000 -0.003768
# 5 -0.000433 0.006222 -0.022121 0.000000 0.079972 0.000000
# 6 0.000000 0.000000 0.000000 -0.003768 0.000000 0.040753
#
#
# Mechanical properties :
#
#
# Convention : Reuss Voigt Hill
#
# Bulk Modulus (GPa) = 31.95661 42.33982 37.14821
# Shear Modulus (GPa) = 17.36363 22.62936 19.99649
#
# Velocity S-wave (km/s) = 3.12327 3.56554 3.35171
# Velocity P-wave (km/s) = 5.56413 6.38257 5.98735
#
# Compressibility (1/GPa) = 0.03129243
#
# Stress axis : x y z
#
# Youngs Moduli (GPa) = 28.88472 47.49216 55.50631
#
# Poissons Ratio (x) = 0.60506 0.12762
# Poissons Ratio (y) = 0.36800 0.34196
# Poissons Ratio (z) = 0.06641 0.29259
#
# Static dielectric constant tensor:
#      x y z
#    x 1.602520 0.000000 0.020410 
#    y 0.000000 1.594810 0.000000 
#    z 0.020410 0.000000 1.631650 
# 
# From -- ./inp_files/314130.got.cif
#   From: 2010.05.17/outbox.cif.g08.bks.cpg/sg12_158_cif.got.tgz:314130.got - 2010.06.03 13:09:07.
