data_PCOD9173978
_publ_section_title
;
Structure prediction by ZEFSAII (Michael W. Deem and Ramdas Pophale) SiO2 
 PCOD9173978
Probable space group: C 2/M
;
_chemical_formula_sum "Si O2"
_cell_formula_units_Z 64
_cell_length_a 12.799338
_cell_length_b 19.478027
_cell_length_c 17.635448
_cell_angle_alpha 90.000000
_cell_angle_beta 40.319240
_cell_angle_gamma 90.000000
_cell_volume 2844.814959
_symmetry_space_group_name_H-M "C 2/M"
_symmetry_group_IT_number 12
_symmetry_cell_setting 'monoclinic'
loop_
_space_group_symop_operation_xyz
x,y,z
-x,y,-z
-x,-y,-z
x,-y,z
1/2+x,1/2+y,z
1/2-x,1/2+y,-z
1/2-x,1/2-y,-z
1/2+x,1/2-y,z
loop_
_atom_site_type_symbol
_atom_site_label
_atom_site_fract_x
_atom_site_fract_y
_atom_site_fract_z
Si Si1 0.183410 0.280631 0.839526
Si Si2 0.367000 0.418149 0.515962
Si Si3 0.891747 0.920677 0.903160
Si Si4 0.202915 0.873410 0.801912
Si Si5 0.859693 0.314793 0.964528
Si Si6 0.515624 0.664159 0.687712
Si Si7 0.546442 0.080793 0.632046
Si Si8 0.663157 0.819548 0.432942
O O1 0.162430 0.199590 0.860602
O O2 0.372795 0.295282 0.724831
O O3 0.052268 0.303707 0.849306
O O4 0.152400 0.315880 0.937447
O O5 0.500000 0.390010 0.500000
O O6 0.371218 0.500000 0.519969
O O7 0.425033 0.394472 0.401619
O O8 0.177513 0.399277 0.623822
O O9 0.951874 0.874895 0.798036
O O10 0.038069 0.914857 0.882187
O O11 0.865570 0.000000 0.897976
O O12 0.727714 0.882193 0.018669
O O13 0.359305 0.906324 0.753883
O O14 0.268433 0.855184 0.680844
O O15 0.750000 0.250000 0.000000
O O16 0.672473 0.710462 0.621504
O O17 0.598101 0.124876 0.529691
O O18 0.565575 0.000000 0.604531
O O19 0.500000 0.779285 0.500000
#
# Coordination Sequence:
#
# PCOD9173978 Si02
#       8
#     8   8   8   8   8   8   8   8
#     4  10  21  36  57  81 104 143 188 217 274 346
#     4   9  17  32  49  67 103 151 188 218 264 321
#     4  10  19  33  60  91 110 131 178 240 285 322
#     4  10  18  31  51  82 111 137 174 225 271 326
#     4  10  20  40  61  78 109 148 178 217 285 357
#     4   9  18  33  51  80 109 138 185 228 266 319
#     4   9  17  30  49  75 108 146 184 226 278 321
#     4   8  16  29  49  74 107 140 172 218 272 311
#
# _framework density 22.497067999999999
#
# number of rings (size 3 to 8) (size 9 to 14) (size 15 to 20)
#    0.000    2.625    1.250    0.750    0.000    5.250 
#    2.250   13.125    0.000    2.250    0.000    0.000 
#    0.000    0.000    0.000    0.000    0.000    0.000 
#
# Total GULP energy -178239.609592 kJ/mol
# GULP energy per Si atom -5569.987800 kJ/mol
# Density = 2.244586 g / cm^3
# Si number density = 22.497068 Si / 1000 Ang^3
#
#
#
# Elastic Constant Matrix: (Units=GPa)
#
#
# Indices 1 2 3 4 5 6 
#
# 1 132.5392 19.2558 70.5231 0.0003 -62.7493 -0.0004
# 2 19.2558 69.6334 26.4193 -0.0018 -20.4921 0.0014
# 3 70.5231 26.4193 64.8540 -0.0079 -45.0427 0.0039
# 4 0.0003 -0.0018 -0.0079 21.9281 0.0019 -2.5716
# 5 -62.7493 -20.4921 -45.0427 0.0019 63.1429 -0.0006
# 6 -0.0004 0.0014 0.0039 -2.5716 -0.0006 19.1863
#
#
#
# Elastic Compliance Matrix: (Units=1/GPa)
#
#
# Indices 1 2 3 4 5 6 
#
# 1 0.020808 0.003685 -0.017710 -0.000007 0.009241 0.000003
# 2 0.003685 0.017680 -0.009277 -0.000002 0.002782 0.000001
# 3 -0.017710 -0.009277 0.047847 0.000015 0.013522 -0.000007
# 4 -0.000007 -0.000002 0.000015 0.046332 0.000002 0.006210
# 5 0.009241 0.002782 0.013522 0.000002 0.035568 -0.000001
# 6 0.000003 0.000001 -0.000007 0.006210 -0.000001 0.052953
#
#
# Mechanical properties :
#
#
# Convention : Reuss Voigt Hill
#
# Bulk Modulus (GPa) = 25.16924 55.49146 40.33035
# Shear Modulus (GPa) = 17.79127 30.90667 24.34897
#
# Velocity S-wave (km/s) = 2.81521 3.71051 3.29343
# Velocity P-wave (km/s) = 4.66683 6.56330 5.69457
#
# Compressibility (1/GPa) = 0.03973104
#
# Stress axis : x y z
#
# Youngs Moduli (GPa) = 48.05906 56.55974 20.89989
#
# Poissons Ratio (x) = -0.20840 0.37013
# Poissons Ratio (y) = -0.17708 0.19389
# Poissons Ratio (z) = 0.85111 0.52471
#
# Static dielectric constant tensor:
#      x y z
#    x 1.917260 0.000000 -0.066650 
#    y 0.000000 1.788810 0.000000 
#    z -0.066650 0.000000 1.959690 
# 
# From -- ./inp_files/306768.got.cif
#   From: 2010.05.17/outbox.cif.g08.bks.cpg/sg12_154_cif.got.tgz:306768.got - 2010.06.03 13:09:07.
