data_PCOD9173983
_publ_section_title
;
Structure prediction by ZEFSAII (Michael W. Deem and Ramdas Pophale) SiO2 
 PCOD9173983
Probable space group: C 2/M
;
_chemical_formula_sum "Si O2"
_cell_formula_units_Z 64
_cell_length_a 16.596826
_cell_length_b 17.750741
_cell_length_c 10.735836
_cell_angle_alpha 90.000000
_cell_angle_beta 98.776319
_cell_angle_gamma 90.000000
_cell_volume 3125.809230
_symmetry_space_group_name_H-M "C 2/M"
_symmetry_group_IT_number 12
_symmetry_cell_setting 'monoclinic'
loop_
_space_group_symop_operation_xyz
x,y,z
-x,y,-z
-x,-y,-z
x,-y,z
1/2+x,1/2+y,z
1/2-x,1/2+y,-z
1/2-x,1/2-y,-z
1/2+x,1/2-y,z
loop_
_atom_site_type_symbol
_atom_site_label
_atom_site_fract_x
_atom_site_fract_y
_atom_site_fract_z
Si Si1 0.431849 0.708111 0.590184
Si Si2 0.704784 0.343865 0.068146
Si Si3 0.344799 0.084376 0.753693
Si Si4 0.279099 0.300802 0.190795
Si Si5 0.152599 0.317025 0.605514
Si Si6 0.381278 0.087136 0.055165
Si Si7 0.995875 0.657462 0.274101
Si Si8 0.182081 0.910766 0.318866
O O1 0.500000 0.696167 0.500000
O O2 0.365338 0.767401 0.520032
O O3 0.475026 0.756025 0.709475
O O4 0.386868 0.632992 0.620291
O O5 0.712720 0.257512 0.116541
O O6 0.795186 0.380180 0.080919
O O7 0.664201 0.390729 0.168956
O O8 0.677724 0.339800 0.917690
O O9 0.268505 0.140201 0.735207
O O10 0.422837 0.108242 0.693516
O O11 0.319020 0.000000 0.718472
O O12 0.375832 0.087840 0.904907
O O13 0.333756 0.246834 0.285687
O O14 0.069959 0.357011 0.632318
O O15 0.231057 0.370942 0.625976
O O16 0.450966 0.135753 0.135979
O O17 0.391456 0.000000 0.096648
O O18 0.185301 0.000000 0.338261
#
# Coordination Sequence:
#
# PCOD9173983 Si02
#       8
#     8   8   8   8   8   8   8   8
#     4  10  24  42  59  80 111 149 200 246 281 330
#     4   9  17  30  55  87 113 137 186 235 273 344
#     4  10  21  32  50  84 125 155 178 223 285 348
#     4   9  17  34  55  79 113 151 189 223 277 329
#     4  10  21  39  60  84 111 149 198 245 272 338
#     4  10  18  31  51  84 123 153 183 224 282 349
#     4  11  19  34  55  79 111 154 188 229 279 330
#     4  11  21  37  62  86 111 147 187 241 295 339
#
# _framework density 20.474699000000001
#
# number of rings (size 3 to 8) (size 9 to 14) (size 15 to 20)
#    0.000    2.000    2.500    3.000    0.000    2.250 
#    2.250    3.125    0.000    6.375    0.000    3.500 
#    0.000    0.000    0.000    0.000    0.000    0.000 
#
# Total GULP energy -178560.930742 kJ/mol
# GULP energy per Si atom -5580.029086 kJ/mol
# Density = 2.042810 g / cm^3
# Si number density = 20.474699 Si / 1000 Ang^3
#
#
#
# Elastic Constant Matrix: (Units=GPa)
#
#
# Indices 1 2 3 4 5 6 
#
# 1 62.5852 61.6031 21.7276 0.0000 -16.1387 0.0000
# 2 61.6031 142.3347 42.1033 0.0000 -14.5728 0.0000
# 3 21.7276 42.1033 48.8126 0.0000 2.0724 0.0000
# 4 0.0000 0.0000 0.0000 11.1801 0.0000 -4.7903
# 5 -16.1387 -14.5728 2.0724 0.0000 25.1954 0.0000
# 6 0.0000 0.0000 0.0000 -4.7903 0.0000 22.1686
#
#
#
# Elastic Compliance Matrix: (Units=1/GPa)
#
#
# Indices 1 2 3 4 5 6 
#
# 1 0.032518 -0.010825 -0.005776 0.000000 0.015043 0.000000
# 2 -0.010825 0.014091 -0.007413 0.000000 0.001826 0.000000
# 3 -0.005776 -0.007413 0.029895 0.000000 -0.010446 0.000000
# 4 0.000000 0.000000 0.000000 0.098571 0.000000 0.021300
# 5 0.015043 0.001826 -0.010446 0.000000 0.051240 0.000000
# 6 0.000000 0.000000 0.000000 0.021300 0.000000 0.049711
#
#
# Mechanical properties :
#
#
# Convention : Reuss Voigt Hill
#
# Bulk Modulus (GPa) = 35.11774 56.06671 45.59223
# Shear Modulus (GPa) = 14.99048 20.26206 17.62627
#
# Velocity S-wave (km/s) = 2.70876 3.14923 2.93726
# Velocity P-wave (km/s) = 5.19347 6.37702 5.81543
#
# Compressibility (1/GPa) = 0.02847563
#
# Stress axis : x y z
#
# Youngs Moduli (GPa) = 30.75241 70.96974 33.45063
#
# Poissons Ratio (x) = 0.76826 0.19320
# Poissons Ratio (y) = 0.33290 0.24796
# Poissons Ratio (z) = 0.17762 0.52608
#
# Static dielectric constant tensor:
#      x y z
#    x 1.726650 0.000000 -0.002240 
#    y 0.000000 1.715630 0.000000 
#    z -0.002240 0.000000 1.828590 
# 
# From -- ./inp_files/157863.got.cif
#   From: 2010.05.17/outbox.cif.g08.bks.cpg/sg12_79_cif.got.tgz:157863.got - 2010.06.03 13:09:07.
