data_PCOD9173911
_publ_section_title
;
Structure prediction by ZEFSAII (Michael W. Deem and Ramdas Pophale) SiO2 
 PCOD9173911
Probable space group: C 2/M
;
_chemical_formula_sum "Si O2"
_cell_formula_units_Z 64
_cell_length_a 24.769366
_cell_length_b 7.428694
_cell_length_c 15.230954
_cell_angle_alpha 90.000000
_cell_angle_beta 93.038434
_cell_angle_gamma 90.000000
_cell_volume 2798.617252
_symmetry_space_group_name_H-M "C 2/M"
_symmetry_group_IT_number 12
_symmetry_cell_setting 'monoclinic'
loop_
_space_group_symop_operation_xyz
x,y,z
-x,y,-z
-x,-y,-z
x,-y,z
1/2+x,1/2+y,z
1/2-x,1/2+y,-z
1/2-x,1/2-y,-z
1/2+x,1/2-y,z
loop_
_atom_site_type_symbol
_atom_site_label
_atom_site_fract_x
_atom_site_fract_y
_atom_site_fract_z
Si Si1 0.186122 0.784342 0.500866
Si Si2 0.786595 0.780085 0.168998
Si Si3 0.332578 0.792545 0.810878
Si Si4 0.629531 0.719522 0.674719
Si Si5 0.031560 0.781075 0.916177
Si Si6 0.896841 0.205253 0.650724
Si Si7 0.489765 0.720809 0.282431
Si Si8 0.149672 0.782838 0.987067
O O1 0.250000 0.750000 0.500000
O O2 0.159036 0.719524 0.588807
O O3 0.149273 0.716558 0.416831
O O4 0.182358 0.000000 0.501061
O O5 0.728305 0.717575 0.196408
O O6 0.833782 0.726782 0.239500
O O7 0.801915 0.721759 0.072043
O O8 0.784702 0.000000 0.167629
O O9 0.372919 0.701490 0.746929
O O10 0.330855 0.000000 0.782986
O O11 0.349467 0.783637 0.913758
O O12 0.629102 0.500000 0.674573
O O13 0.567467 0.775825 0.681020
O O14 0.093997 0.732053 0.934614
O O15 0.009636 0.722341 0.819877
O O16 0.028946 0.000000 0.915485
O O17 0.000000 0.719280 0.000000
O O18 0.956724 0.285701 0.662968
O O19 0.905067 0.000000 0.621016
O O20 0.490827 0.500000 0.282473
O O21 0.151151 0.000000 0.991954
#
# Coordination Sequence:
#
# PCOD9173911 Si02
#       8
#     8   8   8   8   8   8   8   8
#     4  10  21  36  57  84 113 142 175 216 264 318
#     4   9  17  30  49  75 104 136 176 217 262 317
#     4  11  22  34  50  74 107 146 179 214 266 320
#     4   9  16  30  53  81 108 135 172 223 274 314
#     4   9  15  24  44  74 102 132 171 215 261 306
#     4  10  21  36  54  80 108 136 176 222 264 311
#     4   9  16  29  51  79 108 135 172 223 271 313
#     4  10  18  31  51  75 102 133 177 226 264 311
#
# _framework density 22.868435000000002
#
# number of rings (size 3 to 8) (size 9 to 14) (size 15 to 20)
#    0.000    2.375    1.250    2.250    0.000    4.000 
#    0.000    3.125    0.000    4.875    0.000    1.750 
#    0.000    0.000    0.000    0.000    0.000    0.000 
#
# Total GULP energy -178808.903348 kJ/mol
# GULP energy per Si atom -5587.778230 kJ/mol
# Density = 2.281639 g / cm^3
# Si number density = 22.868435 Si / 1000 Ang^3
#
#
#
# Elastic Constant Matrix: (Units=GPa)
#
#
# Indices 1 2 3 4 5 6 
#
# 1 133.4572 -0.8989 72.2899 0.0000 23.3832 0.0000
# 2 -0.8989 71.4382 -1.6918 0.0000 1.4371 0.0000
# 3 72.2899 -1.6918 137.7014 0.0000 6.6963 0.0000
# 4 0.0000 0.0000 0.0000 -7.7397 0.0000 6.0654
# 5 23.3832 1.4371 6.6963 0.0000 38.8932 0.0000
# 6 0.0000 0.0000 0.0000 6.0654 0.0000 1.4522
#
#
#
# Elastic Compliance Matrix: (Units=1/GPa)
#
#
# Indices 1 2 3 4 5 6 
#
# 1 0.011728 0.000130 -0.005861 0.000000 -0.006047 0.000000
# 2 0.000130 0.014015 0.000134 0.000000 -0.000619 0.000000
# 3 -0.005861 0.000134 0.010256 0.000000 0.001753 0.000000
# 4 0.000000 0.000000 0.000000 -0.030236 0.000000 0.126287
# 5 -0.006047 -0.000619 0.001753 0.000000 0.029068 0.000000
# 6 0.000000 0.000000 0.000000 0.126287 0.000000 0.161146
#
#
# Mechanical properties :
#
#
# Convention : Reuss Voigt Hill
#
# Bulk Modulus (GPa) = 40.31452 53.55503 46.93478
# Shear Modulus (GPa) = 23.20833 24.71433 23.96133
#
# Velocity S-wave (km/s) = 3.18915 3.29099 3.24047
# Velocity P-wave (km/s) = 5.58821 6.15715 5.87956
#
# Compressibility (1/GPa) = 0.02480496
#
# Stress axis : x y z
#
# Youngs Moduli (GPa) = 85.26309 71.35021 97.50770
#
# Poissons Ratio (x) = -0.00931 0.57154
# Poissons Ratio (y) = -0.01112 -0.01305
# Poissons Ratio (z) = 0.49977 -0.00955
#
# Static dielectric constant tensor:
#      x y z
#    x 1.834790 0.000000 0.005810 
#    y 0.000000 1.915520 0.000000 
#    z 0.005810 0.000000 1.816460 
# 
# From -- ./inp_files/238730.got.cif
#   From: 2010.05.17/outbox.cif.g08.bks.cpg/sg12_120_cif.got.tgz:238730.got - 2010.06.03 13:09:07.
