data_PCOD9173174
_publ_section_title
;
Structure prediction by ZEFSAII (Michael W. Deem and Ramdas Pophale) SiO2 
 PCOD9173174
Probable space group: C 2/M
;
_chemical_formula_sum "Si O2"
_cell_formula_units_Z 64
_cell_length_a 34.348617
_cell_length_b 9.256483
_cell_length_c 11.415063
_cell_angle_alpha 90.000000
_cell_angle_beta 95.597914
_cell_angle_gamma 90.000000
_cell_volume 3612.080748
_symmetry_space_group_name_H-M "C 2/M"
_symmetry_group_IT_number 12
_symmetry_cell_setting 'monoclinic'
loop_
_space_group_symop_operation_xyz
x,y,z
-x,y,-z
-x,-y,-z
x,-y,z
1/2+x,1/2+y,z
1/2-x,1/2+y,-z
1/2-x,1/2-y,-z
1/2+x,1/2-y,z
loop_
_atom_site_type_symbol
_atom_site_label
_atom_site_fract_x
_atom_site_fract_y
_atom_site_fract_z
Si Si1 0.086370 0.169847 0.938401
Si Si2 0.063141 0.671340 0.319407
Si Si3 0.635812 0.169361 0.756152
Si Si4 0.208638 0.827789 0.120175
Si Si5 0.059854 0.669480 0.591214
Si Si6 0.374867 0.670950 0.800212
Si Si7 0.789138 0.171391 0.157109
Si Si8 0.511472 0.670957 0.776680
O O1 0.112239 0.267509 0.860404
O O2 0.041064 0.196404 0.893643
O O3 0.094202 0.000000 0.912988
O O4 0.099570 0.193256 0.074457
O O5 0.063097 0.500000 0.303050
O O6 0.054271 0.701353 0.453381
O O7 0.104473 0.738099 0.294165
O O8 0.029148 0.745409 0.233522
O O9 0.605320 0.186402 0.640595
O O10 0.676114 0.255521 0.760300
O O11 0.643731 0.000000 0.774598
O O12 0.169490 0.789234 0.179118
O O13 0.247037 0.741395 0.169076
O O14 0.215166 0.000000 0.134242
O O15 0.202423 0.800799 0.979181
O O16 0.049381 0.500000 0.609354
O O17 0.034855 0.769527 0.669963
O O18 0.375835 0.500000 0.773374
O O19 0.788415 0.000000 0.173976
O O20 0.504482 0.500000 0.765529
#
# Coordination Sequence:
#
# PCOD9173174 Si02
#       8
#     8   8   8   8   8   8   8   8
#     4   9  18  34  52  74 104 135 165 207 260 305
#     4  11  23  37  52  72 102 138 175 212 256 303
#     4  10  18  30  52  78 103 132 169 209 254 304
#     4   9  18  32  50  74 105 138 167 201 247 301
#     4   9  20  37  54  74 102 135 169 215 263 299
#     4  10  20  36  54  72 103 139 172 207 249 303
#     4  10  18  30  50  78 109 135 164 203 252 301
#     4  10  20  34  56  80 101 128 169 217 261 305
#
# _framework density 17.718319000000001
#
# number of rings (size 3 to 8) (size 9 to 14) (size 15 to 20)
#    0.000    2.250    1.250    1.875    0.000    5.500 
#    0.000    2.500    0.000    0.750    0.000    0.000 
#    0.000    0.000    0.000    0.000    0.000    0.000 
#
# Total GULP energy -178592.916769 kJ/mol
# GULP energy per Si atom -5581.028649 kJ/mol
# Density = 1.767799 g / cm^3
# Si number density = 17.718319 Si / 1000 Ang^3
#
#
#
# Elastic Constant Matrix: (Units=GPa)
#
#
# Indices 1 2 3 4 5 6 
#
# 1 101.6086 37.5162 5.2895 0.0000 -0.2700 0.0000
# 2 37.5162 36.7706 7.6314 0.0000 3.5317 0.0000
# 3 5.2895 7.6314 4.4525 0.0000 2.3386 0.0000
# 4 0.0000 0.0000 0.0000 18.5778 0.0000 0.0432
# 5 -0.2700 3.5317 2.3386 0.0000 20.9256 0.0000
# 6 0.0000 0.0000 0.0000 0.0432 0.0000 33.7438
#
#
#
# Elastic Compliance Matrix: (Units=1/GPa)
#
#
# Indices 1 2 3 4 5 6 
#
# 1 0.016435 -0.019695 0.013146 0.000000 0.002067 0.000000
# 2 -0.019695 0.065833 -0.088674 0.000000 -0.001455 0.000000
# 3 0.013146 -0.088674 0.375020 0.000000 -0.026776 0.000000
# 4 0.000000 0.000000 0.000000 0.053828 0.000000 -0.000069
# 5 0.002067 -0.001455 -0.026776 0.000000 0.051053 0.000000
# 6 0.000000 0.000000 0.000000 -0.000069 0.000000 0.029635
#
#
# Mechanical properties :
#
#
# Convention : Reuss Voigt Hill
#
# Bulk Modulus (GPa) = 3.74751 27.07845 15.41298
# Shear Modulus (GPa) = 5.73925 20.80909 13.27417
#
# Velocity S-wave (km/s) = 1.80172 3.43073 2.74008
# Velocity P-wave (km/s) = 2.53927 5.56858 4.32764
#
# Compressibility (1/GPa) = 0.26684355
#
# Stress axis : x y z
#
# Youngs Moduli (GPa) = 60.84741 15.18995 2.66653
#
# Poissons Ratio (x) = 0.29916 -0.03506
# Poissons Ratio (y) = 1.19837 0.23645
# Poissons Ratio (z) = -0.79993 1.34695
#
# Static dielectric constant tensor:
#      x y z
#    x 1.618090 0.000000 0.011790 
#    y 0.000000 1.586850 0.000000 
#    z 0.011790 0.000000 1.587440 
# 
# From -- ./inp_files/187601.got.cif
#   From: 2010.05.17/outbox.cif.g08.bks.cpg/sg12_94_cif.got.tgz:187601.got - 2010.06.03 13:09:07.
