data_PCOD9173381
_publ_section_title
;
Structure prediction by ZEFSAII (Michael W. Deem and Ramdas Pophale) SiO2 
 PCOD9173381
Probable space group: C 2/M
;
_chemical_formula_sum "Si O2"
_cell_formula_units_Z 56
_cell_length_a 21.735997
_cell_length_b 15.233832
_cell_length_c 24.238186
_cell_angle_alpha 90.000000
_cell_angle_beta 157.130849
_cell_angle_gamma 90.000000
_cell_volume 3119.053547
_symmetry_space_group_name_H-M "C 2/M"
_symmetry_group_IT_number 12
_symmetry_cell_setting 'monoclinic'
loop_
_space_group_symop_operation_xyz
x,y,z
-x,y,-z
-x,-y,-z
x,-y,z
1/2+x,1/2+y,z
1/2-x,1/2+y,-z
1/2-x,1/2-y,-z
1/2+x,1/2-y,z
loop_
_atom_site_type_symbol
_atom_site_label
_atom_site_fract_x
_atom_site_fract_y
_atom_site_fract_z
Si Si1 0.483493 0.396943 0.922546
Si Si2 0.634241 0.900128 0.656800
Si Si3 0.027658 0.277770 0.391290
Si Si4 0.383801 0.347229 0.074471
Si Si5 0.191214 0.906849 0.382351
Si Si6 0.962268 0.326329 0.209156
Si Si7 0.811917 0.099992 0.488397
O O1 0.525549 0.500000 0.950515
O O2 0.297454 0.385595 0.759209
O O3 0.585943 0.340568 0.965650
O O4 0.500000 0.374371 0.000000
O O5 0.500000 0.898063 0.500000
O O6 0.596347 0.827209 0.671563
O O7 0.644368 0.000000 0.688986
O O8 0.193577 0.328514 0.538211
O O9 0.070241 0.175641 0.436243
O O10 0.984374 0.295002 0.291134
O O11 0.524996 0.406471 0.214196
O O12 0.423791 0.257204 0.139160
O O13 0.203518 0.378589 0.932826
O O14 0.163546 0.899727 0.424973
O O15 0.274576 0.000000 0.440346
O O16 0.126623 0.372560 0.328151
O O17 0.837665 0.000000 0.490107
#
# Coordination Sequence:
#
# PCOD9173381 Si02
#       7
#     8   8   8   8   8   8   8
#     4  10  21  35  49  75 111 144 175 208 259 328
#     4  10  21  34  53  82 109 139 180 215 257 323
#     4  11  18  36  53  76 110 144 180 227 269 318
#     4  11  19  33  53  78 111 140 178 223 260 327
#     4  10  18  30  52  78 106 143 175 212 270 325
#     4  10  21  33  52  80 107 141 184 218 273 328
#     4  10  20  34  51  75 108 141 179 223 269 317
#
# _framework density 17.954165
#
# number of rings (size 3 to 8) (size 9 to 14) (size 15 to 20)
#    0.000    1.714    2.857    3.429    0.000    2.857 
#    0.000    0.000    0.000    0.429    0.000    0.000 
#    0.000    2.286    0.000    0.000    0.000    0.000 
#
# Total GULP energy -156066.915310 kJ/mol
# GULP energy per Si atom -5573.818404 kJ/mol
# Density = 1.791330 g / cm^3
# Si number density = 17.954165 Si / 1000 Ang^3
#
#
#
# Elastic Constant Matrix: (Units=GPa)
#
#
# Indices 1 2 3 4 5 6 
#
# 1 59.2224 25.1341 5.0053 0.0023 -1.5514 0.0004
# 2 25.1341 98.2841 3.0415 0.0041 5.6447 0.0018
# 3 5.0053 3.0415 77.6649 0.0065 -5.6202 0.0032
# 4 0.0023 0.0041 0.0065 10.0207 0.0028 -6.1934
# 5 -1.5514 5.6447 -5.6202 0.0028 23.8777 0.0004
# 6 0.0004 0.0018 0.0032 -6.1934 0.0004 15.1050
#
#
#
# Elastic Compliance Matrix: (Units=1/GPa)
#
#
# Indices 1 2 3 4 5 6 
#
# 1 0.019137 -0.004994 -0.000877 -0.000003 0.002218 -0.000001
# 2 -0.004994 0.011645 -0.000363 -0.000004 -0.003163 -0.000003
# 3 -0.000877 -0.000363 0.013173 -0.000015 0.003129 -0.000009
# 4 -0.000003 -0.000004 -0.000015 0.133669 -0.000019 0.054808
# 5 0.002218 -0.003163 0.003129 -0.000019 0.043508 -0.000009
# 6 -0.000001 -0.000003 -0.000009 0.054808 -0.000009 0.088676
#
#
# Mechanical properties :
#
#
# Convention : Reuss Voigt Hill
#
# Bulk Modulus (GPa) = 31.76019 33.50369 32.63194
# Shear Modulus (GPa) = 15.02529 23.26669 19.14599
#
# Velocity S-wave (km/s) = 2.89601 3.60376 3.26909
# Velocity P-wave (km/s) = 5.37685 6.00144 5.69771
#
# Compressibility (1/GPa) = 0.03148595
#
# Stress axis : x y z
#
# Youngs Moduli (GPa) = 52.25403 85.87658 75.91255
#
# Poissons Ratio (x) = 0.42888 0.06660
# Poissons Ratio (y) = 0.26097 0.02756
# Poissons Ratio (z) = 0.04584 0.03118
#
# Static dielectric constant tensor:
#      x y z
#    x 1.621750 0.000000 0.002740 
#    y 0.000000 1.638580 0.000000 
#    z 0.002740 0.000000 1.697910 
# 
# From -- ./inp_files/368095.got.cif
#   From: 2010.05.17/outbox.cif.g08.bks.cpg/sg12_185_cif.got.tgz:368095.got - 2010.06.03 13:09:07.
