data_PCOD9173046
_publ_section_title
;
Structure prediction by ZEFSAII (Michael W. Deem and Ramdas Pophale) SiO2 
 PCOD9173046
Probable space group: C 2/M
;
_chemical_formula_sum "Si O2"
_cell_formula_units_Z 48
_cell_length_a 15.674601
_cell_length_b 16.864290
_cell_length_c 19.186463
_cell_angle_alpha 90.000000
_cell_angle_beta 156.049423
_cell_angle_gamma 90.000000
_cell_volume 2058.876938
_symmetry_space_group_name_H-M "C 2/M"
_symmetry_group_IT_number 12
_symmetry_cell_setting 'monoclinic'
loop_
_space_group_symop_operation_xyz
x,y,z
-x,y,-z
-x,-y,-z
x,-y,z
1/2+x,1/2+y,z
1/2-x,1/2+y,-z
1/2-x,1/2-y,-z
1/2+x,1/2-y,z
loop_
_atom_site_type_symbol
_atom_site_label
_atom_site_fract_x
_atom_site_fract_y
_atom_site_fract_z
Si Si1 0.395389 0.625231 0.069063
Si Si2 0.213113 0.589963 0.073276
Si Si3 0.750349 0.767473 0.200888
Si Si4 0.098054 0.500000 0.456099
Si Si5 0.111547 0.707263 0.239064
Si Si6 0.808339 0.000000 0.764765
Si Si7 0.465770 0.149499 0.675327
O O1 0.384143 0.591833 0.138930
O O2 0.454887 0.717154 0.121731
O O3 0.552661 0.578736 0.136521
O O4 0.166026 0.613813 0.865827
O O5 0.173107 0.500000 0.063783
O O6 0.273727 0.647047 0.181830
O O7 0.011435 0.633100 0.887490
O O8 0.778239 0.770524 0.304535
O O9 0.917117 0.709855 0.289169
O O10 0.500000 0.745051 0.000000
O O11 0.848425 0.500000 0.287910
O O12 0.146635 0.579469 0.449774
O O13 0.194117 0.500000 0.604472
O O14 0.165117 0.689514 0.359319
#
# Coordination Sequence:
#
# PCOD9173046 Si02
#       7
#     8   8   8   4   8   4   8
#     4  11  18  36  61  83 111 145 195 225 278 341
#     4  10  18  30  49  83 117 148 179 232 274 330
#     4  10  18  31  51  84 119 147 183 227 283 331
#     4  11  27  39  53  84 119 142 188 241 283 328
#     4  10  20  31  54  86 117 145 182 234 281 331
#     4  11  25  41  57  80 111 154 190 229 285 342
#     4  11  20  37  57  87 117 145 186 236 276 331
#
# _framework density 23.313680000000002
#
# number of rings (size 3 to 8) (size 9 to 14) (size 15 to 20)
#    0.000    1.500    5.833    2.500    3.500    3.667 
#    0.000    0.833    0.000    0.000    0.000    1.167 
#    0.000    0.000    0.000    0.000    0.000    0.000 
#
# Total GULP energy -134126.738415 kJ/mol
# GULP energy per Si atom -5588.614101 kJ/mol
# Density = 2.326062 g / cm^3
# Si number density = 23.313680 Si / 1000 Ang^3
#
#
#
# Elastic Constant Matrix: (Units=GPa)
#
#
# Indices 1 2 3 4 5 6 
#
# 1 172.4689 30.4030 12.9489 0.0343 -22.8404 0.0004
# 2 30.4030 137.5955 15.8291 0.0759 -9.8356 0.0108
# 3 12.9489 15.8291 61.6740 0.0787 -6.5430 0.0045
# 4 0.0343 0.0759 0.0787 -4.6545 0.0201 -17.0136
# 5 -22.8404 -9.8356 -6.5430 0.0201 16.0138 -0.0028
# 6 0.0004 0.0108 0.0045 -17.0136 -0.0028 17.8621
#
#
#
# Elastic Compliance Matrix: (Units=1/GPa)
#
#
# Indices 1 2 3 4 5 6 
#
# 1 0.007258 -0.000879 -0.000269 0.000015 0.009702 0.000017
# 2 -0.000879 0.007847 -0.001517 0.000027 0.002946 0.000022
# 3 -0.000269 -0.001517 0.017269 0.000067 0.005741 0.000061
# 4 0.000015 0.000027 0.000067 -0.047939 0.000119 -0.045661
# 5 0.009702 0.002946 0.005741 0.000119 0.080439 0.000122
# 6 0.000017 0.000022 0.000061 -0.045661 0.000122 0.012492
#
#
# Mechanical properties :
#
#
# Convention : Reuss Voigt Hill
#
# Bulk Modulus (GPa) = 36.97683 54.45559 45.71621
# Shear Modulus (GPa) = 54.51842 26.68144 40.59993
#
# Velocity S-wave (km/s) = 4.84102 3.38665 4.17761
# Velocity P-wave (km/s) = 6.86603 6.22101 6.55146
#
# Compressibility (1/GPa) = 0.02704396
#
# Stress axis : x y z
#
# Youngs Moduli (GPa) = 137.77431 127.43693 57.90727
#
# Poissons Ratio (x) = 0.11206 0.01557
# Poissons Ratio (y) = 0.12114 0.08784
# Poissons Ratio (z) = 0.03705 0.19331
#
# Static dielectric constant tensor:
#      x y z
#    x 1.932990 -0.000010 0.016170 
#    y -0.000010 1.899480 -0.000010 
#    z 0.016170 -0.000010 1.918470 
# 
# From -- ./inp_files/271804.got.cif
#   From: 2010.05.17/outbox.cif.g08.bks.cpg/sg12_136_cif.got.tgz:271804.got - 2010.06.03 13:09:07.
