data_PCOD9173384
_publ_section_title
;
Structure prediction by ZEFSAII (Michael W. Deem and Ramdas Pophale) SiO2 
 PCOD9173384
Probable space group: C 2/M
;
_chemical_formula_sum "Si O2"
_cell_formula_units_Z 48
_cell_length_a 21.113646
_cell_length_b 7.587806
_cell_length_c 24.061839
_cell_angle_alpha 90.000000
_cell_angle_beta 38.966565
_cell_angle_gamma 90.000000
_cell_volume 2424.191501
_symmetry_space_group_name_H-M "C 2/M"
_symmetry_group_IT_number 12
_symmetry_cell_setting 'monoclinic'
loop_
_space_group_symop_operation_xyz
x,y,z
-x,y,-z
-x,-y,-z
x,-y,z
1/2+x,1/2+y,z
1/2-x,1/2+y,-z
1/2-x,1/2-y,-z
1/2+x,1/2-y,z
loop_
_atom_site_type_symbol
_atom_site_label
_atom_site_fract_x
_atom_site_fract_y
_atom_site_fract_z
Si Si1 0.039313 0.713420 0.231360
Si Si2 0.608627 0.216123 0.948589
Si Si3 0.498217 0.794584 0.439387
Si Si4 0.361475 0.211261 0.945993
Si Si5 0.866446 0.711516 0.428350
Si Si6 0.819183 0.207406 0.762086
O O1 0.038912 0.500000 0.230077
O O2 0.063516 0.777771 0.153148
O O3 0.126626 0.765899 0.215217
O O4 0.935461 0.774670 0.330048
O O5 0.705192 0.274199 0.846568
O O6 0.611458 0.000000 0.946478
O O7 0.500000 0.269585 0.000000
O O8 0.622420 0.277168 0.002705
O O9 0.500000 0.716268 0.500000
O O10 0.417747 0.718718 0.450103
O O11 0.606228 0.786397 0.334852
O O12 0.470719 0.000000 0.464810
O O13 0.372822 0.000000 0.941108
O O14 0.250000 0.250000 0.000000
O O15 0.877785 0.500000 0.421945
O O16 0.750000 0.750000 0.500000
O O17 0.815399 0.000000 0.752978
#
# Coordination Sequence:
#
# PCOD9173384 Si02
#       6
#     8   8   8   8   8   8
#     4   9  18  32  51  74  99 134 172 201 244 302
#     4   9  18  32  48  72 106 137 163 199 252 301
#     4   9  19  37  57  73  97 135 172 203 245 303
#     4  10  18  31  53  75  98 131 170 208 242 291
#     4   9  18  33  51  74 100 130 163 203 254 297
#     4  10  18  30  52  79 101 128 167 210 250 289
#
# _framework density 19.800418000000001
#
# number of rings (size 3 to 8) (size 9 to 14) (size 15 to 20)
#    0.000    2.667    1.667    1.500    0.000    3.000 
#    3.000    0.000    0.000    4.500    0.000    0.000 
#    0.000    0.000    0.000    0.000    0.000    0.000 
#
# Total GULP energy -133836.345365 kJ/mol
# GULP energy per Si atom -5576.514390 kJ/mol
# Density = 1.975535 g / cm^3
# Si number density = 19.800418 Si / 1000 Ang^3
#
#
#
# Elastic Constant Matrix: (Units=GPa)
#
#
# Indices 1 2 3 4 5 6 
#
# 1 132.5169 -4.5615 99.4185 -0.0007 -2.5388 0.0005
# 2 -4.5615 40.3097 -7.5919 -0.0014 4.4247 0.0012
# 3 99.4185 -7.5919 148.2776 -0.0006 -4.9744 0.0009
# 4 -0.0007 -0.0014 -0.0006 14.8667 0.0002 -3.8212
# 5 -2.5388 4.4247 -4.9744 0.0002 41.6339 -0.0003
# 6 0.0005 0.0012 0.0009 -3.8212 -0.0003 15.2127
#
#
#
# Elastic Compliance Matrix: (Units=1/GPa)
#
#
# Indices 1 2 3 4 5 6 
#
# 1 0.015189 -0.000173 -0.010202 0.000000 -0.000274 0.000000
# 2 -0.000173 0.025317 0.001327 0.000002 -0.002543 -0.000002
# 3 -0.010202 0.001327 0.013682 0.000000 0.000872 -0.000001
# 4 0.000000 0.000002 0.000000 0.071907 0.000000 0.018062
# 5 -0.000274 -0.002543 0.000872 0.000000 0.024377 0.000001
# 6 0.000000 -0.000002 -0.000001 0.018062 0.000001 0.070271
#
#
# Mechanical properties :
#
#
# Convention : Reuss Voigt Hill
#
# Bulk Modulus (GPa) = 27.70694 55.07049 41.38871
# Shear Modulus (GPa) = 19.93071 29.93194 24.93132
#
# Velocity S-wave (km/s) = 3.17611 3.89225 3.55227
# Velocity P-wave (km/s) = 5.24154 6.93345 6.14599
#
# Compressibility (1/GPa) = 0.03609204
#
# Stress axis : x y z
#
# Youngs Moduli (GPa) = 65.83751 39.49860 73.09077
#
# Poissons Ratio (x) = 0.00681 0.74567
# Poissons Ratio (y) = 0.01136 -0.09696
# Poissons Ratio (z) = 0.67168 -0.05240
#
# Static dielectric constant tensor:
#      x y z
#    x 1.676230 0.000000 0.013950 
#    y 0.000000 1.734830 0.000000 
#    z 0.013950 0.000000 1.709850 
# 
# From -- ./inp_files/345391.got.cif
#   From: 2010.05.17/outbox.cif.g08.bks.cpg/sg12_173_cif.got.tgz:345391.got - 2010.06.03 13:09:07.
