data_PCOD9173167
_publ_section_title
;
Structure prediction by ZEFSAII (Michael W. Deem and Ramdas Pophale) SiO2 
 PCOD9173167
Probable space group: C 2/M
;
_chemical_formula_sum "Si O2"
_cell_formula_units_Z 64
_cell_length_a 27.297235
_cell_length_b 15.025457
_cell_length_c 9.114242
_cell_angle_alpha 90.000000
_cell_angle_beta 74.402296
_cell_angle_gamma 90.000000
_cell_volume 3600.570828
_symmetry_space_group_name_H-M "C 2/M"
_symmetry_group_IT_number 12
_symmetry_cell_setting 'monoclinic'
loop_
_space_group_symop_operation_xyz
x,y,z
-x,y,-z
-x,-y,-z
x,-y,z
1/2+x,1/2+y,z
1/2-x,1/2+y,-z
1/2-x,1/2-y,-z
1/2+x,1/2-y,z
loop_
_atom_site_type_symbol
_atom_site_label
_atom_site_fract_x
_atom_site_fract_y
_atom_site_fract_z
Si Si1 0.257051 0.249862 0.168663
Si Si2 0.402286 0.898741 0.937840
Si Si3 0.849547 0.212385 0.295539
Si Si4 0.178423 0.399939 0.231879
Si Si5 0.838744 0.403830 0.437969
Si Si6 0.996314 0.398259 0.331128
Si Si7 0.550251 0.765189 0.867238
Si Si8 0.223215 0.102527 0.426260
O O1 0.312652 0.274548 0.185209
O O2 0.220851 0.330837 0.240037
O O3 0.236533 0.162582 0.272055
O O4 0.250000 0.250000 0.000000
O O5 0.351826 0.873405 0.889308
O O6 0.447399 0.900126 0.782907
O O7 0.396156 0.000000 0.996884
O O8 0.419901 0.832490 0.048419
O O9 0.855024 0.311694 0.356419
O O10 0.907981 0.190384 0.208574
O O11 0.818960 0.151513 0.437709
O O12 0.198303 0.500000 0.193004
O O13 0.144539 0.403615 0.405793
O O14 0.854397 0.500000 0.361497
O O15 0.777215 0.401840 0.468243
O O16 0.975801 0.500000 0.330063
O O17 0.967627 0.324117 0.257816
O O18 0.000000 0.377988 0.500000
O O19 0.500000 0.736254 0.000000
O O20 0.208950 0.000000 0.404037
#
# Coordination Sequence:
#
# PCOD9173167 Si02
#       8
#     8   8   8   8   8   8   8   8
#     4  11  21  34  53  83 116 143 174 221 270 328
#     4   9  18  31  46  69 105 146 176 209 264 326
#     4  11  20  35  55  78 104 147 189 223 274 323
#     4  10  18  30  50  77 111 143 175 210 255 319
#     4   9  17  30  51  78 107 138 174 217 256 314
#     4   9  18  30  46  69  97 134 181 222 260 315
#     4  10  21  35  49  70 105 143 185 234 278 319
#     4  10  20  37  55  76 107 143 185 224 267 322
#
# _framework density 17.77496
#
# number of rings (size 3 to 8) (size 9 to 14) (size 15 to 20)
#    0.000    2.125    2.500    1.875    1.750    3.000 
#    0.000    2.500    0.000    0.375    0.000    0.000 
#    0.000   14.500    0.000    0.000    0.000    0.250 
#
# Total GULP energy -178215.965485 kJ/mol
# GULP energy per Si atom -5569.248921 kJ/mol
# Density = 1.773450 g / cm^3
# Si number density = 17.774960 Si / 1000 Ang^3
#
#
#
# Elastic Constant Matrix: (Units=GPa)
#
#
# Indices 1 2 3 4 5 6 
#
# 1 79.6131 34.2569 28.1887 0.0000 -10.0177 0.0000
# 2 34.2569 65.7795 31.6849 0.0000 0.3180 0.0000
# 3 28.1887 31.6849 112.3246 0.0000 4.9979 0.0000
# 4 0.0000 0.0000 0.0000 -11.6856 0.0000 57.5577
# 5 -10.0177 0.3180 4.9979 0.0000 26.3974 0.0000
# 6 0.0000 0.0000 0.0000 57.5577 0.0000 -105.8591
#
#
#
# Elastic Compliance Matrix: (Units=1/GPa)
#
#
# Indices 1 2 3 4 5 6 
#
# 1 0.017879 -0.008133 -0.002520 0.000000 0.007360 0.000000
# 2 -0.008133 0.021306 -0.003853 0.000000 -0.002613 0.000000
# 3 -0.002520 -0.003853 0.010753 0.000000 -0.002946 0.000000
# 4 0.000000 0.000000 0.000000 0.050995 0.000000 0.027727
# 5 0.007360 -0.002613 -0.002946 0.000000 0.041265 0.000000
# 6 0.000000 0.000000 0.000000 0.027727 0.000000 0.005629
#
#
# Mechanical properties :
#
#
# Convention : Reuss Voigt Hill
#
# Bulk Modulus (GPa) = 47.78607 49.55313 48.66960
# Shear Modulus (GPa) = 27.20146 -7.32368 9.93889
#
# Velocity S-wave (km/s) = 3.91618 -2.03204 2.36720
# Velocity P-wave (km/s) = 6.88411 4.73635 5.90863
#
# Compressibility (1/GPa) = 0.02092660
#
# Stress axis : x y z
#
# Youngs Moduli (GPa) = 55.93299 46.93489 92.99601
#
# Poissons Ratio (x) = 0.38170 0.23437
# Poissons Ratio (y) = 0.45488 0.35830
# Poissons Ratio (z) = 0.14096 0.18084
#
# Static dielectric constant tensor:
#      x y z
#    x 1.650700 0.000000 -0.059860 
#    y 0.000000 1.611800 0.000000 
#    z -0.059860 0.000000 1.685570 
# 
# From -- ./inp_files/104591.got.cif
#   From: 2010.05.17/outbox.cif.g08.bks.cpg/sg12_53_cif.got.tgz:104591.got - 2010.06.03 13:09:07.
