data_PCOD9173884
_publ_section_title
;
Structure prediction by ZEFSAII (Michael W. Deem and Ramdas Pophale) SiO2 
 PCOD9173884
Probable space group: C 2/M
;
_chemical_formula_sum "Si O2"
_cell_formula_units_Z 56
_cell_length_a 24.753074
_cell_length_b 7.418391
_cell_length_c 15.057775
_cell_angle_alpha 90.000000
_cell_angle_beta 68.599109
_cell_angle_gamma 90.000000
_cell_volume 2574.380481
_symmetry_space_group_name_H-M "C 2/M"
_symmetry_group_IT_number 12
_symmetry_cell_setting 'monoclinic'
loop_
_space_group_symop_operation_xyz
x,y,z
-x,y,-z
-x,-y,-z
x,-y,z
1/2+x,1/2+y,z
1/2-x,1/2+y,-z
1/2-x,1/2-y,-z
1/2+x,1/2-y,z
loop_
_atom_site_type_symbol
_atom_site_label
_atom_site_fract_x
_atom_site_fract_y
_atom_site_fract_z
Si Si1 0.110107 0.220407 0.723239
Si Si2 0.570422 0.282145 0.363222
Si Si3 0.317878 0.791978 0.819973
Si Si4 0.496352 0.281818 0.897917
Si Si5 0.061258 0.780518 0.570709
Si Si6 0.698011 0.279140 0.816366
Si Si7 0.869553 0.207335 0.970264
O O1 0.102299 0.278153 0.626193
O O2 0.166133 0.278591 0.745484
O O3 0.052280 0.281119 0.810596
O O4 0.110430 0.000000 0.723061
O O5 0.570727 0.500000 0.360891
O O6 0.622957 0.221931 0.270730
O O7 0.577617 0.223751 0.461418
O O8 0.505772 0.226284 0.372248
O O9 0.263638 0.719919 0.796239
O O10 0.328019 0.709313 0.910525
O O11 0.305211 0.000000 0.845972
O O12 0.498698 0.500000 0.887217
O O13 0.432685 0.217275 0.906302
O O14 0.500000 0.239191 0.000000
O O15 0.061265 0.000000 0.569726
O O16 0.698000 0.500000 0.814740
O O17 0.659956 0.216978 0.923899
O O18 0.881348 0.000000 0.987277
#
# Coordination Sequence:
#
# PCOD9173884 Si02
#       7
#     8   8   8   8   8   8   8
#     4   9  14  24  43  71 101 124 148 192 247 285
#     4   9  17  33  53  76  98 118 152 200 246 287
#     4  11  22  33  45  67  98 133 166 196 231 280
#     4   9  14  22  43  76 101 113 142 195 243 278
#     4   8  15  28  52  79  98 115 148 201 251 286
#     4   9  18  30  44  66  99 131 162 196 233 280
#     4  10  18  31  51  73  94 124 163 204 241 277
#
# _framework density 21.752807000000001
#
# number of rings (size 3 to 8) (size 9 to 14) (size 15 to 20)
#    0.000    2.714    1.429    2.571    0.000    2.286 
#    0.000    2.857    0.000    0.429    0.000    4.000 
#    0.000    0.000    0.000    0.000    0.000    0.000 
#
# Total GULP energy -156299.282774 kJ/mol
# GULP energy per Si atom -5582.117242 kJ/mol
# Density = 2.170330 g / cm^3
# Si number density = 21.752807 Si / 1000 Ang^3
#
#
#
# Elastic Constant Matrix: (Units=GPa)
#
#
# Indices 1 2 3 4 5 6 
#
# 1 132.0918 -2.4430 38.5433 0.0000 37.3399 0.0000
# 2 -2.4430 63.4765 -8.5324 0.0000 -0.6018 0.0000
# 3 38.5433 -8.5324 55.6682 0.0000 26.3061 0.0000
# 4 0.0000 0.0000 0.0000 -0.2634 0.0000 8.5255
# 5 37.3399 -0.6018 26.3061 0.0000 33.9168 0.0000
# 6 0.0000 0.0000 0.0000 8.5255 0.0000 12.6801
#
#
#
# Elastic Compliance Matrix: (Units=1/GPa)
#
#
# Indices 1 2 3 4 5 6 
#
# 1 0.011315 -0.000076 -0.003092 0.000000 -0.010060 0.000000
# 2 -0.000076 0.016229 0.003732 0.000000 -0.002524 0.000000
# 3 -0.003092 0.003732 0.030050 0.000000 -0.019837 0.000000
# 4 0.000000 0.000000 0.000000 -0.166792 0.000000 0.112143
# 5 -0.010060 -0.002524 -0.019837 0.000000 0.055901 0.000000
# 6 0.000000 0.000000 0.000000 0.112143 0.000000 0.003464
#
#
# Mechanical properties :
#
#
# Convention : Reuss Voigt Hill
#
# Bulk Modulus (GPa) = 17.02877 34.04138 25.53507
# Shear Modulus (GPa) = -159.30021 24.17794 -67.56113
#
# Velocity S-wave (km/s) = -8.56685 3.33751 -5.57907
# Velocity P-wave (km/s) = 9.48733 5.52586 5.45317
#
# Compressibility (1/GPa) = 0.05872416
#
# Stress axis : x y z
#
# Youngs Moduli (GPa) = 88.37693 61.61917 33.27738
#
# Poissons Ratio (x) = 0.00465 0.10289
# Poissons Ratio (y) = 0.00667 -0.12420
# Poissons Ratio (z) = 0.27325 -0.22998
#
# Static dielectric constant tensor:
#      x y z
#    x 1.804760 0.000000 0.012470 
#    y 0.000000 1.871300 0.000000 
#    z 0.012470 0.000000 1.747060 
# 
# From -- ./inp_files/237355.got.cif
#   From: 2010.05.17/outbox.cif.g08.bks.cpg/sg12_119_cif.got.tgz:237355.got - 2010.06.03 13:09:07.
