data_PCOD9173308
_publ_section_title
;
Structure prediction by ZEFSAII (Michael W. Deem and Ramdas Pophale) SiO2 
 PCOD9173308
Probable space group: C 2/M
;
_chemical_formula_sum "Si O2"
_cell_formula_units_Z 64
_cell_length_a 23.273114
_cell_length_b 8.784835
_cell_length_c 20.145404
_cell_angle_alpha 90.000000
_cell_angle_beta 120.572078
_cell_angle_gamma 90.000000
_cell_volume 3546.191565
_symmetry_space_group_name_H-M "C 2/M"
_symmetry_group_IT_number 12
_symmetry_cell_setting 'monoclinic'
loop_
_space_group_symop_operation_xyz
x,y,z
-x,y,-z
-x,-y,-z
x,-y,z
1/2+x,1/2+y,z
1/2-x,1/2+y,-z
1/2-x,1/2-y,-z
1/2+x,1/2-y,z
loop_
_atom_site_type_symbol
_atom_site_label
_atom_site_fract_x
_atom_site_fract_y
_atom_site_fract_z
Si Si1 0.879542 0.817534 0.968671
Si Si2 0.848145 0.818650 0.592995
Si Si3 0.383730 0.818054 0.832208
Si Si4 0.724416 0.184290 0.870046
Si Si5 0.764142 0.317707 0.270583
Si Si6 0.100180 0.683883 0.880752
Si Si7 0.216503 0.818534 0.581898
Si Si8 0.962159 0.681779 0.743641
O O1 0.907014 0.750043 0.916132
O O2 0.800997 0.768614 0.926305
O O3 0.882351 0.000000 0.967611
O O4 0.912016 0.755095 0.054494
O O5 0.833579 0.779171 0.507611
O O6 0.789015 0.740705 0.600593
O O7 0.918504 0.764439 0.662652
O O8 0.841353 0.000000 0.596105
O O9 0.311038 0.747651 0.774876
O O10 0.430070 0.782602 0.796751
O O11 0.378314 0.000000 0.834731
O O12 0.705760 0.225728 0.783367
O O13 0.670281 0.238769 0.891097
O O14 0.724098 0.000000 0.873163
O O15 0.760691 0.500000 0.271922
O O16 0.799323 0.254046 0.356527
O O17 0.101592 0.500000 0.888556
O O18 0.039810 0.721350 0.795560
O O19 0.219553 0.000000 0.590228
O O20 0.956034 0.500000 0.730124
#
# Coordination Sequence:
#
# PCOD9173308 Si02
#       8
#     8   8   8   8   8   8   8   8
#     4  10  20  34  52  76 100 126 166 218 259 300
#     4  10  20  32  50  74 104 137 166 203 247 292
#     4  10  19  32  49  72 101 134 166 205 251 304
#     4   8  17  33  53  75 100 127 168 214 254 295
#     4  10  18  30  51  79 104 131 164 208 255 297
#     4  10  20  36  54  72  97 135 171 210 255 299
#     4  10  19  31  49  77 106 133 166 201 246 301
#     4  10  21  34  51  73 102 135 171 206 247 303
#
# _framework density 18.047530999999999
#
# number of rings (size 3 to 8) (size 9 to 14) (size 15 to 20)
#    0.000    2.250    1.250    3.000    0.000    3.000 
#    0.000    5.625    0.000    0.750    0.000    5.250 
#    0.000    0.000    0.000    0.000    0.000    0.000 
#
# Total GULP energy -178551.070623 kJ/mol
# GULP energy per Si atom -5579.720957 kJ/mol
# Density = 1.800645 g / cm^3
# Si number density = 18.047531 Si / 1000 Ang^3
#
#
#
# Elastic Constant Matrix: (Units=GPa)
#
#
# Indices 1 2 3 4 5 6 
#
# 1 10.1661 5.2675 0.7079 0.0000 -3.3678 0.0000
# 2 5.2675 31.6980 24.8695 0.0000 -2.5911 0.0000
# 3 0.7079 24.8695 102.3266 0.0000 -9.3990 0.0000
# 4 0.0000 0.0000 0.0000 32.6334 0.0000 -4.0460
# 5 -3.3678 -2.5911 -9.3990 0.0000 22.9525 0.0000
# 6 0.0000 0.0000 0.0000 -4.0460 0.0000 15.0099
#
#
#
# Elastic Compliance Matrix: (Units=1/GPa)
#
#
# Indices 1 2 3 4 5 6 
#
# 1 0.115297 -0.022699 0.006274 0.000000 0.016924 0.000000
# 2 -0.022699 0.043456 -0.010661 0.000000 -0.002790 0.000000
# 3 0.006274 -0.010661 0.012775 0.000000 0.004948 0.000000
# 4 0.000000 0.000000 0.000000 0.031703 0.000000 0.008546
# 5 0.016924 -0.002790 0.004948 0.000000 0.047763 0.000000
# 6 0.000000 0.000000 0.000000 0.008546 0.000000 0.068926
#
#
# Mechanical properties :
#
#
# Convention : Reuss Voigt Hill
#
# Bulk Modulus (GPa) = 8.52108 22.87562 15.69835
# Shear Modulus (GPa) = 12.10038 21.67555 16.88796
#
# Velocity S-wave (km/s) = 2.59216 3.46934 3.06232
# Velocity P-wave (km/s) = 3.70010 5.36201 4.60662
#
# Compressibility (1/GPa) = 0.11735603
#
# Stress axis : x y z
#
# Youngs Moduli (GPa) = 8.67323 23.01179 78.27942
#
# Poissons Ratio (x) = 0.52234 -0.49109
# Poissons Ratio (y) = 0.19687 0.83452
# Poissons Ratio (z) = -0.05441 0.24532
#
# Static dielectric constant tensor:
#      x y z
#    x 1.612280 0.000000 -0.004720 
#    y 0.000000 1.607240 0.000000 
#    z -0.004720 0.000000 1.636350 
# 
# From -- ./inp_files/324272.got.cif
#   From: 2010.05.17/outbox.cif.g08.bks.cpg/sg12_163_cif.got.tgz:324272.got - 2010.06.03 13:09:07.
