data_PCOD9173358
_publ_section_title
;
Structure prediction by ZEFSAII (Michael W. Deem and Ramdas Pophale) SiO2 
 PCOD9173358
Probable space group: C 2/M
;
_chemical_formula_sum "Si O2"
_cell_formula_units_Z 56
_cell_length_a 22.023853
_cell_length_b 13.962035
_cell_length_c 12.619390
_cell_angle_alpha 90.000000
_cell_angle_beta 126.988218
_cell_angle_gamma 90.000000
_cell_volume 3099.533134
_symmetry_space_group_name_H-M "C 2/M"
_symmetry_group_IT_number 12
_symmetry_cell_setting 'monoclinic'
loop_
_space_group_symop_operation_xyz
x,y,z
-x,y,-z
-x,-y,-z
x,-y,z
1/2+x,1/2+y,z
1/2-x,1/2+y,-z
1/2-x,1/2-y,-z
1/2+x,1/2-y,z
loop_
_atom_site_type_symbol
_atom_site_label
_atom_site_fract_x
_atom_site_fract_y
_atom_site_fract_z
Si Si1 0.735721 0.611031 0.880339
Si Si2 0.988618 0.609933 0.724768
Si Si3 0.679845 0.613481 0.583584
Si Si4 0.891893 0.698517 0.991419
Si Si5 0.595536 0.609477 0.888042
Si Si6 0.848707 0.387519 0.724795
Si Si7 0.980918 0.802661 0.601684
O O1 0.760847 0.500000 0.905476
O O2 0.693652 0.628268 0.724055
O O3 0.675951 0.622214 0.911707
O O4 0.810731 0.674798 0.960480
O O5 0.000539 0.500000 0.703628
O O6 0.903861 0.620317 0.683194
O O7 0.999217 0.692172 0.648701
O O8 0.045489 0.636091 0.880945
O O9 0.665356 0.500000 0.551891
O O10 0.760692 0.639338 0.615702
O O11 0.607264 0.673078 0.472158
O O12 0.910543 0.809584 0.029195
O O13 0.882792 0.669812 0.859907
O O14 0.589309 0.500000 0.917400
O O15 0.531854 0.633520 0.733410
O O16 0.847559 0.500000 0.755493
O O17 0.000000 0.824130 0.500000
#
# Coordination Sequence:
#
# PCOD9173358 Si02
#       7
#     8   8   8   8   8   8   8
#     4   9  16  28  48  74 102 130 162 204 246 291
#     4  10  21  35  52  75 101 130 167 209 252 297
#     4   9  17  30  52  77  99 127 166 209 247 286
#     4  10  18  30  52  76 100 127 164 205 251 298
#     4  10  20  31  47  74 105 135 166 201 245 296
#     4   9  18  34  56  78  98 126 166 211 253 294
#     4  11  21  33  52  74 100 135 171 204 248 296
#
# _framework density 18.067236999999999
#
# number of rings (size 3 to 8) (size 9 to 14) (size 15 to 20)
#    0.000    2.286    1.429    3.429    0.000    2.571 
#    0.000    0.000    0.000   11.143    0.000    0.000 
#    0.000    0.000    0.000    0.000    0.000    0.000 
#
# Total GULP energy -156184.756824 kJ/mol
# GULP energy per Si atom -5578.027029 kJ/mol
# Density = 1.802611 g / cm^3
# Si number density = 18.067237 Si / 1000 Ang^3
#
#
#
# Elastic Constant Matrix: (Units=GPa)
#
#
# Indices 1 2 3 4 5 6 
#
# 1 21.9237 -0.2426 10.5370 0.0000 12.7327 0.0000
# 2 -0.2426 84.1502 21.1879 0.0000 5.7373 0.0000
# 3 10.5370 21.1879 41.7703 0.0000 17.6986 0.0000
# 4 0.0000 0.0000 0.0000 16.4911 0.0000 3.9343
# 5 12.7327 5.7373 17.6986 0.0000 20.3081 0.0000
# 6 0.0000 0.0000 0.0000 3.9343 0.0000 18.6541
#
#
#
# Elastic Compliance Matrix: (Units=1/GPa)
#
#
# Indices 1 2 3 4 5 6 
#
# 1 0.072672 0.003500 -0.000607 0.000000 -0.046024 0.000000
# 2 0.003500 0.013946 -0.008494 0.000000 0.001269 0.000000
# 3 -0.000607 -0.008494 0.043163 0.000000 -0.034836 0.000000
# 4 0.000000 0.000000 0.000000 0.063852 0.000000 -0.013467
# 5 -0.046024 0.001269 -0.034836 0.000000 0.108099 0.000000
# 6 0.000000 0.000000 0.000000 -0.013467 0.000000 0.056448
#
#
# Mechanical properties :
#
#
# Convention : Reuss Voigt Hill
#
# Bulk Modulus (GPa) = 8.43321 23.42320 15.92821
# Shear Modulus (GPa) = 12.22767 18.84811 15.53789
#
# Velocity S-wave (km/s) = 2.60434 3.23340 2.93576
# Velocity P-wave (km/s) = 3.70422 5.18964 4.50853
#
# Compressibility (1/GPa) = 0.11857880
#
# Stress axis : x y z
#
# Youngs Moduli (GPa) = 13.76036 71.70557 23.16800
#
# Poissons Ratio (x) = -0.25098 0.01406
# Poissons Ratio (y) = -0.04816 0.19680
# Poissons Ratio (z) = 0.00835 0.60910
#
# Static dielectric constant tensor:
#      x y z
#    x 1.635010 0.000000 0.019250 
#    y 0.000000 1.618410 0.000000 
#    z 0.019250 0.000000 1.594010 
# 
# From -- ./inp_files/223922.got.cif
#   From: 2010.05.17/outbox.cif.g08.bks.cpg/sg12_112_cif.got.tgz:223922.got - 2010.06.03 13:09:07.
