data_PCOD9173750
_publ_section_title
;
Structure prediction by ZEFSAII (Michael W. Deem and Ramdas Pophale) SiO2 
 PCOD9173750
Probable space group: C 2/M
;
_chemical_formula_sum "Si O2"
_cell_formula_units_Z 64
_cell_length_a 22.999673
_cell_length_b 15.352560
_cell_length_c 10.762659
_cell_angle_alpha 90.000000
_cell_angle_beta 116.151318
_cell_angle_gamma 90.000000
_cell_volume 3411.308063
_symmetry_space_group_name_H-M "C 2/M"
_symmetry_group_IT_number 12
_symmetry_cell_setting 'monoclinic'
loop_
_space_group_symop_operation_xyz
x,y,z
-x,y,-z
-x,-y,-z
x,-y,z
1/2+x,1/2+y,z
1/2-x,1/2+y,-z
1/2-x,1/2-y,-z
1/2+x,1/2-y,z
loop_
_atom_site_type_symbol
_atom_site_label
_atom_site_fract_x
_atom_site_fract_y
_atom_site_fract_z
Si Si1 0.427836 0.260883 0.917390
Si Si2 0.127017 0.904740 0.305188
Si Si3 0.732496 0.399712 0.621202
Si Si4 0.923008 0.285127 0.187530
Si Si5 0.031618 0.840814 0.408101
Si Si6 0.533745 0.901612 0.219360
Si Si7 0.335690 0.099098 0.527622
Si Si8 0.844460 0.252311 0.350879
O O1 0.382836 0.324893 0.796698
O O2 0.443825 0.171604 0.858170
O O3 0.500000 0.302418 0.000000
O O4 0.401630 0.242765 0.029929
O O5 0.187160 0.893326 0.455370
O O6 0.065028 0.901122 0.338511
O O7 0.131638 0.000000 0.249758
O O8 0.729002 0.500000 0.662310
O O9 0.802872 0.381451 0.630260
O O10 0.704779 0.328977 0.689861
O O11 0.867057 0.283899 0.237159
O O12 0.977704 0.217833 0.290052
O O13 0.963947 0.373535 0.206104
O O14 0.090137 0.781519 0.517578
O O15 0.000000 0.883806 0.500000
O O16 0.587411 0.898475 0.378165
O O17 0.533843 0.000000 0.169908
O O18 0.317072 0.169337 0.408025
O O19 0.316738 0.000000 0.477683
#
# Coordination Sequence:
#
# PCOD9173750 Si02
#       8
#     8   8   8   8   8   8   8   8
#     4  10  19  33  47  67 103 135 173 207 233 288
#     4  10  18  31  50  70  94 131 167 207 252 285
#     4   9  19  34  54  77 100 127 168 211 250 300
#     4  10  19  32  47  71 106 135 159 204 242 296
#     4   9  16  29  45  67 100 129 152 195 245 295
#     4  10  19  32  53  75  99 133 167 203 252 296
#     4  10  19  32  53  81 101 124 166 211 252 301
#     4  10  18  31  52  72 104 134 159 198 263 298
#
# _framework density 18.761133000000001
#
# number of rings (size 3 to 8) (size 9 to 14) (size 15 to 20)
#    0.000    2.250    3.750    1.125    0.000    3.250 
#    0.000    3.750    0.000    3.000    0.000    5.250 
#    0.000    0.000    0.000    0.000    0.000    0.000 
#
# Total GULP energy -178341.414773 kJ/mol
# GULP energy per Si atom -5573.169212 kJ/mol
# Density = 1.871843 g / cm^3
# Si number density = 18.761133 Si / 1000 Ang^3
#
#
#
# Elastic Constant Matrix: (Units=GPa)
#
#
# Indices 1 2 3 4 5 6 
#
# 1 67.6518 32.2214 7.4727 0.0000 -23.4098 0.0000
# 2 32.2214 92.3585 28.1930 0.0000 -20.1359 0.0000
# 3 7.4727 28.1930 31.9065 0.0000 -21.0744 0.0000
# 4 0.0000 0.0000 0.0000 4.6158 0.0000 3.4714
# 5 -23.4098 -20.1359 -21.0744 0.0000 28.8526 0.0000
# 6 0.0000 0.0000 0.0000 3.4714 0.0000 19.0031
#
#
#
# Elastic Compliance Matrix: (Units=1/GPa)
#
#
# Indices 1 2 3 4 5 6 
#
# 1 0.028845 -0.010178 0.025127 0.000000 0.034653 0.000000
# 2 -0.010178 0.018452 -0.021002 0.000000 -0.010721 0.000000
# 3 0.025127 -0.021002 0.092355 0.000000 0.073187 0.000000
# 4 0.000000 0.000000 0.000000 0.251155 0.000000 -0.045881
# 5 0.034653 -0.010721 0.073187 0.000000 0.108750 0.000000
# 6 0.000000 0.000000 0.000000 -0.045881 0.000000 0.061005
#
#
# Mechanical properties :
#
#
# Convention : Reuss Voigt Hill
#
# Bulk Modulus (GPa) = 7.84038 36.41011 22.12525
# Shear Modulus (GPa) = 8.12766 18.76292 13.44529
#
# Velocity S-wave (km/s) = 2.08365 3.16586 2.67995
# Velocity P-wave (km/s) = 3.15862 5.72825 4.62546
#
# Compressibility (1/GPa) = 0.12754477
#
# Stress axis : x y z
#
# Youngs Moduli (GPa) = 34.66804 54.19510 10.82783
#
# Poissons Ratio (x) = 0.55161 -0.27207
# Poissons Ratio (y) = 0.35286 0.22740
# Poissons Ratio (z) = -0.87109 1.13819
#
# Static dielectric constant tensor:
#      x y z
#    x 1.687030 0.000000 0.011170 
#    y 0.000000 1.669340 0.000000 
#    z 0.011170 0.000000 1.654100 
# 
# From -- ./inp_files/176152.got.cif
#   From: 2010.05.17/outbox.cif.g08.bks.cpg/sg12_89_cif.got.tgz:176152.got - 2010.06.03 13:09:07.
