data_PCOD9173369
_publ_section_title
;
Structure prediction by ZEFSAII (Michael W. Deem and Ramdas Pophale) SiO2 
 PCOD9173369
Probable space group: C 2/M
;
_chemical_formula_sum "Si O2"
_cell_formula_units_Z 64
_cell_length_a 20.763236
_cell_length_b 19.654991
_cell_length_c 20.299620
_cell_angle_alpha 90.000000
_cell_angle_beta 28.913870
_cell_angle_gamma 90.000000
_cell_volume 4005.411638
_symmetry_space_group_name_H-M "C 2/M"
_symmetry_group_IT_number 12
_symmetry_cell_setting 'monoclinic'
loop_
_space_group_symop_operation_xyz
x,y,z
-x,y,-z
-x,-y,-z
x,-y,z
1/2+x,1/2+y,z
1/2-x,1/2+y,-z
1/2-x,1/2-y,-z
1/2+x,1/2-y,z
loop_
_atom_site_type_symbol
_atom_site_label
_atom_site_fract_x
_atom_site_fract_y
_atom_site_fract_z
Si Si1 0.303746 0.284665 0.128276
Si Si2 0.872421 0.281160 0.349454
Si Si3 0.291202 0.076636 0.835505
Si Si4 0.836929 0.923845 0.302223
Si Si5 0.409881 0.922637 0.378537
Si Si6 0.153599 0.220174 0.143248
Si Si7 0.110143 0.217354 0.808348
Si Si8 0.384701 0.424283 0.874016
O O1 0.257582 0.363228 0.167319
O O2 0.206813 0.245131 0.165702
O O3 0.313075 0.259703 0.194818
O O4 0.452618 0.280240 0.964977
O O5 0.750000 0.250000 0.500000
O O6 0.882707 0.362029 0.351944
O O7 0.861376 0.259392 0.283242
O O8 0.007703 0.248546 0.257259
O O9 0.444109 0.086472 0.720432
O O10 0.275792 0.000000 0.822705
O O11 0.202686 0.081502 0.981140
O O12 0.701794 0.917551 0.464799
O O13 0.852631 0.861076 0.239404
O O14 0.962068 0.918424 0.240173
O O15 0.843336 0.000000 0.267013
O O16 0.404106 0.000000 0.356743
O O17 0.151800 0.138830 0.138670
O O18 0.250000 0.250000 0.000000
O O19 0.362729 0.500000 0.866150
#
# Coordination Sequence:
#
# PCOD9173369 Si02
#       8
#     8   8   8   8   8   8   8   8
#     4  11  22  34  53  78 111 142 177 220 265 314
#     4  12  20  34  58  81 103 138 183 224 258 308
#     4  10  18  31  49  76 104 138 177 209 256 319
#     4  10  18  33  51  75 108 140 171 209 261 316
#     4  10  20  32  52  79 108 137 172 219 265 308
#     4  12  18  34  56  76 101 142 179 220 261 306
#     4  11  22  35  51  81 109 141 178 221 267 308
#     4  10  18  30  52  77 102 131 178 224 257 304
#
# _framework density 15.978382999999999
#
# number of rings (size 3 to 8) (size 9 to 14) (size 15 to 20)
#    0.000    1.250    7.500    0.000    0.000    0.500 
#    0.000    3.750    0.000    3.000    0.000    1.750 
#    0.000    5.000    0.000    0.000    0.000    0.000 
#
# Total GULP energy -178529.987344 kJ/mol
# GULP energy per Si atom -5579.062105 kJ/mol
# Density = 1.594202 g / cm^3
# Si number density = 15.978383 Si / 1000 Ang^3
#
#
#
# Elastic Constant Matrix: (Units=GPa)
#
#
# Indices 1 2 3 4 5 6 
#
# 1 111.4195 50.8297 40.0476 0.0002 6.7860 -0.0002
# 2 50.8297 105.5465 18.2367 0.0007 6.8032 -0.0007
# 3 40.0476 18.2367 85.6879 0.0001 -10.7644 -0.0006
# 4 0.0002 0.0007 0.0001 22.9192 -0.0002 -5.7745
# 5 6.7860 6.8032 -10.7644 -0.0002 20.4349 0.0004
# 6 -0.0002 -0.0007 -0.0006 -5.7745 0.0004 22.6773
#
#
#
# Elastic Compliance Matrix: (Units=1/GPa)
#
#
# Indices 1 2 3 4 5 6 
#
# 1 0.013973 -0.005265 -0.006182 0.000000 -0.006144 0.000000
# 2 -0.005265 0.012258 -0.000472 0.000000 -0.002581 0.000000
# 3 -0.006182 -0.000472 0.015996 0.000000 0.010636 0.000000
# 4 0.000000 0.000000 0.000000 0.046623 0.000000 0.011872
# 5 -0.006144 -0.002581 0.010636 0.000000 0.057438 -0.000001
# 6 0.000000 0.000000 0.000000 0.011872 -0.000001 0.047120
#
#
# Mechanical properties :
#
#
# Convention : Reuss Voigt Hill
#
# Bulk Modulus (GPa) = 54.38111 57.87575 56.12843
# Shear Modulus (GPa) = 22.38373 26.10895 24.24634
#
# Velocity S-wave (km/s) = 3.74689 4.04668 3.89967
# Velocity P-wave (km/s) = 7.26822 7.62457 7.44853
#
# Compressibility (1/GPa) = 0.01838874
#
# Stress axis : x y z
#
# Youngs Moduli (GPa) = 71.56570 81.57849 62.51516
#
# Poissons Ratio (x) = 0.42952 0.38646
# Poissons Ratio (y) = 0.37681 0.02953
# Poissons Ratio (z) = 0.44240 0.03854
#
# Static dielectric constant tensor:
#      x y z
#    x 1.511960 0.000000 -0.010180 
#    y 0.000000 1.561710 0.000000 
#    z -0.010180 0.000000 1.532970 
# 
# From -- ./inp_files/279095.got.cif
#   From: 2010.05.17/outbox.cif.g08.bks.cpg/sg12_140_cif.got.tgz:279095.got - 2010.06.03 13:09:07.
