data_PCOD9173421
_publ_section_title
;
Structure prediction by ZEFSAII (Michael W. Deem and Ramdas Pophale) SiO2 
 PCOD9173421
Probable space group: C 2/M
;
_chemical_formula_sum "Si O2"
_cell_formula_units_Z 40
_cell_length_a 23.813242
_cell_length_b 10.909246
_cell_length_c 9.487368
_cell_angle_alpha 90.000000
_cell_angle_beta 57.680147
_cell_angle_gamma 90.000000
_cell_volume 2082.836110
_symmetry_space_group_name_H-M "C 2/M"
_symmetry_group_IT_number 12
_symmetry_cell_setting 'monoclinic'
loop_
_space_group_symop_operation_xyz
x,y,z
-x,y,-z
-x,-y,-z
x,-y,z
1/2+x,1/2+y,z
1/2-x,1/2+y,-z
1/2-x,1/2-y,-z
1/2+x,1/2-y,z
loop_
_atom_site_type_symbol
_atom_site_label
_atom_site_fract_x
_atom_site_fract_y
_atom_site_fract_z
Si Si1 0.960713 0.359538 0.776078
Si Si2 0.351925 0.246361 0.738680
Si Si3 0.780490 0.869654 0.069766
Si Si4 0.840921 0.640350 0.149764
Si Si5 0.115297 0.644696 0.591396
O O1 0.959675 0.500000 0.727482
O O2 0.924005 0.281105 0.706134
O O3 0.036500 0.329556 0.707985
O O4 0.912890 0.352160 0.976359
O O5 0.297995 0.141866 0.853637
O O6 0.356076 0.234656 0.566012
O O7 0.320826 0.357390 0.869234
O O8 0.799671 0.752506 0.138992
O O9 0.795488 0.000000 0.117629
O O10 0.816226 0.500000 0.158798
O O11 0.850792 0.657703 0.302820
O O12 0.122635 0.500000 0.538998
#
# Coordination Sequence:
#
# PCOD9173421 Si02
#       5
#     8   8   8   8   8
#     4   9  16  29  51  78 106 133 164 209 263 310
#     4  10  20  32  52  76 103 134 174 215 258 304
#     4  10  21  37  54  73 104 143 178 211 252 305
#     4   9  19  34  54  80 107 136 170 208 255 310
#     4  10  18  30  52  82 109 131 165 216 264 306
#
# _framework density 19.204581999999998
#
# number of rings (size 3 to 8) (size 9 to 14) (size 15 to 20)
#    0.000    2.400    0.000    3.000    0.000   10.400 
#    0.000    1.000    0.000   19.200    0.000    0.000 
#    0.000    0.000    0.000    0.000    0.000    0.000 
#
# Total GULP energy -111418.802607 kJ/mol
# GULP energy per Si atom -5570.940130 kJ/mol
# Density = 1.916087 g / cm^3
# Si number density = 19.204582 Si / 1000 Ang^3
#
#
#
# Elastic Constant Matrix: (Units=GPa)
#
#
# Indices 1 2 3 4 5 6 
#
# 1 69.4019 43.3216 19.1931 0.0000 6.5313 0.0000
# 2 43.3216 96.6498 17.2556 0.0000 11.0818 0.0000
# 3 19.1931 17.2556 53.4864 0.0000 23.2143 0.0000
# 4 0.0000 0.0000 0.0000 16.6814 0.0000 4.3824
# 5 6.5313 11.0818 23.2143 0.0000 31.6722 0.0000
# 6 0.0000 0.0000 0.0000 4.3824 0.0000 12.9704
#
#
#
# Elastic Compliance Matrix: (Units=1/GPa)
#
#
# Indices 1 2 3 4 5 6 
#
# 1 0.021330 -0.008823 -0.006216 0.000000 0.003244 0.000000
# 2 -0.008823 0.014701 -0.000196 0.000000 -0.003180 0.000000
# 3 -0.006216 -0.000196 0.029923 0.000000 -0.020582 0.000000
# 4 0.000000 0.000000 0.000000 0.065786 0.000000 -0.022228
# 5 0.003244 -0.003180 -0.020582 0.000000 0.047103 0.000000
# 6 0.000000 0.000000 0.000000 -0.022228 0.000000 0.084609
#
#
# Mechanical properties :
#
#
# Convention : Reuss Voigt Hill
#
# Bulk Modulus (GPa) = 28.18183 42.11985 35.15084
# Shear Modulus (GPa) = 16.35320 21.58264 18.96792
#
# Velocity S-wave (km/s) = 2.92126 3.35599 3.14614
# Velocity P-wave (km/s) = 5.10732 6.08249 5.61611
#
# Compressibility (1/GPa) = 0.03548386
#
# Stress axis : x y z
#
# Youngs Moduli (GPa) = 46.88250 68.02196 33.41900
#
# Poissons Ratio (x) = 0.60016 0.20772
# Poissons Ratio (y) = 0.41365 0.00656
# Poissons Ratio (z) = 0.29141 0.01336
#
# Static dielectric constant tensor:
#      x y z
#    x 1.677360 0.000000 0.009540 
#    y 0.000000 1.671010 0.000000 
#    z 0.009540 0.000000 1.713100 
# 
# From -- ./inp_files/83372.got.cif
#   From: 2010.05.17/outbox.cif.g08.bks.cpg/sg12_42_cif.got.tgz:83372.got - 2010.06.03 13:09:07.
