data_PCOD9173443
_publ_section_title
;
Structure prediction by ZEFSAII (Michael W. Deem and Ramdas Pophale) SiO2 
 PCOD9173443
Probable space group: C 2/M
;
_chemical_formula_sum "Si O2"
_cell_formula_units_Z 56
_cell_length_a 9.660447
_cell_length_b 32.041667
_cell_length_c 12.114643
_cell_angle_alpha 90.000000
_cell_angle_beta 35.585841
_cell_angle_gamma 90.000000
_cell_volume 2182.165751
_symmetry_space_group_name_H-M "C 2/M"
_symmetry_group_IT_number 12
_symmetry_cell_setting 'monoclinic'
loop_
_space_group_symop_operation_xyz
x,y,z
-x,y,-z
-x,-y,-z
x,-y,z
1/2+x,1/2+y,z
1/2-x,1/2+y,-z
1/2-x,1/2-y,-z
1/2+x,1/2-y,z
loop_
_atom_site_type_symbol
_atom_site_label
_atom_site_fract_x
_atom_site_fract_y
_atom_site_fract_z
Si Si1 0.292068 0.344012 0.724205
Si Si2 0.177452 0.647844 0.261419
Si Si3 0.637182 0.000000 0.739632
Si Si4 0.943216 0.409896 0.260193
Si Si5 0.493938 0.211422 0.774385
Si Si6 0.487962 0.570866 0.889885
Si Si7 0.612743 0.303640 0.675306
Si Si8 0.392390 0.500000 0.802172
O O1 0.500000 0.338682 0.500000
O O2 0.102685 0.308628 0.813988
O O3 0.418579 0.336323 0.756879
O O4 0.183153 0.388358 0.762185
O O5 0.947301 0.621190 0.363781
O O6 0.339288 0.609334 0.197712
O O7 0.231741 0.679082 0.326265
O O8 0.210840 0.680190 0.137177
O O9 0.650278 0.956652 0.665044
O O10 0.826689 0.000000 0.716529
O O11 0.370175 0.000000 0.967387
O O12 0.220837 0.412600 0.051484
O O13 0.473387 0.260942 0.793852
O O14 0.696427 0.205862 0.546153
O O15 0.527397 0.540408 0.762325
O O16 0.500000 0.546851 0.000000
#
# Coordination Sequence:
#
# PCOD9173443 Si02
#       8
#     8   8   4   8   8   8   8   4
#     4   9  18  31  50  74  98 131 169 213 263 309
#     4  10  19  30  51  78 102 138 168 210 264 313
#     4   9  18  32  53  74 100 137 175 223 262 304
#     4   9  19  35  51  70 107 139 169 215 266 306
#     4   9  18  33  50  75 104 133 163 217 263 300
#     4   9  18  32  51  76 108 139 170 215 262 309
#     4  10  18  30  53  78 101 127 176 218 255 300
#     4   9  17  30  52  80  99 129 186 221 254 302
#
# _framework density 25.662578
#
# number of rings (size 3 to 8) (size 9 to 14) (size 15 to 20)
#    0.000    2.714    0.000    1.500    2.000    4.000 
#    0.000    0.357    0.000   23.143    0.000    6.000 
#    0.000    0.000    0.000    0.000    0.000    0.000 
#
# Total GULP energy -156247.846130 kJ/mol
# GULP energy per Si atom -5580.280219 kJ/mol
# Density = 2.560417 g / cm^3
# Si number density = 25.662578 Si / 1000 Ang^3
#
#
#
# Elastic Constant Matrix: (Units=GPa)
#
#
# Indices 1 2 3 4 5 6 
#
# 1 200.1334 96.5783 28.8210 0.0000 -8.3441 0.0000
# 2 96.5783 205.9737 17.6370 0.0000 -10.0070 0.0000
# 3 28.8210 17.6370 57.6694 0.0000 7.1206 0.0000
# 4 0.0000 0.0000 0.0000 3.2764 0.0000 -32.6971
# 5 -8.3441 -10.0070 7.1206 0.0000 30.8944 0.0000
# 6 0.0000 0.0000 0.0000 -32.6971 0.0000 88.3338
#
#
#
# Elastic Compliance Matrix: (Units=1/GPa)
#
#
# Indices 1 2 3 4 5 6 
#
# 1 0.006856 -0.002906 -0.002728 0.000000 0.001539 0.000000
# 2 -0.002906 0.006344 -0.000663 0.000000 0.001423 0.000000
# 3 -0.002728 -0.000663 0.019581 0.000000 -0.005465 0.000000
# 4 0.000000 0.000000 0.000000 -0.113295 0.000000 -0.041937
# 5 0.001539 0.001423 -0.005465 0.000000 0.034504 0.000000
# 6 0.000000 0.000000 0.000000 -0.041937 0.000000 -0.004202
#
#
# Mechanical properties :
#
#
# Convention : Reuss Voigt Hill
#
# Bulk Modulus (GPa) = 49.53864 83.31656 66.42760
# Shear Modulus (GPa) = -161.87116 45.88361 -57.99378
#
# Velocity S-wave (km/s) = -7.95070 4.23301 -4.75895
# Velocity P-wave (km/s) = 8.05848 7.51185 2.06292
#
# Compressibility (1/GPa) = 0.02018626
#
# Stress axis : x y z
#
# Youngs Moduli (GPa) = 145.85339 157.63694 51.07012
#
# Poissons Ratio (x) = 0.45816 0.13930
# Poissons Ratio (y) = 0.42392 0.03387
# Poissons Ratio (z) = 0.39783 0.10455
#
# Static dielectric constant tensor:
#      x y z
#    x 1.975480 0.000000 0.003050 
#    y 0.000000 2.039100 0.000000 
#    z 0.003050 0.000000 2.291850 
# 
# From -- ./inp_files/200858.got.cif
#   From: 2010.05.17/outbox.cif.g08.bks.cpg/sg12_101_cif.got.tgz:200858.got - 2010.06.03 13:09:07.
