data_PCOD9173776
_publ_section_title
;
Structure prediction by ZEFSAII (Michael W. Deem and Ramdas Pophale) SiO2 
 PCOD9173776
Probable space group: C 2/M
;
_chemical_formula_sum "Si O2"
_cell_formula_units_Z 64
_cell_length_a 24.096431
_cell_length_b 8.905018
_cell_length_c 24.736170
_cell_angle_alpha 90.000000
_cell_angle_beta 136.428764
_cell_angle_gamma 90.000000
_cell_volume 3658.478235
_symmetry_space_group_name_H-M "C 2/M"
_symmetry_group_IT_number 12
_symmetry_cell_setting 'monoclinic'
loop_
_space_group_symop_operation_xyz
x,y,z
-x,y,-z
-x,-y,-z
x,-y,z
1/2+x,1/2+y,z
1/2-x,1/2+y,-z
1/2-x,1/2-y,-z
1/2+x,1/2-y,z
loop_
_atom_site_type_symbol
_atom_site_label
_atom_site_fract_x
_atom_site_fract_y
_atom_site_fract_z
Si Si1 0.916525 0.172691 0.475268
Si Si2 0.981172 0.680147 0.851232
Si Si3 0.113239 0.819711 0.023827
Si Si4 0.349631 0.681311 0.830181
Si Si5 0.725952 0.819933 0.925913
Si Si6 0.006960 0.681256 0.633931
Si Si7 0.543595 0.817156 0.778407
Si Si8 0.832893 0.680557 0.318538
O O1 0.853140 0.254667 0.391857
O O2 0.000000 0.177569 0.500000
O O3 0.938695 0.251455 0.547114
O O4 0.894167 0.000000 0.467691
O O5 0.979780 0.500000 0.851409
O O6 0.898611 0.746145 0.816040
O O7 0.001484 0.729760 0.804388
O O8 0.051020 0.738919 0.940529
O O9 0.109278 0.776067 0.083817
O O10 0.203647 0.787333 0.066939
O O11 0.100079 0.000000 0.010870
O O12 0.353432 0.500000 0.829218
O O13 0.255784 0.725508 0.763382
O O14 0.637122 0.769132 0.846046
O O15 0.722787 0.000000 0.929722
O O16 0.750000 0.750000 0.000000
O O17 0.002415 0.500000 0.628410
O O18 0.004105 0.730906 0.694160
O O19 0.094391 0.724833 0.670475
O O20 0.543524 0.000000 0.777790
O O21 0.834624 0.500000 0.322410
#
# Coordination Sequence:
#
# PCOD9173776 Si02
#       8
#     8   8   8   8   8   8   8   8
#     4   9  17  29  47  75 110 135 150 186 245 300
#     4  11  22  35  50  70  98 134 171 208 252 297
#     4  10  20  34  53  73  96 129 169 211 254 294
#     4  10  21  36  52  72  97 128 171 216 248 285
#     4  10  18  31  50  72  98 128 161 201 250 296
#     4   9  16  30  53  77  99 128 164 199 238 292
#     4   9  18  32  50  72 100 130 164 205 246 291
#     4   9  17  31  53  77  98 126 165 202 240 291
#
# _framework density 17.493611999999999
#
# number of rings (size 3 to 8) (size 9 to 14) (size 15 to 20)
#    0.000    2.375    1.250    1.875    0.000    7.000 
#    0.000    1.875    0.000    3.750    0.000    0.000 
#    0.000    0.000    0.000    0.000    0.000    0.000 
#
# Total GULP energy -178476.277548 kJ/mol
# GULP energy per Si atom -5577.383673 kJ/mol
# Density = 1.745380 g / cm^3
# Si number density = 17.493612 Si / 1000 Ang^3
#
#
#
# Elastic Constant Matrix: (Units=GPa)
#
#
# Indices 1 2 3 4 5 6 
#
# 1 69.1449 19.9896 35.7931 0.0000 -15.9765 0.0000
# 2 19.9896 10.8662 21.9724 0.0000 -5.1029 0.0000
# 3 35.7931 21.9724 119.3575 0.0000 -26.6395 0.0000
# 4 0.0000 0.0000 0.0000 20.2623 0.0000 -1.1210
# 5 -15.9765 -5.1029 -26.6395 0.0000 20.1797 0.0000
# 6 0.0000 0.0000 0.0000 -1.1210 0.0000 21.2925
#
#
#
# Elastic Compliance Matrix: (Units=1/GPa)
#
#
# Indices 1 2 3 4 5 6 
#
# 1 0.035677 -0.069533 0.006353 0.000000 0.019050 0.000000
# 2 -0.069533 0.282175 -0.038923 0.000000 -0.035078 0.000000
# 3 0.006353 -0.038923 0.017812 0.000000 0.018701 0.000000
# 4 0.000000 0.000000 0.000000 0.049497 0.000000 0.002606
# 5 0.019050 -0.035078 0.018701 0.000000 0.080455 0.000000
# 6 0.000000 0.000000 0.000000 0.002606 0.000000 0.047102
#
#
# Mechanical properties :
#
#
# Convention : Reuss Voigt Hill
#
# Bulk Modulus (GPa) = 7.60690 39.43100 23.51895
# Shear Modulus (GPa) = 6.57252 20.45447 13.51349
#
# Velocity S-wave (km/s) = 1.94043 3.42314 2.78237
# Velocity P-wave (km/s) = 3.06238 6.18167 4.87807
#
# Compressibility (1/GPa) = 0.13145968
#
# Stress axis : x y z
#
# Youngs Moduli (GPa) = 28.02924 3.54389 56.14099
#
# Poissons Ratio (x) = 0.24642 -0.35667
# Poissons Ratio (y) = 1.94895 2.18517
# Poissons Ratio (z) = -0.17807 0.13794
#
# Static dielectric constant tensor:
#      x y z
#    x 1.597720 0.000000 -0.002540 
#    y 0.000000 1.591980 0.000000 
#    z -0.002540 0.000000 1.585760 
# 
# From -- ./inp_files/324353.got.cif
#   From: 2010.05.17/outbox.cif.g08.bks.cpg/sg12_163_cif.got.tgz:324353.got - 2010.06.03 13:09:07.
