data_PCOD9173680
_publ_section_title
;
Structure prediction by ZEFSAII (Michael W. Deem and Ramdas Pophale) SiO2 
 PCOD9173680
Probable space group: C 2/M
;
_chemical_formula_sum "Si O2"
_cell_formula_units_Z 56
_cell_length_a 30.263327
_cell_length_b 7.432925
_cell_length_c 15.289573
_cell_angle_alpha 90.000000
_cell_angle_beta 132.834582
_cell_angle_gamma 90.000000
_cell_volume 2522.116219
_symmetry_space_group_name_H-M "C 2/M"
_symmetry_group_IT_number 12
_symmetry_cell_setting 'monoclinic'
loop_
_space_group_symop_operation_xyz
x,y,z
-x,y,-z
-x,-y,-z
x,-y,z
1/2+x,1/2+y,z
1/2-x,1/2+y,-z
1/2-x,1/2-y,-z
1/2+x,1/2-y,z
loop_
_atom_site_type_symbol
_atom_site_label
_atom_site_fract_x
_atom_site_fract_y
_atom_site_fract_z
Si Si1 0.850188 0.208150 0.140688
Si Si2 0.101869 0.795101 0.400749
Si Si3 0.271568 0.720682 0.361601
Si Si4 0.967964 0.778552 0.212676
Si Si5 0.752645 0.281648 0.868728
Si Si6 0.346187 0.207737 0.710274
Si Si7 0.057501 0.782854 0.019879
O O1 0.915965 0.283235 0.208717
O O2 0.805436 0.283700 0.153982
O O3 0.859104 0.000000 0.176646
O O4 0.811699 0.216998 0.999169
O O5 0.161562 0.715788 0.524981
O O6 0.116721 0.799140 0.317199
O O7 0.035617 0.716175 0.324079
O O8 0.098162 0.000000 0.428423
O O9 0.271357 0.500000 0.364797
O O10 0.252781 0.773003 0.238698
O O11 0.220349 0.781184 0.360475
O O12 0.968425 0.000000 0.213037
O O13 0.950318 0.723788 0.090353
O O14 0.753919 0.500000 0.874084
O O15 0.383178 0.219000 0.850243
O O16 0.341491 0.000000 0.678107
O O17 0.058877 0.000000 0.022198
O O18 0.000000 0.725183 0.000000
#
# Coordination Sequence:
#
# PCOD9173680 Si02
#       7
#     8   8   8   8   8   8   8
#     4   9  17  30  51  76  98 121 152 196 240 283
#     4  10  19  35  52  65  92 134 167 194 234 284
#     4   9  19  33  50  70  95 128 163 198 238 284
#     4   9  17  30  49  72  95 122 161 198 231 277
#     4   9  17  32  51  73  99 123 153 193 240 288
#     4  11  21  32  47  72  99 124 160 204 243 278
#     4  10  18  31  49  69  94 128 162 191 231 286
#
# _framework density 22.203575000000001
#
# number of rings (size 3 to 8) (size 9 to 14) (size 15 to 20)
#    0.000    2.429    1.429    1.714    0.000    0.286 
#    0.000    3.571    0.000    4.286    0.000    0.000 
#    0.000    5.714    0.000    0.000    0.000    0.000 
#
# Total GULP energy -156414.064520 kJ/mol
# GULP energy per Si atom -5586.216590 kJ/mol
# Density = 2.215304 g / cm^3
# Si number density = 22.203575 Si / 1000 Ang^3
#
#
#
# Elastic Constant Matrix: (Units=GPa)
#
#
# Indices 1 2 3 4 5 6 
#
# 1 134.7149 1.5306 32.6057 0.0000 47.3906 0.0000
# 2 1.5306 72.0740 -10.1260 0.0000 -1.7039 0.0000
# 3 32.6057 -10.1260 58.9083 0.0000 25.0206 0.0000
# 4 0.0000 0.0000 0.0000 -8.6949 0.0000 -2.6708
# 5 47.3906 -1.7039 25.0206 0.0000 28.5701 0.0000
# 6 0.0000 0.0000 0.0000 -2.6708 0.0000 -0.7495
#
#
#
# Elastic Compliance Matrix: (Units=1/GPa)
#
#
# Indices 1 2 3 4 5 6 
#
# 1 0.018556 -0.000605 0.004321 0.000000 -0.034600 0.000000
# 2 -0.000605 0.014314 0.003195 0.000000 -0.000941 0.000000
# 3 0.004321 0.003195 0.028815 0.000000 -0.032212 0.000000
# 4 0.000000 0.000000 0.000000 1.215486 0.000000 -4.331527
# 5 -0.034600 -0.000941 -0.032212 0.000000 0.120548 0.000000
# 6 0.000000 0.000000 0.000000 -4.331527 0.000000 14.101596
#
#
# Mechanical properties :
#
#
# Convention : Reuss Voigt Hill
#
# Bulk Modulus (GPa) = 13.24377 34.85755 24.05066
# Shear Modulus (GPa) = 0.32236 19.93761 10.12998
#
# Velocity S-wave (km/s) = 0.38144 2.99983 2.13828
# Velocity P-wave (km/s) = 2.48428 5.26609 4.11724
#
# Compressibility (1/GPa) = 0.07550723
#
# Stress axis : x y z
#
# Youngs Moduli (GPa) = 53.89177 69.86120 34.70451
#
# Poissons Ratio (x) = 0.04226 -0.14997
# Poissons Ratio (y) = 0.03260 -0.11088
# Poissons Ratio (z) = -0.23288 -0.22320
#
# Static dielectric constant tensor:
#      x y z
#    x 1.809120 0.000000 0.024080 
#    y 0.000000 1.864060 0.000000 
#    z 0.024080 0.000000 1.782450 
# 
# From -- ./inp_files/237386.got.cif
#   From: 2010.05.17/outbox.cif.g08.bks.cpg/sg12_119_cif.got.tgz:237386.got - 2010.06.03 13:09:07.
