data_PCOD9173351
_publ_section_title
;
Structure prediction by ZEFSAII (Michael W. Deem and Ramdas Pophale) SiO2 
 PCOD9173351
Probable space group: C 2/M
;
_chemical_formula_sum "Si O2"
_cell_formula_units_Z 56
_cell_length_a 19.150743
_cell_length_b 24.309021
_cell_length_c 9.304374
_cell_angle_alpha 90.000000
_cell_angle_beta 134.493855
_cell_angle_gamma 90.000000
_cell_volume 3089.783697
_symmetry_space_group_name_H-M "C 2/M"
_symmetry_group_IT_number 12
_symmetry_cell_setting 'monoclinic'
loop_
_space_group_symop_operation_xyz
x,y,z
-x,y,-z
-x,-y,-z
x,-y,z
1/2+x,1/2+y,z
1/2-x,1/2+y,-z
1/2-x,1/2-y,-z
1/2+x,1/2-y,z
loop_
_atom_site_type_symbol
_atom_site_label
_atom_site_fract_x
_atom_site_fract_y
_atom_site_fract_z
Si Si1 0.885706 0.281199 0.862539
Si Si2 0.697628 0.123115 0.455180
Si Si3 0.395129 0.063085 0.917017
Si Si4 0.300598 0.156265 0.976015
Si Si5 0.598377 0.339678 0.223704
Si Si6 0.099338 0.804686 0.552951
Si Si7 0.609743 0.175154 0.597895
O O1 0.821303 0.323817 0.676988
O O2 0.860226 0.292821 0.990689
O O3 0.868714 0.219054 0.794095
O O4 0.000000 0.292365 0.000000
O O5 0.673358 0.071807 0.320351
O O6 0.809426 0.121341 0.663389
O O7 0.628637 0.135783 0.490120
O O8 0.353112 0.103061 0.979869
O O9 0.400871 0.000000 0.971994
O O10 0.500000 0.079994 0.000000
O O11 0.189640 0.164903 0.762446
O O12 0.316175 0.159626 0.167455
O O13 0.583024 0.329128 0.370805
O O14 0.500000 0.356067 0.000000
O O15 0.123493 0.739326 0.574892
O O16 0.000000 0.809341 0.500000
O O17 0.500000 0.169207 0.500000
#
# Coordination Sequence:
#
# PCOD9173351 Si02
#       7
#     8   8   8   8   8   8   8
#     4  10  18  30  52  73 106 147 187 221 260 324
#     4  11  19  36  55  77 109 147 188 226 276 325
#     4  10  21  39  64  86 102 132 184 240 290 338
#     4  11  21  36  54  78 113 152 181 225 274 333
#     4  11  22  33  52  78 110 155 194 227 260 317
#     4  11  23  35  49  80 118 154 187 223 261 317
#     4  11  22  32  50  84 120 149 179 217 270 332
#
# _framework density 18.124245999999999
#
# number of rings (size 3 to 8) (size 9 to 14) (size 15 to 20)
#    0.000    1.286    4.286    5.143    8.000    0.000 
#    0.000    0.714    0.000    3.429    0.000    0.000 
#    0.000    0.000    0.000    0.000    0.000    0.000 
#
# Total GULP energy -156337.868421 kJ/mol
# GULP energy per Si atom -5583.495301 kJ/mol
# Density = 1.808299 g / cm^3
# Si number density = 18.124246 Si / 1000 Ang^3
#
#
#
# Elastic Constant Matrix: (Units=GPa)
#
#
# Indices 1 2 3 4 5 6 
#
# 1 55.6123 3.1692 7.0452 0.0000 4.1530 0.0000
# 2 3.1692 30.0063 0.4653 0.0000 7.3960 0.0000
# 3 7.0452 0.4653 86.8829 0.0000 6.5207 0.0000
# 4 0.0000 0.0000 0.0000 10.1235 0.0000 1.6933
# 5 4.1530 7.3960 6.5207 0.0000 34.0886 0.0000
# 6 0.0000 0.0000 0.0000 1.6933 0.0000 4.4697
#
#
#
# Elastic Compliance Matrix: (Units=1/GPa)
#
#
# Indices 1 2 3 4 5 6 
#
# 1 0.018363 -0.001512 -0.001357 0.000000 -0.001650 0.000000
# 2 -0.001512 0.035347 0.000502 0.000000 -0.007581 0.000000
# 3 -0.001357 0.000502 0.011782 0.000000 -0.002197 0.000000
# 4 0.000000 0.000000 0.000000 0.105463 0.000000 -0.039953
# 5 -0.001650 -0.007581 -0.002197 0.000000 0.031601 0.000000
# 6 0.000000 0.000000 0.000000 -0.039953 0.000000 0.238864
#
#
# Mechanical properties :
#
#
# Convention : Reuss Voigt Hill
#
# Bulk Modulus (GPa) = 16.45868 21.54012 18.99940
# Shear Modulus (GPa) = 10.72027 20.52448 15.62237
#
# Velocity S-wave (km/s) = 2.43469 3.36881 2.93910
# Velocity P-wave (km/s) = 4.12364 5.20023 4.69291
#
# Compressibility (1/GPa) = 0.06075821
#
# Stress axis : x y z
#
# Youngs Moduli (GPa) = 54.45768 28.29115 84.87512
#
# Poissons Ratio (x) = 0.04277 0.11519
# Poissons Ratio (y) = 0.08233 -0.04263
# Poissons Ratio (z) = 0.07391 -0.01421
#
# Static dielectric constant tensor:
#      x y z
#    x 1.643260 0.000000 0.016140 
#    y 0.000000 1.601740 0.000000 
#    z 0.016140 0.000000 1.680400 
# 
# From -- ./inp_files/66491.got.cif
#   From: 2010.05.17/outbox.cif.g08.bks.cpg/sg12_34_cif.got.tgz:66491.got - 2010.06.03 13:09:07.
