data_PCOD9173306
_publ_section_title
;
Structure prediction by ZEFSAII (Michael W. Deem and Ramdas Pophale) SiO2 
 PCOD9173306
Probable space group: C 2/M
;
_chemical_formula_sum "Si O2"
_cell_formula_units_Z 60
_cell_length_a 21.638108
_cell_length_b 15.624108
_cell_length_c 17.130914
_cell_angle_alpha 90.000000
_cell_angle_beta 143.911934
_cell_angle_gamma 90.000000
_cell_volume 3411.387299
_symmetry_space_group_name_H-M "C 2/M"
_symmetry_group_IT_number 12
_symmetry_cell_setting 'monoclinic'
loop_
_space_group_symop_operation_xyz
x,y,z
-x,y,-z
-x,-y,-z
x,-y,z
1/2+x,1/2+y,z
1/2-x,1/2+y,-z
1/2-x,1/2-y,-z
1/2+x,1/2-y,z
loop_
_atom_site_type_symbol
_atom_site_label
_atom_site_fract_x
_atom_site_fract_y
_atom_site_fract_z
Si Si1 0.508272 0.898758 0.820227
Si Si2 0.262313 0.902331 0.563567
Si Si3 0.396686 0.783526 0.950472
Si Si4 0.748961 0.145415 0.612838
Si Si5 0.505878 0.903119 0.374337
Si Si6 0.877018 0.907323 0.892239
Si Si7 0.500000 0.765657 0.500000
Si Si8 0.707083 0.677938 0.653056
O O1 0.384066 0.877984 0.702150
O O2 0.533945 0.889880 0.754571
O O3 0.522100 0.000000 0.855268
O O4 0.571663 0.833886 0.939366
O O5 0.215159 0.855266 0.440134
O O6 0.201252 0.894992 0.582304
O O7 0.265664 0.000000 0.540624
O O8 0.361686 0.683173 0.921686
O O9 0.300492 0.831815 0.810045
O O10 0.500000 0.784671 0.000000
O O11 0.632530 0.105334 0.497895
O O12 0.819934 0.100956 0.750312
O O13 0.740297 0.241932 0.632910
O O14 0.472370 0.830064 0.400583
O O15 0.479137 0.000000 0.372398
O O16 0.846035 0.000000 0.896339
O O17 0.000000 0.910384 0.000000
O O18 0.598919 0.706845 0.580882
#
# Coordination Sequence:
#
# PCOD9173306 Si02
#       8
#     8   8   8   8   8   8   4   8
#     4   9  18  31  52  84 111 126 159 218 275 318
#     4  10  18  30  51  79 104 128 164 214 270 313
#     4  10  18  31  50  76 110 138 166 205 266 313
#     4   9  17  30  51  76 104 129 161 215 273 314
#     4   9  17  32  55  79 101 127 164 217 268 307
#     4   9  17  28  42  66 102 141 170 195 237 304
#     4  10  21  36  49  72 102 140 178 208 243 304
#     4  10  20  33  49  74 105 140 173 206 251 304
#
# _framework density 17.588152999999998
#
# number of rings (size 3 to 8) (size 9 to 14) (size 15 to 20)
#    0.000    2.533    1.333    2.600    0.000    0.800 
#    0.000    1.667    0.000    0.000    0.000    0.933 
#    0.000    0.000    0.000    0.000    0.000    0.000 
#
# Total GULP energy -167060.971379 kJ/mol
# GULP energy per Si atom -5568.699046 kJ/mol
# Density = 1.754812 g / cm^3
# Si number density = 17.588153 Si / 1000 Ang^3
#
#
#
# Elastic Constant Matrix: (Units=GPa)
#
#
# Indices 1 2 3 4 5 6 
#
# 1 63.3370 18.3024 29.8271 0.0000 -9.8208 0.0000
# 2 18.3024 57.2849 43.6143 0.0000 -14.5027 0.0000
# 3 29.8271 43.6143 113.6980 0.0000 -18.3722 0.0000
# 4 0.0000 0.0000 0.0000 263.1841 0.0000 231.8179
# 5 -9.8208 -14.5027 -18.3722 0.0000 16.6653 0.0000
# 6 0.0000 0.0000 0.0000 231.8179 0.0000 251.6274
#
#
#
# Elastic Compliance Matrix: (Units=1/GPa)
#
#
# Indices 1 2 3 4 5 6 
#
# 1 0.018791 -0.002131 -0.003191 0.000000 0.005701 0.000000
# 2 -0.002131 0.027641 -0.007739 0.000000 0.014267 0.000000
# 3 -0.003191 -0.007739 0.013638 0.000000 0.006420 0.000000
# 4 0.000000 0.000000 0.000000 0.020155 0.000000 -0.018568
# 5 0.005701 0.014267 0.006420 0.000000 0.082858 0.000000
# 6 0.000000 0.000000 0.000000 -0.018568 0.000000 0.021080
#
#
# Mechanical properties :
#
#
# Convention : Reuss Voigt Hill
#
# Bulk Modulus (GPa) = 29.45534 46.42307 37.93920
# Shear Modulus (GPa) = 22.56299 115.80045 69.18172
#
# Velocity S-wave (km/s) = 3.58558 8.12299 6.27851
# Velocity P-wave (km/s) = 5.82456 10.69715 8.61262
#
# Compressibility (1/GPa) = 0.03394970
#
# Stress axis : x y z
#
# Youngs Moduli (GPa) = 53.21688 36.17756 73.32274
#
# Poissons Ratio (x) = 0.07709 0.23396
# Poissons Ratio (y) = 0.11340 0.56743
# Poissons Ratio (z) = 0.16981 0.27997
#
# Static dielectric constant tensor:
#      x y z
#    x 1.607430 0.000000 -0.019660 
#    y 0.000000 1.673500 0.000000 
#    z -0.019660 0.000000 1.602430 
# 
# From -- ./inp_files/234309.got.cif
#   From: 2010.05.17/outbox.cif.g08.bks.cpg/sg12_118_cif.got.tgz:234309.got - 2010.06.03 13:09:07.
