data_PCOD9173762
_publ_section_title
;
Structure prediction by ZEFSAII (Michael W. Deem and Ramdas Pophale) SiO2 
 PCOD9173762
Probable space group: C 2/M
;
_chemical_formula_sum "Si O2"
_cell_formula_units_Z 56
_cell_length_a 19.688075
_cell_length_b 18.267453
_cell_length_c 15.033688
_cell_angle_alpha 90.000000
_cell_angle_beta 139.782038
_cell_angle_gamma 90.000000
_cell_volume 3491.207200
_symmetry_space_group_name_H-M "C 2/M"
_symmetry_group_IT_number 12
_symmetry_cell_setting 'monoclinic'
loop_
_space_group_symop_operation_xyz
x,y,z
-x,y,-z
-x,-y,-z
x,-y,z
1/2+x,1/2+y,z
1/2-x,1/2+y,-z
1/2-x,1/2-y,-z
1/2+x,1/2-y,z
loop_
_atom_site_type_symbol
_atom_site_label
_atom_site_fract_x
_atom_site_fract_y
_atom_site_fract_z
Si Si1 0.124975 0.169892 0.023387
Si Si2 1.000000 0.584209 0.108064
Si Si3 0.374946 0.584782 0.596858
Si Si4 0.875025 0.830109 0.773436
Si Si5 0.125054 0.915218 0.846966
Si Si6 0.289638 0.829671 0.895938
Si Si7 0.789639 0.670329 0.683339
O O1 0.147378 0.146694 0.147378
O O2 0.188916 0.243872 0.067325
O O3 0.144684 0.109626 0.968256
O O4 0.000000 0.188477 0.895201
O O5 0.000000 0.500000 0.137614
O O6 0.105389 0.626536 0.240551
O O7 0.894610 0.626536 0.029771
O O8 0.000000 0.584552 0.000000
O O9 0.345980 0.500000 0.554061
O O10 0.355316 0.609626 0.678889
O O11 0.500000 0.592211 0.705764
O O12 0.308210 0.637064 0.466586
O O13 0.811084 0.756128 0.689493
O O14 0.191790 0.862936 0.850165
O O15 0.154020 0.000000 0.862101
O O16 0.277014 0.839807 0.777014
#
# Coordination Sequence:
#
# PCOD9173762 Si02
#       7
#     8   8   8   8   8   8   8
#     4   9  17  32  53  73  93 121 161 206 244 275
#     4   9  16  26  44  70  94 118 152 193 236 278
#     4  10  21  33  46  70 102 132 160 190 231 288
#     4   9  17  32  53  73  93 121 161 206 244 275
#     4  10  21  33  46  70 102 132 160 190 231 288
#     4  10  18  31  50  71  97 126 157 197 240 283
#     4  10  18  31  50  71  97 126 157 197 240 283
#
# _framework density 16.040298
#
# number of rings (size 3 to 8) (size 9 to 14) (size 15 to 20)
#    0.000    2.429    1.429    1.714    0.000    2.857 
#    0.000    4.286    0.000    0.000    0.000    0.000 
#    0.000    3.429    0.000    0.000    0.000    0.000 
#
# Total GULP energy -156081.844104 kJ/mol
# GULP energy per Si atom -5574.351575 kJ/mol
# Density = 1.600379 g / cm^3
# Si number density = 16.040298 Si / 1000 Ang^3
#
#
#
# Elastic Constant Matrix: (Units=GPa)
#
#
# Indices 1 2 3 4 5 6 
#
# 1 49.9609 9.0772 4.3552 0.0000 3.7688 0.0000
# 2 9.0772 17.5095 9.0569 0.0000 -0.0353 0.0000
# 3 4.3552 9.0569 49.8558 0.0000 -3.9544 0.0000
# 4 0.0000 0.0000 0.0000 20.3997 0.0000 0.9547
# 5 3.7688 -0.0353 -3.9544 0.0000 10.1416 0.0000
# 6 0.0000 0.0000 0.0000 0.9547 0.0000 19.8623
#
#
#
# Elastic Compliance Matrix: (Units=1/GPa)
#
#
# Indices 1 2 3 4 5 6 
#
# 1 0.022825 -0.011545 -0.000591 0.000000 -0.008753 0.000000
# 2 -0.011545 0.069063 -0.011535 0.000000 0.000033 0.000000
# 3 -0.000591 -0.011535 0.022928 0.000000 0.009120 0.000000
# 4 0.000000 0.000000 0.000000 0.049131 0.000000 -0.002361
# 5 -0.008753 0.000033 0.009120 0.000000 0.105413 0.000000
# 6 0.000000 0.000000 0.000000 -0.002361 0.000000 0.050460
#
#
# Mechanical properties :
#
#
# Convention : Reuss Voigt Hill
#
# Bulk Modulus (GPa) = 14.82027 18.03387 16.42707
# Shear Modulus (GPa) = 12.83191 16.40318 14.61755
#
# Velocity S-wave (km/s) = 2.83146 3.20132 3.02205
# Velocity P-wave (km/s) = 4.46643 4.99318 4.73713
#
# Compressibility (1/GPa) = 0.06747514
#
# Stress axis : x y z
#
# Youngs Moduli (GPa) = 43.81170 14.47944 43.61427
#
# Poissons Ratio (x) = 0.16716 0.02577
# Poissons Ratio (y) = 0.50580 0.50309
# Poissons Ratio (z) = 0.02589 0.16702
#
# Static dielectric constant tensor:
#      x y z
#    x 1.526220 0.000000 -0.004190 
#    y 0.000000 1.528180 0.000000 
#    z -0.004190 0.000000 1.523860 
# 
# From -- ./inp_files/156740.got.cif
#   From: 2010.05.17/outbox.cif.g08.bks.cpg/sg12_79_cif.got.tgz:156740.got - 2010.06.03 13:09:07.
