data_PCOD9173586
_publ_section_title
;
Structure prediction by ZEFSAII (Michael W. Deem and Ramdas Pophale) SiO2 
 PCOD9173586
Probable space group: C 2/M
;
_chemical_formula_sum "Si O2"
_cell_formula_units_Z 64
_cell_length_a 24.900961
_cell_length_b 8.703968
_cell_length_c 22.158661
_cell_angle_alpha 90.000000
_cell_angle_beta 47.168531
_cell_angle_gamma 90.000000
_cell_volume 3522.022286
_symmetry_space_group_name_H-M "C 2/M"
_symmetry_group_IT_number 12
_symmetry_cell_setting 'monoclinic'
loop_
_space_group_symop_operation_xyz
x,y,z
-x,y,-z
-x,-y,-z
x,-y,z
1/2+x,1/2+y,z
1/2-x,1/2+y,-z
1/2-x,1/2-y,-z
1/2+x,1/2-y,z
loop_
_atom_site_type_symbol
_atom_site_label
_atom_site_fract_x
_atom_site_fract_y
_atom_site_fract_z
Si Si1 0.631250 0.822039 0.277385
Si Si2 0.275926 0.686324 0.220754
Si Si3 0.056888 0.814175 0.904741
Si Si4 0.647445 0.677687 0.515573
Si Si5 0.086622 0.168183 0.426896
Si Si6 0.055993 0.317189 0.773404
Si Si7 0.498235 0.684017 0.303372
Si Si8 0.782986 0.183552 0.354608
O O1 0.714677 0.760441 0.219850
O O2 0.607048 0.801582 0.365534
O O3 0.569827 0.738050 0.284976
O O4 0.632106 0.000000 0.258854
O O5 0.272258 0.500000 0.222726
O O6 0.359426 0.731228 0.143579
O O7 0.261326 0.731789 0.302080
O O8 0.039071 0.743396 0.853339
O O9 0.055868 0.000000 0.899696
O O10 0.000000 0.769695 0.000000
O O11 0.661600 0.500000 0.522489
O O12 0.618003 0.679745 0.469495
O O13 0.578694 0.737792 0.606968
O O14 0.723552 0.767040 0.449642
O O15 0.000000 0.167466 0.500000
O O16 0.108822 0.000000 0.384163
O O17 0.054210 0.500000 0.773212
O O18 0.138015 0.258071 0.695493
O O19 0.003189 0.247187 0.763183
O O20 0.496048 0.500000 0.306066
O O21 0.790602 0.000000 0.348790
#
# Coordination Sequence:
#
# PCOD9173586 Si02
#       8
#     8   8   8   8   8   8   8   8
#     4  11  20  31  49  76 108 143 182 227 274 317
#     4   8  16  30  50  81 113 137 169 216 267 314
#     4   9  18  37  66  93 114 140 171 207 261 329
#     4  10  20  32  49  72 101 140 189 239 281 316
#     4  10  18  31  46  67 100 141 188 236 277 312
#     4  11  23  39  57  81 110 141 178 223 273 325
#     4  11  23  39  53  71 104 150 194 230 270 324
#     4  10  19  34  54  76 105 143 184 230 278 324
#
# _framework density 18.171378000000001
#
# number of rings (size 3 to 8) (size 9 to 14) (size 15 to 20)
#    0.000    2.000    2.500    3.000    0.000    2.000 
#    0.000    0.625    0.000    0.750    0.000    0.000 
#    0.000    0.000    0.000    0.000    0.000    0.000 
#
# Total GULP energy -178446.023733 kJ/mol
# GULP energy per Si atom -5576.438242 kJ/mol
# Density = 1.813002 g / cm^3
# Si number density = 18.171378 Si / 1000 Ang^3
#
#
#
# Elastic Constant Matrix: (Units=GPa)
#
#
# Indices 1 2 3 4 5 6 
#
# 1 102.9987 27.0798 61.9114 0.0000 9.7307 0.0000
# 2 27.0798 44.2203 27.9185 0.0007 1.5097 0.0003
# 3 61.9114 27.9185 99.0786 0.0003 -8.8506 -0.0001
# 4 0.0000 0.0007 0.0003 19.5516 -0.0002 1.0894
# 5 9.7307 1.5097 -8.8506 -0.0002 13.7289 0.0001
# 6 0.0000 0.0003 -0.0001 1.0894 0.0001 21.6227
#
#
#
# Elastic Compliance Matrix: (Units=1/GPa)
#
#
# Indices 1 2 3 4 5 6 
#
# 1 0.021918 -0.003066 -0.015057 0.000000 -0.024905 0.000000
# 2 -0.003066 0.028907 -0.006706 -0.000001 -0.005328 0.000000
# 3 -0.015057 -0.006706 0.023780 0.000000 0.026739 0.000000
# 4 0.000000 -0.000001 0.000000 0.051291 0.000001 -0.002584
# 5 -0.024905 -0.005328 0.026739 0.000001 0.108315 0.000000
# 6 0.000000 0.000000 0.000000 -0.002584 0.000000 0.046378
#
#
# Mechanical properties :
#
#
# Convention : Reuss Voigt Hill
#
# Bulk Modulus (GPa) = 40.08314 53.34632 46.71473
# Shear Modulus (GPa) = 14.76836 19.60651 17.18743
#
# Velocity S-wave (km/s) = 2.85393 3.28834 3.07881
# Velocity P-wave (km/s) = 5.74162 6.62108 6.19697
#
# Compressibility (1/GPa) = 0.02494815
#
# Stress axis : x y z
#
# Youngs Moduli (GPa) = 45.62388 34.59358 42.05263
#
# Poissons Ratio (x) = 0.10606 0.63318
# Poissons Ratio (y) = 0.13988 0.28199
# Poissons Ratio (z) = 0.68695 0.23197
#
# Static dielectric constant tensor:
#      x y z
#    x 1.663370 0.000000 -0.019690 
#    y 0.000000 1.642980 0.000000 
#    z -0.019690 0.000000 1.615420 
# 
# From -- ./inp_files/324113.got.cif
#   From: 2010.05.17/outbox.cif.g08.bks.cpg/sg12_163_cif.got.tgz:324113.got - 2010.06.03 13:09:07.
