data_PCOD9173019
_publ_section_title
;
Structure prediction by ZEFSAII (Michael W. Deem and Ramdas Pophale) SiO2 
 PCOD9173019
Probable space group: C 2/M
;
_chemical_formula_sum "Si O2"
_cell_formula_units_Z 40
_cell_length_a 20.880505
_cell_length_b 8.655934
_cell_length_c 21.844166
_cell_angle_alpha 90.000000
_cell_angle_beta 35.379174
_cell_angle_gamma 90.000000
_cell_volume 2285.901971
_symmetry_space_group_name_H-M "C 2/M"
_symmetry_group_IT_number 12
_symmetry_cell_setting 'monoclinic'
loop_
_space_group_symop_operation_xyz
x,y,z
-x,y,-z
-x,-y,-z
x,-y,z
1/2+x,1/2+y,z
1/2-x,1/2+y,-z
1/2-x,1/2-y,-z
1/2+x,1/2-y,z
loop_
_atom_site_type_symbol
_atom_site_label
_atom_site_fract_x
_atom_site_fract_y
_atom_site_fract_z
Si Si1 0.621448 0.816339 0.225273
Si Si2 0.316670 0.184600 0.006865
Si Si3 0.016569 0.814534 0.557739
Si Si4 0.744003 0.814975 0.573464
Si Si5 0.012405 0.184396 0.787215
O O1 0.744232 0.748076 0.119345
O O2 0.568219 0.768812 0.330860
O O3 0.543579 0.745525 0.232313
O O4 0.624001 0.000000 0.215439
O O5 0.439612 0.247277 0.899499
O O6 0.315440 0.000000 0.007034
O O7 0.250000 0.250000 0.000000
O O8 0.140972 0.778822 0.482675
O O9 0.000000 0.772960 0.500000
O O10 0.001033 0.000000 0.576161
O O11 0.750000 0.750000 0.500000
O O12 0.637951 0.741483 0.688807
O O13 0.730906 0.000000 0.581283
O O14 0.005821 0.000000 0.792535
#
# Coordination Sequence:
#
# PCOD9173019 Si02
#       5
#     8   8   8   8   8
#     4  11  20  32  52  78 109 142 180 223 271 322
#     4  10  18  30  49  75 107 140 177 220 271 322
#     4  10  22  39  57  78 108 147 186 222 267 325
#     4  11  21  34  55  81 110 143 180 224 273 322
#     4  11  20  32  51  78 111 142 178 223 272 321
#
# _framework density 17.498563999999998
#
# number of rings (size 3 to 8) (size 9 to 14) (size 15 to 20)
#    0.000    1.400    2.000    8.400    0.000    1.200 
#    0.000    0.000    0.000    1.200    0.000    8.400 
#    0.000    0.000    0.000    0.000    0.000    0.000 
#
# Total GULP energy -111691.545188 kJ/mol
# GULP energy per Si atom -5584.577259 kJ/mol
# Density = 1.745874 g / cm^3
# Si number density = 17.498564 Si / 1000 Ang^3
#
#
#
# Elastic Constant Matrix: (Units=GPa)
#
#
# Indices 1 2 3 4 5 6 
#
# 1 72.7012 45.1186 51.4069 0.0000 2.7860 0.0000
# 2 45.1186 148.7348 92.5623 -0.0001 -0.1959 0.0001
# 3 51.4069 92.5623 195.2961 0.0000 -5.0691 0.0000
# 4 0.0000 -0.0001 0.0000 38.1241 0.0000 0.1545
# 5 2.7860 -0.1959 -5.0691 0.0000 16.1845 0.0000
# 6 0.0000 0.0001 0.0000 0.1545 0.0000 15.4125
#
#
#
# Elastic Compliance Matrix: (Units=1/GPa)
#
#
# Indices 1 2 3 4 5 6 
#
# 1 0.018445 -0.003561 -0.003278 0.000000 -0.004245 0.000000
# 2 -0.003561 0.010251 -0.003934 0.000000 -0.000495 0.000000
# 3 -0.003278 -0.003934 0.007926 0.000000 0.002999 0.000000
# 4 0.000000 0.000000 0.000000 0.026231 0.000000 -0.000263
# 5 -0.004245 -0.000495 0.002999 0.000000 0.063452 0.000000
# 6 0.000000 0.000000 0.000000 -0.000263 0.000000 0.064885
#
#
# Mechanical properties :
#
#
# Convention : Reuss Voigt Hill
#
# Bulk Modulus (GPa) = 66.32901 88.32307 77.32604
# Shear Modulus (GPa) = 22.96088 29.12049 26.04068
#
# Velocity S-wave (km/s) = 3.62630 4.08384 3.86185
# Velocity P-wave (km/s) = 7.45125 8.53353 8.01069
#
# Compressibility (1/GPa) = 0.01507636
#
# Stress axis : x y z
#
# Youngs Moduli (GPa) = 54.21444 97.54783 126.17262
#
# Poissons Ratio (x) = 0.34739 0.41354
# Poissons Ratio (y) = 0.19307 0.49639
# Poissons Ratio (z) = 0.17769 0.38377
#
# Static dielectric constant tensor:
#      x y z
#    x 1.572250 0.000000 -0.004890 
#    y 0.000000 1.585490 0.000000 
#    z -0.004890 0.000000 1.636640 
# 
# From -- ./inp_files/313533.got.cif
#   From: 2010.05.17/outbox.cif.g08.bks.cpg/sg12_157_cif.got.tgz:313533.got - 2010.06.03 13:09:07.
