data_PCOD9173240
_publ_section_title
;
Structure prediction by ZEFSAII (Michael W. Deem and Ramdas Pophale) SiO2 
 PCOD9173240
Probable space group: C 2/M
;
_chemical_formula_sum "Si O2"
_cell_formula_units_Z 48
_cell_length_a 16.232972
_cell_length_b 7.462730
_cell_length_c 19.459808
_cell_angle_alpha 90.000000
_cell_angle_beta 131.495612
_cell_angle_gamma 90.000000
_cell_volume 1765.712072
_symmetry_space_group_name_H-M "C 2/M"
_symmetry_group_IT_number 12
_symmetry_cell_setting 'monoclinic'
loop_
_space_group_symop_operation_xyz
x,y,z
-x,y,-z
-x,-y,-z
x,-y,z
1/2+x,1/2+y,z
1/2-x,1/2+y,-z
1/2-x,1/2-y,-z
1/2+x,1/2-y,z
loop_
_atom_site_type_symbol
_atom_site_label
_atom_site_fract_x
_atom_site_fract_y
_atom_site_fract_z
Si Si1 0.733890 0.219313 0.384922
Si Si2 0.465848 0.716066 0.058971
Si Si3 0.989759 0.709780 0.271693
Si Si4 0.202432 0.706317 0.218171
Si Si5 0.733598 0.205765 0.899138
Si Si6 0.037416 0.783632 0.445166
O O1 0.611798 0.287690 0.332566
O O2 0.756918 0.270686 0.318417
O O3 0.834896 0.277287 0.488017
O O4 0.731849 0.000000 0.385596
O O5 0.465197 0.500000 0.062740
O O6 0.570137 0.784148 0.158912
O O7 0.500000 0.767321 0.000000
O O8 0.340234 0.781956 0.997633
O O9 0.994328 0.500000 0.256454
O O10 0.887982 0.789787 0.172549
O O11 0.969072 0.721091 0.342023
O O12 0.233291 0.500000 0.225101
O O13 0.228666 0.798178 0.160665
O O14 0.724162 0.000000 0.914683
O O15 0.000000 0.726744 0.500000
O O16 0.033271 0.000000 0.441742
#
# Coordination Sequence:
#
# PCOD9173240 Si02
#       6
#     8   8   8   8   8   8
#     4   9  19  34  50  71 101 133 160 194 246 295
#     4   8  15  29  47  69  98 129 161 199 244 287
#     4  10  20  35  53  72  97 130 167 201 235 286
#     4  10  18  30  51  75  98 127 164 203 241 286
#     4   9  18  32  50  71  97 130 164 201 245 287
#     4  10  20  35  54  75 100 128 158 198 248 293
#
# _framework density 27.1845
#
# number of rings (size 3 to 8) (size 9 to 14) (size 15 to 20)
#    0.000    2.667    0.000    3.000    0.000    5.333 
#    0.000    4.167    0.000    0.000    0.000    0.000 
#    0.000    0.000    0.000    0.000    0.000    0.000 
#
# Total GULP energy -134267.995542 kJ/mol
# GULP energy per Si atom -5594.499814 kJ/mol
# Density = 2.712263 g / cm^3
# Si number density = 27.184500 Si / 1000 Ang^3
#
#
#
# Elastic Constant Matrix: (Units=GPa)
#
#
# Indices 1 2 3 4 5 6 
#
# 1 105.7254 9.2723 28.5740 0.0000 20.1488 0.0000
# 2 9.2723 93.0719 2.7945 0.0000 -2.9956 0.0000
# 3 28.5740 2.7945 185.7983 0.0000 20.2338 0.0000
# 4 0.0000 0.0000 0.0000 0.8340 0.0000 -3.4832
# 5 20.1488 -2.9956 20.2338 0.0000 56.4378 0.0000
# 6 0.0000 0.0000 0.0000 -3.4832 0.0000 17.9507
#
#
#
# Elastic Compliance Matrix: (Units=1/GPa)
#
#
# Indices 1 2 3 4 5 6 
#
# 1 0.010534 -0.001121 -0.001235 0.000000 -0.003377 0.000000
# 2 -0.001121 0.010892 -0.000102 0.000000 0.001015 0.000000
# 3 -0.001235 -0.000102 0.005751 0.000000 -0.001626 0.000000
# 4 0.000000 0.000000 0.000000 6.325640 0.000000 1.227431
# 5 -0.003377 0.001015 -0.001626 0.000000 0.019561 0.000000
# 6 0.000000 0.000000 0.000000 1.227431 0.000000 0.293880
#
#
# Mechanical properties :
#
#
# Convention : Reuss Voigt Hill
#
# Bulk Modulus (GPa) = 44.92350 51.76412 48.34381
# Shear Modulus (GPa) = 0.74866 37.97480 19.36173
#
# Velocity S-wave (km/s) = 0.52535 3.74161 2.67167
# Velocity P-wave (km/s) = 4.11452 6.14404 5.22870
#
# Compressibility (1/GPa) = 0.02226006
#
# Stress axis : x y z
#
# Youngs Moduli (GPa) = 94.92765 91.81221 173.88899
#
# Poissons Ratio (x) = 0.10293 0.21482
# Poissons Ratio (y) = 0.10642 0.01772
# Poissons Ratio (z) = 0.11727 0.00936
#
# Static dielectric constant tensor:
#      x y z
#    x 2.254170 0.000000 0.032830 
#    y 0.000000 2.005580 0.000000 
#    z 0.032830 0.000000 2.079410 
# 
# From -- ./inp_files/229293.got.cif
#   From: 2010.05.17/outbox.cif.g08.bks.cpg/sg12_115_cif.got.tgz:229293.got - 2010.06.03 13:09:07.
