data_PCOD9173985
_publ_section_title
;
Structure prediction by ZEFSAII (Michael W. Deem and Ramdas Pophale) SiO2 
 PCOD9173985
Probable space group: C 2/M
;
_chemical_formula_sum "Si O2"
_cell_formula_units_Z 48
_cell_length_a 21.194366
_cell_length_b 7.532638
_cell_length_c 28.058136
_cell_angle_alpha 90.000000
_cell_angle_beta 32.723766
_cell_angle_gamma 90.000000
_cell_volume 2421.552063
_symmetry_space_group_name_H-M "C 2/M"
_symmetry_group_IT_number 12
_symmetry_cell_setting 'monoclinic'
loop_
_space_group_symop_operation_xyz
x,y,z
-x,y,-z
-x,-y,-z
x,-y,z
1/2+x,1/2+y,z
1/2-x,1/2+y,-z
1/2-x,1/2-y,-z
1/2+x,1/2-y,z
loop_
_atom_site_type_symbol
_atom_site_label
_atom_site_fract_x
_atom_site_fract_y
_atom_site_fract_z
Si Si1 0.498884 0.783057 0.731476
Si Si2 0.746705 0.712878 0.446012
Si Si3 0.486875 0.288487 0.455125
Si Si4 0.370181 0.282837 0.069350
Si Si5 0.644827 0.787140 0.268997
Si Si6 0.225210 0.287787 0.070610
O O1 0.631118 0.721408 0.653575
O O2 0.448416 0.727688 0.711897
O O3 0.402215 0.724129 0.831023
O O4 0.500727 0.000000 0.730653
O O5 0.745738 0.500000 0.441164
O O6 0.750000 0.750000 0.500000
O O7 0.628784 0.784069 0.497362
O O8 0.500000 0.216607 0.500000
O O9 0.471054 0.500000 0.469204
O O10 0.597989 0.262085 0.350434
O O11 0.372588 0.500000 0.067727
O O12 0.272010 0.227116 0.170270
O O13 0.320678 0.225583 0.048981
O O14 0.500000 0.222608 0.000000
O O15 0.646840 0.000000 0.265545
O O16 0.223415 0.500000 0.076805
O O17 0.250000 0.250000 0.000000
#
# Coordination Sequence:
#
# PCOD9173985 Si02
#       6
#     8   8   8   8   8   8
#     4   8  15  29  49  70  90 120 160 191 227 276
#     4  10  18  31  52  71  92 123 160 198 229 275
#     4  10  21  34  46  68 102 132 153 186 242 290
#     4   8  15  30  52  73  93 122 160 196 234 280
#     4   9  16  30  53  73  90 121 163 201 230 270
#     4   9  17  31  50  71  97 125 152 191 237 281
#
# _framework density 19.821999000000002
#
# number of rings (size 3 to 8) (size 9 to 14) (size 15 to 20)
#    0.000    3.000    1.667    2.000    0.000    0.333 
#    3.000    4.167    0.000    1.000    0.000    0.000 
#    0.000    0.000    0.000    0.000    0.000    0.000 
#
# Total GULP energy -133809.546683 kJ/mol
# GULP energy per Si atom -5575.397778 kJ/mol
# Density = 1.977688 g / cm^3
# Si number density = 19.821999 Si / 1000 Ang^3
#
#
#
# Elastic Constant Matrix: (Units=GPa)
#
#
# Indices 1 2 3 4 5 6 
#
# 1 145.5533 5.7245 118.8684 0.0024 -2.4998 -0.0046
# 2 5.7245 47.2215 0.5479 0.0096 -4.4234 0.0021
# 3 118.8684 0.5479 182.3602 0.0018 3.1862 0.0026
# 4 0.0024 0.0096 0.0018 18.4451 0.0000 8.4651
# 5 -2.4998 -4.4234 3.1862 0.0000 40.4208 0.0008
# 6 -0.0046 0.0021 0.0026 8.4651 0.0008 10.3348
#
#
#
# Elastic Compliance Matrix: (Units=1/GPa)
#
#
# Indices 1 2 3 4 5 6 
#
# 1 0.014915 -0.001553 -0.009744 -0.000007 0.001521 0.000015
# 2 -0.001553 0.021560 0.000909 -0.000014 0.002192 0.000006
# 3 -0.009744 0.000909 0.011858 0.000005 -0.001438 -0.000011
# 4 -0.000007 -0.000014 0.000005 0.086870 -0.000001 -0.071155
# 5 0.001521 0.002192 -0.001438 -0.000001 0.025187 0.000000
# 6 0.000015 0.000006 -0.000011 -0.071155 0.000000 0.155043
#
#
# Mechanical properties :
#
#
# Convention : Reuss Voigt Hill
#
# Bulk Modulus (GPa) = 36.28835 69.49070 52.88953
# Shear Modulus (GPa) = 14.47623 30.50643 22.49133
#
# Velocity S-wave (km/s) = 2.70536 3.92729 3.37213
# Velocity P-wave (km/s) = 5.30146 7.46313 6.47317
#
# Compressibility (1/GPa) = 0.02755706
#
# Stress axis : x y z
#
# Youngs Moduli (GPa) = 67.04572 46.38265 84.33429
#
# Poissons Ratio (x) = 0.07201 0.82176
# Poissons Ratio (y) = 0.10410 -0.07666
# Poissons Ratio (z) = 0.65330 -0.04216
#
# Static dielectric constant tensor:
#      x y z
#    x 1.685690 0.000000 -0.014550 
#    y 0.000000 1.754180 0.000000 
#    z -0.014550 0.000000 1.705350 
# 
# From -- ./inp_files/345387.got.cif
#   From: 2010.05.17/outbox.cif.g08.bks.cpg/sg12_173_cif.got.tgz:345387.got - 2010.06.03 13:09:07.
