data_PCOD9173782
_publ_section_title
;
Structure prediction by ZEFSAII (Michael W. Deem and Ramdas Pophale) SiO2 
 PCOD9173782
Probable space group: C 2/M
;
_chemical_formula_sum "Si O2"
_cell_formula_units_Z 48
_cell_length_a 22.914346
_cell_length_b 8.691530
_cell_length_c 20.205782
_cell_angle_alpha 90.000000
_cell_angle_beta 136.184454
_cell_angle_gamma 90.000000
_cell_volume 2786.109293
_symmetry_space_group_name_H-M "C 2/M"
_symmetry_group_IT_number 12
_symmetry_cell_setting 'monoclinic'
loop_
_space_group_symop_operation_xyz
x,y,z
-x,y,-z
-x,-y,-z
x,-y,z
1/2+x,1/2+y,z
1/2-x,1/2+y,-z
1/2-x,1/2-y,-z
1/2+x,1/2-y,z
loop_
_atom_site_type_symbol
_atom_site_label
_atom_site_fract_x
_atom_site_fract_y
_atom_site_fract_z
Si Si1 0.697568 0.683797 0.519625
Si Si2 0.188654 0.684592 0.040121
Si Si3 0.375872 0.317007 0.147081
Si Si4 0.843525 0.182856 0.713715
Si Si5 0.947655 0.317141 0.674990
Si Si6 0.903932 0.684477 0.901048
O O1 0.699687 0.500000 0.520957
O O2 0.750000 0.750000 0.500000
O O3 0.750101 0.748779 0.624268
O O4 0.603950 0.744130 0.428439
O O5 0.178674 0.500000 0.023453
O O6 0.287031 0.721400 0.109548
O O7 0.154638 0.725195 0.084453
O O8 0.136557 0.766192 0.939281
O O9 0.388919 0.500000 0.161163
O O10 0.455415 0.232032 0.243323
O O11 0.904382 0.253506 0.706961
O O12 0.877240 0.230139 0.812800
O O13 0.841665 0.000000 0.703671
O O14 0.938137 0.500000 0.665924
O O15 0.897754 0.500000 0.884663
O O16 0.000000 0.718315 0.000000
#
# Coordination Sequence:
#
# PCOD9173782 Si02
#       6
#     8   8   8   8   8   8
#     4  10  18  31  50  73 101 131 164 203 249 297
#     4   9  19  34  51  73 103 137 169 204 249 298
#     4  10  19  32  51  75 102 132 169 210 250 294
#     4  11  21  33  50  75 105 134 165 204 251 298
#     4  11  20  32  51  75 102 132 168 208 252 297
#     4  10  20  34  52  74 102 136 170 202 243 297
#
# _framework density 17.228327
#
# number of rings (size 3 to 8) (size 9 to 14) (size 15 to 20)
#    0.000    1.833    0.000    8.000    0.000    3.000 
#    0.000    0.000    0.000    1.000    0.000    7.000 
#    0.000    0.000    0.000    0.000    0.000    0.000 
#
# Total GULP energy -133987.131290 kJ/mol
# GULP energy per Si atom -5582.797137 kJ/mol
# Density = 1.718911 g / cm^3
# Si number density = 17.228327 Si / 1000 Ang^3
#
#
#
# Elastic Constant Matrix: (Units=GPa)
#
#
# Indices 1 2 3 4 5 6 
#
# 1 46.7912 27.2213 33.6699 0.0000 1.3901 0.0000
# 2 27.2213 119.4658 65.3191 0.0000 8.9993 0.0000
# 3 33.6699 65.3191 126.8886 0.0000 15.5038 0.0000
# 4 0.0000 0.0000 0.0000 33.6326 0.0000 2.7468
# 5 1.3901 8.9993 15.5038 0.0000 23.5855 0.0000
# 6 0.0000 0.0000 0.0000 2.7468 0.0000 18.8926
#
#
#
# Elastic Compliance Matrix: (Units=1/GPa)
#
#
# Indices 1 2 3 4 5 6 
#
# 1 0.027514 -0.003212 -0.006088 0.000000 0.003606 0.000000
# 2 -0.003212 0.012031 -0.005223 0.000000 -0.000968 0.000000
# 3 -0.006088 -0.005223 0.012936 0.000000 -0.006152 0.000000
# 4 0.000000 0.000000 0.000000 0.030090 0.000000 -0.004375
# 5 0.003606 -0.000968 -0.006152 0.000000 0.046600 0.000000
# 6 0.000000 0.000000 0.000000 -0.004375 0.000000 0.053567
#
#
# Mechanical properties :
#
#
# Convention : Reuss Voigt Hill
#
# Bulk Modulus (GPa) = 42.66944 60.61847 51.64396
# Shear Modulus (GPa) = 22.76912 26.35116 24.56014
#
# Velocity S-wave (km/s) = 3.63934 3.91516 3.77976
# Velocity P-wave (km/s) = 6.51771 7.46322 7.00643
#
# Compressibility (1/GPa) = 0.02343597
#
# Stress axis : x y z
#
# Youngs Moduli (GPa) = 36.34537 83.11879 77.30100
#
# Poissons Ratio (x) = 0.26701 0.47059
# Poissons Ratio (y) = 0.11675 0.40371
# Poissons Ratio (z) = 0.22126 0.43409
#
# Static dielectric constant tensor:
#      x y z
#    x 1.579680 0.000000 0.020990 
#    y 0.000000 1.579560 0.000000 
#    z 0.020990 0.000000 1.597930 
# 
# From -- ./inp_files/281838.got.cif
#   From: 2010.05.17/outbox.cif.g08.bks.cpg/sg12_141_cif.got.tgz:281838.got - 2010.06.03 13:09:07.
