data_PCOD9173972
_publ_section_title
;
Structure prediction by ZEFSAII (Michael W. Deem and Ramdas Pophale) SiO2 
 PCOD9173972
Probable space group: C 2/M
;
_chemical_formula_sum "Si O2"
_cell_formula_units_Z 60
_cell_length_a 21.033488
_cell_length_b 22.296972
_cell_length_c 15.256778
_cell_angle_alpha 90.000000
_cell_angle_beta 28.922567
_cell_angle_gamma 90.000000
_cell_volume 3460.435025
_symmetry_space_group_name_H-M "C 2/M"
_symmetry_group_IT_number 12
_symmetry_cell_setting 'monoclinic'
loop_
_space_group_symop_operation_xyz
x,y,z
-x,y,-z
-x,-y,-z
x,-y,z
1/2+x,1/2+y,z
1/2-x,1/2+y,-z
1/2-x,1/2-y,-z
1/2+x,1/2-y,z
loop_
_atom_site_type_symbol
_atom_site_label
_atom_site_fract_x
_atom_site_fract_y
_atom_site_fract_z
Si Si1 0.681575 0.932897 0.605860
Si Si2 0.648175 0.165164 0.152996
Si Si3 0.657630 0.121400 0.815501
Si Si4 0.500000 0.194077 0.500000
Si Si5 0.260811 0.250379 0.264220
Si Si6 0.812516 0.189801 0.381398
Si Si7 0.865677 0.431567 0.968991
Si Si8 0.592247 0.730162 0.091458
O O1 0.695285 0.924869 0.694191
O O2 0.746061 0.873803 0.484841
O O3 0.524888 0.930027 0.778418
O O4 0.727222 0.000000 0.524030
O O5 0.561934 0.157673 0.344394
O O6 0.674751 0.106041 0.066222
O O7 0.575717 0.212145 0.174528
O O8 0.786501 0.193759 0.014235
O O9 0.731348 0.183433 0.707941
O O10 0.500000 0.131661 0.000000
O O11 0.684008 0.098360 0.881263
O O12 0.381793 0.233448 0.602303
O O13 0.301456 0.296817 0.290737
O O14 0.361162 0.250115 0.061401
O O15 0.750000 0.250000 0.500000
O O16 0.961379 0.192110 0.236810
O O17 0.823059 0.500000 0.017170
#
# Coordination Sequence:
#
# PCOD9173972 Si02
#       8
#     8   8   8   4   8   8   8   8
#     4  10  21  34  51  79 116 148 178 225 275 319
#     4  10  20  36  53  77 108 141 177 220 278 323
#     4  10  18  31  51  80 111 141 178 223 271 317
#     4  10  22  34  51  80 113 140 166 224 280 322
#     4  11  20  33  55  82 111 137 176 226 274 322
#     4  12  21  33  56  83 107 140 185 226 267 321
#     4  10  19  34  55  77 107 147 186 220 263 326
#     4  10  21  35  54  77 108 140 175 229 275 315
#
# _framework density 17.338861000000001
#
# number of rings (size 3 to 8) (size 9 to 14) (size 15 to 20)
#    0.000    1.600    2.667    4.000    0.000    1.600 
#    0.000    1.000    0.000    4.800    0.000    2.800 
#    0.000    0.000    0.000    0.000    0.000    0.000 
#
# Total GULP energy -167367.677117 kJ/mol
# GULP energy per Si atom -5578.922571 kJ/mol
# Density = 1.729940 g / cm^3
# Si number density = 17.338861 Si / 1000 Ang^3
#
#
#
# Elastic Constant Matrix: (Units=GPa)
#
#
# Indices 1 2 3 4 5 6 
#
# 1 75.8825 33.8349 25.4992 0.0008 22.6083 -0.0004
# 2 33.8349 111.0278 22.4440 0.0005 15.0927 -0.0004
# 3 25.4992 22.4440 42.9674 0.0028 15.0375 -0.0016
# 4 0.0008 0.0005 0.0028 21.8074 -0.0020 3.4372
# 5 22.6083 15.0927 15.0375 -0.0020 27.4554 0.0010
# 6 -0.0004 -0.0004 -0.0016 3.4372 0.0010 21.3605
#
#
#
# Elastic Compliance Matrix: (Units=1/GPa)
#
#
# Indices 1 2 3 4 5 6 
#
# 1 0.020139 -0.003335 -0.006244 -0.000001 -0.011331 0.000001
# 2 -0.003335 0.010867 -0.003177 0.000000 -0.001488 0.000000
# 3 -0.006244 -0.003177 0.032448 -0.000005 -0.010883 0.000004
# 4 -0.000001 0.000000 -0.000005 0.047049 0.000007 -0.007571
# 5 -0.011331 -0.001488 -0.010883 0.000007 0.052532 -0.000005
# 6 0.000001 0.000000 0.000004 -0.007571 -0.000005 0.048034
#
#
# Mechanical properties :
#
#
# Convention : Reuss Voigt Hill
#
# Bulk Modulus (GPa) = 26.35583 43.71487 35.03535
# Shear Modulus (GPa) = 20.06191 23.99797 22.02994
#
# Velocity S-wave (km/s) = 3.40523 3.72433 3.56835
# Velocity P-wave (km/s) = 5.54024 6.61521 6.10144
#
# Compressibility (1/GPa) = 0.03794227
#
# Stress axis : x y z
#
# Youngs Moduli (GPa) = 49.65404 92.01776 30.81899
#
# Poissons Ratio (x) = 0.30686 0.19245
# Poissons Ratio (y) = 0.16559 0.09791
# Poissons Ratio (z) = 0.31006 0.29232
#
# Static dielectric constant tensor:
#      x y z
#    x 1.598860 0.000000 0.014600 
#    y 0.000000 1.579990 0.000000 
#    z 0.014600 0.000000 1.602720 
# 
# From -- ./inp_files/235185.got.cif
#   From: 2010.05.17/outbox.cif.g08.bks.cpg/sg12_118_cif.got.tgz:235185.got - 2010.06.03 13:09:07.
