data_PCOD9173127
_publ_section_title
;
Structure prediction by ZEFSAII (Michael W. Deem and Ramdas Pophale) SiO2 
 PCOD9173127
Probable space group: C 2/M
;
_chemical_formula_sum "Si O2"
_cell_formula_units_Z 64
_cell_length_a 18.442228
_cell_length_b 10.130659
_cell_length_c 18.340851
_cell_angle_alpha 90.000000
_cell_angle_beta 114.089874
_cell_angle_gamma 90.000000
_cell_volume 3128.216369
_symmetry_space_group_name_H-M "C 2/M"
_symmetry_group_IT_number 12
_symmetry_cell_setting 'monoclinic'
loop_
_space_group_symop_operation_xyz
x,y,z
-x,y,-z
-x,-y,-z
x,-y,z
1/2+x,1/2+y,z
1/2-x,1/2+y,-z
1/2-x,1/2-y,-z
1/2+x,1/2-y,z
loop_
_atom_site_type_symbol
_atom_site_label
_atom_site_fract_x
_atom_site_fract_y
_atom_site_fract_z
Si Si1 0.095079 0.842042 0.528656
Si Si2 0.058497 0.259621 0.750238
Si Si3 0.977988 0.346777 0.868200
Si Si4 0.800280 0.850628 0.109449
Si Si5 0.664080 0.145528 0.673674
Si Si6 0.894569 0.154624 0.629640
Si Si7 0.342160 0.656907 0.765762
Si Si8 0.640518 0.154316 0.990503
O O1 0.141801 0.758378 0.607550
O O2 0.119409 0.793652 0.457437
O O3 0.000000 0.822415 0.500000
O O4 0.109084 0.000000 0.541173
O O5 0.134399 0.169960 0.801933
O O6 0.095100 0.355498 0.705537
O O7 0.022079 0.328226 0.807400
O O8 0.987041 0.177267 0.686243
O O9 0.953427 0.500000 0.867678
O O10 0.905137 0.245243 0.835238
O O11 0.047541 0.313946 0.954826
O O12 0.825901 0.745180 0.059683
O O13 0.809634 0.000000 0.085306
O O14 0.705499 0.832059 0.081507
O O15 0.749601 0.169348 0.746297
O O16 0.669683 0.000000 0.640918
O O17 0.849189 0.202027 0.683366
O O18 0.877955 0.000000 0.618436
O O19 0.363539 0.500000 0.779162
O O20 0.641808 0.000000 0.969965
#
# Coordination Sequence:
#
# PCOD9173127 Si02
#       8
#     8   8   8   8   8   8   8   8
#     4  10  20  35  54  77 103 132 165 204 250 300
#     4  10  18  30  50  75 102 132 167 208 249 297
#     4   9  17  31  51  74 100 131 166 205 250 295
#     4   9  16  26  45  74 103 134 170 207 250 300
#     4  11  23  37  52  75 104 133 165 208 258 303
#     4   9  17  33  53  73  99 130 166 208 248 291
#     4   9  20  36  53  73 100 132 169 209 250 298
#     4   8  15  27  44  71 107 136 164 208 255 297
#
# _framework density 20.458943999999999
#
# number of rings (size 3 to 8) (size 9 to 14) (size 15 to 20)
#    0.000    2.625    1.250    0.750    0.000    5.250 
#    0.000    0.625    0.000    0.750    0.000    4.375 
#    0.000    0.000    0.000    0.000    0.000    0.000 
#
# Total GULP energy -178196.007532 kJ/mol
# GULP energy per Si atom -5568.625235 kJ/mol
# Density = 2.041238 g / cm^3
# Si number density = 20.458944 Si / 1000 Ang^3
#
#
#
# Elastic Constant Matrix: (Units=GPa)
#
#
# Indices 1 2 3 4 5 6 
#
# 1 68.1271 19.6854 5.6628 0.0000 -2.8292 0.0000
# 2 19.6854 50.0768 24.6731 0.0000 14.0892 0.0000
# 3 5.6628 24.6731 55.2888 0.0000 20.2348 0.0000
# 4 0.0000 0.0000 0.0000 23.7099 0.0000 23.1261
# 5 -2.8292 14.0892 20.2348 0.0000 18.6040 0.0000
# 6 0.0000 0.0000 0.0000 23.1261 0.0000 -40.4251
#
#
#
# Elastic Compliance Matrix: (Units=1/GPa)
#
#
# Indices 1 2 3 4 5 6 
#
# 1 0.018117 -0.009542 -0.002077 0.000000 0.012241 0.000000
# 2 -0.009542 0.032214 -0.006543 0.000000 -0.018731 0.000000
# 3 -0.002077 -0.006543 0.032432 0.000000 -0.030635 0.000000
# 4 0.000000 0.000000 0.000000 0.027071 0.000000 0.015487
# 5 0.012241 -0.018731 -0.030635 0.000000 0.103119 0.000000
# 6 0.000000 0.000000 0.000000 0.015487 0.000000 -0.015878
#
#
# Mechanical properties :
#
#
# Convention : Reuss Voigt Hill
#
# Bulk Modulus (GPa) = 21.53469 30.39280 25.96374
# Shear Modulus (GPa) = 20.09005 8.60920 14.34963
#
# Velocity S-wave (km/s) = 3.13704 2.05358 2.65124
# Velocity P-wave (km/s) = 4.86518 4.52887 4.70003
#
# Compressibility (1/GPa) = 0.04643670
#
# Stress axis : x y z
#
# Youngs Moduli (GPa) = 55.19769 31.04208 30.83416
#
# Poissons Ratio (x) = 0.29621 0.06405
# Poissons Ratio (y) = 0.52671 0.20176
# Poissons Ratio (z) = 0.11466 0.20312
#
# Static dielectric constant tensor:
#      x y z
#    x 1.762720 0.000000 -0.013950 
#    y 0.000000 1.691920 0.000000 
#    z -0.013950 0.000000 1.764650 
# 
# From -- ./inp_files/315733.got.cif
#   From: 2010.05.17/outbox.cif.g08.bks.cpg/sg12_158_cif.got.tgz:315733.got - 2010.06.03 13:09:07.
