data_PCOD9173790
_publ_section_title
;
Structure prediction by ZEFSAII (Michael W. Deem and Ramdas Pophale) SiO2 
 PCOD9173790
Probable space group: C 2/M
;
_chemical_formula_sum "Si O2"
_cell_formula_units_Z 64
_cell_length_a 19.932900
_cell_length_b 22.979561
_cell_length_c 8.661649
_cell_angle_alpha 90.000000
_cell_angle_beta 123.216221
_cell_angle_gamma 90.000000
_cell_volume 3319.215602
_symmetry_space_group_name_H-M "C 2/M"
_symmetry_group_IT_number 12
_symmetry_cell_setting 'monoclinic'
loop_
_space_group_symop_operation_xyz
x,y,z
-x,y,-z
-x,-y,-z
x,-y,z
1/2+x,1/2+y,z
1/2-x,1/2+y,-z
1/2-x,1/2-y,-z
1/2+x,1/2-y,z
loop_
_atom_site_type_symbol
_atom_site_label
_atom_site_fract_x
_atom_site_fract_y
_atom_site_fract_z
Si Si1 0.952695 0.137993 0.184088
Si Si2 0.805782 0.154796 0.764213
Si Si3 0.162195 0.706779 0.756021
Si Si4 0.600907 0.565221 0.291397
Si Si5 0.125102 0.723102 0.219565
Si Si6 0.480124 0.770473 0.231697
Si Si7 0.244319 0.823511 0.810990
Si Si8 0.358268 0.565167 0.298661
O O1 0.982858 0.201595 0.270371
O O2 0.928375 0.094094 0.287792
O O3 0.023832 0.106811 0.181373
O O4 0.869781 0.148588 0.986047
O O5 0.715976 0.167203 0.710124
O O6 0.823585 0.097432 0.689806
O O7 0.836740 0.212727 0.716009
O O8 0.070491 0.699841 0.695091
O O9 0.176042 0.773504 0.717518
O O10 0.206895 0.696625 0.976531
O O11 0.588491 0.500000 0.214004
O O12 0.616724 0.561590 0.492781
O O13 0.198391 0.681646 0.265485
O O14 0.068499 0.708737 0.292923
O O15 0.070299 0.724912 0.993956
O O16 0.212515 0.887790 0.796042
O O17 0.339463 0.500000 0.218720
#
# Coordination Sequence:
#
# PCOD9173790 Si02
#       8
#     8   8   8   8   8   8   8   8
#     4  11  18  32  52  69  96 130 169 202 229 281
#     4  10  18  31  50  73  95 124 166 209 239 283
#     4   9  15  28  51  74  95 118 158 204 247 288
#     4  11  24  35  44  65 103 139 167 200 235 278
#     4   8  15  25  47  76  98 117 154 199 247 290
#     4   9  14  25  49  76  97 122 148 194 250 293
#     4   9  15  30  49  71  95 126 160 201 241 284
#     4  11  22  35  48  67  97 138 173 194 233 287
#
# _framework density 19.281663999999999
#
# number of rings (size 3 to 8) (size 9 to 14) (size 15 to 20)
#    0.000    2.250    3.750    2.625    0.000    2.500 
#    0.000    2.500    0.000    0.000    0.000    7.875 
#    0.000    2.000    0.000    0.000    0.000    0.000 
#
# Total GULP energy -178464.912391 kJ/mol
# GULP energy per Si atom -5577.028512 kJ/mol
# Density = 1.923778 g / cm^3
# Si number density = 19.281664 Si / 1000 Ang^3
#
#
#
# Elastic Constant Matrix: (Units=GPa)
#
#
# Indices 1 2 3 4 5 6 
#
# 1 193.7982 57.8523 13.9914 0.0000 -14.0466 0.0000
# 2 57.8523 86.4409 5.2163 0.0000 2.6224 0.0000
# 3 13.9914 5.2163 35.4501 0.0000 4.9754 0.0000
# 4 0.0000 0.0000 0.0000 3.1939 0.0000 -49.2705
# 5 -14.0466 2.6224 4.9754 0.0000 19.4291 0.0000
# 6 0.0000 0.0000 0.0000 -49.2705 0.0000 -135.3011
#
#
#
# Elastic Compliance Matrix: (Units=1/GPa)
#
#
# Indices 1 2 3 4 5 6 
#
# 1 0.007351 -0.004937 -0.003127 0.000000 0.006782 0.000000
# 2 -0.004937 0.015014 0.000544 0.000000 -0.005735 0.000000
# 3 -0.003127 0.000544 0.030797 0.000000 -0.010220 0.000000
# 4 0.000000 0.000000 0.000000 0.047313 0.000000 -0.017229
# 5 0.006782 -0.005735 -0.010220 0.000000 0.059763 0.000000
# 6 0.000000 0.000000 0.000000 -0.017229 0.000000 -0.001117
#
#
# Mechanical properties :
#
#
# Convention : Reuss Voigt Hill
#
# Bulk Modulus (GPa) = 26.23077 52.20101 39.21589
# Shear Modulus (GPa) = 26.75697 -6.62701 10.06498
#
# Velocity S-wave (km/s) = 3.72921 -1.85591 2.28721
# Velocity P-wave (km/s) = 5.67241 4.74754 5.23046
#
# Compressibility (1/GPa) = 0.03812316
#
# Stress axis : x y z
#
# Youngs Moduli (GPa) = 136.03584 66.60519 32.47072
#
# Poissons Ratio (x) = 0.32882 0.10152
# Poissons Ratio (y) = 0.67159 -0.01767
# Poissons Ratio (z) = 0.42533 -0.03624
#
# Static dielectric constant tensor:
#      x y z
#    x 1.733650 0.000000 -0.017270 
#    y 0.000000 1.646000 0.000000 
#    z -0.017270 0.000000 1.762750 
# 
# From -- ./inp_files/89619.got.cif
#   From: 2010.05.17/outbox.cif.g08.bks.cpg/sg12_45_cif.got.tgz:89619.got - 2010.06.03 13:09:07.
