data_PCOD9173784
_publ_section_title
;
Structure prediction by ZEFSAII (Michael W. Deem and Ramdas Pophale) SiO2 
 PCOD9173784
Probable space group: C 2/M
;
_chemical_formula_sum "Si O2"
_cell_formula_units_Z 64
_cell_length_a 10.411165
_cell_length_b 14.256093
_cell_length_c 25.829795
_cell_angle_alpha 90.000000
_cell_angle_beta 130.069308
_cell_angle_gamma 90.000000
_cell_volume 2933.819671
_symmetry_space_group_name_H-M "C 2/M"
_symmetry_group_IT_number 12
_symmetry_cell_setting 'monoclinic'
loop_
_space_group_symop_operation_xyz
x,y,z
-x,y,-z
-x,-y,-z
x,-y,z
1/2+x,1/2+y,z
1/2-x,1/2+y,-z
1/2-x,1/2-y,-z
1/2+x,1/2-y,z
loop_
_atom_site_type_symbol
_atom_site_label
_atom_site_fract_x
_atom_site_fract_y
_atom_site_fract_z
Si Si1 0.020303 0.885449 0.326972
Si Si2 0.324799 0.114337 0.481150
Si Si3 0.810859 0.610813 0.705040
Si Si4 0.374034 0.173071 0.149292
Si Si5 0.108558 0.614966 0.387067
Si Si6 0.272957 0.606319 0.713513
Si Si7 0.153220 0.165058 0.003030
Si Si8 0.570303 0.661749 0.142796
O O1 0.839035 0.850811 0.298278
O O2 0.163274 0.860034 0.405536
O O3 0.089334 0.851149 0.289487
O O4 0.007656 0.000000 0.321615
O O5 0.500000 0.145385 0.500000
O O6 0.312284 0.143786 0.537810
O O7 0.330390 0.000000 0.482478
O O8 0.781708 0.500000 0.692186
O O9 0.987226 0.622730 0.779965
O O10 0.812817 0.647823 0.646694
O O11 0.283459 0.119445 0.077469
O O12 0.467720 0.258890 0.146325
O O13 0.222670 0.201879 0.147910
O O14 0.112254 0.500000 0.386792
O O15 0.913946 0.645718 0.337102
O O16 0.249146 0.500000 0.688317
O O17 0.343166 0.603977 0.789423
O O18 0.250000 0.250000 0.000000
O O19 0.000000 0.199479 0.000000
O O20 0.057502 0.113501 0.931119
#
# Coordination Sequence:
#
# PCOD9173784 Si02
#       8
#     8   8   8   8   8   8   8   8
#     4   9  18  29  45  71 101 132 165 203 247 292
#     4   9  14  24  43  68  97 128 164 204 243 287
#     4  10  20  33  48  72 106 135 160 201 254 297
#     4  10  20  34  53  75 100 130 165 204 244 291
#     4   9  16  27  46  69  97 131 162 199 247 290
#     4  10  18  31  50  73 102 132 163 202 247 294
#     4   8  16  32  50  71  97 125 161 203 243 283
#     4  10  20  33  53  77  99 128 166 204 244 292
#
# _framework density 21.814565000000002
#
# number of rings (size 3 to 8) (size 9 to 14) (size 15 to 20)
#    0.000    2.625    2.500    0.000    1.750    0.500 
#    0.000    3.125    0.000    2.250    0.000    7.875 
#    0.000    0.000    0.000    0.000    0.000    0.000 
#
# Total GULP energy -178379.491013 kJ/mol
# GULP energy per Si atom -5574.359094 kJ/mol
# Density = 2.176491 g / cm^3
# Si number density = 21.814565 Si / 1000 Ang^3
#
#
#
# Elastic Constant Matrix: (Units=GPa)
#
#
# Indices 1 2 3 4 5 6 
#
# 1 138.2004 5.8080 47.3878 0.0000 -14.7671 0.0000
# 2 5.8080 42.6250 -17.8886 0.0000 -4.2670 0.0000
# 3 47.3878 -17.8886 135.8547 0.0000 -14.9990 0.0000
# 4 0.0000 0.0000 0.0000 22.9694 0.0000 -0.7975
# 5 -14.7671 -4.2670 -14.9990 0.0000 37.9030 0.0000
# 6 0.0000 0.0000 0.0000 -0.7975 0.0000 2.8438
#
#
#
# Elastic Compliance Matrix: (Units=1/GPa)
#
#
# Indices 1 2 3 4 5 6 
#
# 1 0.008591 -0.002281 -0.003091 0.000000 0.001867 0.000000
# 2 -0.002281 0.026119 0.004665 0.000000 0.003898 0.000000
# 3 -0.003091 0.004665 0.009388 0.000000 0.003036 0.000000
# 4 0.000000 0.000000 0.000000 0.043964 0.000000 0.012329
# 5 0.001867 0.003898 0.003036 0.000000 0.028751 0.000000
# 6 0.000000 0.000000 0.000000 0.012329 0.000000 0.355103
#
#
# Mechanical properties :
#
#
# Convention : Reuss Voigt Hill
#
# Bulk Modulus (GPa) = 23.42705 43.03274 33.22990
# Shear Modulus (GPa) = 10.25519 31.50144 20.87831
#
# Velocity S-wave (km/s) = 2.17055 3.80420 3.09703
# Velocity P-wave (km/s) = 4.12846 6.25022 5.29667
#
# Compressibility (1/GPa) = 0.04268569
#
# Stress axis : x y z
#
# Youngs Moduli (GPa) = 116.39996 38.28595 106.51418
#
# Poissons Ratio (x) = 0.08732 0.32922
# Poissons Ratio (y) = 0.26549 -0.49691
# Poissons Ratio (z) = 0.35977 -0.17861
#
# Static dielectric constant tensor:
#      x y z
#    x 1.792710 0.000000 -0.012040 
#    y 0.000000 1.823040 0.000000 
#    z -0.012040 0.000000 1.812400 
# 
# From -- ./inp_files/333606.got.cif
#   From: 2010.05.17/outbox.cif.g08.bks.cpg/sg12_167_cif.got.tgz:333606.got - 2010.06.03 13:09:07.
