data_PCOD9173802
_publ_section_title
;
Structure prediction by ZEFSAII (Michael W. Deem and Ramdas Pophale) SiO2 
 PCOD9173802
Probable space group: C 2/M
;
_chemical_formula_sum "Si O2"
_cell_formula_units_Z 56
_cell_length_a 19.838192
_cell_length_b 8.744515
_cell_length_c 29.194147
_cell_angle_alpha 90.000000
_cell_angle_beta 39.105006
_cell_angle_gamma 90.000000
_cell_volume 3194.379172
_symmetry_space_group_name_H-M "C 2/M"
_symmetry_group_IT_number 12
_symmetry_cell_setting 'monoclinic'
loop_
_space_group_symop_operation_xyz
x,y,z
-x,y,-z
-x,-y,-z
x,-y,z
1/2+x,1/2+y,z
1/2-x,1/2+y,-z
1/2-x,1/2-y,-z
1/2+x,1/2-y,z
loop_
_atom_site_type_symbol
_atom_site_label
_atom_site_fract_x
_atom_site_fract_y
_atom_site_fract_z
Si Si1 0.340076 0.684787 0.302420
Si Si2 0.600761 0.185685 0.418072
Si Si3 0.537213 0.684199 0.260105
Si Si4 0.630518 0.818110 0.814126
Si Si5 0.698498 0.316329 0.094170
Si Si6 0.408240 0.682292 0.947211
Si Si7 0.858161 0.316967 0.707594
O O1 0.345849 0.500000 0.293570
O O2 0.217082 0.726973 0.376826
O O3 0.424176 0.727665 0.297054
O O4 0.371362 0.757566 0.237321
O O5 0.500000 0.243325 0.500000
O O6 0.602894 0.232321 0.363634
O O7 0.595856 0.000000 0.421005
O O8 0.538980 0.500000 0.264144
O O9 0.628619 0.726208 0.174945
O O10 0.563768 0.760912 0.294015
O O11 0.522830 0.757980 0.894458
O O12 0.740090 0.752276 0.777116
O O13 0.633482 0.000000 0.813246
O O14 0.711480 0.500000 0.086962
O O15 0.633166 0.275596 0.082316
O O16 0.813931 0.238990 0.029976
O O17 0.418519 0.500000 0.943663
O O18 0.849746 0.500000 0.711946
#
# Coordination Sequence:
#
# PCOD9173802 Si02
#       7
#     8   8   8   8   8   8   8
#     4   9  17  32  54  78 104 137 175 213 254 305
#     4   8  15  31  56  81 103 133 173 212 252 304
#     4  10  19  34  52  74 107 141 173 211 260 312
#     4  11  20  32  52  76 102 135 178 220 261 309
#     4   9  18  31  48  72 103 137 172 214 262 308
#     4  10  18  31  50  74 103 134 175 220 262 305
#     4  10  21  35  53  76 105 137 173 215 260 310
#
# _framework density 17.530794
#
# number of rings (size 3 to 8) (size 9 to 14) (size 15 to 20)
#    0.000    2.429    1.429    3.000    0.000    1.714 
#    0.000    1.429    0.000   15.000    0.000    0.000 
#    0.000    0.000    0.000    0.000    0.000    0.000 
#
# Total GULP energy -156190.206782 kJ/mol
# GULP energy per Si atom -5578.221671 kJ/mol
# Density = 1.749089 g / cm^3
# Si number density = 17.530794 Si / 1000 Ang^3
#
#
#
# Elastic Constant Matrix: (Units=GPa)
#
#
# Indices 1 2 3 4 5 6 
#
# 1 114.7468 32.2986 56.3525 0.0000 -14.3175 0.0003
# 2 32.2986 35.1725 31.0681 0.0000 -7.4183 0.0002
# 3 56.3525 31.0681 126.8189 0.0000 -19.0598 0.0001
# 4 0.0000 0.0000 0.0000 14.8107 0.0000 0.5570
# 5 -14.3175 -7.4183 -19.0598 0.0000 17.9335 0.0000
# 6 0.0003 0.0002 0.0001 0.5570 0.0000 26.7419
#
#
#
# Elastic Compliance Matrix: (Units=1/GPa)
#
#
# Indices 1 2 3 4 5 6 
#
# 1 0.013121 -0.008450 -0.003227 0.000000 0.003551 0.000000
# 2 -0.008450 0.042397 -0.005962 0.000000 0.004455 0.000000
# 3 -0.003227 -0.005962 0.011927 0.000000 0.007634 0.000000
# 4 0.000000 0.000000 0.000000 0.067572 0.000000 -0.001407
# 5 0.003551 0.004455 0.007634 0.000000 0.068552 0.000000
# 6 0.000000 0.000000 0.000000 -0.001407 0.000000 0.037424
#
#
# Mechanical properties :
#
#
# Convention : Reuss Voigt Hill
#
# Bulk Modulus (GPa) = 31.08738 57.35296 44.22017
# Shear Modulus (GPa) = 17.42211 22.36515 19.89363
#
# Velocity S-wave (km/s) = 3.15588 3.57566 3.37231
# Velocity P-wave (km/s) = 5.57234 7.05930 6.35943
#
# Compressibility (1/GPa) = 0.03216739
#
# Stress axis : x y z
#
# Youngs Moduli (GPa) = 76.21418 23.58681 83.84396
#
# Poissons Ratio (x) = 0.19930 0.27054
# Poissons Ratio (y) = 0.64399 0.49988
# Poissons Ratio (z) = 0.24592 0.14063
#
# Static dielectric constant tensor:
#      x y z
#    x 1.590400 0.000000 -0.010690 
#    y 0.000000 1.590640 0.000000 
#    z -0.010690 0.000000 1.594640 
# 
# From -- ./inp_files/314443.got.cif
#   From: 2010.05.17/outbox.cif.g08.bks.cpg/sg12_158_cif.got.tgz:314443.got - 2010.06.03 13:09:07.
