data_PCOD9173922
_publ_section_title
;
Structure prediction by ZEFSAII (Michael W. Deem and Ramdas Pophale) SiO2 
 PCOD9173922
Probable space group: C 2/M
;
_chemical_formula_sum "Si O2"
_cell_formula_units_Z 56
_cell_length_a 20.577762
_cell_length_b 7.731225
_cell_length_c 27.341961
_cell_angle_alpha 90.000000
_cell_angle_beta 149.837838
_cell_angle_gamma 90.000000
_cell_volume 2185.587310
_symmetry_space_group_name_H-M "C 2/M"
_symmetry_group_IT_number 12
_symmetry_cell_setting 'monoclinic'
loop_
_space_group_symop_operation_xyz
x,y,z
-x,y,-z
-x,-y,-z
x,-y,z
1/2+x,1/2+y,z
1/2-x,1/2+y,-z
1/2-x,1/2-y,-z
1/2+x,1/2-y,z
loop_
_atom_site_type_symbol
_atom_site_label
_atom_site_fract_x
_atom_site_fract_y
_atom_site_fract_z
Si Si1 0.005918 0.696522 0.079086
Si Si2 0.216406 0.704829 0.720406
Si Si3 0.950282 0.201187 0.151394
Si Si4 0.138720 0.707771 0.569046
Si Si5 0.771027 0.211716 0.120511
Si Si6 0.342360 0.204201 0.631787
Si Si7 0.513309 0.799947 0.660826
O O1 0.016501 0.500000 0.069642
O O2 0.147646 0.773226 0.164577
O O3 0.975573 0.701434 0.117582
O O4 0.876717 0.770893 0.970625
O O5 0.192653 0.500000 0.701577
O O6 0.228399 0.768263 0.672641
O O7 0.090358 0.780316 0.665299
O O8 0.825811 0.255204 0.102184
O O9 0.066605 0.216958 0.266609
O O10 0.939756 0.000000 0.131013
O O11 0.139057 0.500000 0.565413
O O12 0.196706 0.769744 0.555660
O O13 0.000000 0.759224 0.500000
O O14 0.870488 0.293044 0.223370
O O15 0.776951 0.000000 0.128844
O O16 0.392627 0.276653 0.612550
O O17 0.367912 0.000000 0.647409
O O18 0.481991 0.000000 0.628319
#
# Coordination Sequence:
#
# PCOD9173922 Si02
#       7
#     8   8   8   8   8   8   8
#     4  11  21  32  49  77 111 144 184 231 276 314
#     4  10  21  38  57  78 108 146 184 222 272 329
#     4  10  18  31  51  75 106 145 186 224 268 323
#     4  10  21  38  61  86 110 139 178 222 271 332
#     4   9  20  34  49  74 109 148 186 227 270 317
#     4  10  19  34  57  83 110 140 178 226 274 320
#     4   9  20  37  56  78 108 148 188 224 265 319
#
# _framework density 25.622405000000001
#
# number of rings (size 3 to 8) (size 9 to 14) (size 15 to 20)
#    0.000    2.143    1.429    1.714    0.000    3.714 
#    0.000    3.571    0.000    0.000    0.000    0.000 
#    0.000    0.000    0.000    0.000    0.000    0.000 
#
# Total GULP energy -156495.697938 kJ/mol
# GULP energy per Si atom -5589.132069 kJ/mol
# Density = 2.556409 g / cm^3
# Si number density = 25.622405 Si / 1000 Ang^3
#
#
#
# Elastic Constant Matrix: (Units=GPa)
#
#
# Indices 1 2 3 4 5 6 
#
# 1 192.6489 8.2429 43.0115 -0.0001 25.3100 -0.0002
# 2 8.2429 51.6488 -4.0848 -0.0004 1.1955 -0.0016
# 3 43.0115 -4.0848 94.2042 0.0000 26.6611 -0.0001
# 4 -0.0001 -0.0004 0.0000 13.3123 -0.0001 7.0911
# 5 25.3100 1.1955 26.6611 -0.0001 52.3226 0.0000
# 6 -0.0002 -0.0016 -0.0001 7.0911 0.0000 16.4753
#
#
#
# Elastic Compliance Matrix: (Units=1/GPa)
#
#
# Indices 1 2 3 4 5 6 
#
# 1 0.005973 -0.001095 -0.002295 0.000000 -0.001695 0.000000
# 2 -0.001095 0.019676 0.001555 -0.000001 -0.000712 0.000002
# 3 -0.002295 0.001555 0.013352 0.000000 -0.005729 0.000000
# 4 0.000000 -0.000001 0.000000 0.097464 0.000000 -0.041949
# 5 -0.001695 -0.000712 -0.005729 0.000000 0.022867 0.000000
# 6 0.000000 0.000002 0.000000 -0.041949 0.000000 0.078752
#
#
# Mechanical properties :
#
#
# Convention : Reuss Voigt Hill
#
# Bulk Modulus (GPa) = 28.30514 48.09343 38.19929
# Shear Modulus (GPa) = 19.72147 35.84422 27.78284
#
# Velocity S-wave (km/s) = 2.77735 3.74430 3.29647
# Velocity P-wave (km/s) = 4.62124 6.12404 5.42493
#
# Compressibility (1/GPa) = 0.03532928
#
# Stress axis : x y z
#
# Youngs Moduli (GPa) = 167.42915 50.82386 74.89638
#
# Poissons Ratio (x) = 0.05568 0.17188
# Poissons Ratio (y) = 0.18341 -0.11645
# Poissons Ratio (z) = 0.38422 -0.07902
#
# Static dielectric constant tensor:
#      x y z
#    x 2.064130 0.000000 0.000370 
#    y 0.000000 1.929940 0.000000 
#    z 0.000370 0.000000 2.078780 
# 
# From -- ./inp_files/329549.got.cif
#   From: 2010.05.17/outbox.cif.g08.bks.cpg/sg12_165_cif.got.tgz:329549.got - 2010.06.03 13:09:07.
