data_PCOD9173905
_publ_section_title
;
Structure prediction by ZEFSAII (Michael W. Deem and Ramdas Pophale) SiO2 
 PCOD9173905
Probable space group: C 2/M
;
_chemical_formula_sum "Si O2"
_cell_formula_units_Z 56
_cell_length_a 28.484516
_cell_length_b 13.673187
_cell_length_c 15.703050
_cell_angle_alpha 90.000000
_cell_angle_beta 33.321251
_cell_angle_gamma 90.000000
_cell_volume 3359.681651
_symmetry_space_group_name_H-M "C 2/M"
_symmetry_group_IT_number 12
_symmetry_cell_setting 'monoclinic'
loop_
_space_group_symop_operation_xyz
x,y,z
-x,y,-z
-x,-y,-z
x,-y,z
1/2+x,1/2+y,z
1/2-x,1/2+y,-z
1/2-x,1/2-y,-z
1/2+x,1/2-y,z
loop_
_atom_site_type_symbol
_atom_site_label
_atom_site_fract_x
_atom_site_fract_y
_atom_site_fract_z
Si Si1 0.816173 0.611396 0.247237
Si Si2 0.620408 0.117960 0.389151
Si Si3 0.922552 0.382001 0.729535
Si Si4 0.924116 0.615820 0.914032
Si Si5 0.764625 0.686674 0.633144
Si Si6 0.398013 0.810995 0.287678
Si Si7 0.405351 0.612754 0.183476
O O1 0.785991 0.500000 0.300402
O O2 0.747907 0.697270 0.359336
O O3 0.884524 0.633022 0.218639
O O4 0.858680 0.626372 0.090528
O O5 0.624931 0.152424 0.283996
O O6 0.523555 0.140560 0.566575
O O7 0.688264 0.162434 0.350830
O O8 0.629011 0.000000 0.378915
O O9 0.915946 0.500000 0.736325
O O10 0.893580 0.349792 0.867133
O O11 0.943132 0.500000 0.877799
O O12 0.011392 0.667314 0.808256
O O13 0.824280 0.654798 0.463962
O O14 0.671701 0.636653 0.765446
O O15 0.392559 0.696029 0.273818
O O16 0.398149 0.500000 0.222282
O O17 0.500000 0.626257 0.000000
#
# Coordination Sequence:
#
# PCOD9173905 Si02
#       7
#     8   8   8   8   8   8   8
#     4  10  21  33  45  66 101 134 161 193 233 286
#     4   9  16  29  49  76 102 119 149 200 250 290
#     4   8  15  28  49  75 100 121 146 193 255 298
#     4  10  18  31  51  74  99 126 155 195 248 295
#     4  11  21  32  50  74  97 127 164 200 237 279
#     4  11  20  31  50  73  96 125 164 202 236 281
#     4  10  21  35  48  65  96 134 165 195 232 278
#
# _framework density 16.668247000000001
#
# number of rings (size 3 to 8) (size 9 to 14) (size 15 to 20)
#    0.000    2.143    1.429    5.571    0.000    4.571 
#    0.000    0.714    0.000    0.000    0.000    3.000 
#    0.000    0.000    0.000    0.000    0.000    0.429 
#
# Total GULP energy -156031.129676 kJ/mol
# GULP energy per Si atom -5572.540346 kJ/mol
# Density = 1.663031 g / cm^3
# Si number density = 16.668247 Si / 1000 Ang^3
#
#
#
# Elastic Constant Matrix: (Units=GPa)
#
#
# Indices 1 2 3 4 5 6 
#
# 1 75.6850 -6.4334 28.0816 0.0000 23.8766 0.0000
# 2 -6.4334 33.7372 6.8361 0.0000 5.0125 0.0000
# 3 28.0816 6.8361 34.1166 0.0000 5.7505 0.0000
# 4 0.0000 0.0000 0.0000 15.0838 0.0000 0.2845
# 5 23.8766 5.0125 5.7505 0.0000 27.7613 0.0000
# 6 0.0000 0.0000 0.0000 0.2845 0.0000 17.8027
#
#
#
# Elastic Compliance Matrix: (Units=1/GPa)
#
#
# Indices 1 2 3 4 5 6 
#
# 1 0.031260 0.014562 -0.024530 0.000000 -0.024434 0.000000
# 2 0.014562 0.038219 -0.016962 0.000000 -0.015911 0.000000
# 3 -0.024530 -0.016962 0.050595 0.000000 0.013679 0.000000
# 4 0.000000 0.000000 0.000000 0.066316 0.000000 -0.001060
# 5 -0.024434 -0.015911 0.013679 0.000000 0.057075 0.000000
# 6 0.000000 0.000000 0.000000 -0.001060 0.000000 0.056188
#
#
# Mechanical properties :
#
#
# Convention : Reuss Voigt Hill
#
# Bulk Modulus (GPa) = 15.10273 22.27863 18.69068
# Shear Modulus (GPa) = 13.31260 19.79985 16.55623
#
# Velocity S-wave (km/s) = 2.82916 3.45030 3.15505
# Velocity P-wave (km/s) = 4.44439 5.40996 4.95077
#
# Compressibility (1/GPa) = 0.06621321
#
# Stress axis : x y z
#
# Youngs Moduli (GPa) = 31.98993 26.16528 19.76488
#
# Poissons Ratio (x) = -0.38101 0.48482
# Poissons Ratio (y) = -0.46582 0.33525
# Poissons Ratio (z) = 0.78470 0.44381
#
# Static dielectric constant tensor:
#      x y z
#    x 1.571340 0.000000 0.027650 
#    y 0.000000 1.562500 0.000000 
#    z 0.027650 0.000000 1.581100 
# 
# From -- ./inp_files/224688.got.cif
#   From: 2010.05.17/outbox.cif.g08.bks.cpg/sg12_113_cif.got.tgz:224688.got - 2010.06.03 13:09:07.
