data_PCOD9173296
_publ_section_title
;
Structure prediction by ZEFSAII (Michael W. Deem and Ramdas Pophale) SiO2 
 PCOD9173296
Probable space group: C 2/M
;
_chemical_formula_sum "Si O2"
_cell_formula_units_Z 64
_cell_length_a 15.765367
_cell_length_b 25.376063
_cell_length_c 13.744810
_cell_angle_alpha 90.000000
_cell_angle_beta 149.024297
_cell_angle_gamma 90.000000
_cell_volume 2830.086772
_symmetry_space_group_name_H-M "C 2/M"
_symmetry_group_IT_number 12
_symmetry_cell_setting 'monoclinic'
loop_
_space_group_symop_operation_xyz
x,y,z
-x,y,-z
-x,-y,-z
x,-y,z
1/2+x,1/2+y,z
1/2-x,1/2+y,-z
1/2-x,1/2-y,-z
1/2+x,1/2-y,z
loop_
_atom_site_type_symbol
_atom_site_label
_atom_site_fract_x
_atom_site_fract_y
_atom_site_fract_z
Si Si1 0.986857 0.257997 0.275885
Si Si2 0.370487 0.863711 0.259101
Si Si3 0.506891 0.060690 0.242050
Si Si4 0.189435 0.277270 0.292028
Si Si5 0.173946 0.394399 0.225129
Si Si6 0.554235 0.646801 0.817662
Si Si7 0.159784 0.838706 0.215794
Si Si8 0.346819 0.440609 0.221161
O O1 0.039154 0.280132 0.221451
O O2 0.148411 0.234118 0.486143
O O3 0.927054 0.305235 0.283885
O O4 0.885470 0.204420 0.159787
O O5 0.484822 0.906296 0.318852
O O6 0.319309 0.863875 0.322229
O O7 0.196553 0.871259 0.031165
O O8 0.640554 0.086401 0.301489
O O9 0.547122 0.000000 0.300463
O O10 0.330702 0.061561 0.010665
O O11 0.206856 0.332016 0.254599
O O12 0.170285 0.224419 0.210667
O O13 0.305861 0.426224 0.292050
O O14 0.000000 0.403121 0.000000
O O15 0.387317 0.653346 0.717457
O O16 0.544681 0.604673 0.722508
O O17 0.000000 0.857549 0.000000
O O18 0.410483 0.500000 0.273719
#
# Coordination Sequence:
#
# PCOD9173296 Si02
#       8
#     8   8   8   8   8   8   8   8
#     4  10  20  33  50  74 104 140 172 207 258 313
#     4  10  18  32  53  76 103 135 171 213 263 303
#     4   9  17  31  51  77 106 131 169 218 259 302
#     4  10  20  33  48  75 108 137 168 206 258 313
#     4  10  18  30  51  78 107 138 168 210 259 307
#     4   9  19  34  51  72 102 137 175 215 252 305
#     4   9  19  33  50  73 103 135 170 212 255 305
#     4   9  18  31  51  77 102 135 173 212 257 303
#
# _framework density 22.614146000000002
#
# number of rings (size 3 to 8) (size 9 to 14) (size 15 to 20)
#    0.000    2.500    1.250    1.125    1.750    2.000 
#    0.000    0.625    0.000    6.000    0.000    1.750 
#    0.000    0.000    0.000    0.000    0.000    0.125 
#
# Total GULP energy -178734.440161 kJ/mol
# GULP energy per Si atom -5585.451255 kJ/mol
# Density = 2.256268 g / cm^3
# Si number density = 22.614146 Si / 1000 Ang^3
#
#
#
# Elastic Constant Matrix: (Units=GPa)
#
#
# Indices 1 2 3 4 5 6 
#
# 1 148.4953 90.8125 7.0111 0.0000 2.4401 0.0000
# 2 90.8125 141.4955 -5.0618 0.0000 1.0479 0.0000
# 3 7.0111 -5.0618 31.8925 0.0000 -2.0676 0.0000
# 4 0.0000 0.0000 0.0000 10.5316 0.0000 -5.9483
# 5 2.4401 1.0479 -2.0676 0.0000 15.7509 0.0000
# 6 0.0000 0.0000 0.0000 -5.9483 0.0000 34.9051
#
#
#
# Elastic Compliance Matrix: (Units=1/GPa)
#
#
# Indices 1 2 3 4 5 6 
#
# 1 0.011559 -0.007543 -0.003855 0.000000 -0.001795 0.000000
# 2 -0.007543 0.012032 0.003623 0.000000 0.000844 0.000000
# 3 -0.003855 0.003623 0.033082 0.000000 0.004699 0.000000
# 4 0.000000 0.000000 0.000000 0.105065 0.000000 0.017905
# 5 -0.001795 0.000844 0.004699 0.000000 0.064327 0.000000
# 6 0.000000 0.000000 0.000000 0.017905 0.000000 0.031700
#
#
# Mechanical properties :
#
#
# Convention : Reuss Voigt Hill
#
# Bulk Modulus (GPa) = 24.31743 56.37854 40.34798
# Shear Modulus (GPa) = 17.42023 27.51229 22.46626
#
# Velocity S-wave (km/s) = 2.77848 3.49176 3.15534
# Velocity P-wave (km/s) = 4.59019 6.42194 5.58172
#
# Compressibility (1/GPa) = 0.04112277
#
# Stress axis : x y z
#
# Youngs Moduli (GPa) = 86.51550 83.11285 30.22767
#
# Poissons Ratio (x) = 0.62692 0.11651
# Poissons Ratio (y) = 0.65258 -0.10950
# Poissons Ratio (z) = 0.33348 -0.30108
#
# Static dielectric constant tensor:
#      x y z
#    x 1.869990 0.000000 0.022030 
#    y 0.000000 1.789490 0.000000 
#    z 0.022030 0.000000 1.932420 
# 
# From -- ./inp_files/218530.got.cif
#   From: 2010.05.17/outbox.cif.g08.bks.cpg/sg12_110_cif.got.tgz:218530.got - 2010.06.03 13:09:07.
