data_PCOD9173642
_publ_section_title
;
Structure prediction by ZEFSAII (Michael W. Deem and Ramdas Pophale) SiO2 
 PCOD9173642
Probable space group: C 2/M
;
_chemical_formula_sum "Si O2"
_cell_formula_units_Z 64
_cell_length_a 27.920568
_cell_length_b 19.251889
_cell_length_c 9.485469
_cell_angle_alpha 90.000000
_cell_angle_beta 46.997495
_cell_angle_gamma 90.000000
_cell_volume 3728.774878
_symmetry_space_group_name_H-M "C 2/M"
_symmetry_group_IT_number 12
_symmetry_cell_setting 'monoclinic'
loop_
_space_group_symop_operation_xyz
x,y,z
-x,y,-z
-x,-y,-z
x,-y,z
1/2+x,1/2+y,z
1/2-x,1/2+y,-z
1/2-x,1/2-y,-z
1/2+x,1/2-y,z
loop_
_atom_site_type_symbol
_atom_site_label
_atom_site_fract_x
_atom_site_fract_y
_atom_site_fract_z
Si Si1 0.197397 0.292869 0.518270
Si Si2 0.867620 0.872420 0.711846
Si Si3 0.184680 0.275472 0.209273
Si Si4 0.276115 0.921522 0.923719
Si Si5 0.441913 0.421472 0.284616
Si Si6 0.767028 0.925817 0.317299
Si Si7 0.089076 0.114617 0.059716
Si Si8 0.572757 0.282724 0.875767
O O1 0.250000 0.250000 0.500000
O O2 0.198675 0.278682 0.348311
O O3 0.223090 0.370474 0.484634
O O4 0.126997 0.270050 0.714669
O O5 0.865760 0.788010 0.709670
O O6 0.906134 0.904567 0.503636
O O7 0.899688 0.892674 0.796600
O O8 0.792473 0.900330 0.863432
O O9 0.175303 0.354453 0.169881
O O10 0.250000 0.250000 0.000000
O O11 0.257218 0.925807 0.796103
O O12 0.296879 0.000000 0.924716
O O13 0.424989 0.500000 0.270534
O O14 0.520401 0.418969 0.152329
O O15 0.424718 0.355918 0.218072
O O16 0.757772 0.000000 0.402682
O O17 0.844288 0.911322 0.147772
O O18 0.083679 0.193854 0.014972
O O19 0.500000 0.255200 0.000000
#
# Coordination Sequence:
#
# PCOD9173642 Si02
#       8
#     8   8   8   8   8   8   8   8
#     4  11  19  34  55  75  97 136 175 212 259 308
#     4  10  18  31  48  71 101 135 172 212 251 299
#     4   9  18  30  48  72  99 129 166 215 260 303
#     4   8  15  27  44  67  96 127 161 204 255 300
#     4  11  22  34  49  72 107 142 175 210 252 304
#     4   9  17  29  49  75  99 122 165 214 250 296
#     4  10  20  33  50  72 102 141 177 201 246 305
#     4  10  22  37  50  72 103 141 177 212 255 308
#
# _framework density 17.163813999999999
#
# number of rings (size 3 to 8) (size 9 to 14) (size 15 to 20)
#    0.000    2.250    2.500    1.875    0.000    4.750 
#    0.000    0.000    0.000    0.375    0.000    0.000 
#    0.000    3.000    0.000    0.000    0.000    0.000 
#
# Total GULP energy -178172.530853 kJ/mol
# GULP energy per Si atom -5567.891589 kJ/mol
# Density = 1.712475 g / cm^3
# Si number density = 17.163814 Si / 1000 Ang^3
#
#
#
# Elastic Constant Matrix: (Units=GPa)
#
#
# Indices 1 2 3 4 5 6 
#
# 1 31.8867 18.6337 16.9100 0.0000 -7.0547 0.0000
# 2 18.6337 118.6357 31.3898 0.0000 -24.7727 0.0000
# 3 16.9100 31.3898 84.3624 0.0000 -12.1745 0.0000
# 4 0.0000 0.0000 0.0000 20.8594 0.0000 2.5925
# 5 -7.0547 -24.7727 -12.1745 0.0000 20.4546 0.0000
# 6 0.0000 0.0000 0.0000 2.5925 0.0000 5.8958
#
#
#
# Elastic Compliance Matrix: (Units=1/GPa)
#
#
# Indices 1 2 3 4 5 6 
#
# 1 0.037420 -0.003232 -0.005470 0.000000 0.005735 0.000000
# 2 -0.003232 0.012038 -0.002066 0.000000 0.012235 0.000000
# 3 -0.005470 -0.002066 0.014315 0.000000 0.004132 0.000000
# 4 0.000000 0.000000 0.000000 0.050711 0.000000 -0.022299
# 5 0.005735 0.012235 0.004132 0.000000 0.068144 0.000000
# 6 0.000000 0.000000 0.000000 -0.022299 0.000000 0.179419
#
#
# Mechanical properties :
#
#
# Convention : Reuss Voigt Hill
#
# Bulk Modulus (GPa) = 23.67617 40.97243 32.32430
# Shear Modulus (GPa) = 12.57347 20.63872 16.60609
#
# Velocity S-wave (km/s) = 2.70951 3.47141 3.11385
# Velocity P-wave (km/s) = 4.85930 6.32383 5.63931
#
# Compressibility (1/GPa) = 0.04223655
#
# Stress axis : x y z
#
# Youngs Moduli (GPa) = 26.72385 83.06804 69.85702
#
# Poissons Ratio (x) = 0.26851 0.38213
# Poissons Ratio (y) = 0.08638 0.14430
# Poissons Ratio (z) = 0.14618 0.17159
#
# Static dielectric constant tensor:
#      x y z
#    x 1.757830 0.000000 -0.084180 
#    y 0.000000 1.628920 0.000000 
#    z -0.084180 0.000000 1.641570 
# 
# From -- ./inp_files/106399.got.cif
#   From: 2010.05.17/outbox.cif.g08.bks.cpg/sg12_54_cif.got.tgz:106399.got - 2010.06.03 13:09:07.
