data_PCOD9173159
_publ_section_title
;
Structure prediction by ZEFSAII (Michael W. Deem and Ramdas Pophale) SiO2 
 PCOD9173159
Probable space group: C 2/M
;
_chemical_formula_sum "Si O2"
_cell_formula_units_Z 36
_cell_length_a 14.401657
_cell_length_b 15.465827
_cell_length_c 7.553798
_cell_angle_alpha 90.000000
_cell_angle_beta 69.620048
_cell_angle_gamma 90.000000
_cell_volume 1577.167189
_symmetry_space_group_name_H-M "C 2/M"
_symmetry_group_IT_number 12
_symmetry_cell_setting 'monoclinic'
loop_
_space_group_symop_operation_xyz
x,y,z
-x,y,-z
-x,-y,-z
x,-y,z
1/2+x,1/2+y,z
1/2-x,1/2+y,-z
1/2-x,1/2-y,-z
1/2+x,1/2-y,z
loop_
_atom_site_type_symbol
_atom_site_label
_atom_site_fract_x
_atom_site_fract_y
_atom_site_fract_z
Si Si1 0.313372 0.163817 0.490363
Si Si2 0.734862 0.636007 0.886197
Si Si3 0.960887 0.094109 0.826039
Si Si4 0.500000 0.265241 0.500000
Si Si5 0.119132 0.679074 0.927995
O O1 0.250000 0.250000 0.500000
O O2 0.254626 0.106302 0.671935
O O3 0.408239 0.203300 0.526105
O O4 0.345535 0.132084 0.275848
O O5 0.679604 0.729584 0.897281
O O6 0.656545 0.591083 0.065808
O O7 0.837882 0.635813 0.924111
O O8 0.987441 0.171307 0.676752
O O9 0.997217 0.000000 0.739049
O O10 0.000000 0.107187 0.000000
O O11 0.000000 0.688274 0.000000
#
# Coordination Sequence:
#
# PCOD9173159 Si02
#       5
#     8   8   8   4   8
#     4  10  19  29  49  76 103 132 160 207 262 306
#     4  10  19  32  49  74 105 134 171 211 255 307
#     4  11  23  37  53  73 104 144 178 210 249 304
#     4  12  21  34  54  80 109 132 168 212 260 314
#     4  10  18  30  50  77 104 130 163 213 268 310
#
# _framework density 22.825735000000002
#
# number of rings (size 3 to 8) (size 9 to 14) (size 15 to 20)
#    0.000    1.556    0.000   10.333    0.000    0.000 
#    0.000    0.000    0.000    0.667    0.000    5.444 
#    0.000    0.000    0.000    0.000    0.000    0.000 
#
# Total GULP energy -100392.772602 kJ/mol
# GULP energy per Si atom -5577.376256 kJ/mol
# Density = 2.277378 g / cm^3
# Si number density = 22.825735 Si / 1000 Ang^3
#
#
#
# Elastic Constant Matrix: (Units=GPa)
#
#
# Indices 1 2 3 4 5 6 
#
# 1 141.3854 -22.5913 2.8434 0.0000 4.2447 0.0000
# 2 -22.5913 20.0765 0.7375 0.0000 3.2301 0.0000
# 3 2.8434 0.7375 146.5685 0.0000 6.4433 0.0000
# 4 0.0000 0.0000 0.0000 -56.3532 0.0000 -18.4815
# 5 4.2447 3.2301 6.4433 0.0000 30.3151 0.0000
# 6 0.0000 0.0000 0.0000 -18.4815 0.0000 -7.7024
#
#
#
# Elastic Compliance Matrix: (Units=1/GPa)
#
#
# Indices 1 2 3 4 5 6 
#
# 1 0.008783 0.010257 -0.000121 0.000000 -0.002297 0.000000
# 2 0.010257 0.062657 -0.000159 0.000000 -0.008079 0.000000
# 3 -0.000121 -0.000159 0.006889 0.000000 -0.001430 0.000000
# 4 0.000000 0.000000 0.000000 -0.083279 0.000000 0.199824
# 5 -0.002297 -0.008079 -0.001430 0.000000 0.034473 0.000000
# 6 0.000000 0.000000 0.000000 0.199824 0.000000 -0.609296
#
#
# Mechanical properties :
#
#
# Convention : Reuss Voigt Hill
#
# Bulk Modulus (GPa) = 10.17459 30.00107 20.08783
# Shear Modulus (GPa) = -8.81887 15.05462 3.11787
#
# Velocity S-wave (km/s) = -1.96773 2.57095 1.17001
# Velocity P-wave (km/s) = 0.83392 4.68883 3.26264
#
# Compressibility (1/GPa) = 0.09828404
#
# Stress axis : x y z
#
# Youngs Moduli (GPa) = 113.85300 15.95981 145.16374
#
# Poissons Ratio (x) = -0.16371 0.01757
# Poissons Ratio (y) = -1.16784 0.02310
# Poissons Ratio (z) = 0.01378 0.00254
#
# Static dielectric constant tensor:
#      x y z
#    x 1.888810 0.000000 -0.014490 
#    y 0.000000 1.974780 0.000000 
#    z -0.014490 0.000000 1.882770 
# 
# From -- ./inp_files/60148.got.cif
#   From: 2010.05.17/outbox.cif.g08.bks.cpg/sg12_31_cif.got.tgz:60148.got - 2010.06.03 13:09:07.
