data_PCOD9173195
_publ_section_title
;
Structure prediction by ZEFSAII (Michael W. Deem and Ramdas Pophale) SiO2 
 PCOD9173195
Probable space group: C 2/M
;
_chemical_formula_sum "Si O2"
_cell_formula_units_Z 56
_cell_length_a 13.741829
_cell_length_b 21.485743
_cell_length_c 14.357513
_cell_angle_alpha 90.000000
_cell_angle_beta 137.205914
_cell_angle_gamma 90.000000
_cell_volume 2879.901708
_symmetry_space_group_name_H-M "C 2/M"
_symmetry_group_IT_number 12
_symmetry_cell_setting 'monoclinic'
loop_
_space_group_symop_operation_xyz
x,y,z
-x,y,-z
-x,-y,-z
x,-y,z
1/2+x,1/2+y,z
1/2-x,1/2+y,-z
1/2-x,1/2-y,-z
1/2+x,1/2-y,z
loop_
_atom_site_type_symbol
_atom_site_label
_atom_site_fract_x
_atom_site_fract_y
_atom_site_fract_z
Si Si1 0.214558 0.342027 0.428156
Si Si2 0.013987 0.072840 0.399526
Si Si3 0.699330 0.424578 0.896108
Si Si4 0.846602 0.269270 0.423038
Si Si5 0.048050 0.573385 0.799497
Si Si6 0.146077 0.605765 0.662142
Si Si7 0.962033 0.072780 0.871975
O O1 0.360976 0.380761 0.545609
O O2 0.157638 0.310589 0.484263
O O3 0.242940 0.286908 0.374639
O O4 0.097770 0.389250 0.308252
O O5 0.000000 0.075242 0.500000
O O6 0.860405 0.090623 0.247336
O O7 0.045375 0.000000 0.394745
O O8 0.708981 0.500000 0.906616
O O9 0.569817 0.401544 0.871122
O O10 0.847484 0.403337 0.045053
O O11 0.822023 0.320648 0.326171
O O12 0.000000 0.242306 0.500000
O O13 0.021710 0.500000 0.791855
O O14 0.123396 0.583902 0.751808
O O15 0.294418 0.576702 0.730777
O O16 0.000000 0.592358 0.500000
O O17 0.998616 0.000000 0.902659
O O18 0.000000 0.100000 0.000000
#
# Coordination Sequence:
#
# PCOD9173195 Si02
#       7
#     8   8   8   8   8   8   8
#     4  11  21  38  62  86 118 160 207 262 299 361
#     4  10  21  39  63  92 118 155 210 259 308 367
#     4   9  19  34  54  84 126 161 190 239 312 385
#     4  10  21  38  58  86 118 161 216 249 302 349
#     4  11  21  35  57  93 131 156 187 251 322 372
#     4  11  20  34  52  86 122 160 202 246 292 358
#     4  10  18  30  50  82 124 165 191 228 304 379
#
# _framework density 19.445108000000001
#
# number of rings (size 3 to 8) (size 9 to 14) (size 15 to 20)
#    0.000    1.714    4.286    2.143    0.000    1.143 
#    0.000    0.714    0.000   16.286    0.000    0.000 
#    0.000    0.000    0.000    0.000    0.000    0.000 
#
# Total GULP energy -156035.773196 kJ/mol
# GULP energy per Si atom -5572.706186 kJ/mol
# Density = 1.940085 g / cm^3
# Si number density = 19.445108 Si / 1000 Ang^3
#
#
#
# Elastic Constant Matrix: (Units=GPa)
#
#
# Indices 1 2 3 4 5 6 
#
# 1 49.7933 24.3584 17.1941 0.0000 7.3213 0.0000
# 2 24.3584 61.6637 36.0044 0.0000 6.0119 0.0000
# 3 17.1941 36.0044 124.4474 0.0000 8.4527 0.0000
# 4 0.0000 0.0000 0.0000 -6.3894 0.0000 3.6334
# 5 7.3213 6.0119 8.4527 0.0000 24.8862 0.0000
# 6 0.0000 0.0000 0.0000 3.6334 0.0000 34.7011
#
#
#
# Elastic Compliance Matrix: (Units=1/GPa)
#
#
# Indices 1 2 3 4 5 6 
#
# 1 0.025558 -0.009312 -0.000490 0.000000 -0.005103 0.000000
# 2 -0.009312 0.023107 -0.005329 0.000000 -0.001033 0.000000
# 3 -0.000490 -0.005329 0.009773 0.000000 -0.001888 0.000000
# 4 0.000000 0.000000 0.000000 -0.147713 0.000000 0.015467
# 5 -0.005103 -0.001033 -0.001888 0.000000 0.042575 0.000000
# 6 0.000000 0.000000 0.000000 0.015467 0.000000 0.027198
#
#
# Mechanical properties :
#
#
# Convention : Reuss Voigt Hill
#
# Bulk Modulus (GPa) = 35.49074 43.44648 39.46861
# Shear Modulus (GPa) = 248.10140 21.19607 134.64874
#
# Velocity S-wave (km/s) = 11.30786 3.30517 8.33042
# Velocity P-wave (km/s) = 13.73978 6.07924 10.62400
#
# Compressibility (1/GPa) = 0.02817637
#
# Stress axis : x y z
#
# Youngs Moduli (GPa) = 39.12658 43.27618 102.32115
#
# Poissons Ratio (x) = 0.40299 0.05019
# Poissons Ratio (y) = 0.36435 0.54522
# Poissons Ratio (z) = 0.01919 0.23060
#
# Static dielectric constant tensor:
#      x y z
#    x 1.711680 0.000000 -0.019230 
#    y 0.000000 1.695930 0.000000 
#    z -0.019230 0.000000 1.713790 
# 
# From -- ./inp_files/217737.got.cif
#   From: 2010.05.17/outbox.cif.g08.bks.cpg/sg12_109_cif.got.tgz:217737.got - 2010.06.03 13:09:07.
