data_PCOD9173321
_publ_section_title
;
Structure prediction by ZEFSAII (Michael W. Deem and Ramdas Pophale) SiO2 
 PCOD9173321
Probable space group: C 2/M
;
_chemical_formula_sum "Si O2"
_cell_formula_units_Z 40
_cell_length_a 9.338117
_cell_length_b 19.782135
_cell_length_c 12.982646
_cell_angle_alpha 90.000000
_cell_angle_beta 77.773357
_cell_angle_gamma 90.000000
_cell_volume 2343.858407
_symmetry_space_group_name_H-M "C 2/M"
_symmetry_group_IT_number 12
_symmetry_cell_setting 'monoclinic'
loop_
_space_group_symop_operation_xyz
x,y,z
-x,y,-z
-x,-y,-z
x,-y,z
1/2+x,1/2+y,z
1/2-x,1/2+y,-z
1/2-x,1/2-y,-z
1/2+x,1/2-y,z
loop_
_atom_site_type_symbol
_atom_site_label
_atom_site_fract_x
_atom_site_fract_y
_atom_site_fract_z
Si Si1 0.649724 0.163944 0.714340
Si Si2 0.190472 0.696418 0.263830
Si Si3 0.172604 0.181536 0.972047
Si Si4 0.673423 0.178751 0.488495
Si Si5 0.345421 0.079968 0.081309
O O1 0.754996 0.226400 0.729031
O O2 0.483356 0.192362 0.731006
O O3 0.691855 0.138556 0.592708
O O4 0.650678 0.108919 0.803709
O O5 0.272986 0.668331 0.152122
O O6 0.224997 0.657975 0.366438
O O7 0.250000 0.250000 0.000000
O O8 0.223316 0.121012 0.037466
O O9 0.000000 0.191877 0.000000
O O10 0.500000 0.189364 0.500000
O O11 0.750000 0.250000 0.500000
O O12 0.321584 0.000000 0.083897
O O13 0.500000 0.094238 0.000000
#
# Coordination Sequence:
#
# PCOD9173321 Si02
#       5
#     8   8   8   8   8
#     4  10  18  32  53  78 107 136 173 219 268 321
#     4  10  18  30  51  80 109 133 170 221 267 310
#     4  12  22  34  56  83 110 139 177 222 269 321
#     4   8  16  28  46  74 107 132 164 211 267 315
#     4  11  23  38  54  75 108 148 182 221 271 321
#
# _framework density 17.065878000000001
#
# number of rings (size 3 to 8) (size 9 to 14) (size 15 to 20)
#    0.000    1.800    4.000    1.800    0.000    0.400 
#    0.000    0.000    0.000    6.600    0.000    1.400 
#    0.000    0.000    0.000    0.000    0.000    0.000 
#
# Total GULP energy -111433.108963 kJ/mol
# GULP energy per Si atom -5571.655448 kJ/mol
# Density = 1.702703 g / cm^3
# Si number density = 17.065878 Si / 1000 Ang^3
#
#
#
# Elastic Constant Matrix: (Units=GPa)
#
#
# Indices 1 2 3 4 5 6 
#
# 1 83.9574 35.7678 38.9959 0.0000 7.7586 0.0000
# 2 35.7678 62.5937 42.2405 0.0000 9.4838 0.0000
# 3 38.9959 42.2405 188.1928 0.0000 3.5919 0.0000
# 4 0.0000 0.0000 0.0000 12.6638 0.0000 -3.4820
# 5 7.7586 9.4838 3.5919 0.0000 24.4886 0.0000
# 6 0.0000 0.0000 0.0000 -3.4820 0.0000 11.7044
#
#
#
# Elastic Compliance Matrix: (Units=1/GPa)
#
#
# Indices 1 2 3 4 5 6 
#
# 1 0.016170 -0.007926 -0.001537 0.000000 -0.001828 0.000000
# 2 -0.007926 0.023873 -0.003598 0.000000 -0.006207 0.000000
# 3 -0.001537 -0.003598 0.006422 0.000000 0.000938 0.000000
# 4 0.000000 0.000000 0.000000 0.086000 0.000000 0.025584
# 5 -0.001828 -0.006207 0.000938 0.000000 0.043681 0.000000
# 6 0.000000 0.000000 0.000000 0.025584 0.000000 0.093049
#
#
# Mechanical properties :
#
#
# Convention : Reuss Voigt Hill
#
# Bulk Modulus (GPa) = 49.15335 63.19471 56.17403
# Shear Modulus (GPa) = 16.55096 24.28733 20.41915
#
# Velocity S-wave (km/s) = 3.11758 3.77656 3.46278
# Velocity P-wave (km/s) = 6.46713 7.49178 6.99823
#
# Compressibility (1/GPa) = 0.02034449
#
# Stress axis : x y z
#
# Youngs Moduli (GPa) = 61.84209 41.88750 155.72139
#
# Poissons Ratio (x) = 0.33200 0.23930
# Poissons Ratio (y) = 0.49017 0.56023
# Poissons Ratio (z) = 0.09504 0.15070
#
# Static dielectric constant tensor:
#      x y z
#    x 1.572620 0.000000 -0.007700 
#    y 0.000000 1.527390 0.000000 
#    z -0.007700 0.000000 1.661450 
# 
# From -- ./inp_files/195062.got.cif
#   From: 2010.05.17/outbox.cif.g08.bks.cpg/sg12_98_cif.got.tgz:195062.got - 2010.06.03 13:09:07.
