data_PCOD9173122
_publ_section_title
;
Structure prediction by ZEFSAII (Michael W. Deem and Ramdas Pophale) SiO2 
 PCOD9173122
Probable space group: C 2/M
;
_chemical_formula_sum "Si O2"
_cell_formula_units_Z 64
_cell_length_a 31.044015
_cell_length_b 8.683538
_cell_length_c 15.355933
_cell_angle_alpha 90.000000
_cell_angle_beta 79.374804
_cell_angle_gamma 90.000000
_cell_volume 4068.552939
_symmetry_space_group_name_H-M "C 2/M"
_symmetry_group_IT_number 12
_symmetry_cell_setting 'monoclinic'
loop_
_space_group_symop_operation_xyz
x,y,z
-x,y,-z
-x,-y,-z
x,-y,z
1/2+x,1/2+y,z
1/2-x,1/2+y,-z
1/2-x,1/2-y,-z
1/2+x,1/2-y,z
loop_
_atom_site_type_symbol
_atom_site_label
_atom_site_fract_x
_atom_site_fract_y
_atom_site_fract_z
Si Si1 0.190659 0.685186 0.385592
Si Si2 0.814696 0.816159 0.923794
Si Si3 0.147592 0.816585 0.577413
Si Si4 0.555637 0.186353 0.570191
Si Si5 0.128224 0.314301 0.246212
Si Si6 0.457728 0.813116 0.626987
Si Si7 0.281383 0.814689 0.109000
Si Si8 0.786107 0.314739 0.307183
O O1 0.191987 0.500000 0.390442
O O2 0.168206 0.749846 0.480634
O O3 0.161532 0.728128 0.312151
O O4 0.239331 0.750850 0.356558
O O5 0.853524 0.752209 0.850105
O O6 0.768514 0.766597 0.896087
O O7 0.815883 0.000000 0.923686
O O8 0.812155 0.754808 0.023031
O O9 0.097329 0.761788 0.599187
O O10 0.175877 0.750589 0.646278
O O11 0.150268 0.000000 0.575087
O O12 0.555171 0.227977 0.467432
O O13 0.507913 0.234155 0.623916
O O14 0.559209 0.000000 0.573960
O O15 0.127969 0.500000 0.241040
O O16 0.079879 0.260715 0.293212
O O17 0.457802 0.000000 0.628466
O O18 0.291743 0.769541 0.203844
O O19 0.283115 0.000000 0.102612
O O20 0.785354 0.500000 0.312642
#
# Coordination Sequence:
#
# PCOD9173122 Si02
#       8
#     8   8   8   8   8   8   8   8
#     4  11  21  34  51  71  99 135 173 206 241 284
#     4  10  19  31  49  73 100 128 160 201 246 292
#     4  12  24  35  48  70 101 135 172 207 246 292
#     4   9  16  32  53  72  95 127 168 207 246 288
#     4  10  18  30  50  75 101 132 165 198 242 294
#     4   8  15  29  52  75  96 126 165 205 244 294
#     4   9  19  34  50  70  95 127 164 204 245 289
#     4  11  22  37  53  70  97 131 172 211 246 287
#
# _framework density 15.730409999999999
#
# number of rings (size 3 to 8) (size 9 to 14) (size 15 to 20)
#    0.000    2.000    2.500    3.375    0.000    2.000 
#    0.000    1.875    0.000    0.000    0.000    0.875 
#    0.000    7.000    0.000    0.000    0.000    0.000 
#
# Total GULP energy -178570.784943 kJ/mol
# GULP energy per Si atom -5580.337029 kJ/mol
# Density = 1.569461 g / cm^3
# Si number density = 15.730410 Si / 1000 Ang^3
#
#
#
# Elastic Constant Matrix: (Units=GPa)
#
#
# Indices 1 2 3 4 5 6 
#
# 1 128.5803 33.9773 65.3053 0.0000 -14.8858 0.0000
# 2 33.9773 37.9882 25.0641 0.0000 -0.7782 0.0000
# 3 65.3053 25.0641 86.9445 0.0000 -15.8325 0.0000
# 4 0.0000 0.0000 0.0000 19.5175 0.0000 -3.0306
# 5 -14.8858 -0.7782 -15.8325 0.0000 25.5778 0.0000
# 6 0.0000 0.0000 0.0000 -3.0306 0.0000 21.6674
#
#
#
# Elastic Compliance Matrix: (Units=1/GPa)
#
#
# Indices 1 2 3 4 5 6 
#
# 1 0.014084 -0.007315 -0.007909 0.000000 0.003078 0.000000
# 2 -0.007315 0.036988 -0.006467 0.000000 -0.007135 0.000000
# 3 -0.007909 -0.006467 0.020774 0.000000 0.008059 0.000000
# 4 0.000000 0.000000 0.000000 0.052373 0.000000 0.007325
# 5 0.003078 -0.007135 0.008059 0.000000 0.045659 0.000000
# 6 0.000000 0.000000 0.000000 0.007325 0.000000 0.047177
#
#
# Mechanical properties :
#
#
# Convention : Reuss Voigt Hill
#
# Bulk Modulus (GPa) = 35.13444 55.80072 45.46758
# Shear Modulus (GPa) = 18.52356 21.96364 20.24360
#
# Velocity S-wave (km/s) = 3.43529 3.74070 3.59124
# Velocity P-wave (km/s) = 6.17404 7.36256 6.79434
#
# Compressibility (1/GPa) = 0.02846210
#
# Stress axis : x y z
#
# Youngs Moduli (GPa) = 71.00428 27.03586 48.13653
#
# Poissons Ratio (x) = 0.19778 0.38072
# Poissons Ratio (y) = 0.51942 0.31132
# Poissons Ratio (z) = 0.56158 0.17485
#
# Static dielectric constant tensor:
#      x y z
#    x 1.520380 0.000000 -0.010080 
#    y 0.000000 1.526810 0.000000 
#    z -0.010080 0.000000 1.509820 
# 
# From -- ./inp_files/248271.got.cif
#   From: 2010.05.17/outbox.cif.g08.bks.cpg/sg12_125_cif.got.tgz:248271.got - 2010.06.03 13:09:07.
