data_PCOD9173034
_publ_section_title
;
Structure prediction by ZEFSAII (Michael W. Deem and Ramdas Pophale) SiO2 
 PCOD9173034
Probable space group: C 2/M
;
_chemical_formula_sum "Si O2"
_cell_formula_units_Z 56
_cell_length_a 30.227843
_cell_length_b 7.632776
_cell_length_c 12.146997
_cell_angle_alpha 90.000000
_cell_angle_beta 116.461553
_cell_angle_gamma 90.000000
_cell_volume 2508.967057
_symmetry_space_group_name_H-M "C 2/M"
_symmetry_group_IT_number 12
_symmetry_cell_setting 'monoclinic'
loop_
_space_group_symop_operation_xyz
x,y,z
-x,y,-z
-x,-y,-z
x,-y,z
1/2+x,1/2+y,z
1/2-x,1/2+y,-z
1/2-x,1/2-y,-z
1/2+x,1/2-y,z
loop_
_atom_site_type_symbol
_atom_site_label
_atom_site_fract_x
_atom_site_fract_y
_atom_site_fract_z
Si Si1 0.917374 0.297965 0.114728
Si Si2 0.691256 0.208196 0.426001
Si Si3 0.354330 0.286879 0.243616
Si Si4 0.651386 0.784274 0.146179
Si Si5 0.103249 0.206143 0.487904
Si Si6 0.502163 0.203296 0.627733
Si Si7 0.252751 0.791226 0.875010
O O1 0.931398 0.500000 0.109361
O O2 0.870305 0.290757 0.145114
O O3 0.960234 0.217521 0.239919
O O4 0.897076 0.225451 0.976020
O O5 0.750000 0.250000 0.500000
O O6 0.664122 0.272231 0.284047
O O7 0.654942 0.266887 0.483183
O O8 0.689358 0.000000 0.420525
O O9 0.354681 0.500000 0.234298
O O10 0.391048 0.230881 0.380179
O O11 0.300449 0.229759 0.224724
O O12 0.699243 0.721491 0.131004
O O13 0.649780 0.000000 0.143215
O O14 0.053500 0.289875 0.386589
O O15 0.094171 0.000000 0.480534
O O16 0.500000 0.279273 0.500000
O O17 0.517009 0.000000 0.631458
O O18 0.254280 0.000000 0.861367
O O19 0.250000 0.750000 0.000000
#
# Coordination Sequence:
#
# PCOD9173034 Si02
#       7
#     8   8   8   8   8   8   8
#     4  10  19  34  57  83 114 149 187 233 289 349
#     4  11  23  42  65  87 116 154 200 245 290 344
#     4  10  20  32  50  80 116 149 184 234 289 344
#     4   9  19  36  57  80 113 154 191 237 290 347
#     4  11  23  39  60  85 117 157 200 241 292 348
#     4  10  20  35  58  90 121 150 193 246 294 346
#     4  10  18  30  49  76 109 141 178 223 278 340
#
# _framework density 22.319942000000001
#
# number of rings (size 3 to 8) (size 9 to 14) (size 15 to 20)
#    0.000    1.857    2.857    1.714    0.000    3.714 
#    0.000    5.000    0.000    4.286    0.000    0.000 
#    0.000    0.000    0.000    0.000    0.000    0.000 
#
# Total GULP energy -156148.852338 kJ/mol
# GULP energy per Si atom -5576.744726 kJ/mol
# Density = 2.226914 g / cm^3
# Si number density = 22.319942 Si / 1000 Ang^3
#
#
#
# Elastic Constant Matrix: (Units=GPa)
#
#
# Indices 1 2 3 4 5 6 
#
# 1 64.8959 -1.6767 27.3717 0.0000 17.1819 0.0000
# 2 -1.6767 54.3396 3.4256 0.0000 4.8543 0.0000
# 3 27.3717 3.4256 159.1475 0.0000 20.9324 0.0000
# 4 0.0000 0.0000 0.0000 9.8701 0.0000 1.9051
# 5 17.1819 4.8543 20.9324 0.0000 41.6054 0.0000
# 6 0.0000 0.0000 0.0000 1.9051 0.0000 23.5325
#
#
#
# Elastic Compliance Matrix: (Units=1/GPa)
#
#
# Indices 1 2 3 4 5 6 
#
# 1 0.018125 0.001283 -0.002292 0.000000 -0.006482 0.000000
# 2 0.001283 0.018690 -0.000285 0.000000 -0.002567 0.000000
# 3 -0.002292 -0.000285 0.007020 0.000000 -0.002552 0.000000
# 4 0.000000 0.000000 0.000000 0.102925 0.000000 -0.008332
# 5 -0.006482 -0.002567 -0.002552 0.000000 0.028295 0.000000
# 6 0.000000 0.000000 0.000000 -0.008332 0.000000 0.043169
#
#
# Mechanical properties :
#
#
# Convention : Reuss Voigt Hill
#
# Bulk Modulus (GPa) = 24.24554 37.40267 30.82410
# Shear Modulus (GPa) = 21.31635 31.61909 26.46772
#
# Velocity S-wave (km/s) = 3.09372 3.76790 3.44733
# Velocity P-wave (km/s) = 4.86290 5.97690 5.44844
#
# Compressibility (1/GPa) = 0.04124469
#
# Stress axis : x y z
#
# Youngs Moduli (GPa) = 55.17107 53.50550 142.46000
#
# Poissons Ratio (x) = -0.06864 0.32659
# Poissons Ratio (y) = -0.07077 0.04064
# Poissons Ratio (z) = 0.12648 0.01527
#
# Static dielectric constant tensor:
#      x y z
#    x 1.928760 0.000000 0.043830 
#    y 0.000000 1.796890 0.000000 
#    z 0.043830 0.000000 1.897060 
# 
# From -- ./inp_files/181127.got.cif
#   From: 2010.05.17/outbox.cif.g08.bks.cpg/sg12_91_cif.got.tgz:181127.got - 2010.06.03 13:09:07.
