data_PCOD9173861
_publ_section_title
;
Structure prediction by ZEFSAII (Michael W. Deem and Ramdas Pophale) SiO2 
 PCOD9173861
Probable space group: C 2/M
;
_chemical_formula_sum "Si O2"
_cell_formula_units_Z 48
_cell_length_a 28.943695
_cell_length_b 8.518097
_cell_length_c 11.698759
_cell_angle_alpha 90.000000
_cell_angle_beta 78.065878
_cell_angle_gamma 90.000000
_cell_volume 2821.932246
_symmetry_space_group_name_H-M "C 2/M"
_symmetry_group_IT_number 12
_symmetry_cell_setting 'monoclinic'
loop_
_space_group_symop_operation_xyz
x,y,z
-x,y,-z
-x,-y,-z
x,-y,z
1/2+x,1/2+y,z
1/2-x,1/2+y,-z
1/2-x,1/2-y,-z
1/2+x,1/2-y,z
loop_
_atom_site_type_symbol
_atom_site_label
_atom_site_fract_x
_atom_site_fract_y
_atom_site_fract_z
Si Si1 0.841286 0.808979 0.781641
Si Si2 0.522459 0.812000 0.657162
Si Si3 0.954585 0.689564 0.096672
Si Si4 0.141161 0.812401 0.965132
Si Si5 0.571088 0.311737 0.412099
Si Si6 0.260502 0.811800 0.122303
O O1 0.880425 0.756785 0.671337
O O2 0.786889 0.763437 0.785535
O O3 0.842484 0.000000 0.782024
O O4 0.854942 0.758030 0.903889
O O5 0.538283 0.763081 0.775276
O O6 0.472744 0.735169 0.646713
O O7 0.559456 0.762543 0.540609
O O8 0.516628 0.000000 0.657949
O O9 0.952867 0.500000 0.093937
O O10 0.906594 0.753114 0.067256
O O11 0.000000 0.740905 0.000000
O O12 0.188053 0.753952 0.875416
O O13 0.141792 0.000000 0.966235
O O14 0.571836 0.500000 0.423137
O O15 0.262766 0.000000 0.120087
O O16 0.250000 0.750000 0.000000
#
# Coordination Sequence:
#
# PCOD9173861 Si02
#       6
#     8   8   8   8   8   8
#     4   8  16  29  47  72  97 122 154 193 233 275
#     4  10  20  33  47  68  97 124 155 194 236 277
#     4  10  21  35  50  69  95 128 161 192 233 285
#     4  10  19  31  48  72 100 127 157 194 238 283
#     4  10  18  31  51  71  93 123 159 193 230 277
#     4   9  16  29  47  69  98 127 157 194 237 280
#
# _framework density 17.009622
#
# number of rings (size 3 to 8) (size 9 to 14) (size 15 to 20)
#    0.000    2.500    0.000    5.000    0.000    1.667 
#    0.000    9.167    0.000    1.000    0.000    0.000 
#    0.000    0.000    0.000    0.000    0.000    0.000 
#
# Total GULP energy -133781.679983 kJ/mol
# GULP energy per Si atom -5574.236666 kJ/mol
# Density = 1.697091 g / cm^3
# Si number density = 17.009622 Si / 1000 Ang^3
#
#
#
# Elastic Constant Matrix: (Units=GPa)
#
#
# Indices 1 2 3 4 5 6 
#
# 1 157.0398 20.6217 79.1545 0.0000 -23.7971 0.0000
# 2 20.6217 26.3411 16.1561 0.0000 0.7213 0.0000
# 3 79.1545 16.1561 91.1952 0.0000 -15.5345 0.0000
# 4 0.0000 0.0000 0.0000 17.1810 0.0000 2.4097
# 5 -23.7971 0.7213 -15.5345 0.0000 32.3136 0.0000
# 6 0.0000 0.0000 0.0000 2.4097 0.0000 26.6044
#
#
#
# Elastic Compliance Matrix: (Units=1/GPa)
#
#
# Indices 1 2 3 4 5 6 
#
# 1 0.012179 -0.004121 -0.009037 0.000000 0.004716 0.000000
# 2 -0.004121 0.044736 -0.005485 0.000000 -0.006670 0.000000
# 3 -0.009037 -0.005485 0.020334 0.000000 0.003242 0.000000
# 4 0.000000 0.000000 0.000000 0.058953 0.000000 -0.005340
# 5 0.004716 -0.006670 0.003242 0.000000 0.036128 0.000000
# 6 0.000000 0.000000 0.000000 -0.005340 0.000000 0.038071
#
#
# Mechanical properties :
#
#
# Convention : Reuss Voigt Hill
#
# Bulk Modulus (GPa) = 25.02346 56.27120 40.64733
# Shear Modulus (GPa) = 19.15652 25.79606 22.47629
#
# Velocity S-wave (km/s) = 3.35956 3.89852 3.63903
# Velocity P-wave (km/s) = 5.45822 7.30879 6.45022
#
# Compressibility (1/GPa) = 0.03996250
#
# Stress axis : x y z
#
# Youngs Moduli (GPa) = 82.10968 22.35323 49.17941
#
# Poissons Ratio (x) = 0.09211 0.44446
# Poissons Ratio (y) = 0.33834 0.26976
# Poissons Ratio (z) = 0.74206 0.12261
#
# Static dielectric constant tensor:
#      x y z
#    x 1.579680 0.000000 -0.028610 
#    y 0.000000 1.579680 0.000000 
#    z -0.028610 0.000000 1.569840 
# 
# From -- ./inp_files/179218.got.cif
#   From: 2010.05.17/outbox.cif.g08.bks.cpg/sg12_90_cif.got.tgz:179218.got - 2010.06.03 13:09:07.
