data_PCOD9173517
_publ_section_title
;
Structure prediction by ZEFSAII (Michael W. Deem and Ramdas Pophale) SiO2 
 PCOD9173517
Probable space group: C 2/M
;
_chemical_formula_sum "Si O2"
_cell_formula_units_Z 48
_cell_length_a 10.779441
_cell_length_b 29.626500
_cell_length_c 14.275777
_cell_angle_alpha 90.000000
_cell_angle_beta 32.552786
_cell_angle_gamma 90.000000
_cell_volume 2453.128385
_symmetry_space_group_name_H-M "C 2/M"
_symmetry_group_IT_number 12
_symmetry_cell_setting 'monoclinic'
loop_
_space_group_symop_operation_xyz
x,y,z
-x,y,-z
-x,-y,-z
x,-y,z
1/2+x,1/2+y,z
1/2-x,1/2+y,-z
1/2-x,1/2-y,-z
1/2+x,1/2-y,z
loop_
_atom_site_type_symbol
_atom_site_label
_atom_site_fract_x
_atom_site_fract_y
_atom_site_fract_z
Si Si1 0.728591 0.500000 0.420181
Si Si2 0.628850 0.402647 0.517077
Si Si3 0.135706 0.310099 0.635871
Si Si4 0.642455 0.666679 0.996138
Si Si5 0.761273 0.220568 0.355289
Si Si6 0.267161 0.899620 0.084055
Si Si7 0.133974 0.500000 0.013063
O O1 0.500000 0.500000 0.500000
O O2 0.724678 0.452678 0.476997
O O3 0.946882 0.500000 0.213758
O O4 0.500000 0.405881 0.500000
O O5 0.810019 0.362767 0.389478
O O6 0.444684 0.389928 0.712562
O O7 0.217895 0.274900 0.662414
O O8 0.275391 0.294683 0.454617
O O9 0.858131 0.306303 0.813806
O O10 0.459163 0.698015 0.167600
O O11 0.746875 0.632813 0.007416
O O12 0.500000 0.645272 0.000000
O O13 0.500000 0.206332 0.500000
O O14 0.500000 0.895389 0.000000
O O15 0.242609 0.951706 0.065948
O O16 0.000000 0.500000 0.000000
#
# Coordination Sequence:
#
# PCOD9173517 Si02
#       7
#     4   8   8   8   8   8   4
#     4  10  18  30  54  84 125 164 200 251 327 374
#     4  11  20  36  58  92 125 165 206 263 317 379
#     4  11  23  40  64  88 124 164 216 258 316 376
#     4  12  24  43  65  94 128 173 211 262 324 387
#     4  11  23  43  62  89 123 169 210 267 316 380
#     4  11  22  38  62  95 128 166 219 266 323 379
#     4  10  18  34  57  90 127 164 207 270 321 377
#
# _framework density 19.566852000000001
#
# number of rings (size 3 to 8) (size 9 to 14) (size 15 to 20)
#    0.000    1.000    3.333    7.500    0.000    0.000 
#    0.000    0.417    0.000    0.000    0.000    4.667 
#    0.000    0.000    0.000    0.000    0.000    0.000 
#
# Total GULP energy -133785.847533 kJ/mol
# GULP energy per Si atom -5574.410314 kJ/mol
# Density = 1.952232 g / cm^3
# Si number density = 19.566852 Si / 1000 Ang^3
#
#
#
# Elastic Constant Matrix: (Units=GPa)
#
#
# Indices 1 2 3 4 5 6 
#
# 1 53.2925 24.5443 20.2844 0.0000 5.5950 0.0000
# 2 24.5443 120.1026 35.9751 0.0000 -5.1486 0.0000
# 3 20.2844 35.9751 151.0292 0.0000 0.6784 0.0000
# 4 0.0000 0.0000 0.0000 26.9600 0.0000 5.9297
# 5 5.5950 -5.1486 0.6784 0.0000 27.6757 0.0000
# 6 0.0000 0.0000 0.0000 5.9297 0.0000 32.0134
#
#
#
# Elastic Compliance Matrix: (Units=1/GPa)
#
#
# Indices 1 2 3 4 5 6 
#
# 1 0.021944 -0.004124 -0.001942 0.000000 -0.005156 0.000000
# 2 -0.004124 0.009824 -0.001798 0.000000 0.002705 0.000000
# 3 -0.001942 -0.001798 0.007311 0.000000 -0.000121 0.000000
# 4 0.000000 0.000000 0.000000 0.038667 0.000000 -0.007162
# 5 -0.005156 0.002705 -0.000121 0.000000 0.037681 0.000000
# 6 0.000000 0.000000 0.000000 -0.007162 0.000000 0.032564
#
#
# Mechanical properties :
#
#
# Convention : Reuss Voigt Hill
#
# Bulk Modulus (GPa) = 42.82528 54.00354 48.41441
# Shear Modulus (GPa) = 29.15413 33.57118 31.36266
#
# Velocity S-wave (km/s) = 3.86421 4.14662 4.00790
# Velocity P-wave (km/s) = 6.46867 7.11234 6.79812
#
# Compressibility (1/GPa) = 0.02335069
#
# Stress axis : x y z
#
# Youngs Moduli (GPa) = 45.57036 101.79569 136.78163
#
# Poissons Ratio (x) = 0.41980 0.26560
# Poissons Ratio (y) = 0.18793 0.24597
# Poissons Ratio (z) = 0.08849 0.18305
#
# Static dielectric constant tensor:
#      x y z
#    x 1.707590 0.000000 -0.005980 
#    y 0.000000 1.754640 0.000000 
#    z -0.005980 0.000000 1.672900 
# 
# From -- ./inp_files/209325.got.cif
#   From: 2010.05.17/outbox.cif.g08.bks.cpg/sg12_105_cif.got.tgz:209325.got - 2010.06.03 13:09:07.
