data_PCOD9173438
_publ_section_title
;
Structure prediction by ZEFSAII (Michael W. Deem and Ramdas Pophale) SiO2 
 PCOD9173438
Probable space group: C 2/M
;
_chemical_formula_sum "Si O2"
_cell_formula_units_Z 56
_cell_length_a 14.428568
_cell_length_b 30.105424
_cell_length_c 9.532164
_cell_angle_alpha 90.000000
_cell_angle_beta 130.568812
_cell_angle_gamma 90.000000
_cell_volume 3145.277595
_symmetry_space_group_name_H-M "C 2/M"
_symmetry_group_IT_number 12
_symmetry_cell_setting 'monoclinic'
loop_
_space_group_symop_operation_xyz
x,y,z
-x,y,-z
-x,-y,-z
x,-y,z
1/2+x,1/2+y,z
1/2-x,1/2+y,-z
1/2-x,1/2-y,-z
1/2+x,1/2-y,z
loop_
_atom_site_type_symbol
_atom_site_label
_atom_site_fract_x
_atom_site_fract_y
_atom_site_fract_z
Si Si1 0.091460 0.000000 0.725050
Si Si2 0.737143 0.651241 0.925933
Si Si3 0.636694 0.097314 0.186604
Si Si4 0.009035 0.903489 0.680407
Si Si5 0.276753 0.649777 0.533948
Si Si6 0.358496 0.717689 0.389930
Si Si7 0.358393 0.822492 0.333442
Si Si8 0.149793 0.500000 0.175542
O O1 0.054389 0.953261 0.759865
O O2 0.000000 0.000000 0.500000
O O3 0.236723 0.000000 0.826808
O O4 0.818560 0.664687 0.137540
O O5 0.787711 0.612231 0.875394
O O6 0.604911 0.632179 0.834714
O O7 0.719540 0.693030 0.806007
O O8 0.661665 0.132682 0.331100
O O9 0.669696 0.047533 0.266981
O O10 0.500000 0.097921 0.000000
O O11 0.000000 0.900018 0.500000
O O12 0.879005 0.887591 0.609039
O O13 0.322003 0.695145 0.502130
O O14 0.234176 0.654697 0.649665
O O15 0.500000 0.706812 0.500000
O O16 0.345875 0.770154 0.357926
O O17 0.500000 0.834396 0.500000
O O18 0.000000 0.500000 0.000000
#
# Coordination Sequence:
#
# PCOD9173438 Si02
#       8
#     4   8   8   8   8   8   8   4
#     4  10  18  30  56  93 118 142 189 240 297 333
#     4  11  19  36  58  79 114 147 186 229 290 329
#     4  10  19  32  57  81 110 147 185 227 272 341
#     4  11  18  35  61  88 113 146 182 243 286 342
#     4  11  20  37  57  80 114 146 186 235 289 332
#     4  10  19  38  59  80 109 143 192 239 285 332
#     4  11  25  37  53  80 114 152 192 235 278 346
#     4  10  18  30  52  90 115 142 187 234 284 332
#
# _framework density 17.804470999999999
#
# number of rings (size 3 to 8) (size 9 to 14) (size 15 to 20)
#    0.000    1.429    5.714    2.571    0.000    0.571 
#    0.000    0.000    6.286    4.286    0.000    7.000 
#    0.000    0.000    0.000    0.000    0.000    0.000 
#
# Total GULP energy -155916.070685 kJ/mol
# GULP energy per Si atom -5568.431096 kJ/mol
# Density = 1.776395 g / cm^3
# Si number density = 17.804471 Si / 1000 Ang^3
#
#
#
# Elastic Constant Matrix: (Units=GPa)
#
#
# Indices 1 2 3 4 5 6 
#
# 1 71.3569 12.6847 23.1022 0.0000 2.5670 0.0000
# 2 12.6847 51.5295 -3.9925 0.0000 7.9211 0.0000
# 3 23.1022 -3.9925 64.8895 0.0000 6.2038 0.0000
# 4 0.0000 0.0000 0.0000 7.8167 0.0000 5.5391
# 5 2.5670 7.9211 6.2038 0.0000 24.5011 0.0000
# 6 0.0000 0.0000 0.0000 5.5391 0.0000 10.1720
#
#
#
# Elastic Compliance Matrix: (Units=1/GPa)
#
#
# Indices 1 2 3 4 5 6 
#
# 1 0.016924 -0.004889 -0.006464 0.000000 0.001444 0.000000
# 2 -0.004889 0.022073 0.003825 0.000000 -0.007592 0.000000
# 3 -0.006464 0.003825 0.018448 0.000000 -0.005230 0.000000
# 4 0.000000 0.000000 0.000000 0.208311 0.000000 -0.113433
# 5 0.001444 -0.007592 -0.005230 0.000000 0.044442 0.000000
# 6 0.000000 0.000000 0.000000 -0.113433 0.000000 0.160077
#
#
# Mechanical properties :
#
#
# Convention : Reuss Voigt Hill
#
# Bulk Modulus (GPa) = 23.59179 27.92944 25.76061
# Shear Modulus (GPa) = 10.01078 18.89676 14.45377
#
# Velocity S-wave (km/s) = 2.37378 3.26137 2.85231
# Velocity P-wave (km/s) = 4.55986 5.46835 5.03464
#
# Compressibility (1/GPa) = 0.04238763
#
# Stress axis : x y z
#
# Youngs Moduli (GPa) = 59.08764 45.30373 54.20762
#
# Poissons Ratio (x) = 0.22149 0.35041
# Poissons Ratio (y) = 0.28888 -0.20732
# Poissons Ratio (z) = 0.38196 -0.17327
#
# Static dielectric constant tensor:
#      x y z
#    x 1.740710 0.000000 0.091230 
#    y 0.000000 1.640300 0.000000 
#    z 0.091230 0.000000 1.631220 
# 
# From -- ./inp_files/68341.got.cif
#   From: 2010.05.17/outbox.cif.g08.bks.cpg/sg12_35_cif.got.tgz:68341.got - 2010.06.03 13:09:07.
