data_PCOD9173559
_publ_section_title
;
Structure prediction by ZEFSAII (Michael W. Deem and Ramdas Pophale) SiO2 
 PCOD9173559
Probable space group: C 2/M
;
_chemical_formula_sum "Si O2"
_cell_formula_units_Z 56
_cell_length_a 14.440991
_cell_length_b 17.806804
_cell_length_c 12.160701
_cell_angle_alpha 90.000000
_cell_angle_beta 111.169478
_cell_angle_gamma 90.000000
_cell_volume 2916.070521
_symmetry_space_group_name_H-M "C 2/M"
_symmetry_group_IT_number 12
_symmetry_cell_setting 'monoclinic'
loop_
_space_group_symop_operation_xyz
x,y,z
-x,y,-z
-x,-y,-z
x,-y,z
1/2+x,1/2+y,z
1/2-x,1/2+y,-z
1/2-x,1/2-y,-z
1/2+x,1/2-y,z
loop_
_atom_site_type_symbol
_atom_site_label
_atom_site_fract_x
_atom_site_fract_y
_atom_site_fract_z
Si Si1 0.978554 0.089904 0.670444
Si Si2 0.161622 0.909910 0.595094
Si Si3 0.754296 0.761200 0.133346
Si Si4 0.675431 0.084544 0.064832
Si Si5 0.548947 0.308353 0.128418
Si Si6 0.615082 0.914190 0.281094
Si Si7 0.931310 0.670831 0.175561
O O1 0.890075 0.101997 0.544604
O O2 0.957727 0.136940 0.770716
O O3 0.079398 0.113883 0.649733
O O4 0.984670 0.000000 0.694215
O O5 0.275309 0.881726 0.646760
O O6 0.171340 0.000000 0.616627
O O7 0.753435 0.851504 0.133860
O O8 0.657404 0.724995 0.147454
O O9 0.849262 0.714186 0.211686
O O10 0.750000 0.750000 0.000000
O O11 0.605932 0.083839 0.143295
O O12 0.714761 0.000000 0.068943
O O13 0.621899 0.112565 0.931095
O O14 0.481280 0.235954 0.124463
O O15 0.500000 0.345630 0.000000
O O16 0.520595 0.867683 0.279268
O O17 0.610427 0.000000 0.318190
#
# Coordination Sequence:
#
# PCOD9173559 Si02
#       7
#     8   8   8   8   8   8   8
#     4   9  20  37  59  85 120 163 199 250 300 353
#     4   8  17  37  61  88 115 148 206 259 301 336
#     4  10  21  36  51  78 118 165 187 226 303 358
#     4  10  19  33  54  83 110 143 198 247 283 338
#     4  12  21  35  56  83 117 160 198 236 305 369
#     4  10  18  30  57  87 107 140 199 257 288 339
#     4  11  21  35  53  78 122 161 183 241 309 356
#
# _framework density 19.203925000000002
#
# number of rings (size 3 to 8) (size 9 to 14) (size 15 to 20)
#    0.000    2.000    4.286    1.714    2.000    1.429 
#    0.000    4.286    0.000    0.857    0.000    3.000 
#    0.000    0.000    0.000    2.571    0.000    0.000 
#
# Total GULP energy -156009.149444 kJ/mol
# GULP energy per Si atom -5571.755337 kJ/mol
# Density = 1.916022 g / cm^3
# Si number density = 19.203925 Si / 1000 Ang^3
#
#
#
# Elastic Constant Matrix: (Units=GPa)
#
#
# Indices 1 2 3 4 5 6 
#
# 1 139.2092 60.2770 46.2707 0.0000 25.9363 0.0000
# 2 60.2770 109.7779 46.2978 0.0000 5.3420 0.0000
# 3 46.2707 46.2978 78.2900 0.0000 9.1958 0.0000
# 4 0.0000 0.0000 0.0000 14.4118 0.0000 8.5097
# 5 25.9363 5.3420 9.1958 0.0000 34.7949 0.0000
# 6 0.0000 0.0000 0.0000 8.5097 0.0000 30.1196
#
#
#
# Elastic Compliance Matrix: (Units=1/GPa)
#
#
# Indices 1 2 3 4 5 6 
#
# 1 0.011601 -0.004642 -0.003281 0.000000 -0.007067 0.000000
# 2 -0.004642 0.013994 -0.005868 0.000000 0.002863 0.000000
# 3 -0.003281 -0.005868 0.018359 0.000000 -0.001506 0.000000
# 4 0.000000 0.000000 0.000000 0.083281 0.000000 -0.023529
# 5 -0.007067 0.002863 -0.001506 0.000000 0.033966 0.000000
# 6 0.000000 0.000000 0.000000 -0.023529 0.000000 0.039849
#
#
# Mechanical properties :
#
#
# Convention : Reuss Voigt Hill
#
# Bulk Modulus (GPa) = 61.08230 70.32979 65.70605
# Shear Modulus (GPa) = 21.35947 27.49406 24.42676
#
# Velocity S-wave (km/s) = 3.33865 3.78787 3.57033
# Velocity P-wave (km/s) = 6.83655 7.47213 7.16139
#
# Compressibility (1/GPa) = 0.01637135
#
# Stress axis : x y z
#
# Youngs Moduli (GPa) = 86.20167 71.46086 54.46906
#
# Poissons Ratio (x) = 0.33173 0.17871
# Poissons Ratio (y) = 0.40016 0.31962
# Poissons Ratio (z) = 0.28282 0.41933
#
# Static dielectric constant tensor:
#      x y z
#    x 1.725560 0.000000 0.040530 
#    y 0.000000 1.718960 0.000000 
#    z 0.040530 0.000000 1.745690 
# 
# From -- ./inp_files/145675.got.cif
#   From: 2010.05.17/outbox.cif.g08.bks.cpg/sg12_73_cif.got.tgz:145675.got - 2010.06.03 13:09:07.
