data_PCOD9173051
_publ_section_title
;
Structure prediction by ZEFSAII (Michael W. Deem and Ramdas Pophale) SiO2 
 PCOD9173051
Probable space group: C 2/M
;
_chemical_formula_sum "Si O2"
_cell_formula_units_Z 56
_cell_length_a 20.377292
_cell_length_b 7.477419
_cell_length_c 21.991473
_cell_angle_alpha 90.000000
_cell_angle_beta 54.434555
_cell_angle_gamma 90.000000
_cell_volume 2725.739022
_symmetry_space_group_name_H-M "C 2/M"
_symmetry_group_IT_number 12
_symmetry_cell_setting 'monoclinic'
loop_
_space_group_symop_operation_xyz
x,y,z
-x,y,-z
-x,-y,-z
x,-y,z
1/2+x,1/2+y,z
1/2-x,1/2+y,-z
1/2-x,1/2-y,-z
1/2+x,1/2-y,z
loop_
_atom_site_type_symbol
_atom_site_label
_atom_site_fract_x
_atom_site_fract_y
_atom_site_fract_z
Si Si1 0.506712 0.281964 0.368320
Si Si2 0.171328 0.785614 0.501177
Si Si3 0.760846 0.286854 0.202627
Si Si4 0.343620 0.718488 0.629170
Si Si5 0.614812 0.718381 0.198245
Si Si6 0.844271 0.786132 0.954207
Si Si7 0.409684 0.285665 0.045829
O O1 0.506554 0.500000 0.369157
O O2 0.414921 0.221138 0.426168
O O3 0.569834 0.228980 0.387831
O O4 0.545991 0.226629 0.282915
O O5 0.250000 0.750000 0.500000
O O6 0.174240 0.720836 0.429592
O O7 0.165554 0.000000 0.501358
O O8 0.752366 0.500000 0.208876
O O9 0.725052 0.222347 0.285951
O O10 0.699571 0.223378 0.182893
O O11 0.851450 0.248939 0.134011
O O12 0.344408 0.500000 0.627673
O O13 0.614402 0.500000 0.197669
O O14 0.611763 0.780692 0.130515
O O15 0.872201 0.713595 0.003707
O O16 0.856135 0.000000 0.948591
O O17 0.750000 0.750000 0.000000
O O18 0.413486 0.500000 0.039099
O O19 0.500000 0.216604 0.000000
#
# Coordination Sequence:
#
# PCOD9173051 Si02
#       7
#     8   8   8   8   8   8   8
#     4   8  14  27  50  75  93 118 162 203 231 270
#     4  10  19  32  50  74 103 129 155 190 237 288
#     4   9  16  30  52  73  92 120 161 205 242 276
#     4   8  15  29  52  76  94 118 160 208 239 267
#     4   8  14  26  47  74  93 111 154 208 240 264
#     4  10  18  30  50  70  94 125 159 199 239 278
#     4  10  21  34  45  67 102 134 158 191 242 291
#
# _framework density 20.544886000000002
#
# number of rings (size 3 to 8) (size 9 to 14) (size 15 to 20)
#    0.000    3.000    1.429    2.143    0.000    2.000 
#    2.571    0.714    0.000    6.000    0.000    0.000 
#    0.000    0.000    0.000    0.000    0.000    0.000 
#
# Total GULP energy -156116.267299 kJ/mol
# GULP energy per Si atom -5575.580975 kJ/mol
# Density = 2.049812 g / cm^3
# Si number density = 20.544886 Si / 1000 Ang^3
#
#
#
# Elastic Constant Matrix: (Units=GPa)
#
#
# Indices 1 2 3 4 5 6 
#
# 1 132.4611 -0.9408 103.1472 -0.0001 -12.8447 0.0008
# 2 -0.9408 56.3821 1.7375 -0.0001 1.7727 -0.0010
# 3 103.1472 1.7375 184.8752 -0.0002 -11.2258 0.0002
# 4 -0.0001 -0.0001 -0.0002 -0.2933 0.0000 1.2772
# 5 -12.8447 1.7727 -11.2258 0.0000 31.4493 0.0001
# 6 0.0008 -0.0010 0.0002 1.2772 0.0001 8.7950
#
#
#
# Elastic Compliance Matrix: (Units=1/GPa)
#
#
# Indices 1 2 3 4 5 6 
#
# 1 0.013612 0.000365 -0.007423 -0.000001 0.002889 -0.000001
# 2 0.000365 0.017787 -0.000432 0.000001 -0.001008 0.000002
# 3 -0.007423 -0.000432 0.009579 -0.000002 0.000412 0.000001
# 4 -0.000001 0.000001 -0.000002 -2.088617 -0.000001 0.303306
# 5 0.002889 -0.001008 0.000412 -0.000001 0.033181 -0.000001
# 6 -0.000001 0.000002 0.000001 0.303306 -0.000001 0.069656
#
#
# Mechanical properties :
#
#
# Convention : Reuss Voigt Hill
#
# Bulk Modulus (GPa) = 38.46215 64.62294 51.54255
# Shear Modulus (GPa) = -2.60260 25.97516 11.68628
#
# Velocity S-wave (km/s) = -1.12674 3.55958 2.38758
# Velocity P-wave (km/s) = 4.13146 6.95823 5.72214
#
# Compressibility (1/GPa) = 0.02599959
#
# Stress axis : x y z
#
# Youngs Moduli (GPa) = 73.46394 56.22020 104.39058
#
# Poissons Ratio (x) = -0.02052 0.77485
# Poissons Ratio (y) = -0.02682 0.04510
# Poissons Ratio (z) = 0.54529 0.02429
#
# Static dielectric constant tensor:
#      x y z
#    x 1.708490 0.000000 0.005630 
#    y 0.000000 1.796700 0.000000 
#    z 0.005630 0.000000 1.744630 
# 
# From -- ./inp_files/315271.got.cif
#   From: 2010.05.17/outbox.cif.g08.bks.cpg/sg12_158_cif.got.tgz:315271.got - 2010.06.03 13:09:07.
