data_PCOD9173059
_publ_section_title
;
Structure prediction by ZEFSAII (Michael W. Deem and Ramdas Pophale) SiO2 
 PCOD9173059
Probable space group: C 2/M
;
_chemical_formula_sum "Si O2"
_cell_formula_units_Z 64
_cell_length_a 23.774216
_cell_length_b 7.319275
_cell_length_c 20.913810
_cell_angle_alpha 90.000000
_cell_angle_beta 131.180171
_cell_angle_gamma 90.000000
_cell_volume 2739.027246
_symmetry_space_group_name_H-M "C 2/M"
_symmetry_group_IT_number 12
_symmetry_cell_setting 'monoclinic'
loop_
_space_group_symop_operation_xyz
x,y,z
-x,y,-z
-x,-y,-z
x,-y,z
1/2+x,1/2+y,z
1/2-x,1/2+y,-z
1/2-x,1/2-y,-z
1/2+x,1/2-y,z
loop_
_atom_site_type_symbol
_atom_site_label
_atom_site_fract_x
_atom_site_fract_y
_atom_site_fract_z
Si Si1 0.334867 0.718404 0.585922
Si Si2 0.352068 0.291815 0.740193
Si Si3 0.642255 0.709951 0.868695
Si Si4 0.313767 0.721258 0.341405
Si Si5 0.570352 0.722577 0.463616
Si Si6 0.089646 0.776683 0.698732
Si Si7 0.915663 0.776850 0.919649
Si Si8 0.187263 0.222091 0.039265
O O1 0.343333 0.500000 0.595663
O O2 0.250000 0.750000 0.500000
O O3 0.353261 0.791173 0.670222
O O4 0.388831 0.783164 0.570455
O O5 0.380028 0.500000 0.755127
O O6 0.265201 0.294367 0.695258
O O7 0.394131 0.211056 0.832730
O O8 0.618397 0.500000 0.858247
O O9 0.593498 0.788834 0.774485
O O10 0.727364 0.715033 0.905488
O O11 0.645473 0.785239 0.942849
O O12 0.308805 0.500000 0.339660
O O13 0.379068 0.778474 0.439020
O O14 0.338725 0.777360 0.289344
O O15 0.569980 0.500000 0.465302
O O16 0.484710 0.779258 0.394387
O O17 0.089665 0.000000 0.700545
O O18 0.856201 0.719909 0.929553
O O19 0.912601 0.000000 0.916681
O O20 0.000000 0.724894 0.000000
O O21 0.189374 0.000000 0.039866
#
# Coordination Sequence:
#
# PCOD9173059 Si02
#       8
#     8   8   8   8   8   8   8   8
#     4  10  19  32  50  71  95 123 158 198 237 278
#     4  10  20  32  50  74  97 125 161 199 237 281
#     4   9  17  29  47  71  94 120 154 195 237 279
#     4  10  18  30  50  71  94 126 159 193 237 285
#     4   9  17  29  46  69  94 122 155 194 237 277
#     4   9  17  28  45  71  97 119 155 200 236 275
#     4   9  18  32  49  71  98 127 160 198 239 282
#     4   9  17  30  49  69  92 123 156 192 236 283
#
# _framework density 23.365960000000001
#
# number of rings (size 3 to 8) (size 9 to 14) (size 15 to 20)
#    0.000    2.625    1.250    1.125    0.000    2.500 
#    0.000    5.000    0.000    5.250    0.000    3.500 
#    0.000    0.000    0.000    0.000    0.000    0.000 
#
# Total GULP energy -178762.441025 kJ/mol
# GULP energy per Si atom -5586.326282 kJ/mol
# Density = 2.331278 g / cm^3
# Si number density = 23.365960 Si / 1000 Ang^3
#
#
#
# Elastic Constant Matrix: (Units=GPa)
#
#
# Indices 1 2 3 4 5 6 
#
# 1 66.7504 -7.0198 14.7100 0.0000 -24.7950 0.0000
# 2 -7.0198 96.7396 -2.3127 0.0000 -6.7629 -0.0004
# 3 14.7100 -2.3127 149.5991 0.0000 -31.2720 0.0000
# 4 0.0000 0.0000 0.0000 -5.0646 0.0000 7.2358
# 5 -24.7950 -6.7629 -31.2720 0.0000 38.0724 0.0000
# 6 0.0000 -0.0004 0.0000 7.2358 0.0000 8.8838
#
#
#
# Elastic Compliance Matrix: (Units=1/GPa)
#
#
# Indices 1 2 3 4 5 6 
#
# 1 0.020457 0.002536 0.001095 0.000000 0.014673 0.000000
# 2 0.002536 0.010837 0.000804 0.000000 0.004237 0.000000
# 3 0.001095 0.000804 0.008171 0.000000 0.007567 0.000000
# 4 0.000000 0.000000 0.000000 -0.091256 0.000000 0.074328
# 5 0.014673 0.004237 0.007567 0.000000 0.042790 0.000000
# 6 0.000000 0.000000 0.000000 0.074328 0.000000 0.052025
#
#
# Mechanical properties :
#
#
# Convention : Reuss Voigt Hill
#
# Bulk Modulus (GPa) = 20.68912 35.98267 28.33589
# Shear Modulus (GPa) = 99.47440 28.89244 64.18342
#
# Velocity S-wave (km/s) = 6.53183 3.52023 5.24675
# Velocity P-wave (km/s) = 8.10925 5.65294 6.98984
#
# Compressibility (1/GPa) = 0.04833458
#
# Stress axis : x y z
#
# Youngs Moduli (GPa) = 48.88329 92.28071 122.38104
#
# Poissons Ratio (x) = -0.23406 -0.13399
# Poissons Ratio (y) = -0.12399 -0.09837
# Poissons Ratio (z) = -0.05352 -0.07418
#
# Static dielectric constant tensor:
#      x y z
#    x 1.843560 0.000000 -0.039940 
#    y 0.000000 2.088410 0.000000 
#    z -0.039940 0.000000 1.880280 
# 
# From -- ./inp_files/324228.got.cif
#   From: 2010.05.17/outbox.cif.g08.bks.cpg/sg12_163_cif.got.tgz:324228.got - 2010.06.03 13:09:07.
