data_PCOD9173780
_publ_section_title
;
Structure prediction by ZEFSAII (Michael W. Deem and Ramdas Pophale) SiO2 
 PCOD9173780
Probable space group: C 2/M
;
_chemical_formula_sum "Si O2"
_cell_formula_units_Z 56
_cell_length_a 24.381665
_cell_length_b 10.286083
_cell_length_c 22.206103
_cell_angle_alpha 90.000000
_cell_angle_beta 143.841640
_cell_angle_gamma 90.000000
_cell_volume 3285.880518
_symmetry_space_group_name_H-M "C 2/M"
_symmetry_group_IT_number 12
_symmetry_cell_setting 'monoclinic'
loop_
_space_group_symop_operation_xyz
x,y,z
-x,y,-z
-x,-y,-z
x,-y,z
1/2+x,1/2+y,z
1/2-x,1/2+y,-z
1/2-x,1/2-y,-z
1/2+x,1/2-y,z
loop_
_atom_site_type_symbol
_atom_site_label
_atom_site_fract_x
_atom_site_fract_y
_atom_site_fract_z
Si Si1 0.134493 0.647176 0.088540
Si Si2 0.991116 0.654042 0.128349
Si Si3 0.303374 0.844604 0.726075
Si Si4 0.790008 0.224289 0.135078
Si Si5 0.637520 0.845173 0.574190
Si Si6 0.433170 0.846513 0.351909
Si Si7 0.863373 0.859072 0.074129
O O1 0.109159 0.500000 0.082292
O O2 0.168624 0.704231 0.181692
O O3 0.220517 0.650264 0.118409
O O4 0.048532 0.697804 0.972620
O O5 0.968537 0.500000 0.114738
O O6 0.935018 0.742322 0.125241
O O7 0.101657 0.667536 0.227523
O O8 0.220251 0.752387 0.631126
O O9 0.278626 0.000000 0.706315
O O10 0.875832 0.273111 0.250394
O O11 0.825563 0.148234 0.108384
O O12 0.724303 0.335979 0.047924
O O13 0.542371 0.815202 0.454036
O O14 0.611678 0.824126 0.621830
O O15 0.658500 0.000000 0.585507
O O16 0.426063 0.000000 0.334038
O O17 0.905523 0.000000 0.099433
#
# Coordination Sequence:
#
# PCOD9173780 Si02
#       7
#     8   8   8   8   8   8   8
#     4   9  16  28  47  71  98 130 165 200 244 298
#     4   9  19  33  49  68  98 138 173 202 240 295
#     4  10  18  31  50  73 100 132 167 204 247 296
#     4  10  18  31  52  72 103 134 163 201 251 299
#     4   9  18  32  50  74 102 131 165 201 245 297
#     4   9  17  31  50  72 101 135 165 197 243 303
#     4  10  21  33  49  77 104 131 169 210 247 289
#
# _framework density 17.042617
#
# number of rings (size 3 to 8) (size 9 to 14) (size 15 to 20)
#    0.000    2.571    1.429    2.143    0.000    6.286 
#    0.000    2.857    0.000    3.429    0.000    0.000 
#    0.000    0.000    0.000    0.000    0.000    0.000 
#
# Total GULP energy -155894.454714 kJ/mol
# GULP energy per Si atom -5567.659097 kJ/mol
# Density = 1.700383 g / cm^3
# Si number density = 17.042617 Si / 1000 Ang^3
#
#
#
# Elastic Constant Matrix: (Units=GPa)
#
#
# Indices 1 2 3 4 5 6 
#
# 1 49.0396 29.0496 26.0148 0.0000 9.7918 0.0000
# 2 29.0496 75.6245 51.0059 0.0000 16.7606 0.0000
# 3 26.0148 51.0059 114.8151 0.0000 14.7494 0.0000
# 4 0.0000 0.0000 0.0000 8.8745 0.0000 17.6629
# 5 9.7918 16.7606 14.7494 0.0000 25.8224 0.0000
# 6 0.0000 0.0000 0.0000 17.6629 0.0000 11.5416
#
#
#
# Elastic Compliance Matrix: (Units=1/GPa)
#
#
# Indices 1 2 3 4 5 6 
#
# 1 0.027074 -0.008210 -0.002000 0.000000 -0.003795 0.000000
# 2 -0.008210 0.023061 -0.007405 0.000000 -0.007626 0.000000
# 3 -0.002000 -0.007405 0.012667 0.000000 -0.001671 0.000000
# 4 0.000000 0.000000 0.000000 -0.055078 0.000000 0.084289
# 5 -0.003795 -0.007626 -0.001671 0.000000 0.046069 0.000000
# 6 0.000000 0.000000 0.000000 0.084289 0.000000 -0.042350
#
#
# Mechanical properties :
#
#
# Convention : Reuss Voigt Hill
#
# Bulk Modulus (GPa) = 36.26767 50.17999 43.22383
# Shear Modulus (GPa) = 89.50478 18.14163 53.82320
#
# Velocity S-wave (km/s) = 7.25481 3.26619 5.62584
# Velocity P-wave (km/s) = 9.56572 6.61300 8.22298
#
# Compressibility (1/GPa) = 0.02757276
#
# Stress axis : x y z
#
# Youngs Moduli (GPa) = 36.93643 43.36244 78.94545
#
# Poissons Ratio (x) = 0.35600 0.15786
# Poissons Ratio (y) = 0.30325 0.58460
# Poissons Ratio (z) = 0.07386 0.32110
#
# Static dielectric constant tensor:
#      x y z
#    x 1.588620 0.000000 0.003870 
#    y 0.000000 1.578190 0.000000 
#    z 0.003870 0.000000 1.583530 
# 
# From -- ./inp_files/181932.got.cif
#   From: 2010.05.17/outbox.cif.g08.bks.cpg/sg12_91_cif.got.tgz:181932.got - 2010.06.03 13:09:07.
