data_PCOD9173043
_publ_section_title
;
Structure prediction by ZEFSAII (Michael W. Deem and Ramdas Pophale) SiO2 
 PCOD9173043
Probable space group: C 2/M
;
_chemical_formula_sum "Si O2"
_cell_formula_units_Z 48
_cell_length_a 18.843272
_cell_length_b 8.322201
_cell_length_c 17.465300
_cell_angle_alpha 90.000000
_cell_angle_beta 133.447176
_cell_angle_gamma 90.000000
_cell_volume 1988.439532
_symmetry_space_group_name_H-M "C 2/M"
_symmetry_group_IT_number 12
_symmetry_cell_setting 'monoclinic'
loop_
_space_group_symop_operation_xyz
x,y,z
-x,y,-z
-x,-y,-z
x,-y,z
1/2+x,1/2+y,z
1/2-x,1/2+y,-z
1/2-x,1/2-y,-z
1/2+x,1/2-y,z
loop_
_atom_site_type_symbol
_atom_site_label
_atom_site_fract_x
_atom_site_fract_y
_atom_site_fract_z
Si Si1 0.500746 0.810840 0.167273
Si Si2 0.645782 0.307533 0.392281
Si Si3 0.225172 0.310924 0.719436
Si Si4 0.642642 0.691685 0.054835
Si Si5 0.923057 0.809337 0.502246
Si Si6 0.344978 0.690225 0.176588
O O1 0.601546 0.751738 0.279902
O O2 0.418781 0.761002 0.169814
O O3 0.503830 0.000000 0.160371
O O4 0.459534 0.734944 0.058440
O O5 0.646623 0.500000 0.390027
O O6 0.750000 0.250000 0.500000
O O7 0.576301 0.249765 0.410719
O O8 0.226530 0.500000 0.703356
O O9 0.327725 0.262892 0.835924
O O10 0.182104 0.219380 0.615267
O O11 0.000000 0.263794 0.500000
O O12 0.656335 0.500000 0.059427
O O13 0.730339 0.777815 0.072919
O O14 0.152602 0.728577 0.737408
O O15 0.940533 0.000000 0.519822
O O16 0.362842 0.500000 0.196573
#
# Coordination Sequence:
#
# PCOD9173043 Si02
#       6
#     8   8   8   8   8   8
#     4  12  22  34  55  82 113 156 204 252 306 366
#     4  11  25  44  64  89 123 166 209 255 307 365
#     4   9  19  32  51  80 115 151 190 241 301 359
#     4   9  19  33  50  81 120 156 195 246 309 370
#     4  10  21  38  62  90 120 158 205 255 309 362
#     4  10  18  30  49  79 119 157 194 244 303 364
#
# _framework density 24.139530000000001
#
# number of rings (size 3 to 8) (size 9 to 14) (size 15 to 20)
#    1.000    0.833    0.000    5.500    0.000    3.000 
#    0.000    0.000    0.000    1.000    0.000    7.000 
#    0.000    0.000    0.000    0.000    0.000    0.000 
#
# Total GULP energy -134046.287210 kJ/mol
# GULP energy per Si atom -5585.261967 kJ/mol
# Density = 2.408459 g / cm^3
# Si number density = 24.139530 Si / 1000 Ang^3
#
#
#
# Elastic Constant Matrix: (Units=GPa)
#
#
# Indices 1 2 3 4 5 6 
#
# 1 68.8795 -8.9226 40.3447 0.0000 -1.3313 0.0000
# 2 -8.9226 43.3502 0.0205 0.0000 -1.5373 0.0000
# 3 40.3447 0.0205 178.8071 0.0000 -8.1449 0.0000
# 4 0.0000 0.0000 0.0000 38.0474 0.0000 5.8199
# 5 -1.3313 -1.5373 -8.1449 0.0000 44.1879 0.0000
# 6 0.0000 0.0000 0.0000 5.8199 0.0000 2.4469
#
#
#
# Elastic Compliance Matrix: (Units=1/GPa)
#
#
# Indices 1 2 3 4 5 6 
#
# 1 0.017260 0.003552 -0.003898 0.000000 -0.000075 0.000000
# 2 0.003552 0.023828 -0.000768 0.000000 0.000794 0.000000
# 3 -0.003898 -0.000768 0.006520 0.000000 0.001058 0.000000
# 4 0.000000 0.000000 0.000000 0.041314 0.000000 -0.098264
# 5 -0.000075 0.000794 0.001058 0.000000 0.022851 0.000000
# 6 0.000000 0.000000 0.000000 -0.098264 0.000000 0.642396
#
#
# Mechanical properties :
#
#
# Convention : Reuss Voigt Hill
#
# Bulk Modulus (GPa) = 22.03654 39.32469 30.68062
# Shear Modulus (GPa) = 6.48068 34.24273 20.36170
#
# Velocity S-wave (km/s) = 1.64027 3.77043 2.90746
# Velocity P-wave (km/s) = 3.56875 5.93976 4.89983
#
# Compressibility (1/GPa) = 0.04537917
#
# Stress axis : x y z
#
# Youngs Moduli (GPa) = 57.93720 41.96828 153.36334
#
# Poissons Ratio (x) = -0.14906 0.59785
# Poissons Ratio (y) = -0.20578 0.11777
# Poissons Ratio (z) = 0.22585 0.03223
#
# Static dielectric constant tensor:
#      x y z
#    x 1.661390 0.000000 0.219270 
#    y 0.000000 1.815480 0.000000 
#    z 0.219270 0.000000 1.895910 
# 
# From -- ./inp_files/172419.got.cif
#   From: 2010.05.17/outbox.cif.g08.bks.cpg/sg12_87_cif.got.tgz:172419.got - 2010.06.03 13:09:07.
