data_PCOD9173474
_publ_section_title
;
Structure prediction by ZEFSAII (Michael W. Deem and Ramdas Pophale) SiO2 
 PCOD9173474
Probable space group: C 2/M
;
_chemical_formula_sum "Si O2"
_cell_formula_units_Z 36
_cell_length_a 15.312708
_cell_length_b 13.446892
_cell_length_c 17.404676
_cell_angle_alpha 90.000000
_cell_angle_beta 153.299198
_cell_angle_gamma 90.000000
_cell_volume 1610.299766
_symmetry_space_group_name_H-M "C 2/M"
_symmetry_group_IT_number 12
_symmetry_cell_setting 'monoclinic'
loop_
_space_group_symop_operation_xyz
x,y,z
-x,y,-z
-x,-y,-z
x,-y,z
1/2+x,1/2+y,z
1/2-x,1/2+y,-z
1/2-x,1/2-y,-z
1/2+x,1/2-y,z
loop_
_atom_site_type_symbol
_atom_site_label
_atom_site_fract_x
_atom_site_fract_y
_atom_site_fract_z
Si Si1 0.221306 0.685650 0.555163
Si Si2 0.808464 0.394584 0.203465
Si Si3 0.500000 0.323301 0.500000
Si Si4 0.218893 0.341324 0.152745
Si Si5 0.660872 0.359227 0.921945
O O1 0.250000 0.750000 0.500000
O O2 0.148573 0.756200 0.566876
O O3 0.427471 0.639146 0.739186
O O4 0.040437 0.613762 0.396947
O O5 0.743946 0.500000 0.191371
O O6 0.737031 0.281993 0.169262
O O7 0.748405 0.404199 0.067576
O O8 0.369832 0.378185 0.335186
O O9 0.274731 0.384343 0.113676
O O10 0.000000 0.366458 0.000000
O O11 0.750000 0.250000 0.000000
#
# Coordination Sequence:
#
# PCOD9173474 Si02
#       5
#     8   8   4   8   8
#     4  11  19  35  56  83 112 145 193 228 274 335
#     4  10  22  36  53  82 118 150 181 229 284 337
#     4  10  18  30  53  84 109 134 182 238 276 312
#     4  10  20  32  55  86 110 144 192 227 278 332
#     4  10  18  34  57  80 109 145 193 233 266 328
#
# _framework density 22.356085
#
# number of rings (size 3 to 8) (size 9 to 14) (size 15 to 20)
#    0.000    1.778    6.667    2.667    0.000    1.333 
#    0.000    8.889    0.000    0.667    0.000    3.111 
#    0.000    0.000    0.000    0.000    0.000    0.000 
#
# Total GULP energy -100327.007792 kJ/mol
# GULP energy per Si atom -5573.722655 kJ/mol
# Density = 2.230520 g / cm^3
# Si number density = 22.356085 Si / 1000 Ang^3
#
#
#
# Elastic Constant Matrix: (Units=GPa)
#
#
# Indices 1 2 3 4 5 6 
#
# 1 111.9492 -15.4729 47.7885 -0.0021 -4.0775 -0.0001
# 2 -15.4729 85.3224 -4.6105 -0.0009 -3.1744 0.0017
# 3 47.7885 -4.6105 202.7553 -0.0022 -4.0710 0.0015
# 4 -0.0021 -0.0009 -0.0022 -49.7767 -0.0011 6.2305
# 5 -4.0775 -3.1744 -4.0710 -0.0011 55.0110 0.0006
# 6 -0.0001 0.0017 0.0015 6.2305 0.0006 -5.3869
#
#
#
# Elastic Compliance Matrix: (Units=1/GPa)
#
#
# Indices 1 2 3 4 5 6 
#
# 1 0.010203 0.001749 -0.002351 0.000000 0.000683 -0.000001
# 2 0.001749 0.012061 -0.000121 0.000000 0.000817 0.000004
# 3 -0.002351 -0.000121 0.005488 0.000000 0.000225 0.000002
# 4 0.000000 0.000000 0.000000 -0.023490 0.000000 -0.027169
# 5 0.000683 0.000817 0.000225 0.000000 0.018293 0.000002
# 6 -0.000001 0.000004 0.000002 -0.027169 0.000002 -0.217057
#
#
# Mechanical properties :
#
#
# Convention : Reuss Voigt Hill
#
# Bulk Modulus (GPa) = 38.01737 50.60410 44.31073
# Shear Modulus (GPa) = -27.13168 24.79093 -1.17037
#
# Velocity S-wave (km/s) = -3.48748 3.33365 -0.72433
# Velocity P-wave (km/s) = 0.90864 6.12391 4.37766
#
# Compressibility (1/GPa) = 0.02630377
#
# Stress axis : x y z
#
# Youngs Moduli (GPa) = 98.01137 82.91061 182.21586
#
# Poissons Ratio (x) = -0.14498 0.42844
# Poissons Ratio (y) = -0.17139 0.02214
# Poissons Ratio (z) = 0.23045 0.01007
#
# Static dielectric constant tensor:
#      x y z
#    x 1.804590 0.000000 -0.017060 
#    y 0.000000 1.903300 0.000000 
#    z -0.017060 0.000000 1.790460 
# 
# From -- ./inp_files/271050.got.cif
#   From: 2010.05.17/outbox.cif.g08.bks.cpg/sg12_136_cif.got.tgz:271050.got - 2010.06.03 13:09:07.
