data_PCOD9173679
_publ_section_title
;
Structure prediction by ZEFSAII (Michael W. Deem and Ramdas Pophale) SiO2 
 PCOD9173679
Probable space group: C 2/M
;
_chemical_formula_sum "Si O2"
_cell_formula_units_Z 40
_cell_length_a 28.339891
_cell_length_b 17.280718
_cell_length_c 22.108145
_cell_angle_alpha 90.000000
_cell_angle_beta 12.297739
_cell_angle_gamma 90.000000
_cell_volume 2306.084454
_symmetry_space_group_name_H-M "C 2/M"
_symmetry_group_IT_number 12
_symmetry_cell_setting 'monoclinic'
loop_
_space_group_symop_operation_xyz
x,y,z
-x,y,-z
-x,-y,-z
x,-y,z
1/2+x,1/2+y,z
1/2-x,1/2+y,-z
1/2-x,1/2-y,-z
1/2+x,1/2-y,z
loop_
_atom_site_type_symbol
_atom_site_label
_atom_site_fract_x
_atom_site_fract_y
_atom_site_fract_z
Si Si1 0.036942 0.623092 0.862077
Si Si2 0.625903 0.413683 0.452207
Si Si3 0.328781 0.088861 0.443412
Si Si4 0.032451 0.221956 0.809502
Si Si5 0.224621 0.701646 0.970738
O O1 0.217628 0.598307 0.684999
O O2 0.110350 0.593087 0.704506
O O3 0.018746 0.716542 0.880792
O O4 0.797149 0.592972 0.182199
O O5 0.528381 0.500000 0.575504
O O6 0.439829 0.348560 0.685611
O O7 0.096707 0.134396 0.743981
O O8 0.324936 0.000000 0.467316
O O9 0.522156 0.140567 0.231210
O O10 0.250000 0.250000 0.500000
O O11 0.836531 0.240917 0.008150
O O12 0.250000 0.750000 0.000000
#
# Coordination Sequence:
#
# PCOD9173679 Si02
#       5
#     8   8   8   8   8
#     4   9  18  31  45  67 100 131 154 180 229 285
#     4  11  19  28  46  73  99 125 153 191 230 272
#     4  10  18  31  49  69  92 124 160 196 229 270
#     4   8  17  31  46  62  89 127 158 186 226 275
#     4  10  19  31  45  66  94 124 157 191 231 280
#
# _framework density 17.345419
#
# number of rings (size 3 to 8) (size 9 to 14) (size 15 to 20)
#    0.000    2.800    0.000    6.600    0.000    3.200 
#    0.000    6.000    0.000    0.000    0.000   15.400 
#    0.000    0.000    0.000    0.000    0.000    0.000 
#
# Total GULP energy -111409.088737 kJ/mol
# GULP energy per Si atom -5570.454437 kJ/mol
# Density = 1.730594 g / cm^3
# Si number density = 17.345419 Si / 1000 Ang^3
#
#
#
# Elastic Constant Matrix: (Units=GPa)
#
#
# Indices 1 2 3 4 5 6 
#
# 1 24.0673 24.1709 7.7659 0.0623 -0.7710 -0.0125
# 2 24.1709 138.3025 40.0998 0.0897 -9.7407 -0.0474
# 3 7.7659 40.0998 71.6668 -0.0047 -14.2496 0.0034
# 4 0.0623 0.0897 -0.0047 25.5853 -0.0010 1.6508
# 5 -0.7710 -9.7407 -14.2496 -0.0010 15.3103 0.0057
# 6 -0.0125 -0.0474 0.0034 1.6508 0.0057 22.0607
#
#
#
# Elastic Compliance Matrix: (Units=1/GPa)
#
#
# Indices 1 2 3 4 5 6 
#
# 1 0.050657 -0.008735 -0.001472 -0.000094 -0.004376 0.000018
# 2 -0.008735 0.010155 -0.004342 -0.000016 0.001980 0.000018
# 3 -0.001472 -0.004342 0.019607 0.000024 0.015412 -0.000019
# 4 -0.000094 -0.000016 0.000024 0.039275 0.000011 -0.002939
# 5 -0.004376 0.001980 0.015412 0.000011 0.080699 -0.000022
# 6 0.000018 0.000018 -0.000019 -0.002939 -0.000022 0.045549
#
#
# Mechanical properties :
#
#
# Convention : Reuss Voigt Hill
#
# Bulk Modulus (GPa) = 19.48483 42.01220 30.74852
# Shear Modulus (GPa) = 17.11461 23.39128 20.25294
#
# Velocity S-wave (km/s) = 3.14458 3.67625 3.42076
# Velocity P-wave (km/s) = 4.94391 6.50333 5.77649
#
# Compressibility (1/GPa) = 0.05132197
#
# Stress axis : x y z
#
# Youngs Moduli (GPa) = 19.74045 98.46886 51.00241
#
# Poissons Ratio (x) = 0.86009 0.07508
# Poissons Ratio (y) = 0.17243 0.22146
# Poissons Ratio (z) = 0.02906 0.42757
#
# Static dielectric constant tensor:
#      x y z
#    x 1.600010 0.000010 -0.022950 
#    y 0.000010 1.659120 0.000030 
#    z -0.022950 0.000030 1.597150 
# 
# From -- ./inp_files/112528.got.cif
#   From: 2010.05.17/outbox.cif.g08.bks.cpg/sg12_57_cif.got.tgz:112528.got - 2010.06.03 13:09:07.
