data_PCOD9173991
_publ_section_title
;
Structure prediction by ZEFSAII (Michael W. Deem and Ramdas Pophale) SiO2 
 PCOD9173991
Probable space group: C 2/M
;
_chemical_formula_sum "Si O2"
_cell_formula_units_Z 64
_cell_length_a 15.023978
_cell_length_b 7.538969
_cell_length_c 26.600904
_cell_angle_alpha 90.000000
_cell_angle_beta 87.338976
_cell_angle_gamma 90.000000
_cell_volume 3009.710580
_symmetry_space_group_name_H-M "C 2/M"
_symmetry_group_IT_number 12
_symmetry_cell_setting 'monoclinic'
loop_
_space_group_symop_operation_xyz
x,y,z
-x,y,-z
-x,-y,-z
x,-y,z
1/2+x,1/2+y,z
1/2-x,1/2+y,-z
1/2-x,1/2-y,-z
1/2+x,1/2-y,z
loop_
_atom_site_type_symbol
_atom_site_label
_atom_site_fract_x
_atom_site_fract_y
_atom_site_fract_z
Si Si1 0.752060 0.707756 0.823053
Si Si2 0.728108 0.284353 0.711556
Si Si3 0.646245 0.288082 0.010979
Si Si4 0.607370 0.716530 0.903003
Si Si5 0.749746 0.711116 0.441235
Si Si6 0.611497 0.207053 0.362593
Si Si7 0.417868 0.286052 0.878709
Si Si8 0.410796 0.209571 0.368690
O O1 0.729337 0.500000 0.821158
O O2 0.730889 0.780658 0.768714
O O3 0.694054 0.781091 0.870993
O O4 0.854400 0.723705 0.836144
O O5 0.730576 0.500000 0.711401
O O6 0.815827 0.219651 0.678941
O O7 0.640393 0.231804 0.682834
O O8 0.631193 0.500000 0.013304
O O9 0.616791 0.219446 0.065989
O O10 0.750000 0.250000 0.000000
O O11 0.600595 0.221749 0.960880
O O12 0.610565 0.500000 0.906217
O O13 0.520601 0.765678 0.873785
O O14 0.748177 0.500000 0.434142
O O15 0.750000 0.750000 0.500000
O O16 0.662748 0.781267 0.414429
O O17 0.839277 0.781501 0.411261
O O18 0.511435 0.283173 0.366165
O O19 0.601479 0.000000 0.349548
O O20 0.413411 0.500000 0.878859
O O21 0.419178 0.000000 0.379343
#
# Coordination Sequence:
#
# PCOD9173991 Si02
#       8
#     8   8   8   8   8   8   8   8
#     4  10  20  35  52  73 102 132 161 202 258 303
#     4   9  19  34  53  75 100 131 168 209 253 301
#     4  10  18  31  52  72  94 127 163 200 244 296
#     4   9  18  33  51  70  98 132 161 196 247 303
#     4  10  20  34  52  78 109 140 173 210 251 295
#     4   9  18  35  55  75 102 137 174 211 251 296
#     4  10  20  33  51  74  96 126 169 204 239 298
#     4   9  19  35  55  76 101 136 175 210 249 296
#
# _framework density 21.264503000000001
#
# number of rings (size 3 to 8) (size 9 to 14) (size 15 to 20)
#    0.000    2.500    1.250    0.750    0.000    4.500 
#    0.000    3.750    0.000    1.500    0.000    0.000 
#    0.000    0.000    0.000    0.000    0.000    0.000 
#
# Total GULP energy -178548.262546 kJ/mol
# GULP energy per Si atom -5579.633205 kJ/mol
# Density = 2.121610 g / cm^3
# Si number density = 21.264503 Si / 1000 Ang^3
#
#
#
# Elastic Constant Matrix: (Units=GPa)
#
#
# Indices 1 2 3 4 5 6 
#
# 1 124.5427 -3.4486 32.4140 0.0000 22.6771 0.0000
# 2 -3.4486 49.1226 -9.2007 0.0000 -7.8996 0.0000
# 3 32.4140 -9.2007 108.9573 0.0000 13.1621 0.0000
# 4 0.0000 0.0000 0.0000 6.5649 0.0000 5.8535
# 5 22.6771 -7.8996 13.1621 0.0000 14.3814 0.0000
# 6 0.0000 0.0000 0.0000 5.8535 0.0000 13.2783
#
#
#
# Elastic Compliance Matrix: (Units=1/GPa)
#
#
# Indices 1 2 3 4 5 6 
#
# 1 0.011700 -0.002417 -0.001457 0.000000 -0.018443 0.000000
# 2 -0.002417 0.022849 0.000756 0.000000 0.015671 0.000000
# 3 -0.001457 0.000756 0.010509 0.000000 -0.006906 0.000000
# 4 0.000000 0.000000 0.000000 0.250977 0.000000 -0.110639
# 5 -0.018443 0.015671 -0.006906 0.000000 0.113545 0.000000
# 6 0.000000 0.000000 0.000000 -0.110639 0.000000 0.124085
#
#
# Mechanical properties :
#
#
# Convention : Reuss Voigt Hill
#
# Bulk Modulus (GPa) = 25.75926 35.79467 30.77696
# Shear Modulus (GPa) = 9.04417 24.36876 16.70647
#
# Velocity S-wave (km/s) = 2.06456 3.38891 2.80599
# Velocity P-wave (km/s) = 4.22176 5.67297 5.00029
#
# Compressibility (1/GPa) = 0.03882099
#
# Stress axis : x y z
#
# Youngs Moduli (GPa) = 85.47162 43.76526 95.15327
#
# Poissons Ratio (x) = 0.10580 0.13862
# Poissons Ratio (y) = 0.20662 -0.07189
# Poissons Ratio (z) = 0.12451 -0.03307
#
# Static dielectric constant tensor:
#      x y z
#    x 1.767080 0.000000 -0.017720 
#    y 0.000000 1.871130 0.000000 
#    z -0.017720 0.000000 1.748200 
# 
# From -- ./inp_files/359840.got.cif
#   From: 2010.05.17/outbox.cif.g08.bks.cpg/sg12_180_cif.got.tgz:359840.got - 2010.06.03 13:09:07.
