data_PCOD9173057
_publ_section_title
;
Structure prediction by ZEFSAII (Michael W. Deem and Ramdas Pophale) SiO2 
 PCOD9173057
Probable space group: C 2/M
;
_chemical_formula_sum "Si O2"
_cell_formula_units_Z 56
_cell_length_a 18.600855
_cell_length_b 8.003813
_cell_length_c 30.741604
_cell_angle_alpha 90.000000
_cell_angle_beta 41.477538
_cell_angle_gamma 90.000000
_cell_volume 3031.296495
_symmetry_space_group_name_H-M "C 2/M"
_symmetry_group_IT_number 12
_symmetry_cell_setting 'monoclinic'
loop_
_space_group_symop_operation_xyz
x,y,z
-x,y,-z
-x,-y,-z
x,-y,z
1/2+x,1/2+y,z
1/2-x,1/2+y,-z
1/2-x,1/2-y,-z
1/2+x,1/2-y,z
loop_
_atom_site_type_symbol
_atom_site_label
_atom_site_fract_x
_atom_site_fract_y
_atom_site_fract_z
Si Si1 0.032338 0.202518 0.306577
Si Si2 0.701184 0.698247 0.305034
Si Si3 0.290531 0.186582 0.838152
Si Si4 0.883543 0.184686 0.162746
Si Si5 0.787763 0.798608 0.434938
Si Si6 0.122919 0.702495 0.435525
Si Si7 0.818569 0.500000 0.074618
Si Si8 0.508452 0.000000 0.923170
O O1 0.103780 0.248652 0.316521
O O2 0.094588 0.274994 0.236706
O O3 0.909311 0.259816 0.368808
O O4 0.034480 0.000000 0.302105
O O5 0.716819 0.500000 0.292527
O O6 0.810610 0.784839 0.238473
O O7 0.667430 0.739184 0.369042
O O8 0.203640 0.190040 0.837564
O O9 0.253645 0.334464 0.886540
O O10 0.288628 0.000000 0.857740
O O11 0.965689 0.334757 0.116278
O O12 0.932798 0.000000 0.141009
O O13 0.750000 0.750000 0.500000
O O14 0.701681 0.739013 0.438297
O O15 0.790291 0.000000 0.431885
O O16 0.122491 0.500000 0.435563
O O17 0.000000 0.759286 0.500000
O O18 0.904250 0.500000 0.076370
O O19 0.891336 0.500000 0.998605
#
# Coordination Sequence:
#
# PCOD9173057 Si02
#       8
#     8   8   8   8   8   8   4   4
#     4   9  17  31  49  68  94 130 171 216 258 303
#     4  10  18  30  50  71  93 128 173 216 256 307
#     4   9  16  26  43  66  92 131 172 206 255 304
#     4   9  16  27  43  65  95 130 171 211 250 303
#     4  10  21  35  51  71  98 132 167 212 261 308
#     4  10  21  35  49  70 101 133 166 211 261 312
#     4   9  16  26  40  62 102 134 165 214 245 303
#     4   9  16  26  40  64  97 138 170 200 258 303
#
# _framework density 18.473942999999998
#
# number of rings (size 3 to 8) (size 9 to 14) (size 15 to 20)
#    0.000    2.571    1.429    1.286    0.000    2.571 
#    0.000    2.857    0.000    0.000    0.000    0.000 
#    0.000    1.143    0.571    0.000    0.000    0.000 
#
# Total GULP energy -156197.092297 kJ/mol
# GULP energy per Si atom -5578.467582 kJ/mol
# Density = 1.843190 g / cm^3
# Si number density = 18.473943 Si / 1000 Ang^3
#
#
#
# Elastic Constant Matrix: (Units=GPa)
#
#
# Indices 1 2 3 4 5 6 
#
# 1 52.2444 25.4218 46.4407 0.0021 -3.9419 0.0050
# 2 25.4218 98.4742 75.9952 0.0082 -5.4431 -0.0011
# 3 46.4407 75.9952 169.8230 0.0004 -9.5519 0.0004
# 4 0.0021 0.0082 0.0004 17.5982 0.0003 7.8000
# 5 -3.9419 -5.4431 -9.5519 0.0003 16.6296 0.0009
# 6 0.0050 -0.0011 0.0004 7.8000 0.0009 5.7035
#
#
#
# Elastic Compliance Matrix: (Units=1/GPa)
#
#
# Indices 1 2 3 4 5 6 
#
# 1 0.025566 -0.001804 -0.006073 0.000020 0.001982 -0.000050
# 2 -0.001804 0.015660 -0.006459 -0.000023 0.000988 0.000037
# 3 -0.006073 -0.006459 0.010581 0.000005 0.002524 -0.000004
# 4 0.000020 -0.000023 0.000005 0.144276 0.000008 -0.197308
# 5 0.001982 0.000988 0.002524 0.000008 0.062377 -0.000023
# 6 -0.000050 0.000037 -0.000004 -0.197308 -0.000023 0.445166
#
#
# Mechanical properties :
#
#
# Convention : Reuss Voigt Hill
#
# Bulk Modulus (GPa) = 43.22212 68.47299 55.84756
# Shear Modulus (GPa) = 6.75667 19.49851 13.12759
#
# Velocity S-wave (km/s) = 1.91451 3.25231 2.66860
# Velocity P-wave (km/s) = 5.32299 7.15880 6.30804
#
# Compressibility (1/GPa) = 0.02313630
#
# Stress axis : x y z
#
# Youngs Moduli (GPa) = 39.11401 63.85830 94.50562
#
# Poissons Ratio (x) = 0.11521 0.57390
# Poissons Ratio (y) = 0.07057 0.61038
# Poissons Ratio (z) = 0.23753 0.41244
#
# Static dielectric constant tensor:
#      x y z
#    x 1.623820 0.000000 -0.010470 
#    y 0.000000 1.658640 0.000000 
#    z -0.010470 0.000000 1.606520 
# 
# From -- ./inp_files/345504.got.cif
#   From: 2010.05.17/outbox.cif.g08.bks.cpg/sg12_173_cif.got.tgz:345504.got - 2010.06.03 13:09:07.
