data_PCOD9173332
_publ_section_title
;
Structure prediction by ZEFSAII (Michael W. Deem and Ramdas Pophale) SiO2 
 PCOD9173332
Probable space group: C 2/M
;
_chemical_formula_sum "Si O2"
_cell_formula_units_Z 48
_cell_length_a 14.777333
_cell_length_b 8.657545
_cell_length_c 25.075045
_cell_angle_alpha 90.000000
_cell_angle_beta 41.442027
_cell_angle_gamma 90.000000
_cell_volume 2123.244076
_symmetry_space_group_name_H-M "C 2/M"
_symmetry_group_IT_number 12
_symmetry_cell_setting 'monoclinic'
loop_
_space_group_symop_operation_xyz
x,y,z
-x,y,-z
-x,-y,-z
x,-y,z
1/2+x,1/2+y,z
1/2-x,1/2+y,-z
1/2-x,1/2-y,-z
1/2+x,1/2-y,z
loop_
_atom_site_type_symbol
_atom_site_label
_atom_site_fract_x
_atom_site_fract_y
_atom_site_fract_z
Si Si1 0.177384 0.683090 0.800184
Si Si2 0.068269 0.682090 0.360418
Si Si3 0.322834 0.684185 0.521706
Si Si4 0.918393 0.682795 0.853619
Si Si5 0.575179 0.315758 0.682566
Si Si6 0.656010 0.814568 0.930338
O O1 0.202779 0.500000 0.781569
O O2 0.274163 0.773219 0.716907
O O3 0.208982 0.721943 0.847277
O O4 0.017194 0.710292 0.860170
O O5 0.051300 0.500000 0.374131
O O6 0.980046 0.766837 0.444837
O O7 0.002178 0.738592 0.333505
O O8 0.311162 0.500000 0.528462
O O9 0.250000 0.750000 0.500000
O O10 0.232112 0.759178 0.608297
O O11 0.913442 0.500000 0.846362
O O12 0.765312 0.745979 0.922625
O O13 0.999460 0.762165 0.769128
O O14 0.569074 0.500000 0.679839
O O15 0.654143 0.000000 0.937431
O O16 0.500000 0.759241 0.000000
#
# Coordination Sequence:
#
# PCOD9173332 Si02
#       6
#     8   8   8   8   8   8
#     4  10  22  40  61  88 125 163 199 247 304 359
#     4  11  20  33  56  86 119 158 206 252 298 356
#     4  10  18  30  51  81 117 158 204 251 300 353
#     4  11  23  39  61  91 123 160 204 250 300 357
#     4  11  20  34  56  83 119 160 203 253 305 354
#     4  10  22  42  67  92 121 160 200 243 301 366
#
# _framework density 22.606916999999999
#
# number of rings (size 3 to 8) (size 9 to 14) (size 15 to 20)
#    0.000    1.500    1.667    7.000    0.000    2.333 
#    0.000    0.833    0.000    5.000    0.000    0.000 
#    0.000    0.000    0.000    0.000    0.000    0.000 
#
# Total GULP energy -134238.659366 kJ/mol
# GULP energy per Si atom -5593.277474 kJ/mol
# Density = 2.255546 g / cm^3
# Si number density = 22.606917 Si / 1000 Ang^3
#
#
#
# Elastic Constant Matrix: (Units=GPa)
#
#
# Indices 1 2 3 4 5 6 
#
# 1 65.3318 23.0038 11.5200 0.0000 -20.9278 0.0000
# 2 23.0038 82.5165 28.0477 0.0000 -10.4697 0.0000
# 3 11.5200 28.0477 75.1626 0.0000 -35.2687 0.0000
# 4 0.0000 0.0000 0.0000 30.9572 0.0000 -13.0206
# 5 -20.9278 -10.4697 -35.2687 0.0000 40.4746 0.0000
# 6 0.0000 0.0000 0.0000 -13.0206 0.0000 18.9803
#
#
#
# Elastic Compliance Matrix: (Units=1/GPa)
#
#
# Indices 1 2 3 4 5 6 
#
# 1 0.020979 -0.005980 0.005718 0.000000 0.014284 0.000000
# 2 -0.005980 0.015642 -0.007567 0.000000 -0.005639 0.000000
# 3 0.005718 -0.007567 0.026595 0.000000 0.024174 0.000000
# 4 0.000000 0.000000 0.000000 0.045403 0.000000 0.031147
# 5 0.014284 -0.005639 0.024174 0.000000 0.051698 0.000000
# 6 0.000000 0.000000 0.000000 0.031147 0.000000 0.074053
#
#
# Mechanical properties :
#
#
# Convention : Reuss Voigt Hill
#
# Bulk Modulus (GPa) = 21.02621 38.68375 29.85498
# Shear Modulus (GPa) = 18.80549 28.77838 23.79194
#
# Velocity S-wave (km/s) = 2.88730 3.57177 3.24762
# Velocity P-wave (km/s) = 4.52066 5.84454 5.22470
#
# Compressibility (1/GPa) = 0.04755969
#
# Stress axis : x y z
#
# Youngs Moduli (GPa) = 47.66621 63.92925 37.60159
#
# Poissons Ratio (x) = 0.38229 -0.21502
# Poissons Ratio (y) = 0.28504 0.28452
# Poissons Ratio (z) = -0.27257 0.48373
#
# Static dielectric constant tensor:
#      x y z
#    x 1.887380 0.000000 -0.040750 
#    y 0.000000 1.751330 0.000000 
#    z -0.040750 0.000000 1.871110 
# 
# From -- ./inp_files/360241.got.cif
#   From: 2010.05.17/outbox.cif.g08.bks.cpg/sg12_181_cif.got.tgz:360241.got - 2010.06.03 13:09:07.
