data_PCOD9173330
_publ_section_title
;
Structure prediction by ZEFSAII (Michael W. Deem and Ramdas Pophale) SiO2 
 PCOD9173330
Probable space group: C 2/M
;
_chemical_formula_sum "Si O2"
_cell_formula_units_Z 64
_cell_length_a 30.062579
_cell_length_b 12.744967
_cell_length_c 12.576577
_cell_angle_alpha 90.000000
_cell_angle_beta 142.416547
_cell_angle_gamma 90.000000
_cell_volume 2938.986983
_symmetry_space_group_name_H-M "C 2/M"
_symmetry_group_IT_number 12
_symmetry_cell_setting 'monoclinic'
loop_
_space_group_symop_operation_xyz
x,y,z
-x,y,-z
-x,-y,-z
x,-y,z
1/2+x,1/2+y,z
1/2-x,1/2+y,-z
1/2-x,1/2-y,-z
1/2+x,1/2-y,z
loop_
_atom_site_type_symbol
_atom_site_label
_atom_site_fract_x
_atom_site_fract_y
_atom_site_fract_z
Si Si1 0.463801 0.729791 0.034804
Si Si2 0.443706 0.786355 0.475887
Si Si3 0.779291 0.185352 0.343526
Si Si4 0.777132 0.881563 0.893479
Si Si5 0.160223 0.617643 0.278718
Si Si6 0.549418 0.615782 0.781726
Si Si7 0.601495 0.174624 0.388629
Si Si8 0.316310 0.619434 0.188087
O O1 0.454892 0.639932 0.102488
O O2 0.521207 0.815742 0.188028
O O3 0.500000 0.683546 0.000000
O O4 0.391965 0.793005 0.867577
O O5 0.500000 0.841359 0.500000
O O6 0.499861 0.702123 0.632848
O O7 0.410035 0.855901 0.509046
O O8 0.377534 0.712014 0.308000
O O9 0.749134 0.297505 0.241862
O O10 0.736380 0.141190 0.363320
O O11 0.862436 0.209746 0.532659
O O12 0.778844 0.120940 0.233445
O O13 0.757709 0.000000 0.824686
O O14 0.864419 0.874069 0.073246
O O15 0.757727 0.864951 0.981374
O O16 0.137515 0.500000 0.204992
O O17 0.151364 0.623388 0.390570
O O18 0.524443 0.500000 0.705246
O O19 0.346256 0.500000 0.231666
#
# Coordination Sequence:
#
# PCOD9173330 Si02
#       8
#     8   8   8   8   8   8   8   8
#     4   9  19  37  56  80 110 146 186 237 283 334
#     4  10  18  32  56  82 111 147 181 226 285 341
#     4  11  21  38  57  83 116 152 191 233 287 339
#     4  10  20  33  52  78 111 150 187 224 273 333
#     4  11  22  39  63  84 110 151 197 242 284 336
#     4  10  18  30  51  81 112 143 180 219 271 337
#     4   9  22  37  56  82 114 143 185 238 287 341
#     4  10  20  33  53  84 116 148 188 231 274 332
#
# _framework density 21.776209000000001
#
# number of rings (size 3 to 8) (size 9 to 14) (size 15 to 20)
#    0.000    2.000    2.500    1.500    0.000    3.500 
#    0.000    0.625    0.000    1.875    0.000    0.000 
#    0.000    0.000    0.000    0.000    0.000    0.000 
#
# Total GULP energy -178157.499653 kJ/mol
# GULP energy per Si atom -5567.421864 kJ/mol
# Density = 2.172665 g / cm^3
# Si number density = 21.776209 Si / 1000 Ang^3
#
#
#
# Elastic Constant Matrix: (Units=GPa)
#
#
# Indices 1 2 3 4 5 6 
#
# 1 150.7875 11.1409 8.3712 0.0000 -15.3343 0.0000
# 2 11.1409 51.0765 8.2317 0.0000 -3.2508 0.0000
# 3 8.3712 8.2317 50.6887 0.0000 -5.5142 0.0000
# 4 0.0000 0.0000 0.0000 7.9912 0.0000 -3.4743
# 5 -15.3343 -3.2508 -5.5142 0.0000 30.8134 0.0000
# 6 0.0000 0.0000 0.0000 -3.4743 0.0000 13.2896
#
#
#
# Elastic Compliance Matrix: (Units=1/GPa)
#
#
# Indices 1 2 3 4 5 6 
#
# 1 0.007092 -0.001239 -0.000612 0.000000 0.003289 0.000000
# 2 -0.001239 0.020396 -0.002999 0.000000 0.000999 0.000000
# 3 -0.000612 -0.002999 0.020651 0.000000 0.003074 0.000000
# 4 0.000000 0.000000 0.000000 0.141184 0.000000 0.036910
# 5 0.003289 0.000999 0.003074 0.000000 0.034746 0.000000
# 6 0.000000 0.000000 0.000000 0.036910 0.000000 0.084896
#
#
# Mechanical properties :
#
#
# Convention : Reuss Voigt Hill
#
# Bulk Modulus (GPa) = 26.01585 34.22671 30.12128
# Shear Modulus (GPa) = 15.08400 25.40611 20.24506
#
# Velocity S-wave (km/s) = 2.63474 3.41939 3.05238
# Velocity P-wave (km/s) = 4.60746 5.59833 5.12689
#
# Compressibility (1/GPa) = 0.03843811
#
# Stress axis : x y z
#
# Youngs Moduli (GPa) = 141.00703 49.03017 48.42417
#
# Poissons Ratio (x) = 0.06074 0.02965
# Poissons Ratio (y) = 0.17469 0.14522
# Poissons Ratio (z) = 0.08633 0.14704
#
# Static dielectric constant tensor:
#      x y z
#    x 1.943280 0.000000 -0.043200 
#    y 0.000000 1.770790 0.000000 
#    z -0.043200 0.000000 1.836970 
# 
# From -- ./inp_files/189513.got.cif
#   From: 2010.05.17/outbox.cif.g08.bks.cpg/sg12_95_cif.got.tgz:189513.got - 2010.06.03 13:09:07.
