data_PCOD9173809
_publ_section_title
;
Structure prediction by ZEFSAII (Michael W. Deem and Ramdas Pophale) SiO2 
 PCOD9173809
Probable space group: C 2/M
;
_chemical_formula_sum "Si O2"
_cell_formula_units_Z 56
_cell_length_a 23.617684
_cell_length_b 17.580343
_cell_length_c 10.240029
_cell_angle_alpha 90.000000
_cell_angle_beta 44.822373
_cell_angle_gamma 90.000000
_cell_volume 2997.093338
_symmetry_space_group_name_H-M "C 2/M"
_symmetry_group_IT_number 12
_symmetry_cell_setting 'monoclinic'
loop_
_space_group_symop_operation_xyz
x,y,z
-x,y,-z
-x,-y,-z
x,-y,z
1/2+x,1/2+y,z
1/2-x,1/2+y,-z
1/2-x,1/2-y,-z
1/2+x,1/2-y,z
loop_
_atom_site_type_symbol
_atom_site_label
_atom_site_fract_x
_atom_site_fract_y
_atom_site_fract_z
Si Si1 0.997461 0.788555 0.658955
Si Si2 0.785760 0.652378 0.068051
Si Si3 0.253163 0.351246 0.377452
Si Si4 0.327668 0.685136 0.519593
Si Si5 0.552215 0.861710 0.103867
Si Si6 0.674827 0.335042 0.010637
Si Si7 0.895923 0.417096 0.242345
O O1 0.979725 0.714943 0.777486
O O2 0.000000 0.769463 0.500000
O O3 0.083589 0.818574 0.565841
O O4 0.919809 0.841997 0.807072
O O5 0.733380 0.641777 0.284065
O O6 0.807690 0.743169 0.024394
O O7 0.871676 0.611503 0.936150
O O8 0.730338 0.634544 0.035984
O O9 0.317373 0.342000 0.388453
O O10 0.204967 0.272019 0.431660
O O11 0.296837 0.369976 0.171844
O O12 0.184033 0.405393 0.545244
O O13 0.473447 0.911208 0.208269
O O14 0.590585 0.854952 0.894528
O O15 0.895112 0.500000 0.179315
#
# Coordination Sequence:
#
# PCOD9173809 Si02
#       7
#     8   8   8   8   8   8   8
#     4  11  20  30  51  82 113 144 173 208 267 331
#     4   9  16  30  47  71 106 141 169 204 258 325
#     4  10  20  33  50  76 104 140 176 222 265 311
#     4  10  18  31  50  74 111 136 174 207 265 331
#     4  10  20  31  51  73 101 142 180 215 255 303
#     4   9  19  29  48  76 107 139 169 208 266 321
#     4  11  22  37  53  73 103 142 192 230 262 303
#
# _framework density 18.68477
#
# number of rings (size 3 to 8) (size 9 to 14) (size 15 to 20)
#    0.000    2.000    4.286    0.857    4.000    0.571 
#    0.000    0.000    0.000    7.714    0.000    2.000 
#    0.000    2.286    0.000    0.000    0.000    0.000 
#
# Total GULP energy -155969.299496 kJ/mol
# GULP energy per Si atom -5570.332125 kJ/mol
# Density = 1.864224 g / cm^3
# Si number density = 18.684770 Si / 1000 Ang^3
#
#
#
# Elastic Constant Matrix: (Units=GPa)
#
#
# Indices 1 2 3 4 5 6 
#
# 1 156.7346 11.0648 50.4832 0.0000 -13.5298 0.0000
# 2 11.0648 11.4735 17.8750 0.0000 1.3153 0.0000
# 3 50.4832 17.8750 100.1563 0.0000 -0.3015 0.0000
# 4 0.0000 0.0000 0.0000 7.4558 0.0000 0.2235
# 5 -13.5298 1.3153 -0.3015 0.0000 35.0242 0.0000
# 6 0.0000 0.0000 0.0000 0.2235 0.0000 3.9945
#
#
#
# Elastic Compliance Matrix: (Units=1/GPa)
#
#
# Indices 1 2 3 4 5 6 
#
# 1 0.007976 -0.002499 -0.003565 0.000000 0.003144 0.000000
# 2 -0.002499 0.122292 -0.020584 0.000000 -0.005735 0.000000
# 3 -0.003565 -0.020584 0.015453 0.000000 -0.000471 0.000000
# 4 0.000000 0.000000 0.000000 0.134350 0.000000 -0.007517
# 5 0.003144 -0.005735 -0.000471 0.000000 0.029978 0.000000
# 6 0.000000 0.000000 0.000000 -0.007517 0.000000 0.250767
#
#
# Mechanical properties :
#
#
# Convention : Reuss Voigt Hill
#
# Bulk Modulus (GPa) = 10.81925 47.46782 29.14354
# Shear Modulus (GPa) = 7.75290 21.89098 14.82194
#
# Velocity S-wave (km/s) = 2.03920 3.42657 2.81955
# Velocity P-wave (km/s) = 3.36859 6.41209 5.12164
#
# Compressibility (1/GPa) = 0.09242784
#
# Stress axis : x y z
#
# Youngs Moduli (GPa) = 125.37141 8.17712 64.71031
#
# Poissons Ratio (x) = 0.02043 0.23069
# Poissons Ratio (y) = 0.31325 1.33197
# Poissons Ratio (z) = 0.44695 0.16831
#
# Static dielectric constant tensor:
#      x y z
#    x 1.668950 0.000000 -0.003840 
#    y 0.000000 1.641000 0.000000 
#    z -0.003840 0.000000 1.655050 
# 
# From -- ./inp_files/89487.got.cif
#   From: 2010.05.17/outbox.cif.g08.bks.cpg/sg12_45_cif.got.tgz:89487.got - 2010.06.03 13:09:07.
