data_PCOD9173766
_publ_section_title
;
Structure prediction by ZEFSAII (Michael W. Deem and Ramdas Pophale) SiO2 
 PCOD9173766
Probable space group: C 2/M
;
_chemical_formula_sum "Si O2"
_cell_formula_units_Z 48
_cell_length_a 24.881930
_cell_length_b 8.695068
_cell_length_c 22.130125
_cell_angle_alpha 90.000000
_cell_angle_beta 141.548489
_cell_angle_gamma 90.000000
_cell_volume 2977.337159
_symmetry_space_group_name_H-M "C 2/M"
_symmetry_group_IT_number 12
_symmetry_cell_setting 'monoclinic'
loop_
_space_group_symop_operation_xyz
x,y,z
-x,y,-z
-x,-y,-z
x,-y,z
1/2+x,1/2+y,z
1/2-x,1/2+y,-z
1/2-x,1/2-y,-z
1/2+x,1/2-y,z
loop_
_atom_site_type_symbol
_atom_site_label
_atom_site_fract_x
_atom_site_fract_y
_atom_site_fract_z
Si Si1 0.103519 0.685187 0.648946
Si Si2 0.578221 0.316033 0.492267
Si Si3 0.461980 0.182721 0.032964
Si Si4 0.204385 0.815105 0.161312
Si Si5 0.370316 0.315199 0.773618
Si Si6 0.267419 0.814637 0.449116
O O1 0.095387 0.500000 0.641514
O O2 0.103336 0.742998 0.579349
O O3 0.195663 0.727724 0.758925
O O4 0.019679 0.760127 0.605394
O O5 0.581205 0.500000 0.499072
O O6 0.645205 0.253989 0.502194
O O7 0.532708 0.250047 0.140852
O O8 0.459982 0.000000 0.036151
O O9 0.500000 0.224936 0.000000
O O10 0.365200 0.247755 0.946445
O O11 0.175901 0.765686 0.204222
O O12 0.198583 0.000000 0.154495
O O13 0.375036 0.500000 0.779080
O O14 0.310529 0.269828 0.664972
O O15 0.250000 0.750000 0.500000
O O16 0.272751 0.000000 0.454578
#
# Coordination Sequence:
#
# PCOD9173766 Si02
#       6
#     8   8   8   8   8   8
#     4  10  18  31  50  71  98 132 165 201 243 293
#     4  11  21  32  47  71  99 130 164 203 247 293
#     4   9  17  26  40  66  96 124 155 195 240 285
#     4   9  16  28  46  68  94 129 162 191 237 292
#     4   9  17  31  47  64  92 128 163 197 237 288
#     4  11  22  37  53  72  96 130 170 208 246 287
#
# _framework density 16.121787999999999
#
# number of rings (size 3 to 8) (size 9 to 14) (size 15 to 20)
#    0.000    2.167    1.667    4.000    0.000    4.667 
#    0.000    0.000    0.000    0.000    0.000    1.167 
#    0.000    0.000    0.000    0.000    0.000    0.000 
#
# Total GULP energy -133817.010892 kJ/mol
# GULP energy per Si atom -5575.708787 kJ/mol
# Density = 1.608509 g / cm^3
# Si number density = 16.121788 Si / 1000 Ang^3
#
#
#
# Elastic Constant Matrix: (Units=GPa)
#
#
# Indices 1 2 3 4 5 6 
#
# 1 87.0585 28.2950 62.9364 0.0000 16.7015 0.0000
# 2 28.2950 42.6577 33.9358 0.0000 9.3972 0.0000
# 3 62.9364 33.9358 129.1629 0.0000 34.4731 0.0000
# 4 0.0000 0.0000 0.0000 9.3644 0.0000 -1.9905
# 5 16.7015 9.3972 34.4731 0.0000 27.3714 0.0000
# 6 0.0000 0.0000 0.0000 -1.9905 0.0000 19.5557
#
#
#
# Elastic Compliance Matrix: (Units=1/GPa)
#
#
# Indices 1 2 3 4 5 6 
#
# 1 0.019124 -0.006667 -0.007627 0.000000 0.000226 0.000000
# 2 -0.006667 0.031967 -0.004981 0.000000 -0.000633 0.000000
# 3 -0.007627 -0.004981 0.016673 0.000000 -0.014635 0.000000
# 4 0.000000 0.000000 0.000000 0.109149 0.000000 0.011110
# 5 0.000226 -0.000633 -0.014635 0.000000 0.055047 0.000000
# 6 0.000000 0.000000 0.000000 0.011110 0.000000 0.052267
#
#
# Mechanical properties :
#
#
# Convention : Reuss Voigt Hill
#
# Bulk Modulus (GPa) = 34.23065 56.57927 45.40496
# Shear Modulus (GPa) = 15.03691 20.17242 17.60467
#
# Velocity S-wave (km/s) = 3.05734 3.54114 3.30810
# Velocity P-wave (km/s) = 5.80876 7.20352 6.54341
#
# Compressibility (1/GPa) = 0.02921359
#
# Stress axis : x y z
#
# Youngs Moduli (GPa) = 52.29100 31.28229 59.97596
#
# Poissons Ratio (x) = 0.20856 0.45743
# Poissons Ratio (y) = 0.34863 0.29875
# Poissons Ratio (z) = 0.39882 0.15582
#
# Static dielectric constant tensor:
#      x y z
#    x 1.522600 0.000000 0.027870 
#    y 0.000000 1.537350 0.000000 
#    z 0.027870 0.000000 1.557450 
# 
# From -- ./inp_files/323856.got.cif
#   From: 2010.05.17/outbox.cif.g08.bks.cpg/sg12_162_cif.got.tgz:323856.got - 2010.06.03 13:09:07.
