data_PCOD9173389
_publ_section_title
;
Structure prediction by ZEFSAII (Michael W. Deem and Ramdas Pophale) SiO2 
 PCOD9173389
Probable space group: C 2/M
;
_chemical_formula_sum "Si O2"
_cell_formula_units_Z 64
_cell_length_a 22.469627
_cell_length_b 9.288062
_cell_length_c 20.890689
_cell_angle_alpha 90.000000
_cell_angle_beta 53.916434
_cell_angle_gamma 90.000000
_cell_volume 3523.469082
_symmetry_space_group_name_H-M "C 2/M"
_symmetry_group_IT_number 12
_symmetry_cell_setting 'monoclinic'
loop_
_space_group_symop_operation_xyz
x,y,z
-x,y,-z
-x,-y,-z
x,-y,z
1/2+x,1/2+y,z
1/2-x,1/2+y,-z
1/2-x,1/2-y,-z
1/2+x,1/2-y,z
loop_
_atom_site_type_symbol
_atom_site_label
_atom_site_fract_x
_atom_site_fract_y
_atom_site_fract_z
Si Si1 0.866709 0.170760 0.418621
Si Si2 0.362575 0.669925 0.863143
Si Si3 0.774595 0.329642 0.582965
Si Si4 0.498623 0.833039 0.268622
Si Si5 0.282171 0.829751 0.113855
Si Si6 0.944862 0.666271 0.155033
Si Si7 0.583060 0.331734 0.024941
Si Si8 0.273576 0.170859 0.262793
O O1 0.834301 0.247231 0.502028
O O2 0.803855 0.191436 0.403775
O O3 0.941320 0.244755 0.347677
O O4 0.875715 0.000000 0.422394
O O5 0.369596 0.500000 0.843232
O O6 0.421522 0.760283 0.785501
O O7 0.279614 0.713844 0.898353
O O8 0.383082 0.686196 0.924665
O O9 0.789301 0.500000 0.575416
O O10 0.767356 0.261588 0.657561
O O11 0.469041 0.827951 0.214097
O O12 0.501771 0.000000 0.285857
O O13 0.248564 0.807901 0.205730
O O14 0.297597 0.000000 0.096911
O O15 0.358234 0.746370 0.057128
O O16 0.949152 0.500000 0.130782
O O17 0.860089 0.711573 0.207101
O O18 0.002688 0.760547 0.078982
O O19 0.577695 0.500000 0.013975
O O20 0.269356 0.000000 0.280994
#
# Coordination Sequence:
#
# PCOD9173389 Si02
#       8
#     8   8   8   8   8   8   8   8
#     4  10  19  31  51  78 108 138 168 204 248 300
#     4   9  19  35  53  75 101 132 172 216 260 304
#     4  10  20  32  50  77 108 139 168 205 249 298
#     4  10  18  30  52  79 105 133 167 211 257 300
#     4  10  21  36  54  73  98 136 177 213 254 307
#     4   9  18  32  50  72 101 134 168 205 252 308
#     4  10  20  33  52  75 101 129 167 220 265 302
#     4  10  20  35  53  73 102 139 174 208 250 306
#
# _framework density 18.163917000000001
#
# number of rings (size 3 to 8) (size 9 to 14) (size 15 to 20)
#    0.000    2.250    1.250    1.875    0.000    4.000 
#    0.000    2.500    0.000    0.750    0.000    5.250 
#    0.000    0.000    0.000    0.000    0.000    0.000 
#
# Total GULP energy -178637.693685 kJ/mol
# GULP energy per Si atom -5582.427928 kJ/mol
# Density = 1.812257 g / cm^3
# Si number density = 18.163917 Si / 1000 Ang^3
#
#
#
# Elastic Constant Matrix: (Units=GPa)
#
#
# Indices 1 2 3 4 5 6 
#
# 1 18.6614 4.2296 -1.4150 -0.0001 -1.8509 0.0001
# 2 4.2296 75.5680 64.8185 -0.0001 -6.5203 0.0000
# 3 -1.4150 64.8185 104.0699 0.0000 -9.7753 0.0001
# 4 -0.0001 -0.0001 0.0000 37.3748 0.0000 -5.0515
# 5 -1.8509 -6.5203 -9.7753 0.0000 17.4730 0.0000
# 6 0.0001 0.0000 0.0001 -5.0515 0.0000 16.5628
#
#
#
# Elastic Compliance Matrix: (Units=1/GPa)
#
#
# Indices 1 2 3 4 5 6 
#
# 1 0.056571 -0.008134 0.006452 0.000000 0.006567 0.000000
# 2 -0.008134 0.029590 -0.018560 0.000000 -0.000203 0.000000
# 3 0.006452 -0.018560 0.021816 0.000000 0.005963 0.000000
# 4 0.000000 0.000000 0.000000 0.027906 0.000000 0.008511
# 5 0.006567 -0.000203 0.005963 0.000000 0.061187 0.000000
# 6 0.000000 0.000000 0.000000 0.008511 0.000000 0.062972
#
#
# Mechanical properties :
#
#
# Convention : Reuss Voigt Hill
#
# Bulk Modulus (GPa) = 14.81605 37.06285 25.93945
# Shear Modulus (GPa) = 15.47872 22.99320 19.23596
#
# Velocity S-wave (km/s) = 2.92236 3.56177 3.25779
# Velocity P-wave (km/s) = 4.42284 6.11260 5.33504
#
# Compressibility (1/GPa) = 0.06749439
#
# Stress axis : x y z
#
# Youngs Moduli (GPa) = 17.67701 33.79468 45.83715
#
# Poissons Ratio (x) = 0.27489 -0.29575
# Poissons Ratio (y) = 0.14379 0.85072
# Poissons Ratio (z) = -0.11405 0.62722
#
# Static dielectric constant tensor:
#      x y z
#    x 1.627490 0.000000 0.020500 
#    y 0.000000 1.605370 0.000000 
#    z 0.020500 0.000000 1.600810 
# 
# From -- ./inp_files/295824.got.cif
#   From: 2010.05.17/outbox.cif.g08.bks.cpg/sg12_148_cif.got.tgz:295824.got - 2010.06.03 13:09:07.
