data_PCOD9173123
_publ_section_title
;
Structure prediction by ZEFSAII (Michael W. Deem and Ramdas Pophale) SiO2 
 PCOD9173123
Probable space group: C 2/M
;
_chemical_formula_sum "Si O2"
_cell_formula_units_Z 56
_cell_length_a 13.291429
_cell_length_b 16.661961
_cell_length_c 17.034987
_cell_angle_alpha 90.000000
_cell_angle_beta 137.704683
_cell_angle_gamma 90.000000
_cell_volume 2538.772128
_symmetry_space_group_name_H-M "C 2/M"
_symmetry_group_IT_number 12
_symmetry_cell_setting 'monoclinic'
loop_
_space_group_symop_operation_xyz
x,y,z
-x,y,-z
-x,-y,-z
x,-y,z
1/2+x,1/2+y,z
1/2-x,1/2+y,-z
1/2-x,1/2-y,-z
1/2+x,1/2-y,z
loop_
_atom_site_type_symbol
_atom_site_label
_atom_site_fract_x
_atom_site_fract_y
_atom_site_fract_z
Si Si1 0.123019 0.739672 0.861170
Si Si2 0.566644 0.088053 0.627637
Si Si3 0.109729 0.745373 0.476196
Si Si4 0.764204 0.634876 0.845778
Si Si5 0.051282 0.913631 0.383053
Si Si6 0.026500 0.406855 0.885728
Si Si7 0.678798 0.659121 0.301103
O O1 0.200567 0.776627 0.829103
O O2 0.073836 0.647788 0.839905
O O3 0.977659 0.794340 0.798352
O O4 0.250000 0.750000 0.000000
O O5 0.500000 0.081856 0.500000
O O6 0.485747 0.169371 0.609821
O O7 0.744575 0.105174 0.721142
O O8 0.539271 0.000000 0.648575
O O9 0.250000 0.750000 0.500000
O O10 0.187394 0.722306 0.602980
O O11 0.050316 0.835582 0.437855
O O12 0.617348 0.584019 0.745816
O O13 0.876354 0.628524 0.838194
O O14 0.852325 0.603771 0.973754
O O15 0.152855 0.894063 0.364981
O O16 0.094178 0.000000 0.441972
O O17 0.008826 0.500000 0.857831
#
# Coordination Sequence:
#
# PCOD9173123 Si02
#       7
#     8   8   8   8   8   8   8
#     4   9  19  33  52  81 109 145 180 225 279 329
#     4   9  17  31  52  74  98 132 169 211 259 310
#     4   9  19  31  47  74 104 134 168 211 260 317
#     4   9  18  32  50  77 107 135 177 226 270 313
#     4  10  18  30  50  75 101 132 169 214 263 311
#     4  10  18  31  53  81 104 135 181 227 271 326
#     4   9  18  33  50  73 106 135 172 217 265 313
#
# _framework density 22.057908999999999
#
# number of rings (size 3 to 8) (size 9 to 14) (size 15 to 20)
#    0.000    2.714    0.000    2.143    2.000    3.429 
#    0.000    1.429    0.000    9.000    0.000    6.000 
#    0.000    0.000    0.000    0.000    0.000    0.000 
#
# Total GULP energy -156005.085459 kJ/mol
# GULP energy per Si atom -5571.610195 kJ/mol
# Density = 2.200770 g / cm^3
# Si number density = 22.057909 Si / 1000 Ang^3
#
#
#
# Elastic Constant Matrix: (Units=GPa)
#
#
# Indices 1 2 3 4 5 6 
#
# 1 74.9008 73.0537 11.2778 0.0000 20.8123 0.0000
# 2 73.0537 225.1034 35.8620 0.0000 14.7257 0.0000
# 3 11.2778 35.8620 63.5720 0.0000 21.3969 0.0000
# 4 0.0000 0.0000 0.0000 8.0860 0.0000 -17.1318
# 5 20.8123 14.7257 21.3969 0.0000 28.9880 0.0000
# 6 0.0000 0.0000 0.0000 -17.1318 0.0000 10.8633
#
#
#
# Elastic Compliance Matrix: (Units=1/GPa)
#
#
# Indices 1 2 3 4 5 6 
#
# 1 0.025513 -0.008059 0.006397 0.000000 -0.018945 0.000000
# 2 -0.008059 0.007435 -0.004578 0.000000 0.005389 0.000000
# 3 0.006397 -0.004578 0.023872 0.000000 -0.019887 0.000000
# 4 0.000000 0.000000 0.000000 -0.052822 0.000000 -0.083302
# 5 -0.018945 0.005389 -0.019887 0.000000 0.060040 0.000000
# 6 0.000000 0.000000 0.000000 -0.083302 0.000000 -0.039318
#
#
# Mechanical properties :
#
#
# Convention : Reuss Voigt Hill
#
# Bulk Modulus (GPa) = 22.55429 67.10701 44.83065
# Shear Modulus (GPa) = 96.19022 25.81298 61.00160
#
# Velocity S-wave (km/s) = 6.61080 3.42458 5.26453
# Velocity P-wave (km/s) = 8.27753 6.79163 7.57112
#
# Compressibility (1/GPa) = 0.04433745
#
# Stress axis : x y z
#
# Youngs Moduli (GPa) = 39.19639 134.50262 41.89087
#
# Poissons Ratio (x) = 1.08402 -0.26797
# Poissons Ratio (y) = 0.31590 0.19178
# Poissons Ratio (z) = -0.25073 0.61576
#
# Static dielectric constant tensor:
#      x y z
#    x 1.888490 0.000000 -0.021280 
#    y 0.000000 1.914420 0.000000 
#    z -0.021280 0.000000 1.835870 
# 
# From -- ./inp_files/310829.got.cif
#   From: 2010.05.17/outbox.cif.g08.bks.cpg/sg12_156_cif.got.tgz:310829.got - 2010.06.03 13:09:07.
