data_PCOD9173508
_publ_section_title
;
Structure prediction by ZEFSAII (Michael W. Deem and Ramdas Pophale) SiO2 
 PCOD9173508
Probable space group: C 2/M
;
_chemical_formula_sum "Si O2"
_cell_formula_units_Z 52
_cell_length_a 15.615758
_cell_length_b 16.402677
_cell_length_c 16.737931
_cell_angle_alpha 90.000000
_cell_angle_beta 146.519866
_cell_angle_gamma 90.000000
_cell_volume 2365.056299
_symmetry_space_group_name_H-M "C 2/M"
_symmetry_group_IT_number 12
_symmetry_cell_setting 'monoclinic'
loop_
_space_group_symop_operation_xyz
x,y,z
-x,y,-z
-x,-y,-z
x,-y,z
1/2+x,1/2+y,z
1/2-x,1/2+y,-z
1/2-x,1/2-y,-z
1/2+x,1/2-y,z
loop_
_atom_site_type_symbol
_atom_site_label
_atom_site_fract_x
_atom_site_fract_y
_atom_site_fract_z
Si Si1 0.684414 0.910100 0.146129
Si Si2 0.854958 0.000000 0.014908
Si Si3 0.010893 0.321556 0.605279
Si Si4 0.115926 0.500000 0.689311
Si Si5 0.698202 0.500000 0.325293
Si Si6 0.822277 0.833146 0.092798
Si Si7 0.166961 0.243959 0.174455
Si Si8 0.673003 0.324342 0.355113
O O1 0.736998 0.868113 0.104726
O O2 0.708297 0.837979 0.228194
O O3 0.754252 0.000000 0.212172
O O4 0.500000 0.919781 0.000000
O O5 0.818314 0.086005 0.032272
O O6 0.039211 0.000000 0.151372
O O7 0.764756 0.000000 0.862296
O O8 0.026075 0.416953 0.636704
O O9 0.182997 0.287353 0.757724
O O10 0.000000 0.312176 0.500000
O O11 0.844919 0.289612 0.509426
O O12 0.170215 0.500000 0.639520
O O13 0.694974 0.421034 0.377190
O O14 0.000280 0.810113 0.252713
O O15 0.750000 0.750000 0.000000
O O16 0.153791 0.194454 0.245515
O O17 0.000000 0.239304 0.000000
#
# Coordination Sequence:
#
# PCOD9173508 Si02
#       8
#     8   4   8   4   4   8   8   8
#     4  10  21  39  61  85 112 154 200 252 299 354
#     4  10  25  33  51  96 120 152 194 259 297 347
#     4  10  20  33  54  83 126 163 193 230 287 366
#     4  12  19  30  55  81 128 163 192 215 290 369
#     4  10  18  30  54  82 127 156 186 227 288 364
#     4  11  22  39  62  85 123 152 198 254 313 352
#     4  10  20  33  58  88 116 149 205 242 281 346
#     4  10  21  36  56  88 123 158 192 237 305 361
#
# _framework density 21.986792000000001
#
# number of rings (size 3 to 8) (size 9 to 14) (size 15 to 20)
#    0.000    1.692    3.846    2.769    6.462    0.000 
#    0.000    0.769    0.000    4.154    0.000    0.000 
#    0.000    0.000    0.000    0.000    0.000    0.000 
#
# Total GULP energy -144890.112117 kJ/mol
# GULP energy per Si atom -5572.696620 kJ/mol
# Density = 2.193675 g / cm^3
# Si number density = 21.986792 Si / 1000 Ang^3
#
#
#
# Elastic Constant Matrix: (Units=GPa)
#
#
# Indices 1 2 3 4 5 6 
#
# 1 99.1686 15.2927 34.4094 0.0000 48.3012 0.0000
# 2 15.2927 144.2676 31.0230 0.0000 16.4826 0.0000
# 3 34.4094 31.0230 121.3460 0.0002 48.1961 0.0002
# 4 0.0000 0.0000 0.0002 30.5285 0.0000 7.7300
# 5 48.3012 16.4826 48.1961 0.0000 42.3474 0.0000
# 6 0.0000 0.0000 0.0002 7.7300 0.0000 21.1399
#
#
#
# Elastic Compliance Matrix: (Units=1/GPa)
#
#
# Indices 1 2 3 4 5 6 
#
# 1 0.026513 -0.000056 0.008209 0.000000 -0.039562 0.000000
# 2 -0.000056 0.007375 -0.001378 0.000000 -0.001239 0.000000
# 3 0.008209 -0.001378 0.017832 0.000000 -0.029122 0.000000
# 4 0.000000 0.000000 0.000000 0.036099 0.000000 -0.013200
# 5 -0.039562 -0.001239 -0.029122 0.000000 0.102366 0.000000
# 6 0.000000 0.000000 0.000000 -0.013200 0.000000 0.052131
#
#
# Mechanical properties :
#
#
# Convention : Reuss Voigt Hill
#
# Bulk Modulus (GPa) = 15.32033 58.47025 36.89529
# Shear Modulus (GPa) = 19.95843 37.74030 28.84936
#
# Velocity S-wave (km/s) = 3.01615 4.14756 3.62625
# Velocity P-wave (km/s) = 4.37180 7.04183 5.86089
#
# Compressibility (1/GPa) = 0.06527273
#
# Stress axis : x y z
#
# Youngs Moduli (GPa) = 37.71691 135.58808 56.07926
#
# Poissons Ratio (x) = 0.00756 -0.46038
# Poissons Ratio (y) = 0.00210 0.07725
# Poissons Ratio (z) = -0.30963 0.18678
#
# Static dielectric constant tensor:
#      x y z
#    x 1.850590 0.000000 0.002720 
#    y 0.000000 1.896350 0.000000 
#    z 0.002720 0.000000 1.861810 
# 
# From -- ./inp_files/278760.got.cif
#   From: 2010.05.17/outbox.cif.g08.bks.cpg/sg12_140_cif.got.tgz:278760.got - 2010.06.03 13:09:07.
