data_PCOD9173530
_publ_section_title
;
Structure prediction by ZEFSAII (Michael W. Deem and Ramdas Pophale) SiO2 
 PCOD9173530
Probable space group: C 2/M
;
_chemical_formula_sum "Si O2"
_cell_formula_units_Z 56
_cell_length_a 14.173208
_cell_length_b 23.104235
_cell_length_c 8.990713
_cell_angle_alpha 90.000000
_cell_angle_beta 115.637908
_cell_angle_gamma 90.000000
_cell_volume 2654.251047
_symmetry_space_group_name_H-M "C 2/M"
_symmetry_group_IT_number 12
_symmetry_cell_setting 'monoclinic'
loop_
_space_group_symop_operation_xyz
x,y,z
-x,y,-z
-x,-y,-z
x,-y,z
1/2+x,1/2+y,z
1/2-x,1/2+y,-z
1/2-x,1/2-y,-z
1/2+x,1/2-y,z
loop_
_atom_site_type_symbol
_atom_site_label
_atom_site_fract_x
_atom_site_fract_y
_atom_site_fract_z
Si Si1 0.252510 0.934380 0.954607
Si Si2 0.509867 0.564561 0.689082
Si Si3 0.387636 0.240989 0.997832
Si Si4 0.408703 0.324942 0.561448
Si Si5 0.598606 0.192868 0.460287
Si Si6 0.712394 0.173485 0.825087
Si Si7 0.192297 0.640759 0.262783
O O1 0.309686 0.915264 0.841046
O O2 0.129057 0.929395 0.827018
O O3 0.273792 0.000000 0.009800
O O4 0.287946 0.890265 0.106943
O O5 0.500000 0.563702 0.500000
O O6 0.472476 0.500000 0.711710
O O7 0.448696 0.623039 0.694531
O O8 0.323577 0.299745 0.947327
O O9 0.323229 0.194262 0.858830
O O10 0.500000 0.245398 0.000000
O O11 0.375654 0.214124 0.154351
O O12 0.500000 0.318419 0.500000
O O13 0.392380 0.258316 0.598006
O O14 0.304333 0.348983 0.414087
O O15 0.500000 0.185210 0.500000
O O16 0.694691 0.180220 0.638323
O O17 0.605803 0.148046 0.330479
#
# Coordination Sequence:
#
# PCOD9173530 Si02
#       7
#     8   8   8   8   8   8   8
#     4  10  21  39  63  87 117 158 205 251 295 354
#     4   9  16  29  54  88 118 149 190 238 289 347
#     4  10  21  36  57  86 123 162 198 242 293 361
#     4  10  18  30  54  88 125 152 184 240 295 350
#     4  11  23  37  58  87 125 157 196 251 310 353
#     4  10  22  39  57  88 123 159 199 241 307 364
#     4  11  20  36  58  89 118 152 207 241 290 363
#
# _framework density 21.098230999999998
#
# number of rings (size 3 to 8) (size 9 to 14) (size 15 to 20)
#    0.000    1.857    4.286    1.286    0.000    1.143 
#    0.000    0.714    0.000   16.714    0.000    0.000 
#    0.000    0.000    0.000    0.000    0.000    0.000 
#
# Total GULP energy -156288.953570 kJ/mol
# GULP energy per Si atom -5581.748342 kJ/mol
# Density = 2.105021 g / cm^3
# Si number density = 21.098231 Si / 1000 Ang^3
#
#
#
# Elastic Constant Matrix: (Units=GPa)
#
#
# Indices 1 2 3 4 5 6 
#
# 1 70.6182 28.2838 5.4280 0.0000 1.0642 0.0000
# 2 28.2838 138.6047 35.1450 0.0000 1.9284 0.0000
# 3 5.4280 35.1450 54.6585 0.0000 -11.5783 0.0000
# 4 0.0000 0.0000 0.0000 11.6503 0.0000 4.6122
# 5 1.0642 1.9284 -11.5783 0.0000 16.6631 0.0000
# 6 0.0000 0.0000 0.0000 4.6122 0.0000 23.3011
#
#
#
# Elastic Compliance Matrix: (Units=1/GPa)
#
#
# Indices 1 2 3 4 5 6 
#
# 1 0.015438 -0.003280 0.000525 0.000000 -0.000242 0.000000
# 2 -0.003280 0.009802 -0.007238 0.000000 -0.005955 0.000000
# 3 0.000525 -0.007238 0.027049 0.000000 0.019599 0.000000
# 4 0.000000 0.000000 0.000000 0.093132 0.000000 -0.018434
# 5 -0.000242 -0.005955 0.019599 0.000000 0.074336 0.000000
# 6 0.000000 0.000000 0.000000 -0.018434 0.000000 0.046565
#
#
# Mechanical properties :
#
#
# Convention : Reuss Voigt Hill
#
# Bulk Modulus (GPa) = 30.95800 44.62167 37.78984
# Shear Modulus (GPa) = 16.83064 23.32455 20.07760
#
# Velocity S-wave (km/s) = 2.82747 3.32855 3.08819
# Velocity P-wave (km/s) = 5.03633 5.99731 5.53770
#
# Compressibility (1/GPa) = 0.03230183
#
# Stress axis : x y z
#
# Youngs Moduli (GPa) = 64.77681 102.01700 36.96965
#
# Poissons Ratio (x) = 0.33460 -0.01940
# Poissons Ratio (y) = 0.21246 0.26760
# Poissons Ratio (z) = -0.03398 0.73844
#
# Static dielectric constant tensor:
#      x y z
#    x 1.812040 0.000000 0.001010 
#    y 0.000000 1.765950 0.000000 
#    z 0.001010 0.000000 1.810110 
# 
# From -- ./inp_files/65985.got.cif
#   From: 2010.05.17/outbox.cif.g08.bks.cpg/sg12_33_cif.got.tgz:65985.got - 2010.06.03 13:09:07.
