data_PCOD9173390
_publ_section_title
;
Structure prediction by ZEFSAII (Michael W. Deem and Ramdas Pophale) SiO2 
 PCOD9173390
Probable space group: C 2/M
;
_chemical_formula_sum "Si O2"
_cell_formula_units_Z 64
_cell_length_a 23.584002
_cell_length_b 11.301378
_cell_length_c 15.518917
_cell_angle_alpha 90.000000
_cell_angle_beta 63.008721
_cell_angle_gamma 90.000000
_cell_volume 3685.741511
_symmetry_space_group_name_H-M "C 2/M"
_symmetry_group_IT_number 12
_symmetry_cell_setting 'monoclinic'
loop_
_space_group_symop_operation_xyz
x,y,z
-x,y,-z
-x,-y,-z
x,-y,z
1/2+x,1/2+y,z
1/2-x,1/2+y,-z
1/2-x,1/2-y,-z
1/2+x,1/2-y,z
loop_
_atom_site_type_symbol
_atom_site_label
_atom_site_fract_x
_atom_site_fract_y
_atom_site_fract_z
Si Si1 0.495738 0.708538 0.096851
Si Si2 0.577224 0.862217 0.628894
Si Si3 0.881511 0.360676 0.939926
Si Si4 0.627386 0.861465 0.778328
Si Si5 0.494653 0.372512 0.723389
Si Si6 0.367682 0.258021 0.767414
Si Si7 0.926382 0.361497 0.560786
Si Si8 0.773046 0.358117 0.149764
O O1 0.556340 0.793833 0.068726
O O2 0.431852 0.786319 0.146711
O O3 0.496639 0.627019 0.179800
O O4 0.500000 0.652014 0.000000
O O5 0.625410 0.850072 0.675853
O O6 0.528036 0.752331 0.673202
O O7 0.603339 0.850867 0.514166
O O8 0.551111 0.000000 0.653007
O O9 0.890405 0.500000 0.944948
O O10 0.872839 0.329900 0.845495
O O11 0.820447 0.323943 0.038947
O O12 0.690573 0.826537 0.786344
O O13 0.616188 0.000000 0.805720
O O14 0.518310 0.500000 0.672177
O O15 0.420540 0.357481 0.751814
O O16 0.389644 0.202687 0.661903
O O17 0.295929 0.302293 0.810828
O O18 0.929466 0.500000 0.580945
O O19 0.000000 0.320451 0.500000
O O20 0.766131 0.500000 0.152111
#
# Coordination Sequence:
#
# PCOD9173390 Si02
#       8
#     8   8   8   8   8   8   8   8
#     4  10  18  30  52  79 105 136 180 225 279 327
#     4   9  18  35  59  84 106 133 177 233 283 323
#     4  10  20  32  52  81 109 140 182 235 278 315
#     4   9  17  30  52  80 107 135 175 231 282 320
#     4  10  21  34  50  76 112 147 177 219 275 330
#     4  11  21  34  51  74 110 150 185 216 267 333
#     4  10  19  34  57  85 109 133 177 236 290 326
#     4  10  20  34  51  73 107 147 186 224 266 326
#
# _framework density 17.364212999999999
#
# number of rings (size 3 to 8) (size 9 to 14) (size 15 to 20)
#    0.000    2.125    2.500    1.500    0.000    3.750 
#    0.000    2.500    0.000    6.750    0.000    0.000 
#    0.000    0.000    0.000    0.000    0.000    0.000 
#
# Total GULP energy -178221.294700 kJ/mol
# GULP energy per Si atom -5569.415459 kJ/mol
# Density = 1.732469 g / cm^3
# Si number density = 17.364213 Si / 1000 Ang^3
#
#
#
# Elastic Constant Matrix: (Units=GPa)
#
#
# Indices 1 2 3 4 5 6 
#
# 1 82.3746 27.2981 25.1405 0.0000 3.4089 0.0000
# 2 27.2981 73.8705 23.8653 0.0000 -2.1874 0.0000
# 3 25.1405 23.8653 90.5249 0.0000 21.5637 0.0000
# 4 0.0000 0.0000 0.0000 1.6074 0.0000 -27.3239
# 5 3.4089 -2.1874 21.5637 0.0000 26.3394 0.0000
# 6 0.0000 0.0000 0.0000 -27.3239 0.0000 -47.6494
#
#
#
# Elastic Compliance Matrix: (Units=1/GPa)
#
#
# Indices 1 2 3 4 5 6 
#
# 1 0.014478 -0.004414 -0.002886 0.000000 0.000123 0.000000
# 2 -0.004414 0.016812 -0.004565 0.000000 0.005705 0.000000
# 3 -0.002886 -0.004565 0.016215 0.000000 -0.013281 0.000000
# 4 0.000000 0.000000 0.000000 0.057884 0.000000 -0.033193
# 5 0.000123 0.005705 -0.013281 0.000000 0.049297 0.000000
# 6 0.000000 0.000000 0.000000 -0.033193 0.000000 -0.001953
#
#
# Mechanical properties :
#
#
# Convention : Reuss Voigt Hill
#
# Bulk Modulus (GPa) = 42.06239 44.37532 43.21885
# Shear Modulus (GPa) = 27.11631 7.42389 17.27010
#
# Velocity S-wave (km/s) = 3.95602 2.06995 3.15712
# Velocity P-wave (km/s) = 6.71885 5.59678 6.18332
#
# Compressibility (1/GPa) = 0.02377421
#
# Stress axis : x y z
#
# Youngs Moduli (GPa) = 69.06875 59.48025 61.66945
#
# Poissons Ratio (x) = 0.26256 0.17800
# Poissons Ratio (y) = 0.30488 0.28154
# Poissons Ratio (z) = 0.19936 0.27155
#
# Static dielectric constant tensor:
#      x y z
#    x 1.582950 0.000000 0.029540 
#    y 0.000000 1.598920 0.000000 
#    z 0.029540 0.000000 1.604390 
# 
# From -- ./inp_files/232429.got.cif
#   From: 2010.05.17/outbox.cif.g08.bks.cpg/sg12_117_cif.got.tgz:232429.got - 2010.06.03 13:09:07.
