data_PCOD9173023
_publ_section_title
;
Structure prediction by ZEFSAII (Michael W. Deem and Ramdas Pophale) SiO2 
 PCOD9173023
Probable space group: C 2/M
;
_chemical_formula_sum "Si O2"
_cell_formula_units_Z 56
_cell_length_a 20.441213
_cell_length_b 7.902653
_cell_length_c 21.015983
_cell_angle_alpha 90.000000
_cell_angle_beta 128.417114
_cell_angle_gamma 90.000000
_cell_volume 2659.945008
_symmetry_space_group_name_H-M "C 2/M"
_symmetry_group_IT_number 12
_symmetry_cell_setting 'monoclinic'
loop_
_space_group_symop_operation_xyz
x,y,z
-x,y,-z
-x,-y,-z
x,-y,z
1/2+x,1/2+y,z
1/2-x,1/2+y,-z
1/2-x,1/2-y,-z
1/2+x,1/2-y,z
loop_
_atom_site_type_symbol
_atom_site_label
_atom_site_fract_x
_atom_site_fract_y
_atom_site_fract_z
Si Si1 0.792750 0.699409 0.591357
Si Si2 0.484502 0.704485 0.723957
Si Si3 0.647525 0.293083 0.758202
Si Si4 0.260425 0.793547 0.709708
Si Si5 0.403602 0.301368 0.886992
Si Si6 0.209312 0.307365 0.066293
Si Si7 0.056761 0.201416 0.901752
O O1 0.784673 0.500000 0.590341
O O2 0.750000 0.750000 0.500000
O O3 0.890716 0.741979 0.653581
O O4 0.751191 0.765878 0.631673
O O5 0.484836 0.500000 0.726261
O O6 0.552782 0.757977 0.712964
O O7 0.521212 0.767709 0.813703
O O8 0.651366 0.500000 0.762635
O O9 0.688769 0.242304 0.716432
O O10 0.706553 0.231569 0.852317
O O11 0.346024 0.718639 0.789690
O O12 0.266287 0.000000 0.715357
O O13 0.406906 0.500000 0.908011
O O14 0.353569 0.203393 0.911039
O O15 0.494767 0.239771 0.920840
O O16 0.227239 0.500000 0.060159
O O17 0.153378 0.233475 0.975955
O O18 0.045974 0.000000 0.893904
#
# Coordination Sequence:
#
# PCOD9173023 Si02
#       7
#     8   8   8   8   8   8   8
#     4  11  23  39  62  89 115 139 175 222 272 330
#     4  10  20  38  60  81 110 146 182 225 277 330
#     4   8  17  35  57  79 108 147 188 225 267 320
#     4   9  18  35  58  83 109 142 182 223 267 323
#     4  10  18  30  49  75 108 143 183 229 277 326
#     4  10  20  32  48  74 107 149 195 232 267 312
#     4  10  20  31  47  75 109 144 184 229 279 324
#
# _framework density 21.053066000000001
#
# number of rings (size 3 to 8) (size 9 to 14) (size 15 to 20)
#    0.000    2.286    1.429    2.571    0.000    4.571 
#    0.000    4.286    0.000    4.286    0.000    0.000 
#    0.000    0.000    0.000    0.000    0.000    0.000 
#
# Total GULP energy -156275.354297 kJ/mol
# GULP energy per Si atom -5581.262653 kJ/mol
# Density = 2.100515 g / cm^3
# Si number density = 21.053066 Si / 1000 Ang^3
#
#
#
# Elastic Constant Matrix: (Units=GPa)
#
#
# Indices 1 2 3 4 5 6 
#
# 1 95.9895 2.4567 54.8674 0.0000 -2.3047 0.0000
# 2 2.4567 19.5138 2.2115 0.0000 -1.8236 0.0000
# 3 54.8674 2.2115 143.7615 0.0000 -11.4970 0.0000
# 4 0.0000 0.0000 0.0000 29.6331 0.0000 1.7391
# 5 -2.3047 -1.8236 -11.4970 0.0000 17.5027 0.0000
# 6 0.0000 0.0000 0.0000 1.7391 0.0000 14.6881
#
#
#
# Elastic Compliance Matrix: (Units=1/GPa)
#
#
# Indices 1 2 3 4 5 6 
#
# 1 0.013402 -0.001262 -0.005240 0.000000 -0.001809 0.000000
# 2 -0.001262 0.051889 0.000108 0.000000 0.005311 0.000000
# 3 -0.005240 0.000108 0.009393 0.000000 0.005492 0.000000
# 4 0.000000 0.000000 0.000000 0.033982 0.000000 -0.004024
# 5 -0.001809 0.005311 0.005492 0.000000 0.061056 0.000000
# 6 0.000000 0.000000 0.000000 -0.004024 0.000000 0.068559
#
#
# Mechanical properties :
#
#
# Convention : Reuss Voigt Hill
#
# Bulk Modulus (GPa) = 16.15620 42.03734 29.09677
# Shear Modulus (GPa) = 18.40252 25.68006 22.04129
#
# Velocity S-wave (km/s) = 2.95973 3.49632 3.23915
# Velocity P-wave (km/s) = 4.40121 6.02575 5.27638
#
# Compressibility (1/GPa) = 0.06189574
#
# Stress axis : x y z
#
# Youngs Moduli (GPa) = 74.61593 19.27196 106.45759
#
# Poissons Ratio (x) = 0.02433 0.55786
# Poissons Ratio (y) = 0.09420 -0.01154
# Poissons Ratio (z) = 0.39100 -0.00209
#
# Static dielectric constant tensor:
#      x y z
#    x 1.803850 0.000000 -0.084460 
#    y 0.000000 1.774590 0.000000 
#    z -0.084460 0.000000 1.977130 
# 
# From -- ./inp_files/320268.got.cif
#   From: 2010.05.17/outbox.cif.g08.bks.cpg/sg12_161_cif.got.tgz:320268.got - 2010.06.03 13:09:07.
