data_PCOD9173944
_publ_section_title
;
Structure prediction by ZEFSAII (Michael W. Deem and Ramdas Pophale) SiO2 
 PCOD9173944
Probable space group: C 2/M
;
_chemical_formula_sum "Si O2"
_cell_formula_units_Z 64
_cell_length_a 27.000587
_cell_length_b 18.539821
_cell_length_c 7.900414
_cell_angle_alpha 90.000000
_cell_angle_beta 55.195826
_cell_angle_gamma 90.000000
_cell_volume 3247.346868
_symmetry_space_group_name_H-M "C 2/M"
_symmetry_group_IT_number 12
_symmetry_cell_setting 'monoclinic'
loop_
_space_group_symop_operation_xyz
x,y,z
-x,y,-z
-x,-y,-z
x,-y,z
1/2+x,1/2+y,z
1/2-x,1/2+y,-z
1/2-x,1/2-y,-z
1/2+x,1/2-y,z
loop_
_atom_site_type_symbol
_atom_site_label
_atom_site_fract_x
_atom_site_fract_y
_atom_site_fract_z
Si Si1 0.518996 0.211539 0.771726
Si Si2 0.213255 0.084605 0.228143
Si Si3 0.610248 0.171643 0.061832
Si Si4 0.691519 0.715039 0.704687
Si Si5 0.102147 0.417018 0.742789
Si Si6 0.869557 0.793146 0.512362
Si Si7 0.756493 0.418324 0.534995
Si Si8 0.705361 0.182890 0.142929
O O1 0.558549 0.138719 0.730848
O O2 0.562614 0.268311 0.597745
O O3 0.500000 0.234694 0.000000
O O4 0.457441 0.199864 0.791671
O O5 0.154668 0.135935 0.348489
O O6 0.245467 0.095514 0.352920
O O7 0.201614 0.000000 0.234900
O O8 0.254327 0.115197 0.997244
O O9 0.657596 0.230580 0.893318
O O10 0.603950 0.108306 0.935830
O O11 0.643032 0.157403 0.171886
O O12 0.750000 0.750000 0.500000
O O13 0.641620 0.695368 0.663997
O O14 0.718962 0.639963 0.714445
O O15 0.082860 0.500000 0.762908
O O16 0.172995 0.412223 0.557210
O O17 0.825644 0.725957 0.641784
O O18 0.737054 0.500000 0.603597
O O19 0.750000 0.250000 0.000000
#
# Coordination Sequence:
#
# PCOD9173944 Si02
#       8
#     8   8   8   8   8   8   8   8
#     4  10  20  34  50  76 108 144 188 221 261 313
#     4   9  17  31  52  78 107 140 173 218 275 330
#     4  11  20  32  52  75 104 147 178 221 269 317
#     4  11  16  29  51  73 101 136 175 226 274 316
#     4  10  18  31  51  77 107 144 184 219 264 323
#     4  10  19  33  53  76 106 138 184 224 265 318
#     4   9  16  26  47  76 104 135 174 215 271 326
#     4  10  20  33  52  80 106 134 178 224 270 325
#
# _framework density 19.708396
#
# number of rings (size 3 to 8) (size 9 to 14) (size 15 to 20)
#    0.000    2.000    5.000    1.500    0.000    2.750 
#    0.000    0.625    0.000    8.625    0.000    8.750 
#    0.000    0.000    0.000    0.000    0.000    0.000 
#
# Total GULP energy -178135.758042 kJ/mol
# GULP energy per Si atom -5566.742439 kJ/mol
# Density = 1.966354 g / cm^3
# Si number density = 19.708396 Si / 1000 Ang^3
#
#
#
# Elastic Constant Matrix: (Units=GPa)
#
#
# Indices 1 2 3 4 5 6 
#
# 1 81.4040 27.7773 18.2899 0.0000 -25.7630 0.0000
# 2 27.7773 139.8886 45.8804 0.0000 -17.8529 0.0000
# 3 18.2899 45.8804 55.4837 0.0000 -26.9717 0.0000
# 4 0.0000 0.0000 0.0000 23.9339 0.0000 -3.9476
# 5 -25.7630 -17.8529 -26.9717 0.0000 31.7080 0.0000
# 6 0.0000 0.0000 0.0000 -3.9476 0.0000 20.6451
#
#
#
# Elastic Compliance Matrix: (Units=1/GPa)
#
#
# Indices 1 2 3 4 5 6 
#
# 1 0.017450 -0.002887 0.004667 0.000000 0.016523 0.000000
# 2 -0.002887 0.010390 -0.010122 0.000000 -0.005106 0.000000
# 3 0.004667 -0.010122 0.040798 0.000000 0.032797 0.000000
# 4 0.000000 0.000000 0.000000 0.043142 0.000000 0.008249
# 5 0.016523 -0.005106 0.032797 0.000000 0.069986 0.000000
# 6 0.000000 0.000000 0.000000 0.008249 0.000000 0.050015
#
#
# Mechanical properties :
#
#
# Convention : Reuss Voigt Hill
#
# Bulk Modulus (GPa) = 19.24771 51.18571 35.21671
# Shear Modulus (GPa) = 18.81229 27.57930 23.19579
#
# Velocity S-wave (km/s) = 3.09290 3.74487 3.43439
# Velocity P-wave (km/s) = 4.74786 6.68780 5.79952
#
# Compressibility (1/GPa) = 0.05195424
#
# Stress axis : x y z
#
# Youngs Moduli (GPa) = 57.30614 96.24633 24.51093
#
# Poissons Ratio (x) = 0.27787 -0.11439
# Poissons Ratio (y) = 0.16544 0.24810
# Poissons Ratio (z) = -0.26745 0.97421
#
# Static dielectric constant tensor:
#      x y z
#    x 1.804830 0.000000 0.080500 
#    y 0.000000 1.717930 0.000000 
#    z 0.080500 0.000000 1.802300 
# 
# From -- ./inp_files/106385.got.cif
#   From: 2010.05.17/outbox.cif.g08.bks.cpg/sg12_54_cif.got.tgz:106385.got - 2010.06.03 13:09:07.
