data_PCOD9173265
_publ_section_title
;
Structure prediction by ZEFSAII (Michael W. Deem and Ramdas Pophale) SiO2 
 PCOD9173265
Probable space group: C 2/M
;
_chemical_formula_sum "Si O2"
_cell_formula_units_Z 64
_cell_length_a 21.100192
_cell_length_b 7.612173
_cell_length_c 24.413019
_cell_angle_alpha 90.000000
_cell_angle_beta 124.457772
_cell_angle_gamma 90.000000
_cell_volume 3233.181420
_symmetry_space_group_name_H-M "C 2/M"
_symmetry_group_IT_number 12
_symmetry_cell_setting 'monoclinic'
loop_
_space_group_symop_operation_xyz
x,y,z
-x,y,-z
-x,-y,-z
x,-y,z
1/2+x,1/2+y,z
1/2-x,1/2+y,-z
1/2-x,1/2-y,-z
1/2+x,1/2-y,z
loop_
_atom_site_type_symbol
_atom_site_label
_atom_site_fract_x
_atom_site_fract_y
_atom_site_fract_z
Si Si1 0.725949 0.710337 0.175270
Si Si2 0.241938 0.796403 0.587636
Si Si3 0.040244 0.212605 0.671885
Si Si4 0.135438 0.291442 0.437833
Si Si5 0.685195 0.294379 0.674464
Si Si6 0.122638 0.790623 0.819220
Si Si7 0.412759 0.284806 0.965688
Si Si8 0.840561 0.788704 0.044516
O O1 0.724599 0.500000 0.178878
O O2 0.751837 0.781496 0.246668
O O3 0.793125 0.759980 0.165399
O O4 0.645391 0.770957 0.110741
O O5 0.171388 0.788038 0.510463
O O6 0.314447 0.721824 0.589215
O O7 0.216286 0.716419 0.632944
O O8 0.261777 0.000000 0.608338
O O9 0.106121 0.278006 0.662068
O O10 0.063776 0.276725 0.744283
O O11 0.954402 0.260169 0.613570
O O12 0.045737 0.000000 0.675454
O O13 0.149372 0.500000 0.448362
O O14 0.669376 0.500000 0.655949
O O15 0.122659 0.719995 0.880908
O O16 0.110723 0.000000 0.817022
O O17 0.411806 0.500000 0.965312
O O18 0.500000 0.228556 0.000000
O O19 0.379484 0.224904 0.007808
O O20 0.848520 0.000000 0.048654
O O21 0.750000 0.750000 0.000000
#
# Coordination Sequence:
#
# PCOD9173265 Si02
#       8
#     8   8   8   8   8   8   8   8
#     4  10  18  30  51  77 101 131 166 209 261 298
#     4   9  19  37  57  74  99 138 174 201 241 300
#     4   9  18  33  51  74 102 134 169 207 251 296
#     4  10  20  34  54  79 105 133 164 207 255 292
#     4   9  19  36  56  75  99 135 174 206 243 299
#     4   9  18  32  51  74  99 134 174 208 247 300
#     4   9  18  32  48  71 104 135 165 206 257 305
#     4  10  18  31  53  75  97 131 173 213 251 296
#
# _framework density 19.794744000000001
#
# number of rings (size 3 to 8) (size 9 to 14) (size 15 to 20)
#    0.000    2.625    1.250    1.500    0.000    3.500 
#    2.250    2.500    0.000    3.375    0.000    0.000 
#    0.000    0.000    0.000    0.000    0.000    0.000 
#
# Total GULP energy -178463.956514 kJ/mol
# GULP energy per Si atom -5576.998641 kJ/mol
# Density = 1.974969 g / cm^3
# Si number density = 19.794744 Si / 1000 Ang^3
#
#
#
# Elastic Constant Matrix: (Units=GPa)
#
#
# Indices 1 2 3 4 5 6 
#
# 1 141.8744 -5.0766 101.5488 0.0000 -13.2996 0.0000
# 2 -5.0766 41.7253 -16.6778 0.0000 -2.9395 -0.0001
# 3 101.5488 -16.6778 128.8266 0.0000 -15.5140 0.0000
# 4 0.0000 0.0000 0.0000 15.5277 0.0000 5.4452
# 5 -13.2996 -2.9395 -15.5140 0.0000 44.6395 0.0000
# 6 0.0000 -0.0001 0.0000 5.4452 0.0000 13.5529
#
#
#
# Elastic Compliance Matrix: (Units=1/GPa)
#
#
# Indices 1 2 3 4 5 6 
#
# 1 0.016616 -0.003386 -0.013533 0.000000 0.000024 0.000000
# 2 -0.003386 0.026335 0.006435 0.000000 0.002962 0.000000
# 3 -0.013533 0.006435 0.019651 0.000000 0.003221 0.000000
# 4 0.000000 0.000000 0.000000 0.074963 0.000000 -0.030118
# 5 0.000024 0.002962 0.003221 0.000000 0.023723 0.000000
# 6 0.000000 0.000000 0.000000 -0.030118 0.000000 0.085886
#
#
# Mechanical properties :
#
#
# Convention : Reuss Voigt Hill
#
# Bulk Modulus (GPa) = 24.01889 52.44610 38.23250
# Shear Modulus (GPa) = 17.72917 30.25281 23.99099
#
# Velocity S-wave (km/s) = 2.99599 3.91362 3.48514
# Velocity P-wave (km/s) = 4.91205 6.85379 5.96249
#
# Compressibility (1/GPa) = 0.04163389
#
# Stress axis : x y z
#
# Youngs Moduli (GPa) = 60.18169 37.97218 50.88739
#
# Poissons Ratio (x) = 0.12857 0.68868
# Poissons Ratio (y) = 0.20378 -0.32746
# Poissons Ratio (z) = 0.81446 -0.24435
#
# Static dielectric constant tensor:
#      x y z
#    x 1.686750 0.000000 -0.025600 
#    y 0.000000 1.724240 0.000000 
#    z -0.025600 0.000000 1.683950 
# 
# From -- ./inp_files/346294.got.cif
#   From: 2010.05.17/outbox.cif.g08.bks.cpg/sg12_174_cif.got.tgz:346294.got - 2010.06.03 13:09:07.
