data_PCOD9173774
_publ_section_title
;
Structure prediction by ZEFSAII (Michael W. Deem and Ramdas Pophale) SiO2 
 PCOD9173774
Probable space group: C 2/M
;
_chemical_formula_sum "Si O2"
_cell_formula_units_Z 32
_cell_length_a 16.545277
_cell_length_b 13.241379
_cell_length_c 12.415837
_cell_angle_alpha 90.000000
_cell_angle_beta 38.246961
_cell_angle_gamma 90.000000
_cell_volume 1683.877907
_symmetry_space_group_name_H-M "C 2/M"
_symmetry_group_IT_number 12
_symmetry_cell_setting 'monoclinic'
loop_
_space_group_symop_operation_xyz
x,y,z
-x,y,-z
-x,-y,-z
x,-y,z
1/2+x,1/2+y,z
1/2-x,1/2+y,-z
1/2-x,1/2-y,-z
1/2+x,1/2-y,z
loop_
_atom_site_type_symbol
_atom_site_label
_atom_site_fract_x
_atom_site_fract_y
_atom_site_fract_z
Si Si1 0.385215 0.818300 0.983810
Si Si2 0.667280 0.882963 0.723712
Si Si3 0.546406 0.378901 0.567500
Si Si4 0.314538 0.384883 0.981459
O O1 0.541192 0.824216 0.813169
O O2 0.333845 0.703573 0.047176
O O3 0.343720 0.877784 0.134423
O O4 0.315134 0.865077 0.953014
O O5 0.810866 0.841668 0.546877
O O6 0.654543 0.000000 0.703185
O O7 0.500000 0.338246 0.500000
O O8 0.564831 0.500000 0.534227
O O9 0.433260 0.366870 0.772998
O O10 0.318943 0.500000 0.015331
#
# Coordination Sequence:
#
# PCOD9173774 Si02
#       4
#     8   8   8   8
#     4  10  19  29  48  73  94 122 153 190 236 272
#     4  10  18  31  50  72  95 117 156 199 228 266
#     4   9  16  28  48  69  92 121 150 190 236 269
#     4  10  19  32  47  70  98 122 153 190 230 279
#
# _framework density 19.003753
#
# number of rings (size 3 to 8) (size 9 to 14) (size 15 to 20)
#    0.000    2.250    2.500    3.000    0.000    1.000 
#    0.000    2.500    0.000    0.000    0.000   17.500 
#    0.000    0.000    0.000    0.000    0.000    0.000 
#
# Total GULP energy -89205.853202 kJ/mol
# GULP energy per Si atom -5575.365825 kJ/mol
# Density = 1.896050 g / cm^3
# Si number density = 19.003753 Si / 1000 Ang^3
#
#
#
# Elastic Constant Matrix: (Units=GPa)
#
#
# Indices 1 2 3 4 5 6 
#
# 1 57.2247 16.5434 25.8278 0.0000 -35.1507 0.0000
# 2 16.5434 81.3930 -6.1474 0.0000 -7.7299 0.0000
# 3 25.8278 -6.1474 59.0637 0.0000 -32.3431 0.0000
# 4 0.0000 0.0000 0.0000 13.2713 0.0000 -7.7017
# 5 -35.1507 -7.7299 -32.3431 0.0000 32.8047 0.0000
# 6 0.0000 0.0000 0.0000 -7.7017 0.0000 16.0364
#
#
#
# Elastic Compliance Matrix: (Units=1/GPa)
#
#
# Indices 1 2 3 4 5 6 
#
# 1 0.060626 -0.003163 0.018092 0.000000 0.082054 0.000000
# 2 -0.003163 0.013940 0.006035 0.000000 0.005846 0.000000
# 3 0.018092 0.006035 0.045733 0.000000 0.065898 0.000000
# 4 0.000000 0.000000 0.000000 0.104466 0.000000 0.050172
# 5 0.082054 0.005846 0.065898 0.000000 0.184753 0.000000
# 6 0.000000 0.000000 0.000000 0.050172 0.000000 0.086454
#
#
# Mechanical properties :
#
#
# Convention : Reuss Voigt Hill
#
# Bulk Modulus (GPa) = 6.16419 30.01433 18.08926
# Shear Modulus (GPa) = 9.84020 23.18632 16.51326
#
# Velocity S-wave (km/s) = 2.27800 3.49677 2.95099
# Velocity P-wave (km/s) = 3.18900 5.66846 4.59897
#
# Compressibility (1/GPa) = 0.16222730
#
# Stress axis : x y z
#
# Youngs Moduli (GPa) = 16.49464 71.73614 21.86605
#
# Poissons Ratio (x) = 0.22692 -0.39561
# Poissons Ratio (y) = 0.05218 -0.13196
# Poissons Ratio (z) = -0.29843 -0.43294
#
# Static dielectric constant tensor:
#      x y z
#    x 1.659120 0.000000 -0.025820 
#    y 0.000000 1.661190 0.000000 
#    z -0.025820 0.000000 1.693740 
# 
# From -- ./inp_files/72151.got.cif
#   From: 2010.05.17/outbox.cif.g08.bks.cpg/sg12_37_cif.got.tgz:72151.got - 2010.06.03 13:09:07.
