data_PCOD9173581
_publ_section_title
;
Structure prediction by ZEFSAII (Michael W. Deem and Ramdas Pophale) SiO2 
 PCOD9173581
Probable space group: C 2/M
;
_chemical_formula_sum "Si O2"
_cell_formula_units_Z 64
_cell_length_a 20.594811
_cell_length_b 13.182537
_cell_length_c 16.233411
_cell_angle_alpha 90.000000
_cell_angle_beta 57.664573
_cell_angle_gamma 90.000000
_cell_volume 3723.813982
_symmetry_space_group_name_H-M "C 2/M"
_symmetry_group_IT_number 12
_symmetry_cell_setting 'monoclinic'
loop_
_space_group_symop_operation_xyz
x,y,z
-x,y,-z
-x,-y,-z
x,-y,z
1/2+x,1/2+y,z
1/2-x,1/2+y,-z
1/2-x,1/2-y,-z
1/2+x,1/2-y,z
loop_
_atom_site_type_symbol
_atom_site_label
_atom_site_fract_x
_atom_site_fract_y
_atom_site_fract_z
Si Si1 0.997526 0.884491 0.600670
Si Si2 0.284870 0.768089 0.385801
Si Si3 0.819342 0.382683 0.618612
Si Si4 0.349141 0.738672 0.751060
Si Si5 0.562639 0.118011 0.201882
Si Si6 0.422452 0.813710 0.396695
Si Si7 0.217144 0.380185 0.767761
Si Si8 0.038348 0.377008 0.888260
O O1 0.915462 0.844048 0.688531
O O2 0.000000 0.881707 0.500000
O O3 0.057453 0.800996 0.591394
O O4 0.012186 0.000000 0.617131
O O5 0.250000 0.750000 0.500000
O O6 0.262728 0.665184 0.353133
O O7 0.369076 0.805184 0.352686
O O8 0.251495 0.852085 0.345508
O O9 0.813755 0.500000 0.641971
O O10 0.849409 0.318338 0.675113
O O11 0.876927 0.365407 0.502432
O O12 0.370684 0.804162 0.816783
O O13 0.268195 0.681071 0.798412
O O14 0.499501 0.128880 0.318045
O O15 0.516791 0.151001 0.150668
O O16 0.586167 0.000000 0.178508
O O17 0.221735 0.500000 0.778439
O O18 0.128007 0.346122 0.827355
O O19 0.040632 0.500000 0.883875
O O20 0.000000 0.345335 0.000000
#
# Coordination Sequence:
#
# PCOD9173581 Si02
#       8
#     8   8   8   8   8   8   8   8
#     4  10  19  31  44  61  92 135 177 215 252 286
#     4   9  19  30  43  69  99 129 170 211 243 301
#     4  10  19  30  43  63  97 136 170 208 249 293
#     4  10  20  33  46  71 102 135 177 209 244 312
#     4  10  19  31  52  76 103 133 163 213 265 301
#     4  10  18  31  45  68  95 129 177 214 247 303
#     4  10  19  34  55  75 102 140 172 213 266 307
#     4   9  18  34  57  83 103 125 165 216 271 319
#
# _framework density 17.186679999999999
#
# number of rings (size 3 to 8) (size 9 to 14) (size 15 to 20)
#    0.000    2.250    2.500    1.125    0.000    2.500 
#    0.000    2.500    0.000    0.000    0.000    0.000 
#    0.000   34.000    0.000    0.000    0.000    0.000 
#
# Total GULP energy -178144.393300 kJ/mol
# GULP energy per Si atom -5567.012291 kJ/mol
# Density = 1.714756 g / cm^3
# Si number density = 17.186680 Si / 1000 Ang^3
#
#
#
# Elastic Constant Matrix: (Units=GPa)
#
#
# Indices 1 2 3 4 5 6 
#
# 1 99.2307 28.7666 19.1187 0.0000 8.7599 0.0000
# 2 28.7666 79.1670 6.3589 0.0000 4.9416 0.0000
# 3 19.1187 6.3589 39.9899 0.0000 6.1696 0.0000
# 4 0.0000 0.0000 0.0000 4.7621 0.0000 -0.7796
# 5 8.7599 4.9416 6.1696 0.0000 15.2675 0.0000
# 6 0.0000 0.0000 0.0000 -0.7796 0.0000 26.2266
#
#
#
# Elastic Compliance Matrix: (Units=1/GPa)
#
#
# Indices 1 2 3 4 5 6 
#
# 1 0.012471 -0.003903 -0.004727 0.000000 -0.003982 0.000000
# 2 -0.003903 0.014199 -0.000030 0.000000 -0.002344 0.000000
# 3 -0.004727 -0.000030 0.028637 0.000000 -0.008850 0.000000
# 4 0.000000 0.000000 0.000000 0.211020 0.000000 0.006272
# 5 -0.003982 -0.002344 -0.008850 0.000000 0.072118 0.000000
# 6 0.000000 0.000000 0.000000 0.006272 0.000000 0.038316
#
#
# Mechanical properties :
#
#
# Convention : Reuss Voigt Hill
#
# Bulk Modulus (GPa) = 26.32622 36.31954 31.32288
# Shear Modulus (GPa) = 12.29275 20.19413 16.24344
#
# Velocity S-wave (km/s) = 2.67731 3.43153 3.07761
# Velocity P-wave (km/s) = 4.99083 6.07279 5.55820
#
# Compressibility (1/GPa) = 0.03798495
#
# Stress axis : x y z
#
# Youngs Moduli (GPa) = 80.18303 70.42942 34.92042
#
# Poissons Ratio (x) = 0.27492 0.16508
# Poissons Ratio (y) = 0.31299 0.00105
# Poissons Ratio (z) = 0.37906 0.00211
#
# Static dielectric constant tensor:
#      x y z
#    x 1.639700 0.000000 -0.022480 
#    y 0.000000 1.571280 0.000000 
#    z -0.022480 0.000000 1.610040 
# 
# From -- ./inp_files/282884.got.cif
#   From: 2010.05.17/outbox.cif.g08.bks.cpg/sg12_142_cif.got.tgz:282884.got - 2010.06.03 13:09:07.
