data_PCOD9173736
_publ_section_title
;
Structure prediction by ZEFSAII (Michael W. Deem and Ramdas Pophale) SiO2 
 PCOD9173736
Probable space group: C 2/M
;
_chemical_formula_sum "Si O2"
_cell_formula_units_Z 48
_cell_length_a 4.847328
_cell_length_b 30.851403
_cell_length_c 14.983029
_cell_angle_alpha 90.000000
_cell_angle_beta 79.596854
_cell_angle_gamma 90.000000
_cell_volume 2203.832040
_symmetry_space_group_name_H-M "C 2/M"
_symmetry_group_IT_number 12
_symmetry_cell_setting 'monoclinic'
loop_
_space_group_symop_operation_xyz
x,y,z
-x,y,-z
-x,-y,-z
x,-y,z
1/2+x,1/2+y,z
1/2-x,1/2+y,-z
1/2-x,1/2-y,-z
1/2+x,1/2-y,z
loop_
_atom_site_type_symbol
_atom_site_label
_atom_site_fract_x
_atom_site_fract_y
_atom_site_fract_z
Si Si1 0.257881 0.419109 0.941676
Si Si2 0.917303 0.722426 0.607907
Si Si3 0.375468 0.780440 0.103882
Si Si4 0.012220 0.500000 0.141320
Si Si5 0.112431 0.902856 0.744983
Si Si6 0.135214 0.653055 0.732371
Si Si7 0.958447 0.000000 0.257789
O O1 0.079765 0.458758 0.909869
O O2 0.431033 0.401933 0.847161
O O3 0.500000 0.429034 0.000000
O O4 0.000000 0.392145 0.000000
O O5 0.594126 0.735771 0.631616
O O6 0.018742 0.682692 0.660017
O O7 0.000000 0.715961 0.500000
O O8 0.561412 0.738046 0.116784
O O9 0.384933 0.817258 0.178037
O O10 0.500000 0.793610 0.000000
O O11 0.794874 0.500000 0.236153
O O12 0.321288 0.500000 0.164728
O O13 0.939970 0.867786 0.697850
O O14 0.420310 0.886992 0.750693
O O15 0.121963 0.951784 0.705659
#
# Coordination Sequence:
#
# PCOD9173736 Si02
#       7
#     8   8   8   4   8   8   4
#     4  11  20  32  47  68 100 140 191 248 298 337
#     4  10  21  39  65  96 126 151 175 219 291 362
#     4  10  21  37  55  77 109 150 188 224 270 326
#     4  10  18  31  50  68  90 136 193 248 303 346
#     4  11  24  36  53  79 109 151 197 241 292 336
#     4  12  22  37  59  87 115 148 193 239 281 339
#     4  10  20  39  52  70 109 148 194 246 294 350
#
# _framework density 21.780244
#
# number of rings (size 3 to 8) (size 9 to 14) (size 15 to 20)
#    0.000    1.333    0.000    8.500    0.000    2.000 
#    0.000    0.000    0.000    0.000    0.000    3.500 
#    0.000    0.000    0.000    0.000    0.000    0.000 
#
# Total GULP energy -134033.326347 kJ/mol
# GULP energy per Si atom -5584.721931 kJ/mol
# Density = 2.173067 g / cm^3
# Si number density = 21.780244 Si / 1000 Ang^3
#
#
#
# Elastic Constant Matrix: (Units=GPa)
#
#
# Indices 1 2 3 4 5 6 
#
# 1 97.3547 6.1693 7.1008 0.0000 12.3903 0.0000
# 2 6.1693 113.0049 30.7169 0.0000 15.2839 0.0000
# 3 7.1008 30.7169 43.9098 0.0000 23.4274 0.0000
# 4 0.0000 0.0000 0.0000 4.2490 0.0000 4.6417
# 5 12.3903 15.2839 23.4274 0.0000 21.0196 0.0000
# 6 0.0000 0.0000 0.0000 4.6417 0.0000 22.9499
#
#
#
# Elastic Compliance Matrix: (Units=1/GPa)
#
#
# Indices 1 2 3 4 5 6 
#
# 1 0.011433 -0.000290 0.004532 0.000000 -0.011580 0.000000
# 2 -0.000290 0.010951 -0.008528 0.000000 0.001713 0.000000
# 3 0.004532 -0.008528 0.064447 0.000000 -0.068300 0.000000
# 4 0.000000 0.000000 0.000000 0.302092 0.000000 -0.061099
# 5 -0.011580 0.001713 -0.068300 0.000000 0.129280 0.000000
# 6 0.000000 0.000000 0.000000 -0.061099 0.000000 0.055931
#
#
# Mechanical properties :
#
#
# Convention : Reuss Voigt Hill
#
# Bulk Modulus (GPa) = 12.77772 38.02706 25.40239
# Shear Modulus (GPa) = 8.21299 23.66253 15.93776
#
# Velocity S-wave (km/s) = 1.94397 3.29967 2.70803
# Velocity P-wave (km/s) = 3.30425 5.65813 4.63317
#
# Compressibility (1/GPa) = 0.07826120
#
# Stress axis : x y z
#
# Youngs Moduli (GPa) = 87.46359 91.31241 15.51656
#
# Poissons Ratio (x) = 0.02647 -0.07033
# Poissons Ratio (y) = 0.02536 0.13232
# Poissons Ratio (z) = -0.39642 0.77870
#
# Static dielectric constant tensor:
#      x y z
#    x 1.799950 0.000000 -0.013990 
#    y 0.000000 1.862440 0.000000 
#    z -0.013990 0.000000 1.814760 
# 
# From -- ./inp_files/192089.got.cif
#   From: 2010.05.17/outbox.cif.g08.bks.cpg/sg12_97_cif.got.tgz:192089.got - 2010.06.03 13:09:07.
