data_PCOD9173075
_publ_section_title
;
Structure prediction by ZEFSAII (Michael W. Deem and Ramdas Pophale) SiO2 
 PCOD9173075
Probable space group: C 2/M
;
_chemical_formula_sum "Si O2"
_cell_formula_units_Z 48
_cell_length_a 20.193364
_cell_length_b 7.776311
_cell_length_c 28.713040
_cell_angle_alpha 90.000000
_cell_angle_beta 146.669689
_cell_angle_gamma 90.000000
_cell_volume 2477.430216
_symmetry_space_group_name_H-M "C 2/M"
_symmetry_group_IT_number 12
_symmetry_cell_setting 'monoclinic'
loop_
_space_group_symop_operation_xyz
x,y,z
-x,y,-z
-x,-y,-z
x,-y,z
1/2+x,1/2+y,z
1/2-x,1/2+y,-z
1/2-x,1/2-y,-z
1/2+x,1/2-y,z
loop_
_atom_site_type_symbol
_atom_site_label
_atom_site_fract_x
_atom_site_fract_y
_atom_site_fract_z
Si Si1 0.302828 0.705144 0.642342
Si Si2 0.962183 0.206825 0.529047
Si Si3 0.375022 0.798373 0.786401
Si Si4 0.058865 0.795766 0.758410
Si Si5 0.159660 0.788306 0.720346
Si Si6 0.370362 0.205177 0.098141
O O1 0.313425 0.500000 0.653796
O O2 0.176582 0.746097 0.544265
O O3 0.306810 0.782472 0.696713
O O4 0.422314 0.770387 0.686036
O O5 0.000000 0.272108 0.500000
O O6 0.054341 0.265491 0.622784
O O7 0.969865 0.000000 0.532349
O O8 0.287093 0.727159 0.774333
O O9 0.508287 0.724425 0.855635
O O10 0.390925 0.000000 0.806133
O O11 0.126317 0.728633 0.752482
O O12 0.127248 0.767095 0.847168
O O13 0.047728 0.000000 0.744799
O O14 0.162909 0.000000 0.721858
O O15 0.381663 0.000000 0.106579
O O16 0.250000 0.250000 0.000000
#
# Coordination Sequence:
#
# PCOD9173075 Si02
#       6
#     8   8   8   8   8   8
#     4  10  19  30  46  72 104 135 167 208 255 298
#     4  10  18  30  50  72  97 135 181 217 242 281
#     4   9  17  33  55  75  95 130 175 208 239 292
#     4   9  19  35  53  74 103 134 164 205 256 301
#     4   9  17  32  53  74  98 132 174 214 247 284
#     4  10  20  35  58  81 101 127 163 204 248 303
#
# _framework density 19.374915000000001
#
# number of rings (size 3 to 8) (size 9 to 14) (size 15 to 20)
#    0.000    2.500    1.667    1.000    0.000    2.333 
#    0.000    2.500    0.000    5.000    0.000    0.000 
#    0.000    0.000    0.000    0.000    0.000    0.000 
#
# Total GULP energy -133865.046641 kJ/mol
# GULP energy per Si atom -5577.710277 kJ/mol
# Density = 1.933082 g / cm^3
# Si number density = 19.374915 Si / 1000 Ang^3
#
#
#
# Elastic Constant Matrix: (Units=GPa)
#
#
# Indices 1 2 3 4 5 6 
#
# 1 196.2996 3.6667 81.8568 0.0000 -4.0775 0.0000
# 2 3.6667 19.3184 -13.3606 -0.0001 -0.9074 0.0001
# 3 81.8568 -13.3606 117.7482 0.0001 10.1742 -0.0001
# 4 0.0000 -0.0001 0.0001 21.7367 0.0000 1.0145
# 5 -4.0775 -0.9074 10.1742 0.0000 17.7452 0.0000
# 6 0.0000 0.0001 -0.0001 1.0145 0.0000 14.6463
#
#
#
# Elastic Compliance Matrix: (Units=1/GPa)
#
#
# Indices 1 2 3 4 5 6 
#
# 1 0.008173 -0.006024 -0.006840 0.000000 0.005492 0.000000
# 2 -0.006024 0.060623 0.011487 0.000000 -0.004870 -0.000001
# 3 -0.006840 0.011487 0.015399 0.000000 -0.009813 0.000000
# 4 0.000000 0.000000 0.000000 0.046154 0.000000 -0.003197
# 5 0.005492 -0.004870 -0.009813 0.000000 0.062992 0.000000
# 6 0.000000 -0.000001 0.000000 -0.003197 0.000000 0.068498
#
#
# Mechanical properties :
#
#
# Convention : Reuss Voigt Hill
#
# Bulk Modulus (GPa) = 12.27856 53.07689 32.67772
# Shear Modulus (GPa) = 17.13853 28.23920 22.68887
#
# Velocity S-wave (km/s) = 2.97740 3.82188 3.42576
# Velocity P-wave (km/s) = 4.26275 6.85053 5.70530
#
# Compressibility (1/GPa) = 0.08144279
#
# Stress axis : x y z
#
# Youngs Moduli (GPa) = 122.35377 16.49530 64.93941
#
# Poissons Ratio (x) = 0.09936 0.44417
# Poissons Ratio (y) = 0.73703 -0.74598
# Poissons Ratio (z) = 0.83687 -0.18949
#
# Static dielectric constant tensor:
#      x y z
#    x 1.705830 0.000000 0.039510 
#    y 0.000000 1.721800 0.000000 
#    z 0.039510 0.000000 1.598820 
# 
# From -- ./inp_files/229332.got.cif
#   From: 2010.05.17/outbox.cif.g08.bks.cpg/sg12_115_cif.got.tgz:229332.got - 2010.06.03 13:09:07.
