data_PCOD9173404
_publ_section_title
;
Structure prediction by ZEFSAII (Michael W. Deem and Ramdas Pophale) SiO2 
 PCOD9173404
Probable space group: C 2/M
;
_chemical_formula_sum "Si O2"
_cell_formula_units_Z 56
_cell_length_a 24.318465
_cell_length_b 7.932029
_cell_length_c 12.601740
_cell_angle_alpha 90.000000
_cell_angle_beta 109.503956
_cell_angle_gamma 90.000000
_cell_volume 2291.326082
_symmetry_space_group_name_H-M "C 2/M"
_symmetry_group_IT_number 12
_symmetry_cell_setting 'monoclinic'
loop_
_space_group_symop_operation_xyz
x,y,z
-x,y,-z
-x,-y,-z
x,-y,z
1/2+x,1/2+y,z
1/2-x,1/2+y,-z
1/2-x,1/2-y,-z
1/2+x,1/2-y,z
loop_
_atom_site_type_symbol
_atom_site_label
_atom_site_fract_x
_atom_site_fract_y
_atom_site_fract_z
Si Si1 0.611932 0.698510 0.413251
Si Si2 0.138772 0.691287 0.667685
Si Si3 0.983518 0.809453 0.365263
Si Si4 0.936592 0.798093 0.997322
Si Si5 0.279704 0.813195 0.624798
Si Si6 0.155379 0.297279 0.900875
Si Si7 0.685961 0.203258 0.140434
O O1 0.617184 0.500000 0.391575
O O2 0.633786 0.720864 0.550030
O O3 0.544490 0.747653 0.355601
O O4 0.653095 0.806179 0.365547
O O5 0.157990 0.500000 0.660268
O O6 0.168431 0.771348 0.791852
O O7 0.072156 0.692023 0.668244
O O8 0.000000 0.826280 0.500000
O O9 0.968758 0.000000 0.318075
O O10 0.883015 0.742705 0.887419
O O11 0.939014 0.000000 0.001070
O O12 0.909954 0.739674 0.093922
O O13 0.000000 0.736022 0.000000
O O14 0.250000 0.750000 0.500000
O O15 0.277409 0.724891 0.737591
O O16 0.257120 0.000000 0.625708
O O17 0.160983 0.500000 0.896905
O O18 0.194121 0.232779 0.025344
O O19 0.691942 0.000000 0.143404
#
# Coordination Sequence:
#
# PCOD9173404 Si02
#       7
#     8   8   8   8   8   8   8
#     4  10  21  36  53  76 109 144 181 227 275 324
#     4  10  18  30  52  80 110 145 184 223 265 322
#     4   8  16  30  46  68 104 146 180 217 264 313
#     4   9  17  28  45  73 106 140 179 218 257 309
#     4  11  23  40  62  83 105 138 182 233 284 330
#     4   8  17  32  48  70 102 139 173 210 259 314
#     4   8  18  36  53  72 102 139 174 213 266 322
#
# _framework density 24.439996000000001
#
# number of rings (size 3 to 8) (size 9 to 14) (size 15 to 20)
#    0.857    2.000    0.000    2.143    0.000    7.714 
#    0.000    5.714    0.000    0.857    0.000    0.000 
#    0.000    0.000    0.000    0.000    0.000    0.000 
#
# Total GULP energy -155977.953327 kJ/mol
# GULP energy per Si atom -5570.641190 kJ/mol
# Density = 2.438437 g / cm^3
# Si number density = 24.439996 Si / 1000 Ang^3
#
#
#
# Elastic Constant Matrix: (Units=GPa)
#
#
# Indices 1 2 3 4 5 6 
#
# 1 112.6642 3.7664 18.6887 0.0000 -14.7333 0.0000
# 2 3.7664 45.8268 5.6305 0.0000 3.4868 0.0000
# 3 18.6887 5.6305 126.2637 0.0000 -8.3062 0.0000
# 4 0.0000 0.0000 0.0000 13.0385 0.0000 5.2579
# 5 -14.7333 3.4868 -8.3062 0.0000 13.4201 0.0000
# 6 0.0000 0.0000 0.0000 5.2579 0.0000 17.3168
#
#
#
# Elastic Compliance Matrix: (Units=1/GPa)
#
#
# Indices 1 2 3 4 5 6 
#
# 1 0.010567 -0.001660 -0.000728 0.000000 0.011581 0.000000
# 2 -0.001660 0.022773 -0.001333 0.000000 -0.008565 0.000000
# 3 -0.000728 -0.001333 0.008399 0.000000 0.004746 0.000000
# 4 0.000000 0.000000 0.000000 0.087397 0.000000 -0.026536
# 5 0.011581 -0.008565 0.004746 0.000000 0.092392 0.000000
# 6 0.000000 0.000000 0.000000 -0.026536 0.000000 0.065805
#
#
# Mechanical properties :
#
#
# Convention : Reuss Voigt Hill
#
# Bulk Modulus (GPa) = 29.15770 37.88067 33.51918
# Shear Modulus (GPa) = 16.32874 25.86635 21.09754
#
# Velocity S-wave (km/s) = 2.58760 3.25678 2.94128
# Velocity P-wave (km/s) = 4.56988 5.44750 5.02787
#
# Compressibility (1/GPa) = 0.03429625
#
# Stress axis : x y z
#
# Youngs Moduli (GPa) = 94.63658 43.91123 119.05683
#
# Poissons Ratio (x) = 0.07290 0.08669
# Poissons Ratio (y) = 0.15711 0.15873
# Poissons Ratio (z) = 0.06891 0.05854
#
# Static dielectric constant tensor:
#      x y z
#    x 2.009810 0.000000 0.045630 
#    y 0.000000 1.881120 0.000000 
#    z 0.045630 0.000000 2.079530 
# 
# From -- ./inp_files/187743.got.cif
#   From: 2010.05.17/outbox.cif.g08.bks.cpg/sg12_94_cif.got.tgz:187743.got - 2010.06.03 13:09:07.
