data_PCOD9173243
_publ_section_title
;
Structure prediction by ZEFSAII (Michael W. Deem and Ramdas Pophale) SiO2 
 PCOD9173243
Probable space group: C 2/M
;
_chemical_formula_sum "Si O2"
_cell_formula_units_Z 56
_cell_length_a 15.242016
_cell_length_b 16.846441
_cell_length_c 18.160677
_cell_angle_alpha 90.000000
_cell_angle_beta 40.533354
_cell_angle_gamma 90.000000
_cell_volume 3030.559865
_symmetry_space_group_name_H-M "C 2/M"
_symmetry_group_IT_number 12
_symmetry_cell_setting 'monoclinic'
loop_
_space_group_symop_operation_xyz
x,y,z
-x,y,-z
-x,-y,-z
x,-y,z
1/2+x,1/2+y,z
1/2-x,1/2+y,-z
1/2-x,1/2-y,-z
1/2+x,1/2-y,z
loop_
_atom_site_type_symbol
_atom_site_label
_atom_site_fract_x
_atom_site_fract_y
_atom_site_fract_z
Si Si1 0.693736 0.133371 0.092430
Si Si2 0.829337 0.092220 0.320923
Si Si3 0.282090 0.143783 0.764984
Si Si4 0.086000 0.595903 0.586647
Si Si5 0.422990 0.302919 0.858488
Si Si6 0.089295 0.712649 0.874075
Si Si7 0.397636 0.088252 0.257447
O O1 0.748927 0.104751 0.135678
O O2 0.639734 0.224573 0.138511
O O3 0.561054 0.087018 0.153552
O O4 0.804412 0.138437 0.958668
O O5 0.781687 0.103828 0.266645
O O6 0.702654 0.112098 0.453743
O O7 0.954912 0.150296 0.256668
O O8 0.864960 0.000000 0.309823
O O9 0.444715 0.137657 0.656884
O O10 0.214253 0.230519 0.812565
O O11 0.061135 0.500000 0.603143
O O12 0.132133 0.617587 0.640354
O O13 0.485696 0.267431 0.893799
O O14 0.138676 0.645633 0.786037
O O15 0.000000 0.683529 0.000000
O O16 0.342827 0.000000 0.283348
#
# Coordination Sequence:
#
# PCOD9173243 Si02
#       7
#     8   8   8   8   8   8   8
#     4   9  17  32  51  70 100 133 162 201 245 292
#     4  10  20  32  50  75 104 134 163 201 246 291
#     4  10  18  30  51  75  98 131 165 199 250 296
#     4   9  18  35  52  70 101 135 165 201 243 289
#     4   9  18  32  50  72 100 136 165 193 245 297
#     4  10  18  31  50  74 101 130 159 203 259 294
#     4   9  19  33  51  74  97 129 169 203 244 296
#
# _framework density 18.478435000000001
#
# number of rings (size 3 to 8) (size 9 to 14) (size 15 to 20)
#    0.000    2.571    1.429    0.857    0.000    2.571 
#    0.000   13.571    0.000    0.000    0.000    0.000 
#    0.000   24.000    0.000    0.000    0.000    0.000 
#
# Total GULP energy -155950.740564 kJ/mol
# GULP energy per Si atom -5569.669306 kJ/mol
# Density = 1.843638 g / cm^3
# Si number density = 18.478435 Si / 1000 Ang^3
#
#
#
# Elastic Constant Matrix: (Units=GPa)
#
#
# Indices 1 2 3 4 5 6 
#
# 1 54.0238 18.7649 17.6750 0.0000 3.9809 0.0000
# 2 18.7649 42.4919 28.7480 0.0000 0.2383 0.0000
# 3 17.6750 28.7480 84.3595 -0.0001 -2.8287 0.0000
# 4 0.0000 0.0000 -0.0001 22.0624 0.0000 0.9917
# 5 3.9809 0.2383 -2.8287 0.0000 15.6049 0.0000
# 6 0.0000 0.0000 0.0000 0.9917 0.0000 3.6593
#
#
#
# Elastic Compliance Matrix: (Units=1/GPa)
#
#
# Indices 1 2 3 4 5 6 
#
# 1 0.022591 -0.008583 -0.002009 0.000000 -0.005996 0.000000
# 2 -0.008583 0.033934 -0.009769 0.000000 -0.000099 0.000000
# 3 -0.002009 -0.009769 0.015722 0.000000 0.003512 0.000000
# 4 0.000000 0.000000 0.000000 0.045885 0.000000 -0.012435
# 5 -0.005996 -0.000099 0.003512 0.000000 0.066250 0.000000
# 6 0.000000 0.000000 0.000000 -0.012435 0.000000 0.276646
#
#
# Mechanical properties :
#
#
# Convention : Reuss Voigt Hill
#
# Bulk Modulus (GPa) = 31.72225 34.58345 33.15285
# Shear Modulus (GPa) = 9.76068 15.97782 12.86925
#
# Velocity S-wave (km/s) = 2.30080 2.94372 2.64189
# Velocity P-wave (km/s) = 4.92571 5.50547 5.22364
#
# Compressibility (1/GPa) = 0.03152362
#
# Stress axis : x y z
#
# Youngs Moduli (GPa) = 44.26541 29.46875 63.60578
#
# Poissons Ratio (x) = 0.25294 0.12780
# Poissons Ratio (y) = 0.37995 0.62137
# Poissons Ratio (z) = 0.08894 0.28788
#
# Static dielectric constant tensor:
#      x y z
#    x 1.647720 0.000000 0.015450 
#    y 0.000000 1.666270 0.000000 
#    z 0.015450 0.000000 1.642330 
# 
# From -- ./inp_files/271405.got.cif
#   From: 2010.05.17/outbox.cif.g08.bks.cpg/sg12_136_cif.got.tgz:271405.got - 2010.06.03 13:09:07.
