data_PCOD9173902
_publ_section_title
;
Structure prediction by ZEFSAII (Michael W. Deem and Ramdas Pophale) SiO2 
 PCOD9173902
Probable space group: C 2/M
;
_chemical_formula_sum "Si O2"
_cell_formula_units_Z 64
_cell_length_a 24.031778
_cell_length_b 19.983057
_cell_length_c 7.204980
_cell_angle_alpha 90.000000
_cell_angle_beta 63.257378
_cell_angle_gamma 90.000000
_cell_volume 3089.939756
_symmetry_space_group_name_H-M "C 2/M"
_symmetry_group_IT_number 12
_symmetry_cell_setting 'monoclinic'
loop_
_space_group_symop_operation_xyz
x,y,z
-x,y,-z
-x,-y,-z
x,-y,z
1/2+x,1/2+y,z
1/2-x,1/2+y,-z
1/2-x,1/2-y,-z
1/2+x,1/2-y,z
loop_
_atom_site_type_symbol
_atom_site_label
_atom_site_fract_x
_atom_site_fract_y
_atom_site_fract_z
Si Si1 0.673269 0.286386 0.417904
Si Si2 0.915575 0.286089 0.953402
Si Si3 0.550168 0.214483 0.653865
Si Si4 0.204881 0.213531 0.796477
Si Si5 0.867727 0.574488 0.103076
Si Si6 0.094351 0.426698 0.533445
Si Si7 0.739006 0.074288 0.213593
Si Si8 0.228041 0.925127 0.270593
O O1 0.604867 0.258620 0.482313
O O2 0.732420 0.251006 0.232177
O O3 0.687713 0.268677 0.610804
O O4 0.680982 0.365432 0.378997
O O5 0.932788 0.286035 0.149320
O O6 0.856495 0.238485 0.005096
O O7 0.894874 0.363222 0.949544
O O8 0.978252 0.265046 0.755028
O O9 0.556151 0.140247 0.560763
O O10 0.220733 0.135268 0.770862
O O11 0.869714 0.500000 0.012556
O O12 0.902325 0.569979 0.246939
O O13 0.795358 0.588964 0.262418
O O14 0.072808 0.500000 0.499743
O O15 0.165496 0.416001 0.358733
O O16 0.754501 0.000000 0.263804
O O17 0.753459 0.074792 0.973540
O O18 0.207008 0.000000 0.351543
#
# Coordination Sequence:
#
# PCOD9173902 Si02
#       8
#     8   8   8   8   8   8   8   8
#     4  10  18  31  51  74  97 125 161 199 240 284
#     4   9  17  29  46  71 101 128 157 197 240 282
#     4   9  17  29  46  71 101 128 157 197 240 282
#     4  10  18  31  51  74  97 125 161 199 240 284
#     4   9  16  28  47  70  98 131 163 193 230 279
#     4   9  16  28  47  70  98 131 163 193 230 279
#     4  10  20  32  48  72  99 126 160 202 244 283
#     4  10  20  32  48  72  99 126 160 202 244 283
#
# _framework density 20.712377
#
# number of rings (size 3 to 8) (size 9 to 14) (size 15 to 20)
#    0.000    2.500    2.500    0.750    0.000    2.500 
#    0.000    2.500    0.000    3.750    0.000    8.750 
#    0.000    0.000    0.000    0.000    0.000    0.000 
#
# Total GULP energy -178655.021322 kJ/mol
# GULP energy per Si atom -5582.969416 kJ/mol
# Density = 2.066524 g / cm^3
# Si number density = 20.712377 Si / 1000 Ang^3
#
#
#
# Elastic Constant Matrix: (Units=GPa)
#
#
# Indices 1 2 3 4 5 6 
#
# 1 77.6244 48.8751 39.8465 0.0000 -26.5377 0.0000
# 2 48.8751 112.9510 42.5475 0.0000 -46.7320 0.0000
# 3 39.8465 42.5475 96.0036 0.0000 -30.0648 0.0000
# 4 0.0000 0.0000 0.0000 10.8901 0.0000 -35.2081
# 5 -26.5377 -46.7320 -30.0648 0.0000 43.1334 0.0000
# 6 0.0000 0.0000 0.0000 -35.2081 0.0000 -57.0365
#
#
#
# Elastic Compliance Matrix: (Units=1/GPa)
#
#
# Indices 1 2 3 4 5 6 
#
# 1 0.019871 -0.005631 -0.004904 0.000000 0.002706 0.000000
# 2 -0.005631 0.017991 -0.000789 0.000000 0.015477 0.000000
# 3 -0.004904 -0.000789 0.014825 0.000000 0.006461 0.000000
# 4 0.000000 0.000000 0.000000 0.030653 0.000000 -0.018922
# 5 0.002706 0.015477 0.006461 0.000000 0.046120 0.000000
# 6 0.000000 0.000000 0.000000 -0.018922 0.000000 -0.005853
#
#
# Mechanical properties :
#
#
# Convention : Reuss Voigt Hill
#
# Bulk Modulus (GPa) = 33.29234 61.01303 47.15268
# Shear Modulus (GPa) = 31.99612 9.75140 20.87376
#
# Velocity S-wave (km/s) = 3.93464 2.17215 3.17802
# Velocity P-wave (km/s) = 6.06221 5.98433 6.02339
#
# Compressibility (1/GPa) = 0.03003694
#
# Stress axis : x y z
#
# Youngs Moduli (GPa) = 50.32497 55.58372 67.45427
#
# Poissons Ratio (x) = 0.31302 0.33082
# Poissons Ratio (y) = 0.28340 0.05323
# Poissons Ratio (z) = 0.24681 0.04386
#
# Static dielectric constant tensor:
#      x y z
#    x 1.794380 0.000000 0.070840 
#    y 0.000000 1.745800 0.000000 
#    z 0.070840 0.000000 1.798630 
# 
# From -- ./inp_files/99075.got.cif
#   From: 2010.05.17/outbox.cif.g08.bks.cpg/sg12_50_cif.got.tgz:99075.got - 2010.06.03 13:09:07.
