data_PCOD9173868
_publ_section_title
;
Structure prediction by ZEFSAII (Michael W. Deem and Ramdas Pophale) SiO2 
 PCOD9173868
Probable space group: C 2/M
;
_chemical_formula_sum "Si O2"
_cell_formula_units_Z 64
_cell_length_a 17.297285
_cell_length_b 27.860236
_cell_length_c 7.771163
_cell_angle_alpha 90.000000
_cell_angle_beta 51.540548
_cell_angle_gamma 90.000000
_cell_volume 2932.495937
_symmetry_space_group_name_H-M "C 2/M"
_symmetry_group_IT_number 12
_symmetry_cell_setting 'monoclinic'
loop_
_space_group_symop_operation_xyz
x,y,z
-x,y,-z
-x,-y,-z
x,-y,z
1/2+x,1/2+y,z
1/2-x,1/2+y,-z
1/2-x,1/2-y,-z
1/2+x,1/2-y,z
loop_
_atom_site_type_symbol
_atom_site_label
_atom_site_fract_x
_atom_site_fract_y
_atom_site_fract_z
Si Si1 0.248564 0.208768 0.143755
Si Si2 0.878571 0.859987 0.292908
Si Si3 0.427781 0.554120 0.447783
Si Si4 0.842390 0.362858 0.225119
Si Si5 0.569736 0.837276 0.554519
Si Si6 0.283606 0.945571 0.069818
Si Si7 0.559490 0.727505 0.589843
Si Si8 0.271668 0.366474 0.098782
O O1 0.342990 0.185577 0.107232
O O2 0.175353 0.229097 0.385617
O O3 0.250000 0.250000 0.000000
O O4 0.202419 0.162919 0.108869
O O5 0.928896 0.907547 0.295971
O O6 0.768742 0.860497 0.536620
O O7 0.940057 0.813068 0.265329
O O8 0.855566 0.863947 0.124272
O O9 0.500000 0.569698 0.500000
O O10 0.455263 0.500000 0.356244
O O11 0.319268 0.552176 0.682815
O O12 0.916714 0.363166 0.281707
O O13 0.849151 0.408749 0.091646
O O14 0.500000 0.857031 0.500000
O O15 0.534207 0.783246 0.648939
O O16 0.676810 0.840142 0.314142
O O17 0.320609 0.000000 0.999717
O O18 0.260000 0.919081 0.922098
O O19 0.500000 0.712290 0.500000
#
# Coordination Sequence:
#
# PCOD9173868 Si02
#       8
#     8   8   8   8   8   8   8   8
#     4  10  18  31  51  72 102 134 165 206 239 299
#     4   9  18  30  50  74 102 135 175 209 239 297
#     4   9  17  32  53  74 100 137 173 205 248 298
#     4   8  18  32  52  76  95 133 172 196 257 304
#     4  10  20  35  54  74 101 131 170 217 256 304
#     4   9  18  35  55  76 102 131 167 209 253 306
#     4  10  20  33  50  71 103 142 174 206 251 294
#     4  10  20  33  52  78  99 132 171 207 258 297
#
# _framework density 21.824413
#
# number of rings (size 3 to 8) (size 9 to 14) (size 15 to 20)
#    0.000    2.625    1.250    1.125    1.750    2.000 
#    0.000    6.875    0.000    4.500    0.000    0.000 
#    0.000    0.000    0.000    0.000    0.000    0.000 
#
# Total GULP energy -178465.926132 kJ/mol
# GULP energy per Si atom -5577.060192 kJ/mol
# Density = 2.177474 g / cm^3
# Si number density = 21.824413 Si / 1000 Ang^3
#
#
#
# Elastic Constant Matrix: (Units=GPa)
#
#
# Indices 1 2 3 4 5 6 
#
# 1 115.0226 43.0443 25.5858 0.0000 38.0637 0.0000
# 2 43.0443 91.4828 24.8411 0.0000 17.6181 0.0000
# 3 25.5858 24.8411 55.4293 0.0000 13.8767 0.0000
# 4 0.0000 0.0000 0.0000 8.4129 0.0000 3.3122
# 5 38.0637 17.6181 13.8767 0.0000 40.8627 0.0000
# 6 0.0000 0.0000 0.0000 3.3122 0.0000 7.6151
#
#
#
# Elastic Compliance Matrix: (Units=1/GPa)
#
#
# Indices 1 2 3 4 5 6 
#
# 1 0.014255 -0.004066 -0.002046 0.000000 -0.010830 0.000000
# 2 -0.004066 0.014168 -0.004253 0.000000 -0.000877 0.000000
# 3 -0.002046 -0.004253 0.021810 0.000000 -0.003666 0.000000
# 4 0.000000 0.000000 0.000000 0.143426 0.000000 -0.062384
# 5 -0.010830 -0.000877 -0.003666 0.000000 0.036184 0.000000
# 6 0.000000 0.000000 0.000000 -0.062384 0.000000 0.158453
#
#
# Mechanical properties :
#
#
# Convention : Reuss Voigt Hill
#
# Bulk Modulus (GPa) = 33.89653 49.87523 41.88588
# Shear Modulus (GPa) = 11.93717 22.60903 17.27310
#
# Velocity S-wave (km/s) = 2.34126 3.22211 2.81634
# Velocity P-wave (km/s) = 4.78266 6.06178 5.45981
#
# Compressibility (1/GPa) = 0.02950154
#
# Stress axis : x y z
#
# Youngs Moduli (GPa) = 70.15253 70.58275 45.85144
#
# Poissons Ratio (x) = 0.28696 0.09383
# Poissons Ratio (y) = 0.28521 0.19501
# Poissons Ratio (z) = 0.14356 0.30020
#
# Static dielectric constant tensor:
#      x y z
#    x 1.837700 0.000000 -0.042430 
#    y 0.000000 1.819540 0.000000 
#    z -0.042430 0.000000 1.902470 
# 
# From -- ./inp_files/66950.got.cif
#   From: 2010.05.17/outbox.cif.g08.bks.cpg/sg12_34_cif.got.tgz:66950.got - 2010.06.03 13:09:07.
