data_PCOD9173033
_publ_section_title
;
Structure prediction by ZEFSAII (Michael W. Deem and Ramdas Pophale) SiO2 
 PCOD9173033
Probable space group: C 2/M
;
_chemical_formula_sum "Si O2"
_cell_formula_units_Z 36
_cell_length_a 13.417660
_cell_length_b 19.423054
_cell_length_c 7.225512
_cell_angle_alpha 90.000000
_cell_angle_beta 57.281330
_cell_angle_gamma 90.000000
_cell_volume 1584.279226
_symmetry_space_group_name_H-M "C 2/M"
_symmetry_group_IT_number 12
_symmetry_cell_setting 'monoclinic'
loop_
_space_group_symop_operation_xyz
x,y,z
-x,y,-z
-x,-y,-z
x,-y,z
1/2+x,1/2+y,z
1/2-x,1/2+y,-z
1/2-x,1/2-y,-z
1/2+x,1/2-y,z
loop_
_atom_site_type_symbol
_atom_site_label
_atom_site_fract_x
_atom_site_fract_y
_atom_site_fract_z
Si Si1 0.500000 0.871837 0.500000
Si Si2 0.353811 0.684378 0.422662
Si Si3 0.749085 0.321489 0.891220
Si Si4 0.592672 0.168695 0.740136
Si Si5 0.954657 0.078160 0.830099
O O1 0.383802 0.843034 0.723527
O O2 0.431846 0.893883 0.378280
O O3 0.313083 0.685652 0.247934
O O4 0.415023 0.759601 0.373844
O O5 0.231512 0.670436 0.652918
O O6 0.446111 0.624853 0.364809
O O7 0.750000 0.250000 0.000000
O O8 0.668721 0.381213 0.059982
O O9 0.500000 0.170888 0.000000
O O10 0.946248 0.000000 0.774175
O O11 0.000000 0.076126 0.000000
#
# Coordination Sequence:
#
# PCOD9173033 Si02
#       5
#     4   8   8   8   8
#     4  10  20  30  47  78 105 134 178 218 270 326
#     4   9  18  30  48  76 104 136 181 219 266 325
#     4  10  18  30  49  76 108 138 177 225 269 319
#     4  10  18  31  50  76 107 136 170 224 278 316
#     4   9  17  31  51  75 107 144 180 222 272 325
#
# _framework density 22.723265999999999
#
# number of rings (size 3 to 8) (size 9 to 14) (size 15 to 20)
#    0.000    2.444    0.000    4.667    0.000    0.000 
#    0.000    0.556    0.000    2.000    0.000   76.222 
#    0.000   16.889    0.000    0.000    0.000    0.000 
#
# Total GULP energy -100211.146284 kJ/mol
# GULP energy per Si atom -5567.285905 kJ/mol
# Density = 2.267155 g / cm^3
# Si number density = 22.723266 Si / 1000 Ang^3
#
#
#
# Elastic Constant Matrix: (Units=GPa)
#
#
# Indices 1 2 3 4 5 6 
#
# 1 100.7828 39.6910 48.4004 0.0000 -11.7597 0.0000
# 2 39.6910 114.7683 42.7360 0.0000 -29.0112 0.0000
# 3 48.4004 42.7360 160.5806 0.0000 -41.0825 0.0000
# 4 0.0000 0.0000 0.0000 9.0518 0.0000 -8.0304
# 5 -11.7597 -29.0112 -41.0825 0.0000 57.3752 0.0000
# 6 0.0000 0.0000 0.0000 -8.0304 0.0000 21.2758
#
#
#
# Elastic Compliance Matrix: (Units=1/GPa)
#
#
# Indices 1 2 3 4 5 6 
#
# 1 0.012723 -0.003569 -0.003280 0.000000 -0.001546 0.000000
# 2 -0.003569 0.011372 -0.000816 0.000000 0.004434 0.000000
# 3 -0.003280 -0.000816 0.008761 0.000000 0.005188 0.000000
# 4 0.000000 0.000000 0.000000 0.166092 0.000000 0.062690
# 5 -0.001546 0.004434 0.005188 0.000000 0.023069 0.000000
# 6 0.000000 0.000000 0.000000 0.062690 0.000000 0.070664
#
#
# Mechanical properties :
#
#
# Convention : Reuss Voigt Hill
#
# Bulk Modulus (GPa) = 57.06465 70.86515 63.96490
# Shear Modulus (GPa) = 15.93097 33.89418 24.91258
#
# Velocity S-wave (km/s) = 2.65068 3.86632 3.31470
# Velocity P-wave (km/s) = 5.87669 7.15438 6.54678
#
# Compressibility (1/GPa) = 0.01752398
#
# Stress axis : x y z
#
# Youngs Moduli (GPa) = 78.59746 87.93143 114.14705
#
# Poissons Ratio (x) = 0.31386 0.37445
# Poissons Ratio (y) = 0.28054 0.09318
# Poissons Ratio (z) = 0.25783 0.07178
#
# Static dielectric constant tensor:
#      x y z
#    x 1.935630 0.000000 0.065610 
#    y 0.000000 1.919800 0.000000 
#    z 0.065610 0.000000 1.914080 
# 
# From -- ./inp_files/62506.got.cif
#   From: 2010.05.17/outbox.cif.g08.bks.cpg/sg12_32_cif.got.tgz:62506.got - 2010.06.03 13:09:07.
