data_PCOD9173341
_publ_section_title
;
Structure prediction by ZEFSAII (Michael W. Deem and Ramdas Pophale) SiO2 
 PCOD9173341
Probable space group: C 2/M
;
_chemical_formula_sum "Si O2"
_cell_formula_units_Z 64
_cell_length_a 20.828964
_cell_length_b 8.689972
_cell_length_c 33.446065
_cell_angle_alpha 90.000000
_cell_angle_beta 36.751900
_cell_angle_gamma 90.000000
_cell_volume 3622.323397
_symmetry_space_group_name_H-M "C 2/M"
_symmetry_group_IT_number 12
_symmetry_cell_setting 'monoclinic'
loop_
_space_group_symop_operation_xyz
x,y,z
-x,y,-z
-x,-y,-z
x,-y,z
1/2+x,1/2+y,z
1/2-x,1/2+y,-z
1/2-x,1/2-y,-z
1/2+x,1/2-y,z
loop_
_atom_site_type_symbol
_atom_site_label
_atom_site_fract_x
_atom_site_fract_y
_atom_site_fract_z
Si Si1 0.437083 0.684620 0.649352
Si Si2 0.672949 0.314389 0.504024
Si Si3 0.671417 0.815085 0.005231
Si Si4 0.347282 0.685295 0.859228
Si Si5 0.956584 0.684022 0.728097
Si Si6 0.302976 0.185195 0.361488
Si Si7 0.494028 0.185208 0.151239
Si Si8 0.228318 0.817157 0.710903
O O1 0.431039 0.500000 0.650816
O O2 0.550964 0.733422 0.573301
O O3 0.436442 0.739647 0.695464
O O4 0.337354 0.754723 0.675595
O O5 0.677559 0.500000 0.503544
O O6 0.750000 0.250000 0.500000
O O7 0.719447 0.268565 0.437705
O O8 0.729268 0.769802 0.935095
O O9 0.675209 0.000000 0.004553
O O10 0.750000 0.750000 0.000000
O O11 0.553681 0.771042 0.079854
O O12 0.354829 0.500000 0.853871
O O13 0.376586 0.755747 0.802061
O O14 0.434131 0.746922 0.848279
O O15 0.949092 0.500000 0.728217
O O16 0.077383 0.721734 0.682612
O O17 0.281048 0.264220 0.330383
O O18 0.297309 0.000000 0.358887
O O19 0.374743 0.247570 0.215003
O O20 0.493708 0.000000 0.155209
O O21 0.224635 0.000000 0.715207
#
# Coordination Sequence:
#
# PCOD9173341 Si02
#       8
#     8   8   8   8   8   8   8   8
#     4  11  24  41  61  84 113 149 189 233 285 341
#     4  10  21  38  62  87 112 145 184 231 282 335
#     4   8  16  28  46  75 110 145 182 228 278 328
#     4  10  18  30  51  82 115 146 187 233 277 328
#     4  11  21  35  58  85 116 151 188 231 281 333
#     4  10  21  38  60  85 115 149 185 229 281 335
#     4  10  18  32  53  78 111 150 188 230 283 332
#     4  12  25  39  57  83 116 152 192 235 281 336
#
# _framework density 17.668219000000001
#
# number of rings (size 3 to 8) (size 9 to 14) (size 15 to 20)
#    0.000    1.750    2.500    2.625    0.000    3.000 
#    0.000    2.500    0.000    0.750    0.000    5.250 
#    0.000    0.000    0.000    0.000    0.000    0.000 
#
# Total GULP energy -178592.051227 kJ/mol
# GULP energy per Si atom -5581.001601 kJ/mol
# Density = 1.762800 g / cm^3
# Si number density = 17.668219 Si / 1000 Ang^3
#
#
#
# Elastic Constant Matrix: (Units=GPa)
#
#
# Indices 1 2 3 4 5 6 
#
# 1 82.7036 32.9744 58.3186 -0.0029 -8.9749 0.0224
# 2 32.9744 45.3789 40.1890 -0.0011 -1.6684 -0.0001
# 3 58.3186 40.1890 185.1322 -0.0040 0.9375 0.0008
# 4 -0.0029 -0.0011 -0.0040 22.9006 -0.0017 2.0251
# 5 -8.9749 -1.6684 0.9375 -0.0017 23.1971 0.0005
# 6 0.0224 -0.0001 0.0008 2.0251 0.0005 29.5354
#
#
#
# Elastic Compliance Matrix: (Units=1/GPa)
#
#
# Indices 1 2 3 4 5 6 
#
# 1 0.019944 -0.010690 -0.003998 0.000003 0.007109 -0.000015
# 2 -0.010690 0.033125 -0.003815 -0.000001 -0.001600 0.000008
# 3 -0.003998 -0.003815 0.007500 0.000000 -0.002124 0.000003
# 4 0.000003 -0.000001 0.000000 0.043933 0.000004 -0.003012
# 5 0.007109 -0.001600 -0.002124 0.000004 0.045830 -0.000006
# 6 -0.000015 0.000008 0.000003 -0.003012 -0.000006 0.034064
#
#
# Mechanical properties :
#
#
# Convention : Reuss Voigt Hill
#
# Bulk Modulus (GPa) = 42.44113 64.01987 53.23050
# Shear Modulus (GPa) = 21.80951 27.24215 24.52583
#
# Velocity S-wave (km/s) = 3.51720 3.93093 3.72981
# Velocity P-wave (km/s) = 6.36927 7.54427 6.98154
#
# Compressibility (1/GPa) = 0.02356205
#
# Stress axis : x y z
#
# Youngs Moduli (GPa) = 50.13943 30.18885 133.33483
#
# Poissons Ratio (x) = 0.32273 0.53307
# Poissons Ratio (y) = 0.53601 0.50869
# Poissons Ratio (z) = 0.20046 0.11517
#
# Static dielectric constant tensor:
#      x y z
#    x 1.551680 0.000000 0.003120 
#    y 0.000000 1.591370 0.000000 
#    z 0.003120 0.000000 1.641390 
# 
# From -- ./inp_files/378093.got.cif
#   From: 2010.05.17/outbox.cif.g08.bks.cpg/sg12_190_cif.got.tgz:378093.got - 2010.06.03 13:09:07.
