data_PCOD9173943
_publ_section_title
;
Structure prediction by ZEFSAII (Michael W. Deem and Ramdas Pophale) SiO2 
 PCOD9173943
Probable space group: C 2/M
;
_chemical_formula_sum "Si O2"
_cell_formula_units_Z 64
_cell_length_a 19.185734
_cell_length_b 9.053565
_cell_length_c 28.242646
_cell_angle_alpha 90.000000
_cell_angle_beta 138.223429
_cell_angle_gamma 90.000000
_cell_volume 3268.330994
_symmetry_space_group_name_H-M "C 2/M"
_symmetry_group_IT_number 12
_symmetry_cell_setting 'monoclinic'
loop_
_space_group_symop_operation_xyz
x,y,z
-x,y,-z
-x,-y,-z
x,-y,z
1/2+x,1/2+y,z
1/2-x,1/2+y,-z
1/2-x,1/2-y,-z
1/2+x,1/2-y,z
loop_
_atom_site_type_symbol
_atom_site_label
_atom_site_fract_x
_atom_site_fract_y
_atom_site_fract_z
Si Si1 0.028034 0.671474 0.776036
Si Si2 0.362957 0.173649 0.609879
Si Si3 0.597032 0.176379 0.190961
Si Si4 0.830474 0.326208 0.436154
Si Si5 0.595223 0.329612 0.950443
Si Si6 0.782388 0.830609 0.088851
Si Si7 0.183838 0.326727 0.684664
Si Si8 0.530858 0.675708 0.421957
O O1 0.057234 0.500000 0.797896
O O2 0.132991 0.766130 0.832081
O O3 0.962633 0.685991 0.695204
O O4 0.951488 0.710078 0.781343
O O5 0.266251 0.241833 0.589034
O O6 0.387441 0.266143 0.575629
O O7 0.345853 0.000000 0.590831
O O8 0.509828 0.236105 0.110469
O O9 0.707604 0.257731 0.242705
O O10 0.609351 0.000000 0.193618
O O11 0.830394 0.500000 0.448053
O O12 0.819384 0.313483 0.374189
O O13 0.932151 0.251224 0.510572
O O14 0.571210 0.500000 0.948325
O O15 0.656880 0.324511 0.931142
O O16 0.676867 0.262248 0.029047
O O17 0.757477 0.000000 0.086251
O O18 0.175659 0.500000 0.692773
O O19 0.082398 0.237465 0.649951
O O20 0.530903 0.500000 0.425724
#
# Coordination Sequence:
#
# PCOD9173943 Si02
#       8
#     8   8   8   8   8   8   8   8
#     4   9  18  31  50  75 105 141 178 220 269 323
#     4  11  22  39  60  83 112 146 185 227 276 329
#     4  10  18  31  51  77 107 140 181 223 270 324
#     4  11  23  40  62  85 110 141 181 228 278 332
#     4   9  16  26  41  66 102 141 178 218 268 319
#     4   9  16  25  41  67 101 139 177 220 267 316
#     4  11  23  39  59  83 111 144 183 227 277 330
#     4  12  26  41  58  81 111 145 184 229 278 329
#
# _framework density 19.581861
#
# number of rings (size 3 to 8) (size 9 to 14) (size 15 to 20)
#    0.000    1.750    1.250    4.125    0.000    7.500 
#    0.000    0.000    0.000    0.000    0.000    0.875 
#    0.000    7.000    0.000    0.000    0.000    0.000 
#
# Total GULP energy -178798.265028 kJ/mol
# GULP energy per Si atom -5587.445782 kJ/mol
# Density = 1.953729 g / cm^3
# Si number density = 19.581861 Si / 1000 Ang^3
#
#
#
# Elastic Constant Matrix: (Units=GPa)
#
#
# Indices 1 2 3 4 5 6 
#
# 1 24.5362 10.0700 5.9350 0.0000 8.8137 0.0000
# 2 10.0700 103.6064 47.0635 0.0000 13.7869 0.0000
# 3 5.9350 47.0635 81.9007 0.0000 25.6780 0.0000
# 4 0.0000 0.0000 0.0000 39.9389 0.0000 8.3736
# 5 8.8137 13.7869 25.6780 0.0000 17.9005 0.0000
# 6 0.0000 0.0000 0.0000 8.3736 0.0000 15.7522
#
#
#
# Elastic Compliance Matrix: (Units=1/GPa)
#
#
# Indices 1 2 3 4 5 6 
#
# 1 0.054075 -0.005193 0.011193 0.000000 -0.038682 0.000000
# 2 -0.005193 0.013576 -0.008993 0.000000 0.005001 0.000000
# 3 0.011193 -0.008993 0.029301 0.000000 -0.040617 0.000000
# 4 0.000000 0.000000 0.000000 0.028179 0.000000 -0.014979
# 5 -0.038682 0.005001 -0.040617 0.000000 0.129323 0.000000
# 6 0.000000 0.000000 0.000000 -0.014979 0.000000 0.071446
#
#
# Mechanical properties :
#
#
# Convention : Reuss Voigt Hill
#
# Bulk Modulus (GPa) = 10.99303 37.35335 24.17319
# Shear Modulus (GPa) = 13.80425 24.51665 19.16045
#
# Velocity S-wave (km/s) = 2.65797 3.54221 3.13146
# Velocity P-wave (km/s) = 3.87889 5.98720 5.04442
#
# Compressibility (1/GPa) = 0.09096675
#
# Stress axis : x y z
#
# Youngs Moduli (GPa) = 18.49286 73.65767 34.12855
#
# Poissons Ratio (x) = 0.38250 -0.38201
# Poissons Ratio (y) = 0.09603 0.30692
# Poissons Ratio (z) = -0.20700 0.66241
#
# Static dielectric constant tensor:
#      x y z
#    x 1.691300 0.000000 -0.002990 
#    y 0.000000 1.650030 0.000000 
#    z -0.002990 0.000000 1.690530 
# 
# From -- ./inp_files/346188.got.cif
#   From: 2010.05.17/outbox.cif.g08.bks.cpg/sg12_174_cif.got.tgz:346188.got - 2010.06.03 13:09:07.
