data_PCOD9173537
_publ_section_title
;
Structure prediction by ZEFSAII (Michael W. Deem and Ramdas Pophale) SiO2 
 PCOD9173537
Probable space group: C 2/M
;
_chemical_formula_sum "Si O2"
_cell_formula_units_Z 60
_cell_length_a 8.814788
_cell_length_b 18.752903
_cell_length_c 27.598216
_cell_angle_alpha 90.000000
_cell_angle_beta 132.552999
_cell_angle_gamma 90.000000
_cell_volume 3360.654121
_symmetry_space_group_name_H-M "C 2/M"
_symmetry_group_IT_number 12
_symmetry_cell_setting 'monoclinic'
loop_
_space_group_symop_operation_xyz
x,y,z
-x,y,-z
-x,-y,-z
x,-y,z
1/2+x,1/2+y,z
1/2-x,1/2+y,-z
1/2-x,1/2-y,-z
1/2+x,1/2-y,z
loop_
_atom_site_type_symbol
_atom_site_label
_atom_site_fract_x
_atom_site_fract_y
_atom_site_fract_z
Si Si1 0.500000 0.794861 0.000000
Si Si2 0.622319 0.291443 0.305642
Si Si3 0.312185 0.170482 0.497187
Si Si4 0.064134 0.711618 0.909846
Si Si5 0.147927 0.297871 0.821370
Si Si6 0.407099 0.664430 0.353940
Si Si7 0.477909 0.078609 0.724186
Si Si8 0.056674 0.417471 0.627919
O O1 0.291479 0.747509 0.957870
O O2 0.517576 0.831152 0.950174
O O3 0.497682 0.265309 0.231491
O O4 0.468188 0.299526 0.316716
O O5 0.779817 0.227415 0.352903
O O6 0.745719 0.365254 0.329298
O O7 0.250000 0.250000 0.500000
O O8 0.389400 0.120719 0.557462
O O9 0.000000 0.325853 0.500000
O O10 0.109449 0.142028 0.426334
O O11 0.063206 0.678295 0.855811
O O12 0.881673 0.770192 0.872350
O O13 0.122905 0.362085 0.778603
O O14 0.252648 0.600221 0.311205
O O15 0.483280 0.081656 0.667400
O O16 0.535278 0.000000 0.752747
O O17 0.095570 0.500000 0.621536
#
# Coordination Sequence:
#
# PCOD9173537 Si02
#       8
#     4   8   8   8   8   8   8   8
#     4   8  16  28  48  80 124 140 166 212 266 290
#     4  11  20  36  54  80 105 139 174 231 272 326
#     4  12  24  38  58  79  97 134 181 233 279 342
#     4   9  16  29  49  84 112 145 170 210 258 310
#     4  10  18  30  55  78 107 138 185 215 260 319
#     4  11  21  36  57  76 102 135 179 229 285 332
#     4  10  23  39  54  77 108 142 180 229 279 327
#     4  11  24  39  54  75 106 140 178 228 290 339
#
# _framework density 17.853667000000002
#
# number of rings (size 3 to 8) (size 9 to 14) (size 15 to 20)
#    0.000    1.600    2.667    4.000    1.867    1.333 
#    0.000    1.333    0.000    0.000    0.000   17.733 
#    0.000    0.000    0.000    0.000    0.000    0.000 
#
# Total GULP energy -167120.246385 kJ/mol
# GULP energy per Si atom -5570.674880 kJ/mol
# Density = 1.781303 g / cm^3
# Si number density = 17.853667 Si / 1000 Ang^3
#
#
#
# Elastic Constant Matrix: (Units=GPa)
#
#
# Indices 1 2 3 4 5 6 
#
# 1 75.9281 15.0446 27.1283 0.0000 1.2352 0.0000
# 2 15.0446 82.4718 26.7436 0.0000 0.0097 0.0000
# 3 27.1283 26.7436 86.9359 0.0000 1.4734 0.0000
# 4 0.0000 0.0000 0.0000 1.6061 0.0000 -8.8976
# 5 1.2352 0.0097 1.4734 0.0000 41.5468 0.0000
# 6 0.0000 0.0000 0.0000 -8.8976 0.0000 9.9105
#
#
#
# Elastic Compliance Matrix: (Units=1/GPa)
#
#
# Indices 1 2 3 4 5 6 
#
# 1 0.014961 -0.001352 -0.004248 0.000000 -0.000294 0.000000
# 2 -0.001352 0.013592 -0.003762 0.000000 0.000170 0.000000
# 3 -0.004248 -0.003762 0.013992 0.000000 -0.000369 0.000000
# 4 0.000000 0.000000 0.000000 -0.156688 0.000000 -0.140674
# 5 -0.000294 0.000170 -0.000369 0.000000 0.024091 0.000000
# 6 0.000000 0.000000 0.000000 -0.140674 0.000000 -0.025393
#
#
# Mechanical properties :
#
#
# Convention : Reuss Voigt Hill
#
# Bulk Modulus (GPa) = 41.97960 42.57430 42.27695
# Shear Modulus (GPa) = -56.31789 22.37395 -16.97197
#
# Velocity S-wave (km/s) = -5.62251 3.54388 -3.08655
# Velocity P-wave (km/s) = 4.31115 6.37522 3.32095
#
# Compressibility (1/GPa) = 0.02382109
#
# Stress axis : x y z
#
# Youngs Moduli (GPa) = 66.84222 73.57299 71.47026
#
# Poissons Ratio (x) = 0.09945 0.30358
# Poissons Ratio (y) = 0.09035 0.26889
# Poissons Ratio (z) = 0.28392 0.27680
#
# Static dielectric constant tensor:
#      x y z
#    x 1.643760 0.000000 -0.028160 
#    y 0.000000 1.593410 0.000000 
#    z -0.028160 0.000000 1.682350 
# 
# From -- ./inp_files/356567.got.cif
#   From: 2010.05.17/outbox.cif.g08.bks.cpg/sg12_179_cif.got.tgz:356567.got - 2010.06.03 13:09:07.
