data_PCOD9173538
_publ_section_title
;
Structure prediction by ZEFSAII (Michael W. Deem and Ramdas Pophale) SiO2 
 PCOD9173538
Probable space group: C 2/M
;
_chemical_formula_sum "Si O2"
_cell_formula_units_Z 56
_cell_length_a 20.505035
_cell_length_b 14.976888
_cell_length_c 13.596943
_cell_angle_alpha 90.000000
_cell_angle_beta 38.602292
_cell_angle_gamma 90.000000
_cell_volume 2605.229089
_symmetry_space_group_name_H-M "C 2/M"
_symmetry_group_IT_number 12
_symmetry_cell_setting 'monoclinic'
loop_
_space_group_symop_operation_xyz
x,y,z
-x,y,-z
-x,-y,-z
x,-y,z
1/2+x,1/2+y,z
1/2-x,1/2+y,-z
1/2-x,1/2-y,-z
1/2+x,1/2-y,z
loop_
_atom_site_type_symbol
_atom_site_label
_atom_site_fract_x
_atom_site_fract_y
_atom_site_fract_z
Si Si1 0.149082 0.403681 0.980119
Si Si2 0.084079 0.397275 0.287605
Si Si3 0.825265 0.218268 0.324426
Si Si4 0.523221 0.606817 0.090610
Si Si5 0.728923 0.279188 0.910312
Si Si6 0.145862 0.397938 0.482737
Si Si7 0.411153 0.097237 0.215769
O O1 0.200449 0.500000 0.904203
O O2 0.116983 0.398869 0.133416
O O3 0.036303 0.401873 0.061559
O O4 0.215174 0.317147 0.877203
O O5 0.089020 0.500000 0.314004
O O6 0.170042 0.336278 0.236389
O O7 0.036052 0.367293 0.566102
O O8 0.750000 0.250000 0.500000
O O9 0.749466 0.159593 0.346295
O O10 0.869490 0.308892 0.226084
O O11 0.920046 0.157331 0.252997
O O12 0.530067 0.500000 0.104022
O O13 0.500000 0.615253 0.000000
O O14 0.624790 0.661072 0.010966
O O15 0.750000 0.250000 0.000000
O O16 0.167430 0.500000 0.429074
O O17 0.119160 0.400595 0.631847
O O18 0.372357 0.000000 0.225917
#
# Coordination Sequence:
#
# PCOD9173538 Si02
#       7
#     8   8   8   8   8   8   8
#     4   8  13  23  40  65  96 129 170 234 294 327
#     4   8  14  24  41  68 100 133 178 238 293 335
#     4  10  18  30  55  78 108 154 212 251 288 351
#     4  11  24  40  57  89 136 169 191 241 325 394
#     4  10  18  30  55  78 108 154 212 251 288 351
#     4   8  14  24  41  68 100 133 178 238 293 335
#     4   8  13  23  40  65  96 129 170 234 294 327
#
# _framework density 21.495229999999999
#
# number of rings (size 3 to 8) (size 9 to 14) (size 15 to 20)
#    0.000    3.000    1.429    2.571    2.000    1.143 
#    0.000    0.000    0.000    2.571    0.000    4.000 
#    0.000    1.143    0.000    0.000    0.000    0.000 
#
# Total GULP energy -156205.856765 kJ/mol
# GULP energy per Si atom -5578.780599 kJ/mol
# Density = 2.144631 g / cm^3
# Si number density = 21.495230 Si / 1000 Ang^3
#
#
#
# Elastic Constant Matrix: (Units=GPa)
#
#
# Indices 1 2 3 4 5 6 
#
# 1 140.6353 84.8069 40.1908 0.0000 -25.2149 0.0000
# 2 84.8069 197.8125 49.5087 0.0000 -55.7878 0.0000
# 3 40.1908 49.5087 69.3729 0.0000 -21.6433 0.0000
# 4 0.0000 0.0000 0.0000 25.3381 0.0000 -21.6704
# 5 -25.2149 -55.7878 -21.6433 0.0000 53.5548 0.0000
# 6 0.0000 0.0000 0.0000 -21.6704 0.0000 28.1904
#
#
#
# Elastic Compliance Matrix: (Units=1/GPa)
#
#
# Indices 1 2 3 4 5 6 
#
# 1 0.010212 -0.003614 -0.003446 0.000000 -0.000350 0.000000
# 2 -0.003614 0.009110 -0.002263 0.000000 0.006873 0.000000
# 3 -0.003446 -0.002263 0.019206 0.000000 0.003782 0.000000
# 4 0.000000 0.000000 0.000000 0.115210 0.000000 0.088564
# 5 -0.000350 0.006873 0.003782 0.000000 0.027196 0.000000
# 6 0.000000 0.000000 0.000000 0.088564 0.000000 0.103553
#
#
# Mechanical properties :
#
#
# Convention : Reuss Voigt Hill
#
# Bulk Modulus (GPa) = 50.29790 84.09261 67.19525
# Shear Modulus (GPa) = 16.14145 36.97094 26.55619
#
# Velocity S-wave (km/s) = 2.74329 4.15174 3.51870
# Velocity P-wave (km/s) = 5.78658 7.88600 6.91641
#
# Compressibility (1/GPa) = 0.01988155
#
# Stress axis : x y z
#
# Youngs Moduli (GPa) = 97.92124 109.77406 52.06648
#
# Poissons Ratio (x) = 0.39676 0.17942
# Poissons Ratio (y) = 0.35392 0.11782
# Poissons Ratio (z) = 0.33744 0.24841
#
# Static dielectric constant tensor:
#      x y z
#    x 1.867690 0.000000 0.082010 
#    y 0.000000 1.807810 0.000000 
#    z 0.082010 0.000000 1.809490 
# 
# From -- ./inp_files/240418.got.cif
#   From: 2010.05.17/outbox.cif.g08.bks.cpg/sg12_121_cif.got.tgz:240418.got - 2010.06.03 13:09:07.
