data_PCOD9173302
_publ_section_title
;
Structure prediction by ZEFSAII (Michael W. Deem and Ramdas Pophale) SiO2 
 PCOD9173302
Probable space group: C 2/M
;
_chemical_formula_sum "Si O2"
_cell_formula_units_Z 56
_cell_length_a 29.588043
_cell_length_b 7.481766
_cell_length_c 12.385351
_cell_angle_alpha 90.000000
_cell_angle_beta 115.925305
_cell_angle_gamma 90.000000
_cell_volume 2465.838080
_symmetry_space_group_name_H-M "C 2/M"
_symmetry_group_IT_number 12
_symmetry_cell_setting 'monoclinic'
loop_
_space_group_symop_operation_xyz
x,y,z
-x,y,-z
-x,-y,-z
x,-y,z
1/2+x,1/2+y,z
1/2-x,1/2+y,-z
1/2-x,1/2-y,-z
1/2+x,1/2-y,z
loop_
_atom_site_type_symbol
_atom_site_label
_atom_site_fract_x
_atom_site_fract_y
_atom_site_fract_z
Si Si1 0.829449 0.703892 0.517662
Si Si2 0.721551 0.790069 0.323920
Si Si3 0.052689 0.782261 0.109522
Si Si4 0.084333 0.203322 0.550270
Si Si5 0.983750 0.217842 0.702367
Si Si6 0.901407 0.217473 0.197358
Si Si7 0.647327 0.284293 0.066934
O O1 0.846727 0.500000 0.546424
O O2 0.775773 0.706945 0.400687
O O3 0.816922 0.779071 0.623689
O O4 0.870091 0.800356 0.486928
O O5 0.697718 0.767334 0.181918
O O6 0.727719 0.000000 0.353050
O O7 0.049530 0.724631 0.230561
O O8 0.100569 0.720756 0.091984
O O9 0.053884 0.000000 0.109180
O O10 0.000000 0.729793 0.000000
O O11 0.038608 0.284085 0.434004
O O12 0.102181 0.281500 0.682838
O O13 0.068633 0.000000 0.560068
O O14 0.041850 0.263781 0.779395
O O15 0.981743 0.000000 0.698074
O O16 0.897307 0.000000 0.193309
O O17 0.862642 0.279399 0.065428
O O18 0.645864 0.500000 0.064467
#
# Coordination Sequence:
#
# PCOD9173302 Si02
#       7
#     8   8   8   8   8   8   8
#     4  10  21  38  58  79 103 130 165 211 264 317
#     4  10  21  37  58  81 104 128 162 212 266 317
#     4   9  14  22  40  70 104 134 169 212 250 290
#     4  10  19  31  51  78 106 138 179 220 256 295
#     4   9  15  25  44  73 106 140 177 217 257 294
#     4   9  17  29  46  74 111 145 177 215 251 294
#     4  10  18  30  51  78 109 142 175 210 256 307
#
# _framework density 22.710329999999999
#
# number of rings (size 3 to 8) (size 9 to 14) (size 15 to 20)
#    0.000    2.429    1.429    2.143    0.000    4.571 
#    0.000    1.429    0.000    3.000    0.000    0.000 
#    0.000    0.000    0.000    0.000    0.000    0.000 
#
# Total GULP energy -156389.267842 kJ/mol
# GULP energy per Si atom -5585.330994 kJ/mol
# Density = 2.265864 g / cm^3
# Si number density = 22.710330 Si / 1000 Ang^3
#
#
#
# Elastic Constant Matrix: (Units=GPa)
#
#
# Indices 1 2 3 4 5 6 
#
# 1 17.3154 -4.3116 8.9646 0.0000 1.6550 0.0000
# 2 -4.3116 69.0793 0.5215 0.0000 -2.2924 0.0000
# 3 8.9646 0.5215 183.1921 0.0000 9.6044 0.0000
# 4 0.0000 0.0000 0.0000 -2.9558 0.0000 -8.1933
# 5 1.6550 -2.2924 9.6044 0.0000 29.9422 0.0000
# 6 0.0000 0.0000 0.0000 -8.1933 0.0000 -10.3580
#
#
#
# Elastic Compliance Matrix: (Units=1/GPa)
#
#
# Indices 1 2 3 4 5 6 
#
# 1 0.060359 0.003718 -0.002852 0.000000 -0.002137 0.000000
# 2 0.003718 0.014744 -0.000277 0.000000 0.001012 0.000000
# 3 -0.002852 -0.000277 0.005688 0.000000 -0.001688 0.000000
# 4 0.000000 0.000000 0.000000 0.283681 0.000000 -0.224393
# 5 -0.002137 0.001012 -0.001688 0.000000 0.034135 0.000000
# 6 0.000000 0.000000 0.000000 -0.224393 0.000000 0.080953
#
#
# Mechanical properties :
#
#
# Convention : Reuss Voigt Hill
#
# Bulk Modulus (GPa) = 12.19997 31.10397 21.65197
# Shear Modulus (GPa) = 9.88722 20.95315 15.42019
#
# Velocity S-wave (km/s) = 2.08880 3.04077 2.60858
# Velocity P-wave (km/s) = 3.34680 5.10432 4.31597
#
# Compressibility (1/GPa) = 0.08196741
#
# Stress axis : x y z
#
# Youngs Moduli (GPa) = 16.56766 67.82493 175.82070
#
# Poissons Ratio (x) = -0.25217 0.50148
# Poissons Ratio (y) = -0.06160 0.04870
# Poissons Ratio (z) = 0.04725 0.01879
#
# Static dielectric constant tensor:
#      x y z
#    x 1.804200 0.000000 -0.011390 
#    y 0.000000 1.894710 0.000000 
#    z -0.011390 0.000000 1.871650 
# 
# From -- ./inp_files/186823.got.cif
#   From: 2010.05.17/outbox.cif.g08.bks.cpg/sg12_94_cif.got.tgz:186823.got - 2010.06.03 13:09:07.
