data_PCOD9173485
_publ_section_title
;
Structure prediction by ZEFSAII (Michael W. Deem and Ramdas Pophale) SiO2 
 PCOD9173485
Probable space group: C 2/M
;
_chemical_formula_sum "Si O2"
_cell_formula_units_Z 48
_cell_length_a 18.240348
_cell_length_b 17.270538
_cell_length_c 15.280611
_cell_angle_alpha 90.000000
_cell_angle_beta 26.270940
_cell_angle_gamma 90.000000
_cell_volume 2130.626134
_symmetry_space_group_name_H-M "C 2/M"
_symmetry_group_IT_number 12
_symmetry_cell_setting 'monoclinic'
loop_
_space_group_symop_operation_xyz
x,y,z
-x,y,-z
-x,-y,-z
x,-y,z
1/2+x,1/2+y,z
1/2-x,1/2+y,-z
1/2-x,1/2-y,-z
1/2+x,1/2-y,z
loop_
_atom_site_type_symbol
_atom_site_label
_atom_site_fract_x
_atom_site_fract_y
_atom_site_fract_z
Si Si1 0.481953 0.715774 0.801652
Si Si2 0.710125 0.745318 0.233616
Si Si3 0.729406 0.415301 0.048320
Si Si4 0.644866 0.630660 0.788986
Si Si5 0.023227 0.346842 0.628766
Si Si6 0.182456 0.585619 0.846207
O O1 0.576744 0.665538 0.771963
O O2 0.569276 0.786268 0.657524
O O3 0.334258 0.754698 0.016398
O O4 0.405500 0.652439 0.816992
O O5 0.804513 0.799278 0.201352
O O6 0.551284 0.788309 0.363797
O O7 0.703147 0.661217 0.286750
O O8 0.653710 0.500000 0.113177
O O9 0.870315 0.397199 0.826446
O O10 0.817177 0.419025 0.048721
O O11 0.826921 0.601056 0.567187
O O12 0.500000 0.588893 0.000000
O O13 0.238828 0.500000 0.754053
O O14 0.000000 0.599408 0.000000
#
# Coordination Sequence:
#
# PCOD9173485 Si02
#       6
#     8   8   8   8   8   8
#     4  10  18  35  56  84 113 145 189 237 281 331
#     4  10  18  34  56  84 115 147 185 233 286 337
#     4  10  20  35  59  87 119 152 182 228 287 340
#     4  10  22  34  57  82 112 147 191 242 286 322
#     4  11  19  35  57  86 111 147 197 237 275 332
#     4  10  18  30  53  86 124 158 183 214 275 351
#
# _framework density 22.528589
#
# number of rings (size 3 to 8) (size 9 to 14) (size 15 to 20)
#    0.000    1.833    3.333    3.500    0.000    0.000 
#    0.000    0.833    0.000   34.000    0.000    0.000 
#    0.000    0.000    0.000    0.000    0.000    0.000 
#
# Total GULP energy -133679.610137 kJ/mol
# GULP energy per Si atom -5569.983756 kJ/mol
# Density = 2.247731 g / cm^3
# Si number density = 22.528589 Si / 1000 Ang^3
#
#
#
# Elastic Constant Matrix: (Units=GPa)
#
#
# Indices 1 2 3 4 5 6 
#
# 1 111.6438 8.2310 -6.4575 0.0010 -2.1544 -0.0009
# 2 8.2310 92.2340 -9.1672 0.0012 -4.3276 -0.0008
# 3 -6.4575 -9.1672 80.9375 0.0036 -3.7515 -0.0019
# 4 0.0010 0.0012 0.0036 0.9383 -0.0008 6.9435
# 5 -2.1544 -4.3276 -3.7515 -0.0008 28.1563 0.0007
# 6 -0.0009 -0.0008 -0.0019 6.9435 0.0007 5.3886
#
#
#
# Elastic Compliance Matrix: (Units=1/GPa)
#
#
# Indices 1 2 3 4 5 6 
#
# 1 0.009061 -0.000710 0.000674 0.000003 0.000674 -0.000002
# 2 -0.000710 0.011119 0.001287 0.000003 0.001826 -0.000003
# 3 0.000674 0.001287 0.012644 0.000010 0.001934 -0.000008
# 4 0.000003 0.000003 0.000010 -0.124862 -0.000005 0.160891
# 5 0.000674 0.001826 0.001934 -0.000005 0.036106 0.000003
# 6 -0.000002 -0.000003 -0.000008 0.160891 0.000003 -0.021741
#
#
# Mechanical properties :
#
#
# Convention : Reuss Voigt Hill
#
# Bulk Modulus (GPa) = 28.30700 30.00310 29.15505
# Shear Modulus (GPa) = -73.10138 26.37724 -23.36207
#
# Velocity S-wave (km/s) = -5.70252 3.42546 -3.22374
# Velocity P-wave (km/s) = 5.54672 5.38440 0.94191
#
# Compressibility (1/GPa) = 0.03532695
#
# Stress axis : x y z
#
# Youngs Moduli (GPa) = 110.35839 89.93623 79.08624
#
# Poissons Ratio (x) = 0.06386 -0.05329
# Poissons Ratio (y) = 0.07836 -0.10181
# Poissons Ratio (z) = -0.07436 -0.11578
#
# Static dielectric constant tensor:
#      x y z
#    x 1.847510 0.000000 0.003520 
#    y 0.000000 1.850590 0.000000 
#    z 0.003520 0.000000 1.950040 
# 
# From -- ./inp_files/226720.got.cif
#   From: 2010.05.17/outbox.cif.g08.bks.cpg/sg12_114_cif.got.tgz:226720.got - 2010.06.03 13:09:07.
