data_PCOD9173719
_publ_section_title
;
Structure prediction by ZEFSAII (Michael W. Deem and Ramdas Pophale) SiO2 
 PCOD9173719
Probable space group: C 2/M
;
_chemical_formula_sum "Si O2"
_cell_formula_units_Z 56
_cell_length_a 19.403117
_cell_length_b 23.009284
_cell_length_c 8.457856
_cell_angle_alpha 90.000000
_cell_angle_beta 50.959975
_cell_angle_gamma 90.000000
_cell_volume 2932.862057
_symmetry_space_group_name_H-M "C 2/M"
_symmetry_group_IT_number 12
_symmetry_cell_setting 'monoclinic'
loop_
_space_group_symop_operation_xyz
x,y,z
-x,y,-z
-x,-y,-z
x,-y,z
1/2+x,1/2+y,z
1/2-x,1/2+y,-z
1/2-x,1/2-y,-z
1/2+x,1/2-y,z
loop_
_atom_site_type_symbol
_atom_site_label
_atom_site_fract_x
_atom_site_fract_y
_atom_site_fract_z
Si Si1 0.950069 0.756146 0.218650
Si Si2 0.698053 0.066811 0.396265
Si Si3 0.925644 0.176706 0.725173
Si Si4 0.507046 0.065246 0.805467
Si Si5 0.902368 0.378872 0.719348
Si Si6 0.175905 0.266583 0.324172
Si Si7 0.659705 0.662210 0.840111
O O1 0.872305 0.728256 0.435457
O O2 0.907611 0.812687 0.192470
O O3 0.020600 0.774375 0.251258
O O4 0.000000 0.724781 0.000000
O O5 0.607458 0.083245 0.618452
O O6 0.666268 0.076695 0.261021
O O7 0.776512 0.111803 0.315323
O O8 0.720123 0.000000 0.395930
O O9 0.851325 0.206653 0.721287
O O10 0.000000 0.150430 0.500000
O O11 0.884161 0.141430 0.931067
O O12 0.428849 0.106584 0.857693
O O13 0.495532 0.000000 0.750413
O O14 0.500000 0.060828 0.000000
O O15 0.864377 0.316582 0.729610
O O16 0.000000 0.385424 0.500000
O O17 0.277986 0.282768 0.201517
#
# Coordination Sequence:
#
# PCOD9173719 Si02
#       7
#     8   8   8   8   8   8   8
#     4   9  18  32  50  70  98 133 165 200 242 289
#     4   9  18  32  50  71  97 130 164 205 250 291
#     4   9  18  33  51  68  94 130 163 196 241 298
#     4   9  17  31  50  72 100 133 168 202 237 282
#     4   9  16  28  46  71 101 134 165 190 229 293
#     4  10  18  31  49  75 104 129 162 198 237 289
#     4  10  19  32  50  73  97 125 164 205 245 290
#
# _framework density 19.093976999999999
#
# number of rings (size 3 to 8) (size 9 to 14) (size 15 to 20)
#    0.000    2.714    0.000    2.571    0.000    1.714 
#    0.000   24.286    0.000    4.286    0.000    0.000 
#    0.000    0.000    0.000    0.000    0.000    0.000 
#
# Total GULP energy -155873.750611 kJ/mol
# GULP energy per Si atom -5566.919665 kJ/mol
# Density = 1.905052 g / cm^3
# Si number density = 19.093977 Si / 1000 Ang^3
#
#
#
# Elastic Constant Matrix: (Units=GPa)
#
#
# Indices 1 2 3 4 5 6 
#
# 1 72.8345 16.3715 10.2199 0.0000 -0.8935 0.0000
# 2 16.3715 42.8763 7.0768 0.0000 -2.1053 0.0000
# 3 10.2199 7.0768 88.9820 0.0000 5.7871 0.0000
# 4 0.0000 0.0000 0.0000 14.7898 0.0000 -3.6816
# 5 -0.8935 -2.1053 5.7871 0.0000 25.9913 0.0000
# 6 0.0000 0.0000 0.0000 -3.6816 0.0000 21.3506
#
#
#
# Elastic Compliance Matrix: (Units=1/GPa)
#
#
# Indices 1 2 3 4 5 6 
#
# 1 0.015169 -0.005555 -0.001324 0.000000 0.000366 0.000000
# 2 -0.005555 0.025812 -0.001561 0.000000 0.002247 0.000000
# 3 -0.001324 -0.001561 0.011695 0.000000 -0.002776 0.000000
# 4 0.000000 0.000000 0.000000 0.070647 0.000000 0.012182
# 5 0.000366 0.002247 -0.002776 0.000000 0.039287 0.000000
# 6 0.000000 0.000000 0.000000 0.012182 0.000000 0.048938
#
#
# Mechanical properties :
#
#
# Convention : Reuss Voigt Hill
#
# Bulk Modulus (GPa) = 27.93698 30.22547 29.08123
# Shear Modulus (GPa) = 20.80212 23.82797 22.31505
#
# Velocity S-wave (km/s) = 3.30428 3.53644 3.42233
# Velocity P-wave (km/s) = 5.40562 5.70433 5.55698
#
# Compressibility (1/GPa) = 0.03579485
#
# Stress axis : x y z
#
# Youngs Moduli (GPa) = 65.92495 38.74151 85.50660
#
# Poissons Ratio (x) = 0.21522 0.11323
# Poissons Ratio (y) = 0.36624 0.13347
# Poissons Ratio (z) = 0.08730 0.06047
#
# Static dielectric constant tensor:
#      x y z
#    x 1.676880 0.000000 0.014150 
#    y 0.000000 1.673880 0.000000 
#    z 0.014150 0.000000 1.770630 
# 
# From -- ./inp_files/90328.got.cif
#   From: 2010.05.17/outbox.cif.g08.bks.cpg/sg12_46_cif.got.tgz:90328.got - 2010.06.03 13:09:07.
