data_PCOD9173926
_publ_section_title
;
Structure prediction by ZEFSAII (Michael W. Deem and Ramdas Pophale) SiO2 
 PCOD9173926
Probable space group: C 2/M
;
_chemical_formula_sum "Si O2"
_cell_formula_units_Z 48
_cell_length_a 21.232201
_cell_length_b 7.489448
_cell_length_c 14.743645
_cell_angle_alpha 90.000000
_cell_angle_beta 89.618840
_cell_angle_gamma 90.000000
_cell_volume 2344.445179
_symmetry_space_group_name_H-M "C 2/M"
_symmetry_group_IT_number 12
_symmetry_cell_setting 'monoclinic'
loop_
_space_group_symop_operation_xyz
x,y,z
-x,y,-z
-x,-y,-z
x,-y,z
1/2+x,1/2+y,z
1/2-x,1/2+y,-z
1/2-x,1/2-y,-z
1/2+x,1/2-y,z
loop_
_atom_site_type_symbol
_atom_site_label
_atom_site_fract_x
_atom_site_fract_y
_atom_site_fract_z
Si Si1 0.498671 0.781761 0.396042
Si Si2 0.752782 0.289881 0.606949
Si Si3 0.072934 0.282695 0.101609
Si Si4 0.573722 0.782477 0.898998
Si Si5 0.876441 0.286828 0.288637
Si Si6 0.624689 0.781295 0.289184
O O1 0.500000 0.724297 0.500000
O O2 0.435796 0.719657 0.346098
O O3 0.561718 0.728115 0.343352
O O4 0.497756 0.000000 0.395742
O O5 0.759996 0.500000 0.612475
O O6 0.750000 0.250000 0.500000
O O7 0.688541 0.244940 0.659422
O O8 0.813606 0.214573 0.659014
O O9 0.073860 0.500000 0.101341
O O10 0.115729 0.223866 0.184995
O O11 0.999509 0.233288 0.117613
O O12 0.091114 0.222574 0.000275
O O13 0.616289 0.720779 0.814790
O O14 0.575072 0.000000 0.901067
O O15 0.883866 0.500000 0.283568
O O16 0.625623 0.000000 0.288742
#
# Coordination Sequence:
#
# PCOD9173926 Si02
#       6
#     8   8   8   8   8   8
#     4   9  15  24  43  70  94 118 159 211 248 277
#     4  11  23  37  52  70  97 135 170 203 245 294
#     4   8  12  22  42  73 105 125 154 203 251 285
#     4   8  13  22  43  75 105 126 150 200 256 288
#     4  10  18  31  51  76 102 128 160 201 251 298
#     4   9  16  28  46  70  97 128 167 207 243 284
#
# _framework density 20.473925999999999
#
# number of rings (size 3 to 8) (size 9 to 14) (size 15 to 20)
#    0.000    2.833    1.667    2.500    0.000    2.667 
#    0.000    0.833    0.000    5.500    0.000    3.500 
#    0.000    0.000    0.000    0.000    0.000    0.000 
#
# Total GULP energy -133908.080680 kJ/mol
# GULP energy per Si atom -5579.503362 kJ/mol
# Density = 2.042733 g / cm^3
# Si number density = 20.473926 Si / 1000 Ang^3
#
#
#
# Elastic Constant Matrix: (Units=GPa)
#
#
# Indices 1 2 3 4 5 6 
#
# 1 167.7152 1.7802 126.1198 0.0000 5.4675 0.0000
# 2 1.7802 53.2605 6.4037 0.0000 1.2710 0.0000
# 3 126.1198 6.4037 245.9404 0.0000 2.2004 0.0000
# 4 0.0000 0.0000 0.0000 0.3394 0.0000 -2.6506
# 5 5.4675 1.2710 2.2004 0.0000 35.3057 0.0000
# 6 0.0000 0.0000 0.0000 -2.6506 0.0000 9.6667
#
#
#
# Elastic Compliance Matrix: (Units=1/GPa)
#
#
# Indices 1 2 3 4 5 6 
#
# 1 0.009760 0.000304 -0.005002 0.000000 -0.001211 0.000000
# 2 0.000304 0.018859 -0.000641 0.000000 -0.000686 0.000000
# 3 -0.005002 -0.000641 0.006644 0.000000 0.000384 0.000000
# 4 0.000000 0.000000 0.000000 -2.581555 0.000000 -0.707851
# 5 -0.001211 -0.000686 0.000384 0.000000 0.028512 0.000000
# 6 0.000000 0.000000 0.000000 -0.707851 0.000000 -0.090642
#
#
# Mechanical properties :
#
#
# Convention : Reuss Voigt Hill
#
# Bulk Modulus (GPa) = 40.67403 81.72483 61.19943
# Shear Modulus (GPa) = -1.93084 31.23654 14.65285
#
# Velocity S-wave (km/s) = -0.97217 3.91023 2.67813
# Velocity P-wave (km/s) = 4.31848 7.77108 6.28645
#
# Compressibility (1/GPa) = 0.02458571
#
# Stress axis : x y z
#
# Youngs Moduli (GPa) = 102.45509 53.02539 150.50103
#
# Poissons Ratio (x) = -0.01613 0.75285
# Poissons Ratio (y) = -0.03116 0.09645
# Poissons Ratio (z) = 0.51251 0.03398
#
# Static dielectric constant tensor:
#      x y z
#    x 1.684480 0.000000 0.030600 
#    y 0.000000 1.805980 0.000000 
#    z 0.030600 0.000000 1.722360 
# 
# From -- ./inp_files/229290.got.cif
#   From: 2010.05.17/outbox.cif.g08.bks.cpg/sg12_115_cif.got.tgz:229290.got - 2010.06.03 13:09:07.
