data_PCOD9173635
_publ_section_title
;
Structure prediction by ZEFSAII (Michael W. Deem and Ramdas Pophale) SiO2 
 PCOD9173635
Probable space group: C 2/M
;
_chemical_formula_sum "Si O2"
_cell_formula_units_Z 40
_cell_length_a 9.835614
_cell_length_b 14.857241
_cell_length_c 20.696492
_cell_angle_alpha 90.000000
_cell_angle_beta 37.869287
_cell_angle_gamma 90.000000
_cell_volume 1856.552461
_symmetry_space_group_name_H-M "C 2/M"
_symmetry_group_IT_number 12
_symmetry_cell_setting 'monoclinic'
loop_
_space_group_symop_operation_xyz
x,y,z
-x,y,-z
-x,-y,-z
x,-y,z
1/2+x,1/2+y,z
1/2-x,1/2+y,-z
1/2-x,1/2-y,-z
1/2+x,1/2-y,z
loop_
_atom_site_type_symbol
_atom_site_label
_atom_site_fract_x
_atom_site_fract_y
_atom_site_fract_z
Si Si1 0.663926 0.603694 0.707649
Si Si2 0.203352 0.703372 0.735822
Si Si3 0.734336 0.901108 0.605751
Si Si4 0.795076 0.152701 0.451603
Si Si5 0.866853 0.395050 0.113974
O O1 0.710375 0.500000 0.708501
O O2 0.729330 0.689384 0.726659
O O3 0.763125 0.626752 0.599341
O O4 0.395573 0.610756 0.802697
O O5 0.124118 0.672604 0.693710
O O6 0.437873 0.650822 0.650735
O O7 0.076353 0.665629 0.845206
O O8 0.677312 0.904604 0.551368
O O9 0.000000 0.882797 0.500000
O O10 0.701859 0.000000 0.646800
O O11 0.750000 0.250000 0.500000
O O12 0.915784 0.500000 0.110107
O O13 0.000000 0.368752 0.000000
#
# Coordination Sequence:
#
# PCOD9173635 Si02
#       5
#     8   8   8   8   8
#     4  10  20  34  52  74 104 138 169 205 253 304
#     4  10  19  31  52  74 100 129 168 209 249 297
#     4   9  16  27  46  69  94 125 162 203 244 284
#     4  10  18  31  48  69 103 137 168 201 242 292
#     4   9  19  36  57  78  98 125 167 216 262 306
#
# _framework density 21.545311000000002
#
# number of rings (size 3 to 8) (size 9 to 14) (size 15 to 20)
#    0.000    2.400    2.000    1.200    0.000    5.600 
#    0.000    3.000    0.000    0.600    0.000    0.000 
#    0.000    0.000    0.000    0.000    0.000    0.000 
#
# Total GULP energy -111418.585119 kJ/mol
# GULP energy per Si atom -5570.929256 kJ/mol
# Density = 2.149627 g / cm^3
# Si number density = 21.545311 Si / 1000 Ang^3
#
#
#
# Elastic Constant Matrix: (Units=GPa)
#
#
# Indices 1 2 3 4 5 6 
#
# 1 36.0925 18.4144 36.4644 0.0009 14.1946 -0.0009
# 2 18.4144 150.3834 57.7103 -0.0008 30.3671 -0.0001
# 3 36.4644 57.7103 148.0505 -0.0033 31.4935 -0.0013
# 4 0.0009 -0.0008 -0.0033 28.8852 -0.0006 4.7174
# 5 14.1946 30.3671 31.4935 -0.0006 32.5237 0.0007
# 6 -0.0009 -0.0001 -0.0013 4.7174 0.0007 21.9629
#
#
#
# Elastic Compliance Matrix: (Units=1/GPa)
#
#
# Indices 1 2 3 4 5 6 
#
# 1 0.039207 0.000105 -0.007603 -0.000003 -0.009848 0.000002
# 2 0.000105 0.008680 -0.002110 0.000000 -0.006107 0.000000
# 3 -0.007603 -0.002110 0.010484 0.000001 -0.004864 0.000000
# 4 -0.000003 0.000000 0.000001 0.035878 0.000001 -0.007706
# 5 -0.009848 -0.006107 -0.004864 0.000001 0.045456 -0.000002
# 6 0.000002 0.000000 0.000000 -0.007706 -0.000002 0.047187
#
#
# Mechanical properties :
#
#
# Convention : Reuss Voigt Hill
#
# Bulk Modulus (GPa) = 25.53928 62.18938 43.86433
# Shear Modulus (GPa) = 22.81447 31.47017 27.14232
#
# Velocity S-wave (km/s) = 3.25761 3.82599 3.55319
# Velocity P-wave (km/s) = 5.10185 6.96023 6.10220
#
# Compressibility (1/GPa) = 0.03915537
#
# Stress axis : x y z
#
# Youngs Moduli (GPa) = 25.50568 115.21074 95.38190
#
# Poissons Ratio (x) = -0.01213 0.72517
# Poissons Ratio (y) = -0.00269 0.20128
# Poissons Ratio (z) = 0.19391 0.24313
#
# Static dielectric constant tensor:
#      x y z
#    x 1.984300 0.000000 0.025150 
#    y 0.000000 1.891810 0.000000 
#    z 0.025150 0.000000 1.772330 
# 
# From -- ./inp_files/129128.got.cif
#   From: 2010.05.17/outbox.cif.g08.bks.cpg/sg12_65_cif.got.tgz:129128.got - 2010.06.03 13:09:07.
