data_PCOD9173758
_publ_section_title
;
Structure prediction by ZEFSAII (Michael W. Deem and Ramdas Pophale) SiO2 
 PCOD9173758
Probable space group: C 2/M
;
_chemical_formula_sum "Si O2"
_cell_formula_units_Z 48
_cell_length_a 25.894776
_cell_length_b 8.732252
_cell_length_c 12.736352
_cell_angle_alpha 90.000000
_cell_angle_beta 92.009316
_cell_angle_gamma 90.000000
_cell_volume 2878.169453
_symmetry_space_group_name_H-M "C 2/M"
_symmetry_group_IT_number 12
_symmetry_cell_setting 'monoclinic'
loop_
_space_group_symop_operation_xyz
x,y,z
-x,y,-z
-x,-y,-z
x,-y,z
1/2+x,1/2+y,z
1/2-x,1/2+y,-z
1/2-x,1/2-y,-z
1/2+x,1/2-y,z
loop_
_atom_site_type_symbol
_atom_site_label
_atom_site_fract_x
_atom_site_fract_y
_atom_site_fract_z
Si Si1 0.637191 0.183867 0.401755
Si Si2 0.650346 0.317635 0.635543
Si Si3 0.562623 0.324657 0.009659
Si Si4 0.931490 0.682425 0.210162
Si Si5 0.243225 0.183345 0.381749
Si Si6 0.051705 0.316355 0.228522
O O1 0.636425 0.253473 0.518616
O O2 0.687609 0.250628 0.346071
O O3 0.586221 0.221898 0.331683
O O4 0.642025 0.000000 0.410460
O O5 0.655406 0.500000 0.630026
O O6 0.606588 0.267376 0.713629
O O7 0.705653 0.244711 0.671609
O O8 0.579792 0.500000 0.000753
O O9 0.574744 0.257763 0.124764
O O10 0.500000 0.322087 0.000000
O O11 0.580605 0.227441 0.911022
O O12 0.927113 0.500000 0.224079
O O13 0.991439 0.727791 0.235152
O O14 0.250000 0.250000 0.500000
O O15 0.242576 0.000000 0.383580
O O16 0.052556 0.500000 0.215023
#
# Coordination Sequence:
#
# PCOD9173758 Si02
#       6
#     8   8   8   8   8   8
#     4  10  19  33  51  73 100 130 164 200 241 288
#     4  11  21  33  49  72 100 130 164 202 246 290
#     4   9  17  30  49  72  97 126 163 204 241 281
#     4  10  19  33  51  72  99 131 166 201 240 288
#     4  10  18  31  50  71  94 125 164 202 241 285
#     4   9  19  33  51  73  99 132 165 198 239 289
#
# _framework density 16.677265999999999
#
# number of rings (size 3 to 8) (size 9 to 14) (size 15 to 20)
#    0.000    2.167    0.000    6.500    0.000    4.667 
#    0.000    3.333    0.000    1.000    0.000    0.000 
#    0.000    0.000    0.000    0.000    0.000    0.000 
#
# Total GULP energy -133811.666246 kJ/mol
# GULP energy per Si atom -5575.486094 kJ/mol
# Density = 1.663931 g / cm^3
# Si number density = 16.677266 Si / 1000 Ang^3
#
#
#
# Elastic Constant Matrix: (Units=GPa)
#
#
# Indices 1 2 3 4 5 6 
#
# 1 77.5126 35.5624 34.6238 0.0000 -22.8679 0.0000
# 2 35.5624 93.2770 30.0153 0.0000 -13.8169 0.0000
# 3 34.6238 30.0153 63.7785 0.0000 -20.0048 0.0000
# 4 0.0000 0.0000 0.0000 24.9455 0.0000 -7.0011
# 5 -22.8679 -13.8169 -20.0048 0.0000 5.3788 0.0000
# 6 0.0000 0.0000 0.0000 -7.0011 0.0000 24.5540
#
#
#
# Elastic Compliance Matrix: (Units=1/GPa)
#
#
# Indices 1 2 3 4 5 6 
#
# 1 0.006295 -0.004889 -0.020044 0.000000 -0.060345 0.000000
# 2 -0.004889 0.013719 -0.004396 0.000000 -0.001891 0.000000
# 3 -0.020044 -0.004396 0.009855 0.000000 -0.059857 0.000000
# 4 0.000000 0.000000 0.000000 0.043574 0.000000 0.012424
# 5 -0.060345 -0.001891 -0.059857 0.000000 -0.298111 0.000000
# 6 0.000000 0.000000 0.000000 0.012424 0.000000 0.044269
#
#
# Mechanical properties :
#
#
# Convention : Reuss Voigt Hill
#
# Bulk Modulus (GPa) = -34.73609 48.33013 6.79702
# Shear Modulus (GPa) = -38.06940 19.93345 -9.06798
#
# Velocity S-wave (km/s) = -4.78296 3.46098 -2.33434
# Velocity P-wave (km/s) = 7.16770 6.70923 1.78355
#
# Compressibility (1/GPa) = -0.02878850
#
# Stress axis : x y z
#
# Youngs Moduli (GPa) = 158.86770 72.89213 101.47386
#
# Poissons Ratio (x) = 0.35634 2.03397
# Poissons Ratio (y) = 0.77663 0.44603
# Poissons Ratio (z) = 3.18439 0.32040
#
# Static dielectric constant tensor:
#      x y z
#    x 1.588600 0.000000 0.002950 
#    y 0.000000 1.559860 0.000000 
#    z 0.002950 0.000000 1.546330 
# 
# From -- ./inp_files/172323.got.cif
#   From: 2010.05.17/outbox.cif.g08.bks.cpg/sg12_87_cif.got.tgz:172323.got - 2010.06.03 13:09:07.
