data_PCOD9173356
_publ_section_title
;
Structure prediction by ZEFSAII (Michael W. Deem and Ramdas Pophale) SiO2 
 PCOD9173356
Probable space group: C 2/M
;
_chemical_formula_sum "Si O2"
_cell_formula_units_Z 58
_cell_length_a 22.618795
_cell_length_b 13.273358
_cell_length_c 12.772391
_cell_angle_alpha 90.000000
_cell_angle_beta 131.720500
_cell_angle_gamma 90.000000
_cell_volume 2862.161781
_symmetry_space_group_name_H-M "C 2/M"
_symmetry_group_IT_number 12
_symmetry_cell_setting 'monoclinic'
loop_
_space_group_symop_operation_xyz
x,y,z
-x,y,-z
-x,-y,-z
x,-y,z
1/2+x,1/2+y,z
1/2-x,1/2+y,-z
1/2-x,1/2-y,-z
1/2+x,1/2-y,z
loop_
_atom_site_type_symbol
_atom_site_label
_atom_site_fract_x
_atom_site_fract_y
_atom_site_fract_z
Si Si1 0.290377 0.116112 0.929499
Si Si2 0.477805 0.817311 0.818826
Si Si3 0.020131 0.115564 0.797242
Si Si4 0.000000 0.500000 0.000000
Si Si5 0.684310 0.878667 0.286286
Si Si6 0.434551 0.114693 0.263545
Si Si7 0.878518 0.806236 0.279716
Si Si8 0.357873 0.617037 0.486460
O O1 0.317042 0.130608 0.841148
O O2 0.214395 0.185911 0.857640
O O3 0.261994 0.000000 0.904670
O O4 0.362055 0.127216 0.094526
O O5 0.523745 0.710214 0.881578
O O6 0.386335 0.817061 0.744825
O O7 0.489159 0.849328 0.711291
O O8 0.511518 0.910600 0.925185
O O9 0.929664 0.124648 0.650672
O O10 0.074469 0.138292 0.759076
O O11 0.034429 0.000000 0.849606
O O12 0.772272 0.841745 0.419947
O O13 0.668597 0.000000 0.288809
O O14 0.412311 0.193921 0.324840
O O15 0.440141 0.000000 0.302916
O O16 0.885500 0.849681 0.404127
O O17 0.338560 0.500000 0.450506
#
# Coordination Sequence:
#
# PCOD9173356 Si02
#       8
#     8   8   8   2   8   8   8   8
#     4   9  17  28  47  74 101 131 171 220 258 307
#     4  11  21  32  57  79 106 136 172 221 257 313
#     4  10  21  36  53  78 108 138 173 215 269 313
#     4  12  20  36  58  80 102 132 178 210 252 312
#     4   9  16  29  50  78 103 129 176 224 263 302
#     4  10  19  30  45  73 110 136 171 216 266 312
#     4  10  18  30  52  75 101 138 179 216 260 310
#     4   9  18  33  55  77 100 134 179 225 259 306
#
# _framework density 20.264403999999999
#
# number of rings (size 3 to 8) (size 9 to 14) (size 15 to 20)
#    0.000    2.207    1.379    3.724    1.931    1.655 
#    0.000    0.345    1.517    4.966    0.000    0.000 
#    0.000    0.000    0.000    0.000    0.000    0.000 
#
# Total GULP energy -161452.524108 kJ/mol
# GULP energy per Si atom -5567.328418 kJ/mol
# Density = 2.021828 g / cm^3
# Si number density = 20.264404 Si / 1000 Ang^3
#
#
#
# Elastic Constant Matrix: (Units=GPa)
#
#
# Indices 1 2 3 4 5 6 
#
# 1 113.8796 42.9887 1.7083 0.0000 17.5565 0.0000
# 2 42.9887 130.1296 -1.4310 0.0000 -4.6164 0.0000
# 3 1.7083 -1.4310 19.4786 0.0000 4.5414 0.0000
# 4 0.0000 0.0000 0.0000 5.5593 0.0000 -15.3722
# 5 17.5565 -4.6164 4.5414 0.0000 18.9657 0.0000
# 6 0.0000 0.0000 0.0000 -15.3722 0.0000 25.1176
#
#
#
# Elastic Compliance Matrix: (Units=1/GPa)
#
#
# Indices 1 2 3 4 5 6 
#
# 1 0.012499 -0.004575 0.001615 0.000000 -0.013071 0.000000
# 2 -0.004575 0.009427 -0.000454 0.000000 0.006638 0.000000
# 3 0.001615 -0.000454 0.054585 0.000000 -0.014676 0.000000
# 4 0.000000 0.000000 0.000000 -0.259832 0.000000 -0.159020
# 5 -0.013071 0.006638 -0.014676 0.000000 0.069957 0.000000
# 6 0.000000 0.000000 0.000000 -0.159020 0.000000 -0.057509
#
#
# Mechanical properties :
#
#
# Convention : Reuss Voigt Hill
#
# Bulk Modulus (GPa) = 14.35068 38.89109 26.62089
# Shear Modulus (GPa) = -35.50677 24.60996 -5.44840
#
# Velocity S-wave (km/s) = -4.19044 3.48867 -1.64149
# Velocity P-wave (km/s) = 4.03930 5.95493 3.09397
#
# Compressibility (1/GPa) = 0.06968311
#
# Stress axis : x y z
#
# Youngs Moduli (GPa) = 80.00574 106.08345 18.31999
#
# Poissons Ratio (x) = 0.48534 -0.02959
# Poissons Ratio (y) = 0.36603 0.00832
# Poissons Ratio (z) = -0.12922 0.04816
#
# Static dielectric constant tensor:
#      x y z
#    x 1.743970 0.000000 0.067480 
#    y 0.000000 1.757150 0.000000 
#    z 0.067480 0.000000 1.797730 
# 
# From -- ./inp_files/232538.got.cif
#   From: 2010.05.17/outbox.cif.g08.bks.cpg/sg12_117_cif.got.tgz:232538.got - 2010.06.03 13:09:07.
