data_PCOD9173193
_publ_section_title
;
Structure prediction by ZEFSAII (Michael W. Deem and Ramdas Pophale) SiO2 
 PCOD9173193
Probable space group: C 2/M
;
_chemical_formula_sum "Si O2"
_cell_formula_units_Z 32
_cell_length_a 23.086704
_cell_length_b 8.150393
_cell_length_c 12.438380
_cell_angle_alpha 90.000000
_cell_angle_beta 56.337116
_cell_angle_gamma 90.000000
_cell_volume 1948.009985
_symmetry_space_group_name_H-M "C 2/M"
_symmetry_group_IT_number 12
_symmetry_cell_setting 'monoclinic'
loop_
_space_group_symop_operation_xyz
x,y,z
-x,y,-z
-x,-y,-z
x,-y,z
1/2+x,1/2+y,z
1/2-x,1/2+y,-z
1/2-x,1/2-y,-z
1/2+x,1/2-y,z
loop_
_atom_site_type_symbol
_atom_site_label
_atom_site_fract_x
_atom_site_fract_y
_atom_site_fract_z
Si Si1 0.050581 0.000000 0.612359
Si Si2 0.633425 0.811853 0.600011
Si Si3 0.735513 0.316004 0.132827
Si Si4 0.602121 0.500000 0.312955
Si Si5 0.272290 0.688480 0.320387
O O1 0.078332 0.166475 0.639493
O O2 0.081172 0.000000 0.459294
O O3 0.967505 0.000000 0.684925
O O4 0.670324 0.796215 0.678241
O O5 0.697082 0.776502 0.451406
O O6 0.609408 0.000000 0.607562
O O7 0.765434 0.500000 0.111124
O O8 0.652832 0.346258 0.235810
O O9 0.765747 0.213892 0.200331
O O10 0.750000 0.250000 0.000000
O O11 0.288577 0.500000 0.329571
#
# Coordination Sequence:
#
# PCOD9173193 Si02
#       5
#     4   8   8   4   8
#     4  11  18  40  53  81 121 146 180 219 279 343
#     4  10  19  30  53  81 112 142 176 231 277 325
#     4  10  19  34  52  78 106 142 186 225 266 318
#     4   9  22  34  57  75 115 156 176 217 283 332
#     4  10  18  30  50  82 110 138 184 229 279 315
#
# _framework density 16.427019999999999
#
# number of rings (size 3 to 8) (size 9 to 14) (size 15 to 20)
#    0.750    1.250    3.750    1.500    1.750    0.000 
#    0.000    5.000    0.000    3.000    0.000    3.500 
#    0.000    0.000    0.000    0.000    0.000    0.000 
#
# Total GULP energy -89067.762422 kJ/mol
# GULP energy per Si atom -5566.735151 kJ/mol
# Density = 1.638963 g / cm^3
# Si number density = 16.427020 Si / 1000 Ang^3
#
#
#
# Elastic Constant Matrix: (Units=GPa)
#
#
# Indices 1 2 3 4 5 6 
#
# 1 88.0908 41.3953 27.7960 0.0000 12.5214 0.0000
# 2 41.3953 77.2926 -4.8350 0.0000 0.6016 0.0000
# 3 27.7960 -4.8350 66.8119 0.0000 17.4559 0.0000
# 4 0.0000 0.0000 0.0000 22.2487 0.0000 10.6310
# 5 12.5214 0.6016 17.4559 0.0000 20.5448 0.0000
# 6 0.0000 0.0000 0.0000 10.6310 0.0000 21.3295
#
#
#
# Elastic Compliance Matrix: (Units=1/GPa)
#
#
# Indices 1 2 3 4 5 6 
#
# 1 0.019635 -0.010952 -0.007607 0.000000 -0.005183 0.000000
# 2 -0.010952 0.019142 0.005583 0.000000 0.001370 0.000000
# 3 -0.007607 0.005583 0.022323 0.000000 -0.014494 0.000000
# 4 0.000000 0.000000 0.000000 0.058997 0.000000 -0.029405
# 5 -0.005183 0.001370 -0.014494 0.000000 0.064108 0.000000
# 6 0.000000 0.000000 0.000000 -0.029405 0.000000 0.061539
#
#
# Mechanical properties :
#
#
# Convention : Reuss Voigt Hill
#
# Bulk Modulus (GPa) = 28.45000 40.10086 34.27543
# Shear Modulus (GPa) = 17.64218 24.01385 20.82802
#
# Velocity S-wave (km/s) = 3.28071 3.82756 3.56464
# Velocity P-wave (km/s) = 5.63093 6.63311 6.15246
#
# Compressibility (1/GPa) = 0.03514938
#
# Stress axis : x y z
#
# Youngs Moduli (GPa) = 50.92854 52.24189 44.79638
#
# Poissons Ratio (x) = 0.57213 0.34078
# Poissons Ratio (y) = 0.55775 -0.25012
# Poissons Ratio (z) = 0.38743 -0.29169
#
# Static dielectric constant tensor:
#      x y z
#    x 1.544430 0.000000 0.011920 
#    y 0.000000 1.579860 0.000000 
#    z 0.011920 0.000000 1.549100 
# 
# From -- ./inp_files/161599.got.cif
#   From: 2010.05.17/outbox.cif.g08.bks.cpg/sg12_81_cif.got.tgz:161599.got - 2010.06.03 13:09:07.
