data_PCOD9173260
_publ_section_title
;
Structure prediction by ZEFSAII (Michael W. Deem and Ramdas Pophale) SiO2 
 PCOD9173260
Probable space group: C 2/M
;
_chemical_formula_sum "Si O2"
_cell_formula_units_Z 56
_cell_length_a 14.901622
_cell_length_b 7.804019
_cell_length_c 19.856657
_cell_angle_alpha 90.000000
_cell_angle_beta 102.055171
_cell_angle_gamma 90.000000
_cell_volume 2258.256607
_symmetry_space_group_name_H-M "C 2/M"
_symmetry_group_IT_number 12
_symmetry_cell_setting 'monoclinic'
loop_
_space_group_symop_operation_xyz
x,y,z
-x,y,-z
-x,-y,-z
x,-y,z
1/2+x,1/2+y,z
1/2-x,1/2+y,-z
1/2-x,1/2-y,-z
1/2+x,1/2-y,z
loop_
_atom_site_type_symbol
_atom_site_label
_atom_site_fract_x
_atom_site_fract_y
_atom_site_fract_z
Si Si1 0.133003 0.295332 0.840458
Si Si2 0.861572 0.796276 0.304135
Si Si3 0.632752 0.198143 0.408218
Si Si4 0.802384 0.796969 0.940433
Si Si5 0.154117 0.295597 0.555038
Si Si6 0.148384 0.289478 0.266314
Si Si7 0.460522 0.203831 0.882260
O O1 0.140208 0.500000 0.848064
O O2 0.096660 0.261181 0.760030
O O3 0.233910 0.224673 0.871676
O O4 0.062476 0.228462 0.885617
O O5 0.896474 0.733248 0.381992
O O6 0.755045 0.735742 0.282233
O O7 0.862419 0.000000 0.306111
O O8 0.745132 0.208557 0.424738
O O9 0.608568 0.268266 0.478352
O O10 0.606652 0.272822 0.331343
O O11 0.603800 0.000000 0.402907
O O12 0.903991 0.734292 0.940815
O O13 0.808006 0.000000 0.937334
O O14 0.750000 0.750000 0.000000
O O15 0.168571 0.500000 0.550256
O O16 0.146918 0.500000 0.267132
O O17 0.097362 0.230295 0.191307
O O18 0.466426 0.000000 0.875956
#
# Coordination Sequence:
#
# PCOD9173260 Si02
#       7
#     8   8   8   8   8   8   8
#     4  10  22  38  59  87 117 147 186 233 279 329
#     4  10  18  30  51  76 106 145 190 234 279 335
#     4   8  14  24  39  66 101 139 185 232 280 333
#     4  11  24  42  63  89 119 149 183 225 273 331
#     4   9  15  23  39  66 103 141 182 234 285 332
#     4   8  14  27  50  76 102 139 184 228 274 328
#     4  10  20  38  62  87 116 151 187 228 280 333
#
# _framework density 24.797891
#
# number of rings (size 3 to 8) (size 9 to 14) (size 15 to 20)
#    0.000    2.571    1.429    2.143    0.000    2.286 
#    0.000    2.857    0.000    0.857    0.000    6.000 
#    0.000    0.000    0.000    0.000    0.000    0.000 
#
# Total GULP energy -156331.979668 kJ/mol
# GULP energy per Si atom -5583.284988 kJ/mol
# Density = 2.474145 g / cm^3
# Si number density = 24.797891 Si / 1000 Ang^3
#
#
#
# Elastic Constant Matrix: (Units=GPa)
#
#
# Indices 1 2 3 4 5 6 
#
# 1 86.4371 7.6763 32.6546 0.0000 -17.4894 0.0000
# 2 7.6763 34.5318 -22.2740 0.0000 3.2428 0.0000
# 3 32.6546 -22.2740 105.1457 0.0000 -26.9200 0.0000
# 4 0.0000 0.0000 0.0000 23.2592 0.0000 -8.2346
# 5 -17.4894 3.2428 -26.9200 0.0000 38.9371 0.0000
# 6 0.0000 0.0000 0.0000 -8.2346 0.0000 8.6009
#
#
#
# Elastic Compliance Matrix: (Units=1/GPa)
#
#
# Indices 1 2 3 4 5 6 
#
# 1 0.014885 -0.006981 -0.005153 0.000000 0.003705 0.000000
# 2 -0.006981 0.037030 0.010231 0.000000 0.000854 0.000000
# 3 -0.005153 0.010231 0.015149 0.000000 0.007307 0.000000
# 4 0.000000 0.000000 0.000000 0.065039 0.000000 0.062269
# 5 0.003705 0.000854 0.007307 0.000000 0.032327 0.000000
# 6 0.000000 0.000000 0.000000 0.062269 0.000000 0.175883
#
#
# Mechanical properties :
#
#
# Convention : Reuss Voigt Hill
#
# Bulk Modulus (GPa) = 15.80827 29.13651 22.47239
# Shear Modulus (GPa) = 13.69090 28.02995 20.86043
#
# Velocity S-wave (km/s) = 2.35223 3.36569 2.90352
# Velocity P-wave (km/s) = 3.71025 5.18449 4.50805
#
# Compressibility (1/GPa) = 0.06325801
#
# Stress axis : x y z
#
# Youngs Moduli (GPa) = 67.17964 27.00534 66.01047
#
# Poissons Ratio (x) = 0.18852 0.34017
# Poissons Ratio (y) = 0.46897 -0.67535
# Poissons Ratio (z) = 0.34619 -0.27629
#
# Static dielectric constant tensor:
#      x y z
#    x 1.964730 0.000000 0.006010 
#    y 0.000000 1.907810 0.000000 
#    z 0.006010 0.000000 2.041630 
# 
# From -- ./inp_files/308988.got.cif
#   From: 2010.05.17/outbox.cif.g08.bks.cpg/sg12_155_cif.got.tgz:308988.got - 2010.06.03 13:09:07.
