data_PCOD9173937
_publ_section_title
;
Structure prediction by ZEFSAII (Michael W. Deem and Ramdas Pophale) SiO2 
 PCOD9173937
Probable space group: C 2/M
;
_chemical_formula_sum "Si O2"
_cell_formula_units_Z 56
_cell_length_a 13.631042
_cell_length_b 14.011405
_cell_length_c 27.022250
_cell_angle_alpha 90.000000
_cell_angle_beta 31.813909
_cell_angle_gamma 90.000000
_cell_volume 2720.673509
_symmetry_space_group_name_H-M "C 2/M"
_symmetry_group_IT_number 12
_symmetry_cell_setting 'monoclinic'
loop_
_space_group_symop_operation_xyz
x,y,z
-x,y,-z
-x,-y,-z
x,-y,z
1/2+x,1/2+y,z
1/2-x,1/2+y,-z
1/2-x,1/2-y,-z
1/2+x,1/2-y,z
loop_
_atom_site_type_symbol
_atom_site_label
_atom_site_fract_x
_atom_site_fract_y
_atom_site_fract_z
Si Si1 0.766915 0.105718 0.391048
Si Si2 0.141018 0.888936 0.070146
Si Si3 0.542449 0.792290 0.889514
Si Si4 0.741754 0.611964 0.291929
Si Si5 0.334315 0.607933 0.826277
Si Si6 0.805482 0.889441 0.487557
Si Si7 0.709373 0.314215 0.406069
O O1 0.721021 0.113263 0.468951
O O2 0.694877 0.202915 0.398164
O O3 0.988944 0.110182 0.285990
O O4 0.708772 0.000000 0.398033
O O5 0.095740 0.876964 0.147951
O O6 0.016619 0.817218 0.091427
O O7 0.122072 0.000000 0.065484
O O8 0.353902 0.853898 0.974114
O O9 0.649827 0.827093 0.794545
O O10 0.679102 0.817844 0.875924
O O11 0.756867 0.500000 0.273469
O O12 0.522383 0.637488 0.387055
O O13 0.810864 0.632650 0.318130
O O14 0.254695 0.500000 0.858032
O O15 0.715223 0.828633 0.570569
O O16 0.800955 0.000000 0.505759
O O17 0.500000 0.354724 0.500000
#
# Coordination Sequence:
#
# PCOD9173937 Si02
#       7
#     8   8   8   8   8   8   8
#     4  10  19  32  51  72  98 134 178 218 256 309
#     4  10  22  36  55  85 115 142 177 223 273 324
#     4  11  20  34  59  83 108 142 183 222 267 319
#     4  10  18  31  51  76  99 126 169 217 261 306
#     4  10  19  35  58  82 107 140 184 229 267 314
#     4   9  17  31  50  71  95 127 166 214 259 302
#     4  10  20  31  47  73 104 135 165 209 272 323
#
# _framework density 20.583138999999999
#
# number of rings (size 3 to 8) (size 9 to 14) (size 15 to 20)
#    0.000    2.000    1.429    3.429    0.000    3.143 
#    0.000    0.000    0.000   12.857    0.000    0.000 
#    0.000    0.000    0.000    0.000    0.000    0.000 
#
# Total GULP energy -156241.535106 kJ/mol
# GULP energy per Si atom -5580.054825 kJ/mol
# Density = 2.053629 g / cm^3
# Si number density = 20.583139 Si / 1000 Ang^3
#
#
#
# Elastic Constant Matrix: (Units=GPa)
#
#
# Indices 1 2 3 4 5 6 
#
# 1 29.2753 22.5339 -1.6670 0.0001 -2.8376 -0.0050
# 2 22.5339 101.8451 3.0050 0.0002 -5.0493 -0.0063
# 3 -1.6670 3.0050 32.3190 0.0005 6.2107 -0.0175
# 4 0.0001 0.0002 0.0005 22.5655 -0.0008 -0.6319
# 5 -2.8376 -5.0493 6.2107 -0.0008 24.2624 0.0053
# 6 -0.0050 -0.0063 -0.0175 -0.6319 0.0053 136.4982
#
#
#
# Elastic Compliance Matrix: (Units=1/GPa)
#
#
# Indices 1 2 3 4 5 6 
#
# 1 0.041578 -0.009161 0.002554 0.000000 0.002303 0.000001
# 2 -0.009161 0.011999 -0.001959 0.000000 0.001927 0.000000
# 3 0.002554 -0.001959 0.032894 -0.000001 -0.008529 0.000005
# 4 0.000000 0.000000 -0.000001 0.044321 0.000002 0.000205
# 5 0.002303 0.001927 -0.008529 0.000002 0.044070 -0.000003
# 6 0.000001 0.000000 0.000005 0.000205 -0.000003 0.007327
#
#
# Mechanical properties :
#
#
# Convention : Reuss Voigt Hill
#
# Bulk Modulus (GPa) = 14.42145 23.46480 18.94312
# Shear Modulus (GPa) = 22.47857 45.96970 34.22414
#
# Velocity S-wave (km/s) = 3.30826 4.73098 4.08208
# Velocity P-wave (km/s) = 4.64913 6.42399 5.60723
#
# Compressibility (1/GPa) = 0.06934117
#
# Stress axis : x y z
#
# Youngs Moduli (GPa) = 24.05103 83.34008 30.40028
#
# Poissons Ratio (x) = 0.76345 -0.07764
# Poissons Ratio (y) = 0.22032 0.05954
# Poissons Ratio (z) = -0.06142 0.16322
#
# Static dielectric constant tensor:
#      x y z
#    x 1.808870 0.000000 0.018510 
#    y 0.000000 1.748140 0.000000 
#    z 0.018510 0.000000 1.726320 
# 
# From -- ./inp_files/251141.got.cif
#   From: 2010.05.17/outbox.cif.g08.bks.cpg/sg12_126_cif.got.tgz:251141.got - 2010.06.03 13:09:07.
