data_PCOD9173827
_publ_section_title
;
Structure prediction by ZEFSAII (Michael W. Deem and Ramdas Pophale) SiO2 
 PCOD9173827
Probable space group: C 2/M
;
_chemical_formula_sum "Si O2"
_cell_formula_units_Z 56
_cell_length_a 34.852284
_cell_length_b 8.275977
_cell_length_c 13.029449
_cell_angle_alpha 90.000000
_cell_angle_beta 120.929292
_cell_angle_gamma 90.000000
_cell_volume 3223.767781
_symmetry_space_group_name_H-M "C 2/M"
_symmetry_group_IT_number 12
_symmetry_cell_setting 'monoclinic'
loop_
_space_group_symop_operation_xyz
x,y,z
-x,y,-z
-x,-y,-z
x,-y,z
1/2+x,1/2+y,z
1/2-x,1/2+y,-z
1/2-x,1/2-y,-z
1/2+x,1/2-y,z
loop_
_atom_site_type_symbol
_atom_site_label
_atom_site_fract_x
_atom_site_fract_y
_atom_site_fract_z
Si Si1 0.954213 0.695277 0.164568
Si Si2 0.053513 0.694380 0.241803
Si Si3 0.296270 0.192739 0.437606
Si Si4 0.048640 0.804910 0.608117
Si Si5 0.396221 0.802303 0.894052
Si Si6 0.387663 0.307353 0.486099
Si Si7 0.198854 0.304865 0.318060
O O1 0.955082 0.500000 0.163449
O O2 0.944504 0.748114 0.266705
O O3 0.003719 0.753729 0.199350
O O4 0.918197 0.750232 0.030811
O O5 0.051351 0.500000 0.232888
O O6 0.073348 0.750788 0.160501
O O7 0.086814 0.738594 0.379478
O O8 0.335920 0.260285 0.422747
O O9 0.246161 0.244810 0.340542
O O10 0.304051 0.249041 0.566553
O O11 0.299172 0.000000 0.441399
O O12 0.086492 0.749570 0.580135
O O13 0.000000 0.750033 0.500000
O O14 0.048242 0.000000 0.607625
O O15 0.345341 0.750757 0.802707
O O16 0.396234 0.000000 0.893358
O O17 0.391569 0.500000 0.495192
O O18 0.199485 0.500000 0.319445
#
# Coordination Sequence:
#
# PCOD9173827 Si02
#       7
#     8   8   8   8   8   8   8
#     4  10  20  32  53  78 102 136 177 213 245 297
#     4  10  18  31  50  76 107 137 168 205 251 301
#     4  10  19  32  51  77 104 131 166 212 257 300
#     4  10  21  37  52  69 101 140 173 212 258 299
#     4   9  17  32  51  76 108 139 167 202 254 305
#     4  11  21  33  52  74 101 137 173 209 255 304
#     4   9  17  31  51  74 105 138 164 198 252 313
#
# _framework density 17.370978000000001
#
# number of rings (size 3 to 8) (size 9 to 14) (size 15 to 20)
#    0.000    2.143    2.857    1.286    0.000    3.714 
#    0.000    1.429    0.000    2.571    0.000    0.000 
#    0.000    0.000    0.000    0.000    0.000    0.000 
#
# Total GULP energy -156238.384178 kJ/mol
# GULP energy per Si atom -5579.942292 kJ/mol
# Density = 1.733144 g / cm^3
# Si number density = 17.370978 Si / 1000 Ang^3
#
#
#
# Elastic Constant Matrix: (Units=GPa)
#
#
# Indices 1 2 3 4 5 6 
#
# 1 150.2503 7.3277 78.2307 0.0000 -3.6295 0.0000
# 2 7.3277 2.3700 5.7378 0.0000 -2.4018 0.0000
# 3 78.2307 5.7378 128.7931 0.0000 -11.9955 0.0000
# 4 0.0000 0.0000 0.0000 -27.5680 0.0000 25.3729
# 5 -3.6295 -2.4018 -11.9955 0.0000 20.5321 0.0000
# 6 0.0000 0.0000 0.0000 25.3729 0.0000 8.8717
#
#
#
# Elastic Compliance Matrix: (Units=1/GPa)
#
#
# Indices 1 2 3 4 5 6 
#
# 1 0.010758 -0.023322 -0.005893 0.000000 -0.004270 0.000000
# 2 -0.023322 0.567422 -0.005620 0.000000 0.058969 0.000000
# 3 -0.005893 -0.005620 0.012094 0.000000 0.005367 0.000000
# 4 0.000000 0.000000 0.000000 -0.009987 0.000000 0.028562
# 5 -0.004270 0.058969 0.005367 0.000000 0.057983 0.000000
# 6 0.000000 0.000000 0.000000 0.028562 0.000000 0.031033
#
#
# Mechanical properties :
#
#
# Convention : Reuss Voigt Hill
#
# Bulk Modulus (GPa) = 1.92085 51.55619 26.73852
# Shear Modulus (GPa) = 5.47940 13.04164 9.26052
#
# Velocity S-wave (km/s) = 1.77797 2.74299 2.31141
# Velocity P-wave (km/s) = 2.30718 6.30682 4.74863
#
# Compressibility (1/GPa) = 0.52060218
#
# Stress axis : x y z
#
# Youngs Moduli (GPa) = 92.95083 1.76236 82.68320
#
# Poissons Ratio (x) = 0.04110 0.48729
# Poissons Ratio (y) = 2.16784 0.46470
# Poissons Ratio (z) = 0.54780 0.00990
#
# Static dielectric constant tensor:
#      x y z
#    x 1.593730 0.000000 0.006950 
#    y 0.000000 1.609420 0.000000 
#    z 0.006950 0.000000 1.564970 
# 
# From -- ./inp_files/186797.got.cif
#   From: 2010.05.17/outbox.cif.g08.bks.cpg/sg12_94_cif.got.tgz:186797.got - 2010.06.03 13:09:07.
