data_PCOD9173314
_publ_section_title
;
Structure prediction by ZEFSAII (Michael W. Deem and Ramdas Pophale) SiO2 
 PCOD9173314
Probable space group: C 2/M
;
_chemical_formula_sum "Si O2"
_cell_formula_units_Z 48
_cell_length_a 14.682724
_cell_length_b 7.626967
_cell_length_c 30.622992
_cell_angle_alpha 90.000000
_cell_angle_beta 146.508082
_cell_angle_gamma 90.000000
_cell_volume 1892.356916
_symmetry_space_group_name_H-M "C 2/M"
_symmetry_group_IT_number 12
_symmetry_cell_setting 'monoclinic'
loop_
_space_group_symop_operation_xyz
x,y,z
-x,y,-z
-x,-y,-z
x,-y,z
1/2+x,1/2+y,z
1/2-x,1/2+y,-z
1/2-x,1/2-y,-z
1/2+x,1/2-y,z
loop_
_atom_site_type_symbol
_atom_site_label
_atom_site_fract_x
_atom_site_fract_y
_atom_site_fract_z
Si Si1 0.991205 0.287948 0.136663
Si Si2 0.951598 0.285087 0.932794
Si Si3 0.347958 0.295215 0.310156
Si Si4 0.128888 0.704278 0.354306
Si Si5 0.393380 0.710454 0.521471
Si Si6 0.595205 0.703922 0.806073
O O1 0.991539 0.500000 0.136120
O O2 0.952740 0.227373 0.072286
O O3 0.173988 0.222580 0.224261
O O4 0.881051 0.229491 0.132926
O O5 0.955767 0.500000 0.935644
O O6 0.761447 0.229831 0.850161
O O7 0.000000 0.222437 0.000000
O O8 0.316682 0.500000 0.306185
O O9 0.483804 0.286732 0.325724
O O10 0.440397 0.217970 0.389718
O O11 0.127884 0.500000 0.365148
O O12 0.307245 0.771251 0.441983
O O13 0.069367 0.717603 0.280752
O O14 0.418864 0.500000 0.528381
O O15 0.250000 0.750000 0.500000
O O16 0.582718 0.500000 0.792067
#
# Coordination Sequence:
#
# PCOD9173314 Si02
#       6
#     8   8   8   8   8   8
#     4  10  20  36  58  84 112 146 183 223 271 326
#     4   9  19  38  62  84 109 143 180 220 274 335
#     4   9  16  31  53  77 108 147 187 225 272 325
#     4  10  18  30  51  79 110 145 185 230 274 318
#     4   8  15  26  45  74 105 140 184 228 268 315
#     4  11  22  37  57  83 112 147 184 225 274 327
#
# _framework density 25.365196000000001
#
# number of rings (size 3 to 8) (size 9 to 14) (size 15 to 20)
#    0.000    2.500    1.667    1.000    0.000    2.000 
#    0.000    0.833    0.000    8.500    0.000    0.000 
#    0.000    0.000    0.000    0.000    0.000    0.000 
#
# Total GULP energy -134005.146413 kJ/mol
# GULP energy per Si atom -5583.547767 kJ/mol
# Density = 2.530746 g / cm^3
# Si number density = 25.365196 Si / 1000 Ang^3
#
#
#
# Elastic Constant Matrix: (Units=GPa)
#
#
# Indices 1 2 3 4 5 6 
#
# 1 80.7522 -6.6256 21.5688 0.0000 -19.3742 0.0000
# 2 -6.6256 55.8285 5.2401 -0.0001 -0.2934 0.0000
# 3 21.5688 5.2401 118.6598 0.0000 -33.1453 0.0000
# 4 0.0000 -0.0001 0.0000 9.6675 0.0000 -8.2316
# 5 -19.3742 -0.2934 -33.1453 0.0000 42.6799 0.0000
# 6 0.0000 0.0000 0.0000 -8.2316 0.0000 11.6483
#
#
#
# Elastic Compliance Matrix: (Units=1/GPa)
#
#
# Indices 1 2 3 4 5 6 
#
# 1 0.014166 0.001813 -0.001092 0.000000 0.005595 0.000000
# 2 0.001813 0.018232 -0.001111 0.000000 0.000086 0.000000
# 3 -0.001092 -0.001111 0.010899 0.000000 0.007960 0.000000
# 4 0.000000 0.000000 0.000000 0.259713 0.000000 0.183533
# 5 0.005595 0.000086 0.007960 0.000000 0.032153 0.000000
# 6 0.000000 0.000000 0.000000 0.183533 0.000000 0.215549
#
#
# Mechanical properties :
#
#
# Convention : Reuss Voigt Hill
#
# Bulk Modulus (GPa) = 23.51985 32.84523 28.18254
# Shear Modulus (GPa) = 8.83918 28.46962 18.65440
#
# Velocity S-wave (km/s) = 1.86878 3.35384 2.71483
# Velocity P-wave (km/s) = 3.73484 5.28911 4.57842
#
# Compressibility (1/GPa) = 0.04251728
#
# Stress axis : x y z
#
# Youngs Moduli (GPa) = 70.58946 54.84898 91.75451
#
# Poissons Ratio (x) = -0.09945 0.10022
# Poissons Ratio (y) = -0.12799 0.10192
# Poissons Ratio (z) = 0.07710 0.06092
#
# Static dielectric constant tensor:
#      x y z
#    x 1.996960 0.000000 -0.027710 
#    y 0.000000 1.977050 0.000000 
#    z -0.027710 0.000000 2.131740 
# 
# From -- ./inp_files/360245.got.cif
#   From: 2010.05.17/outbox.cif.g08.bks.cpg/sg12_181_cif.got.tgz:360245.got - 2010.06.03 13:09:07.
