data_PCOD9173805
_publ_section_title
;
Structure prediction by ZEFSAII (Michael W. Deem and Ramdas Pophale) SiO2 
 PCOD9173805
Probable space group: C 2/M
;
_chemical_formula_sum "Si O2"
_cell_formula_units_Z 48
_cell_length_a 11.990146
_cell_length_b 13.417293
_cell_length_c 21.846071
_cell_angle_alpha 90.000000
_cell_angle_beta 38.535412
_cell_angle_gamma 90.000000
_cell_volume 2189.523028
_symmetry_space_group_name_H-M "C 2/M"
_symmetry_group_IT_number 12
_symmetry_cell_setting 'monoclinic'
loop_
_space_group_symop_operation_xyz
x,y,z
-x,y,-z
-x,-y,-z
x,-y,z
1/2+x,1/2+y,z
1/2-x,1/2+y,-z
1/2-x,1/2-y,-z
1/2+x,1/2-y,z
loop_
_atom_site_type_symbol
_atom_site_label
_atom_site_fract_x
_atom_site_fract_y
_atom_site_fract_z
Si Si1 0.507934 0.659138 0.364123
Si Si2 0.829841 0.393777 0.844144
Si Si3 0.768086 0.672705 0.142370
Si Si4 0.873433 0.686220 0.504219
Si Si5 0.834014 0.644642 0.981266
Si Si6 0.253647 0.110478 0.371527
O O1 0.611364 0.649247 0.256552
O O2 0.302582 0.628536 0.440875
O O3 0.486604 0.773878 0.397821
O O4 0.625983 0.610644 0.366619
O O5 0.769549 0.500000 0.842246
O O6 0.730182 0.293020 0.867374
O O7 0.813451 0.404207 0.924241
O O8 0.039983 0.379302 0.737509
O O9 0.956327 0.644342 0.091871
O O10 0.747091 0.621436 0.084881
O O11 0.805191 0.791082 0.565469
O O12 0.000000 0.636822 0.500000
O O13 0.750000 0.750000 0.000000
O O14 0.234155 0.000000 0.409091
#
# Coordination Sequence:
#
# PCOD9173805 Si02
#       6
#     8   8   8   8   8   8
#     4  10  18  31  50  74 105 133 168 208 250 302
#     4  10  19  33  53  78 104 131 167 214 256 295
#     4  10  18  33  53  74 101 136 171 206 248 306
#     4   9  19  31  49  76 103 134 170 208 251 299
#     4   9  19  33  51  75 100 136 171 202 251 305
#     4  10  19  32  52  78 104 131 167 214 257 294
#
# _framework density 21.922581999999998
#
# number of rings (size 3 to 8) (size 9 to 14) (size 15 to 20)
#    0.000    2.333    3.333    0.000    0.000    3.000 
#    0.000    9.167    0.000    0.500    0.000   14.000 
#    0.000    0.000    0.000    0.000    0.000    0.000 
#
# Total GULP energy -133703.764212 kJ/mol
# GULP energy per Si atom -5570.990175 kJ/mol
# Density = 2.187268 g / cm^3
# Si number density = 21.922582 Si / 1000 Ang^3
#
#
#
# Elastic Constant Matrix: (Units=GPa)
#
#
# Indices 1 2 3 4 5 6 
#
# 1 67.8074 -18.0805 -5.7928 -0.0002 10.6698 0.0001
# 2 -18.0805 69.5468 -5.1789 -0.0001 2.6775 0.0001
# 3 -5.7928 -5.1789 109.0541 0.0006 17.5689 -0.0002
# 4 -0.0002 -0.0001 0.0006 132.6229 0.0001 -62.2325
# 5 10.6698 2.6775 17.5689 0.0001 23.2636 -0.0001
# 6 0.0001 0.0001 -0.0002 -62.2325 -0.0001 35.6881
#
#
#
# Elastic Compliance Matrix: (Units=1/GPa)
#
#
# Indices 1 2 3 4 5 6 
#
# 1 0.018221 0.005397 0.003040 0.000000 -0.011274 0.000000
# 2 0.005397 0.016155 0.001995 0.000000 -0.005842 0.000000
# 3 0.003040 0.001995 0.011030 0.000000 -0.009954 0.000000
# 4 0.000000 0.000000 0.000000 0.041489 0.000000 0.072348
# 5 -0.011274 -0.005842 -0.009954 0.000000 0.056346 0.000001
# 6 0.000000 0.000000 0.000000 0.072348 0.000001 0.154180
#
#
# Mechanical properties :
#
#
# Convention : Reuss Voigt Hill
#
# Bulk Modulus (GPa) = 15.08942 20.92264 18.00603
# Shear Modulus (GPa) = 16.74223 56.67895 36.71059
#
# Velocity S-wave (km/s) = 2.76651 5.09021 4.09657
# Velocity P-wave (km/s) = 4.13555 6.64166 5.53238
#
# Compressibility (1/GPa) = 0.06627159
#
# Stress axis : x y z
#
# Youngs Moduli (GPa) = 54.88276 61.89853 90.66512
#
# Poissons Ratio (x) = -0.33409 -0.27567
# Poissons Ratio (y) = -0.29623 -0.18088
# Poissons Ratio (z) = -0.16687 -0.12349
#
# Static dielectric constant tensor:
#      x y z
#    x 1.806010 0.000000 0.034100 
#    y 0.000000 1.847450 0.000000 
#    z 0.034100 0.000000 1.826610 
# 
# From -- ./inp_files/305912.got.cif
#   From: 2010.05.17/outbox.cif.g08.bks.cpg/sg12_153_cif.got.tgz:305912.got - 2010.06.03 13:09:07.
