data_PCOD9173547
_publ_section_title
;
Structure prediction by ZEFSAII (Michael W. Deem and Ramdas Pophale) SiO2 
 PCOD9173547
Probable space group: C 2/M
;
_chemical_formula_sum "Si O2"
_cell_formula_units_Z 56
_cell_length_a 23.007254
_cell_length_b 14.637138
_cell_length_c 7.289460
_cell_angle_alpha 90.000000
_cell_angle_beta 106.890780
_cell_angle_gamma 90.000000
_cell_volume 2348.901856
_symmetry_space_group_name_H-M "C 2/M"
_symmetry_group_IT_number 12
_symmetry_cell_setting 'monoclinic'
loop_
_space_group_symop_operation_xyz
x,y,z
-x,y,-z
-x,-y,-z
x,-y,z
1/2+x,1/2+y,z
1/2-x,1/2+y,-z
1/2-x,1/2-y,-z
1/2+x,1/2-y,z
loop_
_atom_site_type_symbol
_atom_site_label
_atom_site_fract_x
_atom_site_fract_y
_atom_site_fract_z
Si Si1 0.550733 0.400415 0.886981
Si Si2 0.784202 0.696713 0.832976
Si Si3 0.872908 0.606805 0.202230
Si Si4 0.010815 0.706206 0.723620
Si Si5 0.121238 0.715327 0.411695
Si Si6 0.828352 0.102347 0.453425
Si Si7 0.308246 0.400525 0.860465
O O1 0.545284 0.500000 0.788231
O O2 0.536959 0.307880 0.768369
O O3 0.500000 0.400806 0.000000
O O4 0.619635 0.394596 0.027221
O O5 0.824564 0.701271 0.682039
O O6 0.721854 0.646546 0.724200
O O7 0.779727 0.803365 0.886722
O O8 0.823255 0.641497 0.014636
O O9 0.869156 0.500000 0.228039
O O10 0.937537 0.635731 0.174632
O O11 0.867847 0.656318 0.395520
O O12 0.000000 0.688596 0.500000
O O13 0.943548 0.697213 0.743656
O O14 0.120035 0.821255 0.476681
O O15 0.801699 0.095358 0.634427
O O16 0.846298 0.000000 0.413319
O O17 0.286675 0.500000 0.912638
#
# Coordination Sequence:
#
# PCOD9173547 Si02
#       7
#     8   8   8   8   8   8   8
#     4  10  18  30  55  87 117 157 201 246 305 371
#     4  11  21  41  67  92 128 169 213 261 316 373
#     4  11  25  43  63  93 128 165 214 268 313 373
#     4  10  22  39  59  88 126 166 204 261 315 371
#     4  10  23  41  65  91 126 170 207 259 324 374
#     4  10  21  39  63  96 128 162 211 262 315 374
#     4   9  17  31  55  86 123 158 196 250 304 362
#
# _framework density 23.840928000000002
#
# number of rings (size 3 to 8) (size 9 to 14) (size 15 to 20)
#    0.000    1.857    1.429    3.857    0.000    6.286 
#    0.000    4.286    0.000    0.000    0.000    0.000 
#    0.000    0.000    0.000    0.000    0.000    0.000 
#
# Total GULP energy -156678.689662 kJ/mol
# GULP energy per Si atom -5595.667488 kJ/mol
# Density = 2.378666 g / cm^3
# Si number density = 23.840928 Si / 1000 Ang^3
#
#
#
# Elastic Constant Matrix: (Units=GPa)
#
#
# Indices 1 2 3 4 5 6 
#
# 1 85.6635 24.4523 22.0963 0.0000 7.5769 0.0000
# 2 24.4523 170.5584 21.0789 0.0000 -3.9934 0.0000
# 3 22.0963 21.0789 76.8948 0.0000 12.7124 0.0000
# 4 0.0000 0.0000 0.0000 18.7139 0.0000 -13.3765
# 5 7.5769 -3.9934 12.7124 0.0000 30.8162 0.0000
# 6 0.0000 0.0000 0.0000 -13.3765 0.0000 18.7822
#
#
#
# Elastic Compliance Matrix: (Units=1/GPa)
#
#
# Indices 1 2 3 4 5 6 
#
# 1 0.013078 -0.001560 -0.002968 0.000000 -0.002193 0.000000
# 2 -0.001560 0.006327 -0.001594 0.000000 0.001861 0.000000
# 3 -0.002968 -0.001594 0.015248 0.000000 -0.005767 0.000000
# 4 0.000000 0.000000 0.000000 0.108846 0.000000 0.077519
# 5 -0.002193 0.001861 -0.005767 0.000000 0.035610 0.000000
# 6 0.000000 0.000000 0.000000 0.077519 0.000000 0.108451
#
#
# Mechanical properties :
#
#
# Convention : Reuss Voigt Hill
#
# Bulk Modulus (GPa) = 44.62194 52.04129 48.33162
# Shear Modulus (GPa) = 16.27216 31.36174 23.81695
#
# Velocity S-wave (km/s) = 2.61536 3.63086 3.16412
# Velocity P-wave (km/s) = 5.27990 6.28120 5.80219
#
# Compressibility (1/GPa) = 0.02241050
#
# Stress axis : x y z
#
# Youngs Moduli (GPa) = 76.46234 158.04661 65.58224
#
# Poissons Ratio (x) = 0.24648 0.19465
# Poissons Ratio (y) = 0.11925 0.10454
# Poissons Ratio (z) = 0.22694 0.25192
#
# Static dielectric constant tensor:
#      x y z
#    x 2.009570 0.000000 -0.028610 
#    y 0.000000 1.879060 0.000000 
#    z -0.028610 0.000000 1.879140 
# 
# From -- ./inp_files/96460.got.cif
#   From: 2010.05.17/outbox.cif.g08.bks.cpg/sg12_49_cif.got.tgz:96460.got - 2010.06.03 13:09:07.
