data_PCOD9173151
_publ_section_title
;
Structure prediction by ZEFSAII (Michael W. Deem and Ramdas Pophale) SiO2 
 PCOD9173151
Probable space group: C 2/M
;
_chemical_formula_sum "Si O2"
_cell_formula_units_Z 56
_cell_length_a 19.373563
_cell_length_b 9.108143
_cell_length_c 28.245173
_cell_angle_alpha 90.000000
_cell_angle_beta 39.649835
_cell_angle_gamma 90.000000
_cell_volume 3180.300751
_symmetry_space_group_name_H-M "C 2/M"
_symmetry_group_IT_number 12
_symmetry_cell_setting 'monoclinic'
loop_
_space_group_symop_operation_xyz
x,y,z
-x,y,-z
-x,-y,-z
x,-y,z
1/2+x,1/2+y,z
1/2-x,1/2+y,-z
1/2-x,1/2-y,-z
1/2+x,1/2-y,z
loop_
_atom_site_type_symbol
_atom_site_label
_atom_site_fract_x
_atom_site_fract_y
_atom_site_fract_z
Si Si1 0.368018 0.673860 0.682485
Si Si2 0.408807 0.174078 0.449084
Si Si3 0.886658 0.825824 0.083455
Si Si4 0.971922 0.675329 0.233882
Si Si5 0.203239 0.673710 0.593404
Si Si6 0.164053 0.826626 0.188044
Si Si7 0.642787 0.673833 0.789493
O O1 0.363241 0.500000 0.675819
O O2 0.477877 0.743742 0.604861
O O3 0.366563 0.696351 0.740359
O O4 0.260413 0.752653 0.720453
O O5 0.313507 0.235209 0.532549
O O6 0.364829 0.202528 0.418772
O O7 0.422575 0.000000 0.447302
O O8 0.784538 0.735958 0.118308
O O9 0.888972 0.803912 0.138854
O O10 0.868964 0.000000 0.084376
O O11 0.000000 0.783843 0.000000
O O12 0.980815 0.500000 0.224903
O O13 0.873024 0.707967 0.322173
O O14 0.941832 0.749726 0.200442
O O15 0.079167 0.741471 0.200523
O O16 0.228781 0.500000 0.580222
O O17 0.159890 0.000000 0.180915
O O18 0.648702 0.500000 0.777424
#
# Coordination Sequence:
#
# PCOD9173151 Si02
#       7
#     8   8   8   8   8   8   8
#     4  10  19  33  53  77 106 141 182 224 268 319
#     4  10  18  30  50  76 104 137 181 228 272 314
#     4   9  19  38  62  85 110 141 175 214 263 318
#     4  11  21  36  55  78 111 146 181 219 267 322
#     4   9  19  32  48  73 105 141 178 222 272 317
#     4  10  20  33  55  84 110 140 180 222 262 311
#     4  10  21  36  56  81 110 140 176 220 267 319
#
# _framework density 17.608397
#
# number of rings (size 3 to 8) (size 9 to 14) (size 15 to 20)
#    0.000    2.143    1.429    2.143    0.000    3.714 
#    0.000    1.429    0.000    4.286    0.000    0.000 
#    0.000    0.000    0.000    0.000    0.000    0.000 
#
# Total GULP energy -156334.900845 kJ/mol
# GULP energy per Si atom -5583.389316 kJ/mol
# Density = 1.756832 g / cm^3
# Si number density = 17.608397 Si / 1000 Ang^3
#
#
#
# Elastic Constant Matrix: (Units=GPa)
#
#
# Indices 1 2 3 4 5 6 
#
# 1 91.2982 65.6902 39.2669 0.0000 -20.0747 0.0002
# 2 65.6902 83.9589 60.5831 0.0000 -17.6057 0.0003
# 3 39.2669 60.5831 100.9909 0.0000 -27.0858 0.0000
# 4 0.0000 0.0000 0.0000 27.1656 0.0000 -7.5001
# 5 -20.0747 -17.6057 -27.0858 0.0000 17.2482 0.0000
# 6 0.0002 0.0003 0.0000 -7.5001 0.0000 30.9497
#
#
#
# Elastic Compliance Matrix: (Units=1/GPa)
#
#
# Indices 1 2 3 4 5 6 
#
# 1 0.031497 -0.027118 0.011107 0.000000 0.026421 0.000000
# 2 -0.027118 0.044431 -0.021442 0.000000 -0.019881 0.000000
# 3 0.011107 -0.021442 0.027716 0.000000 0.034566 0.000000
# 4 0.000000 0.000000 0.000000 0.039451 0.000000 0.009560
# 5 0.026421 -0.019881 0.034566 0.000000 0.122714 0.000000
# 6 0.000000 0.000000 0.000000 0.009560 0.000000 0.034627
#
#
# Mechanical properties :
#
#
# Convention : Reuss Voigt Hill
#
# Bulk Modulus (GPa) = 34.79568 67.48091 51.13829
# Shear Modulus (GPa) = 12.98964 22.45325 17.72144
#
# Velocity S-wave (km/s) = 2.71900 3.57479 3.17585
# Velocity P-wave (km/s) = 5.44619 7.44615 6.52327
#
# Compressibility (1/GPa) = 0.02873920
#
# Stress axis : x y z
#
# Youngs Moduli (GPa) = 31.74875 22.50671 36.07978
#
# Poissons Ratio (x) = 0.61034 -0.40075
# Poissons Ratio (y) = 0.86097 0.77362
# Poissons Ratio (z) = -0.35264 0.48258
#
# Static dielectric constant tensor:
#      x y z
#    x 1.587030 0.000000 0.012530 
#    y 0.000000 1.580660 0.000000 
#    z 0.012530 0.000000 1.577730 
# 
# From -- ./inp_files/275205.got.cif
#   From: 2010.05.17/outbox.cif.g08.bks.cpg/sg12_138_cif.got.tgz:275205.got - 2010.06.03 13:09:07.
