data_PCOD9173923
_publ_section_title
;
Structure prediction by ZEFSAII (Michael W. Deem and Ramdas Pophale) SiO2 
 PCOD9173923
Probable space group: C 2/M
;
_chemical_formula_sum "Si O2"
_cell_formula_units_Z 40
_cell_length_a 20.493936
_cell_length_b 7.942533
_cell_length_c 14.601386
_cell_angle_alpha 90.000000
_cell_angle_beta 103.369061
_cell_angle_gamma 90.000000
_cell_volume 2312.315448
_symmetry_space_group_name_H-M "C 2/M"
_symmetry_group_IT_number 12
_symmetry_cell_setting 'monoclinic'
loop_
_space_group_symop_operation_xyz
x,y,z
-x,y,-z
-x,-y,-z
x,-y,z
1/2+x,1/2+y,z
1/2-x,1/2+y,-z
1/2-x,1/2-y,-z
1/2+x,1/2-y,z
loop_
_atom_site_type_symbol
_atom_site_label
_atom_site_fract_x
_atom_site_fract_y
_atom_site_fract_z
Si Si1 0.591816 0.500000 0.117252
Si Si2 0.569743 0.500000 0.902268
Si Si3 0.605043 0.195356 0.250955
Si Si4 0.172936 0.700599 0.465484
Si Si5 0.555656 0.812697 0.774334
Si Si6 0.934676 0.196443 0.424275
O O1 0.510867 0.500000 0.105956
O O2 0.617715 0.331867 0.176118
O O3 0.603496 0.500000 0.012622
O O4 0.584272 0.665826 0.847424
O O5 0.644546 0.243880 0.355825
O O6 0.525535 0.201604 0.247933
O O7 0.620697 0.000000 0.232241
O O8 0.165276 0.500000 0.473335
O O9 0.250000 0.750000 0.500000
O O10 0.127849 0.785872 0.528547
O O11 0.575335 0.787722 0.675164
O O12 0.573830 0.000000 0.811935
O O13 0.000000 0.262162 0.500000
O O14 0.947390 0.000000 0.406860
#
# Coordination Sequence:
#
# PCOD9173923 Si02
#       6
#     4   4   8   8   8   8
#     4   9  18  30  53  68 109 140 173 225 274 322
#     4   9  18  32  44  81 104 135 178 225 274 314
#     4   9  19  32  50  75 103 143 181 216 264 324
#     4  11  23  36  51  77 114 145 183 225 266 322
#     4  10  18  31  51  75 108 140 176 221 266 320
#     4  11  21  32  54  80 108 148 183 218 270 330
#
# _framework density 17.298677999999999
#
# number of rings (size 3 to 8) (size 9 to 14) (size 15 to 20)
#    0.000    2.000    3.000    1.200    2.800    1.600 
#    0.000    4.000    0.000    0.000    0.000    1.400 
#    0.000    0.000    0.000    0.000    0.000    0.000 
#
# Total GULP energy -111594.734385 kJ/mol
# GULP energy per Si atom -5579.736719 kJ/mol
# Density = 1.725931 g / cm^3
# Si number density = 17.298678 Si / 1000 Ang^3
#
#
#
# Elastic Constant Matrix: (Units=GPa)
#
#
# Indices 1 2 3 4 5 6 
#
# 1 46.6274 13.6036 23.0711 0.0000 -6.4510 0.0000
# 2 13.6036 112.2549 82.1500 0.0000 0.4462 0.0000
# 3 23.0711 82.1500 143.6288 0.0000 -8.0226 0.0000
# 4 0.0000 0.0000 0.0000 18.2239 0.0000 -1.3690
# 5 -6.4510 0.4462 -8.0226 0.0000 10.2449 0.0000
# 6 0.0000 0.0000 0.0000 -1.3690 0.0000 16.4602
#
#
#
# Elastic Compliance Matrix: (Units=1/GPa)
#
#
# Indices 1 2 3 4 5 6 
#
# 1 0.024968 -0.001219 -0.002543 0.000000 0.013783 0.000000
# 2 -0.001219 0.016013 -0.009459 0.000000 -0.008872 0.000000
# 3 -0.002543 -0.009459 0.013296 0.000000 0.009222 0.000000
# 4 0.000000 0.000000 0.000000 0.055218 0.000000 0.004592
# 5 0.013783 -0.008872 0.009222 0.000000 0.113897 0.000000
# 6 0.000000 0.000000 0.000000 0.004592 0.000000 0.061134
#
#
# Mechanical properties :
#
#
# Convention : Reuss Voigt Hill
#
# Bulk Modulus (GPa) = 35.92658 60.01782 47.97220
# Shear Modulus (GPa) = 15.61294 21.23156 18.42225
#
# Velocity S-wave (km/s) = 3.00751 3.50716 3.26690
# Velocity P-wave (km/s) = 5.73355 7.15336 6.48245
#
# Compressibility (1/GPa) = 0.02783454
#
# Stress axis : x y z
#
# Youngs Moduli (GPa) = 40.05175 62.44772 75.21007
#
# Poissons Ratio (x) = 0.07614 0.19128
# Poissons Ratio (y) = 0.04883 0.71139
# Poissons Ratio (z) = 0.10186 0.59068
#
# Static dielectric constant tensor:
#      x y z
#    x 1.548600 0.000000 0.002800 
#    y 0.000000 1.617710 0.000000 
#    z 0.002800 0.000000 1.566090 
# 
# From -- ./inp_files/151807.got.cif
#   From: 2010.05.17/outbox.cif.g08.bks.cpg/sg12_76_cif.got.tgz:151807.got - 2010.06.03 13:09:07.
