data_PCOD9173883
_publ_section_title
;
Structure prediction by ZEFSAII (Michael W. Deem and Ramdas Pophale) SiO2 
 PCOD9173883
Probable space group: C 2/M
;
_chemical_formula_sum "Si O2"
_cell_formula_units_Z 48
_cell_length_a 11.003737
_cell_length_b 14.399184
_cell_length_c 15.293464
_cell_angle_alpha 90.000000
_cell_angle_beta 58.413680
_cell_angle_gamma 90.000000
_cell_volume 2064.182560
_symmetry_space_group_name_H-M "C 2/M"
_symmetry_group_IT_number 12
_symmetry_cell_setting 'monoclinic'
loop_
_space_group_symop_operation_xyz
x,y,z
-x,y,-z
-x,-y,-z
x,-y,z
1/2+x,1/2+y,z
1/2-x,1/2+y,-z
1/2-x,1/2-y,-z
1/2+x,1/2-y,z
loop_
_atom_site_type_symbol
_atom_site_label
_atom_site_fract_x
_atom_site_fract_y
_atom_site_fract_z
Si Si1 0.582659 0.105578 0.231556
Si Si2 0.373127 0.608760 0.667107
Si Si3 0.853406 0.898292 0.002741
Si Si4 0.707684 0.608387 0.487454
Si Si5 0.765750 0.611799 0.649843
Si Si6 0.464142 0.702244 0.801749
O O1 0.616538 0.127589 0.320261
O O2 0.497779 0.190211 0.222742
O O3 0.528555 0.000000 0.244828
O O4 0.728835 0.110081 0.120454
O O5 0.337204 0.500000 0.696580
O O6 0.541561 0.610037 0.578429
O O7 0.291475 0.644817 0.611707
O O8 0.367448 0.669295 0.756166
O O9 0.874427 0.821574 0.921286
O O10 0.836177 0.000000 0.965424
O O11 0.000000 0.899029 0.000000
O O12 0.749215 0.500000 0.463545
O O13 0.789250 0.647948 0.541551
O O14 0.755100 0.500000 0.646762
O O15 0.612529 0.646323 0.742278
#
# Coordination Sequence:
#
# PCOD9173883 Si02
#       6
#     8   8   8   8   8   8
#     4  10  21  33  46  69  97 124 155 190 230 273
#     4   8  13  22  40  70  97 116 146 189 235 272
#     4  10  18  31  51  73  93 116 150 194 235 273
#     4   7  11  21  40  66  96 120 141 184 236 272
#     4   9  16  30  51  73  95 121 155 192 231 274
#     4  11  18  28  49  72  93 122 155 191 229 275
#
# _framework density 23.253757
#
# number of rings (size 3 to 8) (size 9 to 14) (size 15 to 20)
#    0.000    2.833    1.667    4.000    0.000    0.000 
#    0.000    0.833    0.000    3.500    0.000    9.333 
#    0.000    0.000    0.000    0.000    0.000    0.000 
#
# Total GULP energy -134004.179979 kJ/mol
# GULP energy per Si atom -5583.507499 kJ/mol
# Density = 2.320083 g / cm^3
# Si number density = 23.253757 Si / 1000 Ang^3
#
#
#
# Elastic Constant Matrix: (Units=GPa)
#
#
# Indices 1 2 3 4 5 6 
#
# 1 8.6628 29.7639 40.7779 0.0000 -13.5924 0.0000
# 2 29.7639 80.1593 30.0095 0.0000 21.4074 0.0000
# 3 40.7779 30.0095 115.8068 0.0000 14.7831 0.0000
# 4 0.0000 0.0000 0.0000 -11.8809 0.0000 6.9987
# 5 -13.5924 21.4074 14.7831 0.0000 35.1737 0.0000
# 6 0.0000 0.0000 0.0000 6.9987 0.0000 15.0562
#
#
#
# Elastic Compliance Matrix: (Units=1/GPa)
#
#
# Indices 1 2 3 4 5 6 
#
# 1 -0.033611 0.015512 0.011284 0.000000 -0.027172 0.000000
# 2 0.015512 0.008688 -0.008246 0.000000 0.004172 0.000000
# 3 0.011284 -0.008246 0.005919 0.000000 0.006892 0.000000
# 4 0.000000 0.000000 0.000000 -0.066076 0.000000 0.030715
# 5 -0.027172 0.004172 0.006892 0.000000 0.012494 0.000000
# 6 0.000000 0.000000 0.000000 0.030715 0.000000 0.052140
#
#
# Mechanical properties :
#
#
# Convention : Reuss Voigt Hill
#
# Bulk Modulus (GPa) = 55.26051 45.08128 50.17090
# Shear Modulus (GPa) = -97.06466 14.60832 -41.22817
#
# Velocity S-wave (km/s) = -6.46777 2.50914 -4.21523
# Velocity P-wave (km/s) = 5.65336 5.27476 1.43828
#
# Compressibility (1/GPa) = 0.01809611
#
# Stress axis : x y z
#
# Youngs Moduli (GPa) = -29.75247 115.09822 168.94999
#
# Poissons Ratio (x) = -1.78542 -1.90641
# Poissons Ratio (y) = 0.46152 1.39319
# Poissons Ratio (z) = 0.33572 0.94912
#
# Static dielectric constant tensor:
#      x y z
#    x 1.887930 0.000000 0.039110 
#    y 0.000000 1.907650 0.000000 
#    z 0.039110 0.000000 1.859940 
# 
# From -- ./inp_files/204558.got.cif
#   From: 2010.05.17/outbox.cif.g08.bks.cpg/sg12_103_cif.got.tgz:204558.got - 2010.06.03 13:09:07.
