data_PCOD9173587
_publ_section_title
;
Structure prediction by ZEFSAII (Michael W. Deem and Ramdas Pophale) SiO2 
 PCOD9173587
Probable space group: C 2/M
;
_chemical_formula_sum "Si O2"
_cell_formula_units_Z 56
_cell_length_a 15.313736
_cell_length_b 21.640318
_cell_length_c 18.905087
_cell_angle_alpha 90.000000
_cell_angle_beta 30.721133
_cell_angle_gamma 90.000000
_cell_volume 3200.555778
_symmetry_space_group_name_H-M "C 2/M"
_symmetry_group_IT_number 12
_symmetry_cell_setting 'monoclinic'
loop_
_space_group_symop_operation_xyz
x,y,z
-x,y,-z
-x,-y,-z
x,-y,z
1/2+x,1/2+y,z
1/2-x,1/2+y,-z
1/2-x,1/2-y,-z
1/2+x,1/2-y,z
loop_
_atom_site_type_symbol
_atom_site_label
_atom_site_fract_x
_atom_site_fract_y
_atom_site_fract_z
Si Si1 0.584076 0.690601 0.875254
Si Si2 0.323143 0.254984 0.602462
Si Si3 0.899596 0.928944 0.310371
Si Si4 0.240991 0.569998 0.261912
Si Si5 0.658698 0.671457 0.090232
Si Si6 0.974194 0.301520 0.783782
Si Si7 0.079378 0.360770 0.566211
O O1 0.741045 0.725590 0.730152
O O2 0.651360 0.623327 0.851141
O O3 0.445793 0.682118 0.910050
O O4 0.500000 0.723504 0.000000
O O5 0.500000 0.287470 0.500000
O O6 0.371947 0.197888 0.516647
O O7 0.168527 0.291981 0.674721
O O8 0.809972 0.927706 0.294554
O O9 0.757613 0.895591 0.457183
O O10 0.070978 0.888104 0.186009
O O11 0.929859 0.000000 0.307798
O O12 0.261552 0.500000 0.221907
O O13 0.047199 0.592577 0.386435
O O14 0.610932 0.733364 0.167065
O O15 0.854203 0.668675 0.928301
O O16 0.986801 0.338053 0.701878
#
# Coordination Sequence:
#
# PCOD9173587 Si02
#       7
#     8   8   8   8   8   8   8
#     4  10  18  31  46  67  97 136 172 205 236 291
#     4  11  20  34  49  73  98 130 170 212 256 302
#     4  10  19  32  51  74 107 143 174 205 243 300
#     4  10  19  30  47  70 105 144 176 203 232 286
#     4   9  19  35  47  71 101 138 179 204 255 296
#     4  10  21  33  52  70 100 139 174 215 254 301
#     4  12  18  32  49  74 101 140 174 209 249 291
#
# _framework density 17.496960999999999
#
# number of rings (size 3 to 8) (size 9 to 14) (size 15 to 20)
#    0.000    1.714    5.714    2.143    0.000    1.429 
#    0.000    4.286    0.000    0.000    0.000    0.000 
#    0.000    6.286    0.000    0.000    0.000    0.000 
#
# Total GULP energy -156089.367495 kJ/mol
# GULP energy per Si atom -5574.620268 kJ/mol
# Density = 1.745714 g / cm^3
# Si number density = 17.496961 Si / 1000 Ang^3
#
#
#
# Elastic Constant Matrix: (Units=GPa)
#
#
# Indices 1 2 3 4 5 6 
#
# 1 28.7162 18.3878 20.8363 0.0061 -9.3513 -0.0108
# 2 18.3878 73.9322 32.6948 -0.0130 -0.2496 0.0109
# 3 20.8363 32.6948 86.7662 0.0097 -2.0877 -0.0049
# 4 0.0061 -0.0130 0.0097 12.2841 -0.0020 -8.1507
# 5 -9.3513 -0.2496 -2.0877 -0.0020 32.1684 0.0043
# 6 -0.0108 0.0109 -0.0049 -8.1507 0.0043 18.8890
#
#
#
# Elastic Compliance Matrix: (Units=1/GPa)
#
#
# Indices 1 2 3 4 5 6 
#
# 1 0.051491 -0.008931 -0.008655 -0.000009 0.014337 0.000025
# 2 -0.008931 0.017782 -0.004622 0.000022 -0.002758 -0.000006
# 3 -0.008655 -0.004622 0.015308 -0.000016 -0.001558 -0.000005
# 4 -0.000009 0.000022 -0.000016 0.114064 -0.000003 0.049219
# 5 0.014337 -0.002758 -0.001558 -0.000003 0.035132 0.000000
# 6 0.000025 -0.000006 -0.000005 0.049219 0.000000 0.074179
#
#
# Mechanical properties :
#
#
# Convention : Reuss Voigt Hill
#
# Bulk Modulus (GPa) = 24.89722 37.02805 30.96263
# Shear Modulus (GPa) = 13.67017 20.50134 17.08576
#
# Velocity S-wave (km/s) = 2.79819 3.42674 3.12829
# Velocity P-wave (km/s) = 4.96992 6.07167 5.54821
#
# Compressibility (1/GPa) = 0.04016513
#
# Stress axis : x y z
#
# Youngs Moduli (GPa) = 19.42083 56.23733 65.32572
#
# Poissons Ratio (x) = 0.50223 0.56540
# Poissons Ratio (y) = 0.17344 0.30195
# Poissons Ratio (z) = 0.16809 0.25994
#
# Static dielectric constant tensor:
#      x y z
#    x 1.621680 0.000000 -0.011560 
#    y 0.000000 1.599300 0.000010 
#    z -0.011560 0.000010 1.660920 
# 
# From -- ./inp_files/317672.got.cif
#   From: 2010.05.17/outbox.cif.g08.bks.cpg/sg12_159_cif.got.tgz:317672.got - 2010.06.03 13:09:07.
