data_PCOD9173659
_publ_section_title
;
Structure prediction by ZEFSAII (Michael W. Deem and Ramdas Pophale) SiO2 
 PCOD9173659
Probable space group: C 2/M
;
_chemical_formula_sum "Si O2"
_cell_formula_units_Z 48
_cell_length_a 19.046197
_cell_length_b 18.922193
_cell_length_c 12.195629
_cell_angle_alpha 90.000000
_cell_angle_beta 43.133259
_cell_angle_gamma 90.000000
_cell_volume 3005.023950
_symmetry_space_group_name_H-M "C 2/M"
_symmetry_group_IT_number 12
_symmetry_cell_setting 'monoclinic'
loop_
_space_group_symop_operation_xyz
x,y,z
-x,y,-z
-x,-y,-z
x,-y,z
1/2+x,1/2+y,z
1/2-x,1/2+y,-z
1/2-x,1/2-y,-z
1/2+x,1/2-y,z
loop_
_atom_site_type_symbol
_atom_site_label
_atom_site_fract_x
_atom_site_fract_y
_atom_site_fract_z
Si Si1 0.620725 0.916807 0.041918
Si Si2 0.112735 0.264154 0.412374
Si Si3 0.255684 0.825519 0.930049
Si Si4 0.304145 0.173198 0.233432
Si Si5 0.439884 0.701271 0.967414
Si Si6 0.928242 0.684293 0.302142
O O1 0.701156 0.883133 0.036135
O O2 0.513995 0.875889 0.186450
O O3 0.610077 0.000000 0.065255
O O4 0.661286 0.894476 0.875334
O O5 0.165149 0.312207 0.259190
O O6 0.188211 0.197857 0.345650
O O7 0.104229 0.306218 0.536002
O O8 0.000000 0.243614 0.500000
O O9 0.143948 0.841032 0.006531
O O10 0.250000 0.750000 0.000000
O O11 0.373694 0.236227 0.101496
O O12 0.335430 0.169573 0.324370
O O13 0.500000 0.665547 0.000000
O O14 0.517561 0.742429 0.798657
#
# Coordination Sequence:
#
# PCOD9173659 Si02
#       6
#     8   8   8   8   8   8
#     4  11  21  34  54  78 106 142 176 210 257 320
#     4  11  18  29  52  78 104 132 167 220 267 296
#     4  11  17  33  51  73 105 137 177 216 256 306
#     4   9  19  31  49  74 106 136 174 211 251 309
#     4   8  15  28  49  72  98 129 171 220 254 293
#     4  10  18  31  48  79 104 132 170 213 266 306
#
# _framework density 15.973250999999999
#
# number of rings (size 3 to 8) (size 9 to 14) (size 15 to 20)
#    0.000    2.000    6.667    2.000    0.000    1.333 
#    0.000    1.667    0.000    1.000    0.000    0.000 
#    0.000    0.000    0.000    0.000    0.000    0.000 
#
# Total GULP energy -133752.344959 kJ/mol
# GULP energy per Si atom -5573.014373 kJ/mol
# Density = 1.593690 g / cm^3
# Si number density = 15.973251 Si / 1000 Ang^3
#
#
#
# Elastic Constant Matrix: (Units=GPa)
#
#
# Indices 1 2 3 4 5 6 
#
# 1 98.9264 2.8236 32.5522 0.0000 8.3181 0.0000
# 2 2.8236 37.9093 15.9429 0.0000 6.1205 0.0000
# 3 32.5522 15.9429 88.9450 0.0000 17.1068 0.0000
# 4 0.0000 0.0000 0.0000 8.9533 0.0000 1.2090
# 5 8.3181 6.1205 17.1068 0.0000 27.5856 0.0000
# 6 0.0000 0.0000 0.0000 1.2090 0.0000 11.2073
#
#
#
# Elastic Compliance Matrix: (Units=1/GPa)
#
#
# Indices 1 2 3 4 5 6 
#
# 1 0.011557 0.001090 -0.004210 0.000000 -0.001116 0.000000
# 2 0.001090 0.028948 -0.004870 0.000000 -0.003731 0.000000
# 3 -0.004210 -0.004870 0.014993 0.000000 -0.006948 0.000000
# 4 0.000000 0.000000 0.000000 0.113342 0.000000 -0.012227
# 5 -0.001116 -0.003731 -0.006948 0.000000 0.041723 0.000000
# 6 0.000000 0.000000 0.000000 -0.012227 0.000000 0.090547
#
#
# Mechanical properties :
#
#
# Convention : Reuss Voigt Hill
#
# Bulk Modulus (GPa) = 25.30558 36.49090 30.89824
# Shear Modulus (GPa) = 15.13946 21.18004 18.15975
#
# Velocity S-wave (km/s) = 3.08198 3.64534 3.37543
# Velocity P-wave (km/s) = 5.34244 6.37280 5.88023
#
# Compressibility (1/GPa) = 0.03951697
#
# Stress axis : x y z
#
# Youngs Moduli (GPa) = 86.53027 34.54455 66.69796
#
# Poissons Ratio (x) = -0.03765 0.28082
# Poissons Ratio (y) = -0.09432 0.32482
# Poissons Ratio (z) = 0.36432 0.16823
#
# Static dielectric constant tensor:
#      x y z
#    x 1.593590 0.000000 0.000010 
#    y 0.000000 1.493550 0.000000 
#    z 0.000010 0.000000 1.545350 
# 
# From -- ./inp_files/146532.got.cif
#   From: 2010.05.17/outbox.cif.g08.bks.cpg/sg12_74_cif.got.tgz:146532.got - 2010.06.03 13:09:07.
