data_PCOD9173997
_publ_section_title
;
Structure prediction by ZEFSAII (Michael W. Deem and Ramdas Pophale) SiO2 
 PCOD9173997
Probable space group: C 2/M
;
_chemical_formula_sum "Si O2"
_cell_formula_units_Z 56
_cell_length_a 16.075455
_cell_length_b 22.140153
_cell_length_c 12.326125
_cell_angle_alpha 90.000000
_cell_angle_beta 136.003210
_cell_angle_gamma 90.000000
_cell_volume 3047.309288
_symmetry_space_group_name_H-M "C 2/M"
_symmetry_group_IT_number 12
_symmetry_cell_setting 'monoclinic'
loop_
_space_group_symop_operation_xyz
x,y,z
-x,y,-z
-x,-y,-z
x,-y,z
1/2+x,1/2+y,z
1/2-x,1/2+y,-z
1/2-x,1/2-y,-z
1/2+x,1/2-y,z
loop_
_atom_site_type_symbol
_atom_site_label
_atom_site_fract_x
_atom_site_fract_y
_atom_site_fract_z
Si Si1 0.746553 0.430177 0.838674
Si Si2 0.962793 0.287124 0.294133
Si Si3 0.077964 0.324788 0.969602
Si Si4 0.785176 0.258489 0.407875
Si Si5 0.197398 0.201689 0.115734
Si Si6 0.881271 0.129269 0.463426
Si Si7 0.057304 0.852449 0.797384
O O1 0.761004 0.500000 0.878210
O O2 0.864178 0.389697 0.960103
O O3 0.694296 0.421941 0.667704
O O4 0.653615 0.396484 0.831918
O O5 0.835280 0.312433 0.214032
O O6 0.944928 0.215381 0.255098
O O7 0.084146 0.289624 0.476752
O O8 0.992535 0.319399 0.208373
O O9 0.173371 0.270132 0.051298
O O10 0.000000 0.309588 0.000000
O O11 0.750000 0.250000 0.500000
O O12 0.694330 0.293333 0.243595
O O13 0.805488 0.190654 0.383251
O O14 0.102897 0.159844 0.962931
O O15 0.000000 0.135763 0.500000
O O16 0.929799 0.122524 0.632153
#
# Coordination Sequence:
#
# PCOD9173997 Si02
#       7
#     8   8   8   8   8   8   8
#     4  11  20  33  53  76 107 149 184 221 268 315
#     4  10  18  31  52  73 102 146 171 211 276 327
#     4  11  20  32  50  77 111 144 176 220 267 332
#     4  11  20  29  48  82 108 136 170 218 277 340
#     4  11  17  33  53  71 106 144 171 217 282 326
#     4   9  18  33  49  71 109 139 171 223 262 318
#     4   9  17  31  50  74  99 136 179 216 262 326
#
# _framework density 18.376868000000002
#
# number of rings (size 3 to 8) (size 9 to 14) (size 15 to 20)
#    0.000    1.714    4.286    3.857    0.000    2.857 
#    0.000    0.000    0.000    0.000    0.000    3.000 
#    0.000   38.857    0.000    0.000    0.000    0.000 
#
# Total GULP energy -155952.379419 kJ/mol
# GULP energy per Si atom -5569.727836 kJ/mol
# Density = 1.833504 g / cm^3
# Si number density = 18.376868 Si / 1000 Ang^3
#
#
#
# Elastic Constant Matrix: (Units=GPa)
#
#
# Indices 1 2 3 4 5 6 
#
# 1 29.2895 14.9301 11.7421 0.0000 -4.9184 0.0000
# 2 14.9301 67.0589 35.6960 0.0000 1.6112 0.0000
# 3 11.7421 35.6960 131.4613 0.0000 -14.2120 0.0000
# 4 0.0000 0.0000 0.0000 17.4574 0.0000 0.8121
# 5 -4.9184 1.6112 -14.2120 0.0000 24.6929 0.0000
# 6 0.0000 0.0000 0.0000 0.8121 0.0000 4.4509
#
#
#
# Elastic Compliance Matrix: (Units=1/GPa)
#
#
# Indices 1 2 3 4 5 6 
#
# 1 0.040269 -0.009051 -0.000222 0.000000 0.008484 0.000000
# 2 -0.009051 0.019868 -0.005248 0.000000 -0.006120 0.000000
# 3 -0.000222 -0.005248 0.009687 0.000000 0.005873 0.000000
# 4 0.000000 0.000000 0.000000 0.057773 0.000000 -0.010541
# 5 0.008484 -0.006120 0.005873 0.000000 0.045967 0.000000
# 6 0.000000 0.000000 0.000000 -0.010541 0.000000 0.226599
#
#
# Mechanical properties :
#
#
# Convention : Reuss Voigt Hill
#
# Bulk Modulus (GPa) = 24.52088 39.17180 31.84634
# Shear Modulus (GPa) = 11.29180 20.34966 15.82073
#
# Velocity S-wave (km/s) = 2.48151 3.33130 2.93730
# Velocity P-wave (km/s) = 4.64574 6.01322 5.37316
#
# Compressibility (1/GPa) = 0.04078157
#
# Stress axis : x y z
#
# Youngs Moduli (GPa) = 24.83270 50.33212 103.23575
#
# Poissons Ratio (x) = 0.45557 0.02291
# Poissons Ratio (y) = 0.22477 0.54177
# Poissons Ratio (z) = 0.00551 0.26414
#
# Static dielectric constant tensor:
#      x y z
#    x 1.704580 0.000000 -0.010570 
#    y 0.000000 1.570880 0.000000 
#    z -0.010570 0.000000 1.747940 
# 
# From -- ./inp_files/160083.got.cif
#   From: 2010.05.17/outbox.cif.g08.bks.cpg/sg12_81_cif.got.tgz:160083.got - 2010.06.03 13:09:07.
