data_PCOD9173173
_publ_section_title
;
Structure prediction by ZEFSAII (Michael W. Deem and Ramdas Pophale) SiO2 
 PCOD9173173
Probable space group: C 2/M
;
_chemical_formula_sum "Si O2"
_cell_formula_units_Z 64
_cell_length_a 20.994106
_cell_length_b 8.884775
_cell_length_c 24.932573
_cell_angle_alpha 90.000000
_cell_angle_beta 52.949195
_cell_angle_gamma 90.000000
_cell_volume 3711.667615
_symmetry_space_group_name_H-M "C 2/M"
_symmetry_group_IT_number 12
_symmetry_cell_setting 'monoclinic'
loop_
_space_group_symop_operation_xyz
x,y,z
-x,y,-z
-x,-y,-z
x,-y,z
1/2+x,1/2+y,z
1/2-x,1/2+y,-z
1/2-x,1/2-y,-z
1/2+x,1/2-y,z
loop_
_atom_site_type_symbol
_atom_site_label
_atom_site_fract_x
_atom_site_fract_y
_atom_site_fract_z
Si Si1 0.576479 0.673917 0.501393
Si Si2 0.399301 0.181802 0.786213
Si Si3 0.572420 0.818512 0.003006
Si Si4 0.324909 0.179604 0.636300
Si Si5 0.838505 0.181108 0.227504
Si Si6 0.285193 0.681266 0.134215
Si Si7 0.543489 0.681148 0.351135
Si Si8 0.511268 0.181394 0.150581
O O1 0.500000 0.677420 0.500000
O O2 0.601874 0.500000 0.492744
O O3 0.644064 0.768917 0.437561
O O4 0.538506 0.725868 0.576810
O O5 0.306397 0.226367 0.828777
O O6 0.446893 0.255710 0.713095
O O7 0.436553 0.224571 0.824403
O O8 0.402967 0.000000 0.778952
O O9 0.550620 0.770059 0.074301
O O10 0.577998 0.000000 0.999147
O O11 0.500000 0.774435 0.000000
O O12 0.653766 0.750393 0.939162
O O13 0.234419 0.222701 0.696336
O O14 0.383402 0.254595 0.650505
O O15 0.332142 0.000000 0.638042
O O16 0.812960 0.225552 0.179999
O O17 0.922432 0.253960 0.199150
O O18 0.846251 0.000000 0.224404
O O19 0.288823 0.500000 0.129276
O O20 0.547104 0.500000 0.350262
O O21 0.506639 0.000000 0.151661
#
# Coordination Sequence:
#
# PCOD9173173 Si02
#       8
#     8   8   8   8   8   8   8   8
#     4   8  16  29  44  72 109 139 171 216 265 309
#     4  10  21  38  55  76 108 141 177 218 265 318
#     4  10  20  35  54  79 107 135 173 218 262 313
#     4  10  18  30  50  78 108 140 177 219 263 308
#     4  10  20  34  53  78 107 137 175 219 261 309
#     4  10  20  35  55  78 104 138 174 215 264 311
#     4  10  19  31  50  76 108 142 175 216 265 312
#     4  10  22  38  56  77 105 141 176 218 267 315
#
# _framework density 17.242923999999999
#
# number of rings (size 3 to 8) (size 9 to 14) (size 15 to 20)
#    0.000    2.250    2.500    1.500    0.000    6.000 
#    0.000    0.000    0.000    0.750    0.000    0.000 
#    0.000    0.000    0.000    0.000    0.000    0.000 
#
# Total GULP energy -178493.863080 kJ/mol
# GULP energy per Si atom -5577.933221 kJ/mol
# Density = 1.720368 g / cm^3
# Si number density = 17.242924 Si / 1000 Ang^3
#
#
#
# Elastic Constant Matrix: (Units=GPa)
#
#
# Indices 1 2 3 4 5 6 
#
# 1 90.4897 20.6888 56.8456 -0.0002 4.5692 0.0000
# 2 20.6888 17.8964 35.3246 -0.0003 0.1051 -0.0005
# 3 56.8456 35.3246 166.2674 0.0000 -0.4760 0.0000
# 4 -0.0002 -0.0003 0.0000 36.2525 0.0000 -6.6059
# 5 4.5692 0.1051 -0.4760 0.0000 22.2324 -0.0001
# 6 0.0000 -0.0005 0.0000 -6.6059 -0.0001 21.8875
#
#
#
# Elastic Compliance Matrix: (Units=1/GPa)
#
#
# Indices 1 2 3 4 5 6 
#
# 1 0.015878 -0.013093 -0.002656 0.000000 -0.003258 0.000000
# 2 -0.013093 0.107048 -0.018261 0.000001 0.001794 0.000003
# 3 -0.002656 -0.018261 0.010805 0.000000 0.000864 -0.000001
# 4 0.000000 0.000001 0.000000 0.029190 0.000000 0.008810
# 5 -0.003258 0.001794 0.000864 0.000000 0.045659 0.000000
# 6 0.000000 0.000003 -0.000001 0.008810 0.000000 0.048347
#
#
# Mechanical properties :
#
#
# Convention : Reuss Voigt Hill
#
# Bulk Modulus (GPa) = 15.21870 55.59684 35.40777
# Shear Modulus (GPa) = 14.41546 26.86077 20.63812
#
# Velocity S-wave (km/s) = 2.89454 3.95116 3.46338
# Velocity P-wave (km/s) = 4.47397 7.28895 6.04753
#
# Compressibility (1/GPa) = 0.06570864
#
# Stress axis : x y z
#
# Youngs Moduli (GPa) = 62.98201 9.34163 92.55261
#
# Poissons Ratio (x) = 0.12231 0.24582
# Poissons Ratio (y) = 0.82465 1.69013
# Poissons Ratio (z) = 0.16728 0.17059
#
# Static dielectric constant tensor:
#      x y z
#    x 1.558650 0.000000 0.010200 
#    y 0.000000 1.580510 0.000000 
#    z 0.010200 0.000000 1.596280 
# 
# From -- ./inp_files/345923.got.cif
#   From: 2010.05.17/outbox.cif.g08.bks.cpg/sg12_173_cif.got.tgz:345923.got - 2010.06.03 13:09:07.
