data_PCOD9173397
_publ_section_title
;
Structure prediction by ZEFSAII (Michael W. Deem and Ramdas Pophale) SiO2 
 PCOD9173397
Probable space group: C 2/M
;
_chemical_formula_sum "Si O2"
_cell_formula_units_Z 60
_cell_length_a 18.824329
_cell_length_b 13.420045
_cell_length_c 18.672368
_cell_angle_alpha 90.000000
_cell_angle_beta 127.817397
_cell_angle_gamma 90.000000
_cell_volume 3726.343235
_symmetry_space_group_name_H-M "C 2/M"
_symmetry_group_IT_number 12
_symmetry_cell_setting 'monoclinic'
loop_
_space_group_symop_operation_xyz
x,y,z
-x,y,-z
-x,-y,-z
x,-y,z
1/2+x,1/2+y,z
1/2-x,1/2+y,-z
1/2-x,1/2-y,-z
1/2+x,1/2-y,z
loop_
_atom_site_type_symbol
_atom_site_label
_atom_site_fract_x
_atom_site_fract_y
_atom_site_fract_z
Si Si1 0.462979 0.380030 0.614599
Si Si2 0.655772 0.382043 0.810005
Si Si3 0.645293 0.381209 0.971665
Si Si4 0.225992 0.794547 0.157371
Si Si5 0.667372 0.881277 0.647042
Si Si6 0.500000 0.251271 0.500000
Si Si7 0.166063 0.116452 0.343877
Si Si8 0.561235 0.383745 0.132883
O O1 0.455133 0.500000 0.599766
O O2 0.557953 0.363506 0.714360
O O3 0.464732 0.321702 0.541651
O O4 0.381398 0.342805 0.614783
O O5 0.673847 0.500000 0.814892
O O6 0.653620 0.355738 0.893120
O O7 0.730867 0.314701 0.818369
O O8 0.655580 0.500000 0.983258
O O9 0.543394 0.358925 0.934298
O O10 0.714721 0.331821 0.069137
O O11 0.290153 0.859751 0.248620
O O12 0.127828 0.811501 0.131567
O O13 0.578059 0.819078 0.579163
O O14 0.742171 0.845401 0.634957
O O15 0.654229 0.000000 0.631208
O O16 0.092807 0.119835 0.234866
O O17 0.183224 0.000000 0.369105
O O18 0.574707 0.500000 0.117420
#
# Coordination Sequence:
#
# PCOD9173397 Si02
#       8
#     8   8   8   8   8   4   8   8
#     4  10  19  35  54  74  98 126 169 217 249 286
#     4  10  20  34  50  72 103 135 165 202 250 295
#     4  10  18  30  52  80 105 130 162 204 249 293
#     4  11  19  31  49  78 105 130 165 202 245 298
#     4  10  21  35  51  75 104 134 162 200 252 304
#     4  12  22  34  52  76 102 132 168 202 254 300
#     4   8  15  31  53  72  98 130 161 201 250 293
#     4   9  16  28  50  79 105 128 158 204 252 290
#
# _framework density 16.101576000000001
#
# number of rings (size 3 to 8) (size 9 to 14) (size 15 to 20)
#    0.000    2.133    2.667    3.200    0.000    1.600 
#    0.000    0.000    0.000    1.600    0.000    7.467 
#    0.000    0.000    0.000    0.000    0.000    0.000 
#
# Total GULP energy -167130.704605 kJ/mol
# GULP energy per Si atom -5571.023487 kJ/mol
# Density = 1.606493 g / cm^3
# Si number density = 16.101576 Si / 1000 Ang^3
#
#
#
# Elastic Constant Matrix: (Units=GPa)
#
#
# Indices 1 2 3 4 5 6 
#
# 1 43.0534 27.0044 2.1138 0.0000 2.1057 0.0000
# 2 27.0044 45.3193 11.4200 0.0000 0.6637 0.0000
# 3 2.1138 11.4200 45.9000 0.0000 -1.8268 0.0000
# 4 0.0000 0.0000 0.0000 21.4954 0.0000 -1.2899
# 5 2.1057 0.6637 -1.8268 0.0000 25.5067 0.0000
# 6 0.0000 0.0000 0.0000 -1.2899 0.0000 14.0450
#
#
#
# Elastic Compliance Matrix: (Units=1/GPa)
#
#
# Indices 1 2 3 4 5 6 
#
# 1 0.037932 -0.023586 0.004033 0.000000 -0.002229 0.000000
# 2 -0.023586 0.038235 -0.008413 0.000000 0.000350 0.000000
# 3 0.004033 -0.008413 0.023757 0.000000 0.001588 0.000000
# 4 0.000000 0.000000 0.000000 0.046779 0.000000 0.004296
# 5 -0.002229 0.000350 0.001588 0.000000 0.039494 0.000000
# 6 0.000000 0.000000 0.000000 0.004296 0.000000 0.071594
#
#
# Mechanical properties :
#
#
# Convention : Reuss Voigt Hill
#
# Bulk Modulus (GPa) = 22.73168 23.92766 23.32967
# Shear Modulus (GPa) = 15.22592 18.45838 16.84215
#
# Velocity S-wave (km/s) = 3.07842 3.38948 3.23769
# Velocity P-wave (km/s) = 5.17532 5.49644 5.33829
#
# Compressibility (1/GPa) = 0.04399147
#
# Stress axis : x y z
#
# Youngs Moduli (GPa) = 26.36306 26.15429 42.09277
#
# Poissons Ratio (x) = 0.61688 -0.16975
# Poissons Ratio (y) = 0.62180 0.35412
# Poissons Ratio (z) = -0.10631 0.22003
#
# Static dielectric constant tensor:
#      x y z
#    x 1.553790 0.000000 -0.017030 
#    y 0.000000 1.512830 0.000000 
#    z -0.017030 0.000000 1.552400 
# 
# From -- ./inp_files/277029.got.cif
#   From: 2010.05.17/outbox.cif.g08.bks.cpg/sg12_139_cif.got.tgz:277029.got - 2010.06.03 13:09:07.
