data_PCOD9173791
_publ_section_title
;
Structure prediction by ZEFSAII (Michael W. Deem and Ramdas Pophale) SiO2 
 PCOD9173791
Probable space group: C 2/M
;
_chemical_formula_sum "Si O2"
_cell_formula_units_Z 48
_cell_length_a 13.391901
_cell_length_b 18.239207
_cell_length_c 12.839873
_cell_angle_alpha 90.000000
_cell_angle_beta 69.492480
_cell_angle_gamma 90.000000
_cell_volume 2937.482043
_symmetry_space_group_name_H-M "C 2/M"
_symmetry_group_IT_number 12
_symmetry_cell_setting 'monoclinic'
loop_
_space_group_symop_operation_xyz
x,y,z
-x,y,-z
-x,-y,-z
x,-y,z
1/2+x,1/2+y,z
1/2-x,1/2+y,-z
1/2-x,1/2-y,-z
1/2+x,1/2-y,z
loop_
_atom_site_type_symbol
_atom_site_label
_atom_site_fract_x
_atom_site_fract_y
_atom_site_fract_z
Si Si1 0.879322 0.247125 0.570089
Si Si2 0.816733 0.840862 0.389267
Si Si3 0.144849 0.000000 0.338462
Si Si4 0.392644 0.500000 0.400660
Si Si5 0.591187 0.256252 0.837388
Si Si6 0.211117 0.849282 0.217746
Si Si7 0.640032 0.293750 0.037307
O O1 0.842804 0.188858 0.495151
O O2 0.804786 0.318079 0.588343
O O3 0.858755 0.207715 0.687654
O O4 0.000000 0.264467 0.500000
O O5 0.882577 0.793304 0.281689
O O6 0.846199 0.925432 0.370353
O O7 0.138524 0.000000 0.465722
O O8 0.202257 0.072498 0.275273
O O9 0.021103 0.000000 0.347120
O O10 0.669740 0.186371 0.823671
O O11 0.464368 0.245931 0.894106
O O12 0.621050 0.311039 0.922605
O O13 0.159704 0.852494 0.121170
O O14 0.750000 0.250000 0.000000
#
# Coordination Sequence:
#
# PCOD9173791 Si02
#       7
#     8   8   4   4   8   8   8
#     4  10  18  31  50  73  97 129 167 204 243 289
#     4  10  20  31  49  74 100 130 162 203 246 291
#     4  11  20  30  49  72 103 135 158 204 251 291
#     4  11  20  32  46  71 105 133 163 203 246 292
#     4   9  18  32  50  73  98 127 163 204 241 287
#     4  10  19  31  49  75 101 127 164 200 248 292
#     4   9  17  31  52  73  94 123 162 205 243 283
#
# _framework density 16.340526000000001
#
# number of rings (size 3 to 8) (size 9 to 14) (size 15 to 20)
#    0.000    2.167    1.667    3.000    0.000    0.000 
#    0.000    1.250    0.000   11.000    0.000    0.000 
#    0.000    0.000    0.000    0.000    0.000    0.000 
#
# Total GULP energy -133611.912438 kJ/mol
# GULP energy per Si atom -5567.163018 kJ/mol
# Density = 1.630333 g / cm^3
# Si number density = 16.340526 Si / 1000 Ang^3
#
#
#
# Elastic Constant Matrix: (Units=GPa)
#
#
# Indices 1 2 3 4 5 6 
#
# 1 79.4179 29.8024 14.5998 0.0000 -23.8120 0.0000
# 2 29.8024 81.4825 6.7256 0.0000 -5.7101 0.0000
# 3 14.5998 6.7256 53.5299 0.0000 -1.3951 0.0000
# 4 0.0000 0.0000 0.0000 11.0931 0.0000 3.8004
# 5 -23.8120 -5.7101 -1.3951 0.0000 37.0547 0.0000
# 6 0.0000 0.0000 0.0000 3.8004 0.0000 10.2975
#
#
#
# Elastic Compliance Matrix: (Units=1/GPa)
#
#
# Indices 1 2 3 4 5 6 
#
# 1 0.018831 -0.005772 -0.004122 0.000000 0.011056 0.000000
# 2 -0.005772 0.014299 -0.000262 0.000000 -0.001516 0.000000
# 3 -0.004122 -0.000262 0.019788 0.000000 -0.001945 0.000000
# 4 0.000000 0.000000 0.000000 0.103193 0.000000 -0.038084
# 5 0.011056 -0.001516 -0.001945 0.000000 0.033785 0.000000
# 6 0.000000 0.000000 0.000000 -0.038084 0.000000 0.111166
#
#
# Mechanical properties :
#
#
# Convention : Reuss Voigt Hill
#
# Bulk Modulus (GPa) = 30.67063 35.18732 32.92898
# Shear Modulus (GPa) = 15.04921 22.57590 18.81255
#
# Velocity S-wave (km/s) = 3.03805 3.72101 3.39674
# Velocity P-wave (km/s) = 5.57824 6.32785 5.96483
#
# Compressibility (1/GPa) = 0.03260448
#
# Stress axis : x y z
#
# Youngs Moduli (GPa) = 53.10518 69.93403 50.53634
#
# Poissons Ratio (x) = 0.40368 0.20833
# Poissons Ratio (y) = 0.30654 0.01323
# Poissons Ratio (z) = 0.21892 0.01831
#
# Static dielectric constant tensor:
#      x y z
#    x 1.575750 0.000000 0.011890 
#    y 0.000000 1.503810 0.000000 
#    z 0.011890 0.000000 1.591590 
# 
# From -- ./inp_files/205608.got.cif
#   From: 2010.05.17/outbox.cif.g08.bks.cpg/sg12_103_cif.got.tgz:205608.got - 2010.06.03 13:09:07.
