data_PCOD9173198
_publ_section_title
;
Structure prediction by ZEFSAII (Michael W. Deem and Ramdas Pophale) SiO2 
 PCOD9173198
Probable space group: C 2/M
;
_chemical_formula_sum "Si O2"
_cell_formula_units_Z 34
_cell_length_a 20.732619
_cell_length_b 7.472956
_cell_length_c 9.636877
_cell_angle_alpha 90.000000
_cell_angle_beta 91.181638
_cell_angle_gamma 90.000000
_cell_volume 1492.761902
_symmetry_space_group_name_H-M "C 2/M"
_symmetry_group_IT_number 12
_symmetry_cell_setting 'monoclinic'
loop_
_space_group_symop_operation_xyz
x,y,z
-x,y,-z
-x,-y,-z
x,-y,z
1/2+x,1/2+y,z
1/2-x,1/2+y,-z
1/2-x,1/2-y,-z
1/2+x,1/2-y,z
loop_
_atom_site_type_symbol
_atom_site_label
_atom_site_fract_x
_atom_site_fract_y
_atom_site_fract_z
Si Si1 0.500000 0.000000 0.500000
Si Si2 0.421680 0.293295 0.384082
Si Si3 0.836274 0.788915 0.873443
Si Si4 0.194805 0.715005 0.809966
Si Si5 0.022685 0.217980 0.153399
O O1 0.443283 0.157639 0.502038
O O2 0.433380 0.500000 0.420016
O O3 0.350623 0.278428 0.316138
O O4 0.469485 0.227213 0.262091
O O5 0.768634 0.717230 0.812281
O O6 0.904367 0.717111 0.823885
O O7 0.836403 0.000000 0.842327
O O8 0.833517 0.770137 0.040926
O O9 0.195352 0.500000 0.807878
O O10 0.022893 0.000000 0.156058
O O11 0.000000 0.273132 0.000000
#
# Coordination Sequence:
#
# PCOD9173198 Si02
#       5
#     2   8   8   8   8
#     4  12  26  44  58  86 108 152 212 252 272 330
#     4  11  22  39  63  84 113 151 196 243 290 333
#     4   9  17  30  51  82 124 155 181 218 288 361
#     4  10  18  30  50  85 122 154 185 227 279 355
#     4   9  16  30  55  87 117 148 182 229 294 357
#
# _framework density 22.776572999999999
#
# number of rings (size 3 to 8) (size 9 to 14) (size 15 to 20)
#    0.000    2.118    3.529    1.059    0.000    0.941 
#    2.118    1.765    0.000    1.412    0.000    0.000 
#    0.000    0.000    0.000    0.000    0.000    0.000 
#
# Total GULP energy -94712.938560 kJ/mol
# GULP energy per Si atom -5571.349327 kJ/mol
# Density = 2.272473 g / cm^3
# Si number density = 22.776573 Si / 1000 Ang^3
#
#
#
# Elastic Constant Matrix: (Units=GPa)
#
#
# Indices 1 2 3 4 5 6 
#
# 1 123.2045 18.6879 27.7965 0.0000 33.1012 0.0000
# 2 18.6879 91.5176 8.9166 0.0000 7.5694 0.0000
# 3 27.7965 8.9166 59.1259 0.0000 30.9853 0.0000
# 4 0.0000 0.0000 0.0000 -2.2826 0.0000 17.3943
# 5 33.1012 7.5694 30.9853 0.0000 45.1544 0.0000
# 6 0.0000 0.0000 0.0000 17.3943 0.0000 6.3645
#
#
#
# Elastic Compliance Matrix: (Units=1/GPa)
#
#
# Indices 1 2 3 4 5 6 
#
# 1 0.010365 -0.001458 -0.001248 0.000000 -0.006497 0.000000
# 2 -0.001458 0.011331 -0.000918 0.000000 -0.000201 0.000000
# 3 -0.001248 -0.000918 0.026668 0.000000 -0.017231 0.000000
# 4 0.000000 0.000000 0.000000 -0.020072 0.000000 0.054856
# 5 -0.006497 -0.000201 -0.017231 0.000000 0.038767 0.000000
# 6 0.000000 0.000000 0.000000 0.054856 0.000000 0.007199
#
#
# Mechanical properties :
#
#
# Convention : Reuss Voigt Hill
#
# Bulk Modulus (GPa) = 24.32124 42.73889 33.53006
# Shear Modulus (GPa) = 52.51504 24.41040 38.46272
#
# Velocity S-wave (km/s) = 4.80694 3.27728 4.11383
# Velocity P-wave (km/s) = 6.44284 5.75551 6.10885
#
# Compressibility (1/GPa) = 0.04111633
#
# Stress axis : x y z
#
# Youngs Moduli (GPa) = 96.47954 88.25691 37.49759
#
# Poissons Ratio (x) = 0.12864 0.04679
# Poissons Ratio (y) = 0.14062 0.03443
# Poissons Ratio (z) = 0.12040 0.08104
#
# Static dielectric constant tensor:
#      x y z
#    x 1.858850 0.000000 0.010070 
#    y 0.000000 1.856020 0.000000 
#    z 0.010070 0.000000 1.926420 
# 
# From -- ./inp_files/161840.got.cif
#   From: 2010.05.17/outbox.cif.g08.bks.cpg/sg12_81_cif.got.tgz:161840.got - 2010.06.03 13:09:07.
