data_PCOD9173221
_publ_section_title
;
Structure prediction by ZEFSAII (Michael W. Deem and Ramdas Pophale) SiO2 
 PCOD9173221
Probable space group: C 2/M
;
_chemical_formula_sum "Si O2"
_cell_formula_units_Z 64
_cell_length_a 12.183935
_cell_length_b 13.007269
_cell_length_c 21.290651
_cell_angle_alpha 90.000000
_cell_angle_beta 69.743701
_cell_angle_gamma 90.000000
_cell_volume 3165.457136
_symmetry_space_group_name_H-M "C 2/M"
_symmetry_group_IT_number 12
_symmetry_cell_setting 'monoclinic'
loop_
_space_group_symop_operation_xyz
x,y,z
-x,y,-z
-x,-y,-z
x,-y,z
1/2+x,1/2+y,z
1/2-x,1/2+y,-z
1/2-x,1/2-y,-z
1/2+x,1/2-y,z
loop_
_atom_site_type_symbol
_atom_site_label
_atom_site_fract_x
_atom_site_fract_y
_atom_site_fract_z
Si Si1 0.990585 0.884322 0.927372
Si Si2 0.989181 0.886980 0.415888
Si Si3 0.756525 0.885561 0.188833
Si Si4 0.752605 0.827884 0.597936
Si Si5 0.383773 0.822120 0.494187
Si Si6 0.943391 0.111264 0.738433
Si Si7 0.194642 0.317260 0.749561
Si Si8 0.952495 0.716182 0.840150
O O1 0.120616 0.883924 0.872141
O O2 0.930189 0.786790 0.905598
O O3 0.940499 0.000000 0.925602
O O4 0.000000 0.870744 0.000000
O O5 0.124867 0.883052 0.410580
O O6 0.991659 0.875266 0.340416
O O7 0.928613 0.788146 0.457531
O O8 0.940924 0.000000 0.441126
O O9 0.765725 0.798999 0.240500
O O10 0.654599 0.853507 0.160505
O O11 0.735132 0.000000 0.217595
O O12 0.681159 0.871055 0.552497
O O13 0.794837 0.713634 0.566531
O O14 0.682141 0.828474 0.677061
O O15 0.500000 0.872467 0.500000
O O16 0.805545 0.116587 0.749798
O O17 0.969580 0.199725 0.781686
O O18 0.974378 0.000000 0.759087
O O19 0.077498 0.340819 0.812167
#
# Coordination Sequence:
#
# PCOD9173221 Si02
#       8
#     8   8   8   8   8   8   8   8
#     4   9  18  33  52  75 103 133 164 197 234 277
#     4   9  17  29  47  69  90 114 150 198 244 286
#     4   9  19  34  51  73  99 126 159 199 239 283
#     4   9  17  29  44  63  89 118 149 187 233 284
#     4   9  17  28  44  64  86 116 151 188 232 281
#     4   9  17  29  46  71  97 120 156 202 244 287
#     4   9  18  31  47  68  94 123 156 193 238 287
#     4  10  18  30  51  73  98 131 163 197 236 281
#
# _framework density 20.218249
#
# number of rings (size 3 to 8) (size 9 to 14) (size 15 to 20)
#    0.000    2.875    0.000    1.125    0.000    4.750 
#    0.000    0.625    0.000    1.500    0.000    2.625 
#    0.000    0.000    0.000    0.000    0.000    0.000 
#
# Total GULP energy -178380.862332 kJ/mol
# GULP energy per Si atom -5574.401948 kJ/mol
# Density = 2.017223 g / cm^3
# Si number density = 20.218249 Si / 1000 Ang^3
#
#
#
# Elastic Constant Matrix: (Units=GPa)
#
#
# Indices 1 2 3 4 5 6 
#
# 1 68.3723 -4.5430 -10.4256 0.0000 7.4678 0.0000
# 2 -4.5430 62.4415 1.9471 0.0000 -2.0322 0.0000
# 3 -10.4256 1.9471 59.6091 0.0000 17.4857 0.0000
# 4 0.0000 0.0000 0.0000 9.9606 0.0000 -0.6045
# 5 7.4678 -2.0322 17.4857 0.0000 19.0473 0.0000
# 6 0.0000 0.0000 0.0000 -0.6045 0.0000 6.2214
#
#
#
# Elastic Compliance Matrix: (Units=1/GPa)
#
#
# Indices 1 2 3 4 5 6 
#
# 1 0.017092 0.000617 0.006727 0.000000 -0.012811 0.000000
# 2 0.000617 0.016180 -0.001172 0.000000 0.002560 0.000000
# 3 0.006727 -0.001172 0.025730 0.000000 -0.026383 0.000000
# 4 0.000000 0.000000 0.000000 0.100991 0.000000 0.009813
# 5 -0.012811 0.002560 -0.026383 0.000000 0.082016 0.000000
# 6 0.000000 0.000000 0.000000 0.009813 0.000000 0.161688
#
#
# Mechanical properties :
#
#
# Convention : Reuss Voigt Hill
#
# Bulk Modulus (GPa) = 14.01614 18.26441 16.14027
# Shear Modulus (GPa) = 12.04431 20.60884 16.32657
#
# Velocity S-wave (km/s) = 2.44337 3.19614 2.84477
# Velocity P-wave (km/s) = 3.86103 4.76169 4.33481
#
# Compressibility (1/GPa) = 0.07134632
#
# Stress axis : x y z
#
# Youngs Moduli (GPa) = 58.50754 61.80576 38.86533
#
# Poissons Ratio (x) = -0.03812 -0.26145
# Poissons Ratio (y) = -0.03609 0.04553
# Poissons Ratio (z) = -0.39359 0.07241
#
# Static dielectric constant tensor:
#      x y z
#    x 1.780100 0.000000 0.005070 
#    y 0.000000 1.753880 0.000000 
#    z 0.005070 0.000000 1.710230 
# 
# From -- ./inp_files/305440.got.cif
#   From: 2010.05.17/outbox.cif.g08.bks.cpg/sg12_153_cif.got.tgz:305440.got - 2010.06.03 13:09:07.
