data_PCOD9173481
_publ_section_title
;
Structure prediction by ZEFSAII (Michael W. Deem and Ramdas Pophale) SiO2 
 PCOD9173481
Probable space group: C 2/M
;
_chemical_formula_sum "Si O2"
_cell_formula_units_Z 44
_cell_length_a 7.329448
_cell_length_b 20.990098
_cell_length_c 12.929384
_cell_angle_alpha 90.000000
_cell_angle_beta 68.894105
_cell_angle_gamma 90.000000
_cell_volume 1855.693892
_symmetry_space_group_name_H-M "C 2/M"
_symmetry_group_IT_number 12
_symmetry_cell_setting 'monoclinic'
loop_
_space_group_symop_operation_xyz
x,y,z
-x,y,-z
-x,-y,-z
x,-y,z
1/2+x,1/2+y,z
1/2-x,1/2+y,-z
1/2-x,1/2-y,-z
1/2+x,1/2-y,z
loop_
_atom_site_type_symbol
_atom_site_label
_atom_site_fract_x
_atom_site_fract_y
_atom_site_fract_z
Si Si1 0.780157 0.654186 0.825743
Si Si2 0.468883 0.072362 0.627887
Si Si3 0.228894 0.597440 0.966625
Si Si4 0.889335 0.886184 0.628545
Si Si5 0.444280 0.500000 0.766578
Si Si6 0.803804 0.295796 0.178903
O O1 0.817718 0.620608 0.709603
O O2 0.672680 0.720714 0.835427
O O3 0.991388 0.675866 0.825164
O O4 0.714841 0.602904 0.924764
O O5 0.500000 0.080111 0.500000
O O6 0.676209 0.084879 0.641345
O O7 0.403965 0.000000 0.664133
O O8 0.358933 0.554720 0.865667
O O9 0.241238 0.669272 0.919414
O O10 0.000000 0.577165 0.000000
O O11 0.851015 0.823207 0.705791
O O12 0.000000 0.871317 0.500000
O O13 0.988051 0.943287 0.671821
#
# Coordination Sequence:
#
# PCOD9173481 Si02
#       6
#     8   8   8   8   4   8
#     4  10  20  36  58  80 113 145 182 225 274 320
#     4  10  22  37  54  82 112 142 185 224 275 328
#     4   9  18  30  53  83 110 140 179 224 275 321
#     4  10  20  35  58  84 110 145 183 230 273 319
#     4  10  18  30  53  86 111 136 185 228 268 328
#     4   9  20  35  53  86 110 143 185 222 269 332
#
# _framework density 23.710808
#
# number of rings (size 3 to 8) (size 9 to 14) (size 15 to 20)
#    0.000    2.364    0.909    2.182    1.273    2.182 
#    0.000    3.636    0.000    0.000    0.000    3.818 
#    0.000    0.000    0.000    0.000    0.000    0.000 
#
# Total GULP energy -122597.279136 kJ/mol
# GULP energy per Si atom -5572.603597 kJ/mol
# Density = 2.365684 g / cm^3
# Si number density = 23.710808 Si / 1000 Ang^3
#
#
#
# Elastic Constant Matrix: (Units=GPa)
#
#
# Indices 1 2 3 4 5 6 
#
# 1 52.9831 15.4760 -11.1899 0.0000 2.3650 0.0000
# 2 15.4760 68.3854 33.2908 0.0000 11.3471 0.0000
# 3 -11.1899 33.2908 124.7976 0.0000 -8.1390 0.0000
# 4 0.0000 0.0000 0.0000 27.5359 0.0000 -5.1426
# 5 2.3650 11.3471 -8.1390 0.0000 21.2699 0.0000
# 6 0.0000 0.0000 0.0000 -5.1426 0.0000 0.2089
#
#
#
# Elastic Compliance Matrix: (Units=1/GPa)
#
#
# Indices 1 2 3 4 5 6 
#
# 1 0.021795 -0.007479 0.004155 0.000000 0.003156 0.000000
# 2 -0.007479 0.022293 -0.007527 0.000000 -0.013941 0.000000
# 3 0.004155 -0.007527 0.010897 0.000000 0.007723 0.000000
# 4 0.000000 0.000000 0.000000 -0.010095 0.000000 -0.248508
# 5 0.003156 -0.013941 0.007723 0.000000 0.057057 0.000000
# 6 0.000000 0.000000 0.000000 -0.248508 0.000000 -1.330627
#
#
# Mechanical properties :
#
#
# Convention : Reuss Voigt Hill
#
# Bulk Modulus (GPa) = 30.04418 35.70220 32.87319
# Shear Modulus (GPa) = -4.18101 23.70888 9.76394
#
# Velocity S-wave (km/s) = -1.32935 3.16558 2.03147
# Velocity P-wave (km/s) = 3.21596 5.33397 4.40418
#
# Compressibility (1/GPa) = 0.03328431
#
# Stress axis : x y z
#
# Youngs Moduli (GPa) = 45.88178 44.85742 91.76816
#
# Poissons Ratio (x) = 0.33548 -0.38131
# Poissons Ratio (y) = 0.34315 0.69070
# Poissons Ratio (z) = -0.19065 0.33763
#
# Static dielectric constant tensor:
#      x y z
#    x 2.062400 0.000000 -0.019670 
#    y 0.000000 1.873210 0.000000 
#    z -0.019670 0.000000 1.868810 
# 
# From -- ./inp_files/120851.got.cif
#   From: 2010.05.17/outbox.cif.g08.bks.cpg/sg12_61_cif.got.tgz:120851.got - 2010.06.03 13:09:07.
