data_PCOD9173200
_publ_section_title
;
Structure prediction by ZEFSAII (Michael W. Deem and Ramdas Pophale) SiO2 
 PCOD9173200
Probable space group: C 2/M
;
_chemical_formula_sum "Si O2"
_cell_formula_units_Z 64
_cell_length_a 19.473120
_cell_length_b 7.420985
_cell_length_c 20.980060
_cell_angle_alpha 90.000000
_cell_angle_beta 82.806958
_cell_angle_gamma 90.000000
_cell_volume 3007.962131
_symmetry_space_group_name_H-M "C 2/M"
_symmetry_group_IT_number 12
_symmetry_cell_setting 'monoclinic'
loop_
_space_group_symop_operation_xyz
x,y,z
-x,y,-z
-x,-y,-z
x,-y,z
1/2+x,1/2+y,z
1/2-x,1/2+y,-z
1/2-x,1/2-y,-z
1/2+x,1/2-y,z
loop_
_atom_site_type_symbol
_atom_site_label
_atom_site_fract_x
_atom_site_fract_y
_atom_site_fract_z
Si Si1 0.420899 0.220613 0.022785
Si Si2 0.193902 0.715272 0.721046
Si Si3 0.687594 0.213817 0.865773
Si Si4 0.333153 0.216572 0.911412
Si Si5 0.659893 0.785353 0.341741
Si Si6 0.046952 0.280410 0.691186
Si Si7 0.914085 0.280382 0.778206
Si Si8 0.529482 0.779912 0.429303
O O1 0.368918 0.278147 0.972254
O O2 0.422574 0.000000 0.023343
O O3 0.500000 0.277882 0.000000
O O4 0.382671 0.280193 0.092178
O O5 0.188038 0.500000 0.726455
O O6 0.202799 0.785236 0.792748
O O7 0.259313 0.749085 0.668460
O O8 0.122962 0.783893 0.699150
O O9 0.753934 0.238796 0.903968
O O10 0.678716 0.000000 0.860288
O O11 0.380264 0.282298 0.847195
O O12 0.336257 0.000000 0.912403
O O13 0.631167 0.719196 0.276936
O O14 0.607776 0.721472 0.402697
O O15 0.651616 0.000000 0.341527
O O16 0.047438 0.500000 0.690066
O O17 0.992083 0.227705 0.752083
O O18 0.017110 0.225523 0.625965
O O19 0.912490 0.500000 0.779964
O O20 0.500000 0.716892 0.500000
O O21 0.528624 0.000000 0.431235
#
# Coordination Sequence:
#
# PCOD9173200 Si02
#       8
#     8   8   8   8   8   8   8   8
#     4   9  19  32  47  70  93 115 152 200 238 271
#     4  10  19  29  45  69  97 125 150 187 234 275
#     4  10  20  32  46  67  95 124 153 188 232 278
#     4  10  18  30  51  70  88 118 154 191 233 278
#     4   9  16  29  48  70  95 119 150 190 226 269
#     4   8  15  26  42  66  94 120 151 189 227 265
#     4   8  14  25  44  68  86 111 152 190 219 257
#     4   8  14  27  49  73  93 118 156 196 226 258
#
# _framework density 21.276862999999999
#
# number of rings (size 3 to 8) (size 9 to 14) (size 15 to 20)
#    0.000    3.000    1.250    1.875    1.750    0.000 
#    0.000    0.625    0.000    5.625    0.000    0.000 
#    0.000    0.000    0.000    0.000    0.000    0.000 
#
# Total GULP energy -178505.953384 kJ/mol
# GULP energy per Si atom -5578.311043 kJ/mol
# Density = 2.122844 g / cm^3
# Si number density = 21.276863 Si / 1000 Ang^3
#
#
#
# Elastic Constant Matrix: (Units=GPa)
#
#
# Indices 1 2 3 4 5 6 
#
# 1 167.6188 -4.7176 64.5564 0.0000 -34.6624 0.0000
# 2 -4.7176 66.5145 5.8529 0.0000 -2.6980 0.0000
# 3 64.5564 5.8529 114.9079 0.0000 -36.0350 0.0000
# 4 0.0000 0.0000 0.0000 -12.0244 0.0000 -32.0927
# 5 -34.6624 -2.6980 -36.0350 0.0000 28.1856 0.0000
# 6 0.0000 0.0000 0.0000 -32.0927 0.0000 -69.6525
#
#
#
# Elastic Compliance Matrix: (Units=1/GPa)
#
#
# Indices 1 2 3 4 5 6 
#
# 1 0.008483 0.001121 -0.002533 0.000000 0.007301 0.000000
# 2 0.001121 0.015260 -0.000862 0.000000 0.001736 0.000000
# 3 -0.002533 -0.000862 0.015302 0.000000 0.016365 0.000000
# 4 0.000000 0.000000 0.000000 0.361995 0.000000 -0.166791
# 5 0.007301 0.001736 0.016365 0.000000 0.065546 0.000000
# 6 0.000000 0.000000 0.000000 -0.166791 0.000000 0.062493
#
#
# Mechanical properties :
#
#
# Convention : Reuss Voigt Hill
#
# Bulk Modulus (GPa) = 28.98980 53.38051 41.18515
# Shear Modulus (GPa) = 9.17217 8.19170 8.68193
#
# Velocity S-wave (km/s) = 2.07851 1.96428 2.02221
# Velocity P-wave (km/s) = 4.40624 5.50341 4.98510
#
# Compressibility (1/GPa) = 0.03449489
#
# Stress axis : x y z
#
# Youngs Moduli (GPa) = 117.88464 65.53026 65.35088
#
# Poissons Ratio (x) = -0.07344 0.16556
# Poissons Ratio (y) = -0.13211 0.05636
# Poissons Ratio (z) = 0.29865 0.05651
#
# Static dielectric constant tensor:
#      x y z
#    x 1.764740 0.000000 -0.020880 
#    y 0.000000 1.836070 0.000000 
#    z -0.020880 0.000000 1.755090 
# 
# From -- ./inp_files/315078.got.cif
#   From: 2010.05.17/outbox.cif.g08.bks.cpg/sg12_158_cif.got.tgz:315078.got - 2010.06.03 13:09:07.
