data_PCOD9173909
_publ_section_title
;
Structure prediction by ZEFSAII (Michael W. Deem and Ramdas Pophale) SiO2 
 PCOD9173909
Probable space group: C 2/M
;
_chemical_formula_sum "Si O2"
_cell_formula_units_Z 48
_cell_length_a 22.450463
_cell_length_b 10.229597
_cell_length_c 10.916731
_cell_angle_alpha 90.000000
_cell_angle_beta 109.740292
_cell_angle_gamma 90.000000
_cell_volume 2359.791865
_symmetry_space_group_name_H-M "C 2/M"
_symmetry_group_IT_number 12
_symmetry_cell_setting 'monoclinic'
loop_
_space_group_symop_operation_xyz
x,y,z
-x,y,-z
-x,-y,-z
x,-y,z
1/2+x,1/2+y,z
1/2-x,1/2+y,-z
1/2-x,1/2-y,-z
1/2+x,1/2-y,z
loop_
_atom_site_type_symbol
_atom_site_label
_atom_site_fract_x
_atom_site_fract_y
_atom_site_fract_z
Si Si1 0.850390 0.155847 0.693605
Si Si2 0.912344 0.147049 0.495286
Si Si3 0.041779 0.352587 0.149219
Si Si4 0.750449 0.151305 0.814586
Si Si5 0.335734 0.353853 0.109659
Si Si6 0.963214 0.229083 0.291896
O O1 0.857584 0.179694 0.553194
O O2 0.782817 0.182400 0.707836
O O3 0.902994 0.247207 0.793558
O O4 0.863150 0.000000 0.721517
O O5 0.926366 0.246912 0.395220
O O6 0.976308 0.145837 0.621659
O O7 0.903022 0.000000 0.438635
O O8 0.067309 0.500000 0.157463
O O9 0.995348 0.342062 0.234958
O O10 0.000000 0.325878 0.000000
O O11 0.697287 0.248767 0.825369
O O12 0.729127 0.000000 0.801141
O O13 0.806963 0.163560 0.954545
O O14 0.318078 0.500000 0.136521
O O15 0.410941 0.337180 0.169651
#
# Coordination Sequence:
#
# PCOD9173909 Si02
#       6
#     8   8   8   8   8   8
#     4   9  18  34  54  74  99 134 174 213 253 301
#     4   9  17  31  53  78 103 133 167 211 260 301
#     4  10  21  34  50  76 107 136 165 206 263 313
#     4   9  19  34  50  72 101 132 169 213 259 302
#     4  10  19  31  51  75  99 132 172 212 253 302
#     4  10  18  31  51  75 102 132 168 205 246 304
#
# _framework density 20.340776000000002
#
# number of rings (size 3 to 8) (size 9 to 14) (size 15 to 20)
#    0.000    2.500    0.000    3.000    0.000    3.000 
#    0.000   10.833    0.000    0.000    0.000    0.000 
#    0.000    0.000    0.000    0.000    0.000    0.000 
#
# Total GULP energy -133693.244476 kJ/mol
# GULP energy per Si atom -5570.551853 kJ/mol
# Density = 2.029448 g / cm^3
# Si number density = 20.340776 Si / 1000 Ang^3
#
#
#
# Elastic Constant Matrix: (Units=GPa)
#
#
# Indices 1 2 3 4 5 6 
#
# 1 61.8714 22.5064 17.8008 0.0000 -23.3927 0.0000
# 2 22.5064 58.0747 6.5718 0.0000 -11.7353 0.0000
# 3 17.8008 6.5718 45.2703 0.0000 -5.3161 0.0000
# 4 0.0000 0.0000 0.0000 -2.7865 0.0000 -0.9582
# 5 -23.3927 -11.7353 -5.3161 0.0000 42.7262 0.0000
# 6 0.0000 0.0000 0.0000 -0.9582 0.0000 13.9333
#
#
#
# Elastic Compliance Matrix: (Units=1/GPa)
#
#
# Indices 1 2 3 4 5 6 
#
# 1 0.024823 -0.006576 -0.007532 0.000000 0.010847 0.000000
# 2 -0.006576 0.020170 -0.000116 0.000000 0.001925 0.000000
# 3 -0.007532 -0.000116 0.024945 0.000000 -0.001052 0.000000
# 4 0.000000 0.000000 0.000000 -0.350584 0.000000 -0.024109
# 5 0.010847 0.001925 -0.001052 0.000000 0.029742 0.000000
# 6 0.000000 0.000000 0.000000 -0.024109 0.000000 0.070112
#
#
# Mechanical properties :
#
#
# Convention : Reuss Voigt Hill
#
# Bulk Modulus (GPa) = 24.10285 28.77493 26.43889
# Shear Modulus (GPa) = -36.09731 18.66376 -8.71677
#
# Velocity S-wave (km/s) = -4.21720 3.03240 -2.07236
# Velocity P-wave (km/s) = 3.44061 5.14177 2.70184
#
# Compressibility (1/GPa) = 0.04148886
#
# Stress axis : x y z
#
# Youngs Moduli (GPa) = 40.28546 49.57920 40.08877
#
# Poissons Ratio (x) = 0.32601 0.30196
# Poissons Ratio (y) = 0.26490 0.00466
# Poissons Ratio (z) = 0.30344 0.00577
#
# Static dielectric constant tensor:
#      x y z
#    x 1.730880 0.000000 -0.026370 
#    y 0.000000 1.686910 0.000000 
#    z -0.026370 0.000000 1.767150 
# 
# From -- ./inp_files/173042.got.cif
#   From: 2010.05.17/outbox.cif.g08.bks.cpg/sg12_87_cif.got.tgz:173042.got - 2010.06.03 13:09:07.
