data_PCOD9173451
_publ_section_title
;
Structure prediction by ZEFSAII (Michael W. Deem and Ramdas Pophale) SiO2 
 PCOD9173451
Probable space group: C 2/M
;
_chemical_formula_sum "Si O2"
_cell_formula_units_Z 64
_cell_length_a 34.720549
_cell_length_b 8.688826
_cell_length_c 11.397178
_cell_angle_alpha 90.000000
_cell_angle_beta 84.431877
_cell_angle_gamma 90.000000
_cell_volume 3422.086340
_symmetry_space_group_name_H-M "C 2/M"
_symmetry_group_IT_number 12
_symmetry_cell_setting 'monoclinic'
loop_
_space_group_symop_operation_xyz
x,y,z
-x,y,-z
-x,-y,-z
x,-y,z
1/2+x,1/2+y,z
1/2-x,1/2+y,-z
1/2-x,1/2-y,-z
1/2+x,1/2-y,z
loop_
_atom_site_type_symbol
_atom_site_label
_atom_site_fract_x
_atom_site_fract_y
_atom_site_fract_z
Si Si1 0.012174 0.816978 0.705916
Si Si2 0.084049 0.182955 0.538377
Si Si3 0.868985 0.679947 0.261825
Si Si4 0.062515 0.314695 0.174436
Si Si5 0.791395 0.183280 0.345190
Si Si6 0.058461 0.682092 0.910877
Si Si7 0.208507 0.816722 0.378987
Si Si8 0.630387 0.817245 0.309316
O O1 0.041045 0.768686 0.592514
O O2 0.033556 0.768080 0.820258
O O3 0.969885 0.745438 0.726830
O O4 0.008957 0.000000 0.700596
O O5 0.111320 0.218363 0.642187
O O6 0.102588 0.274233 0.426245
O O7 0.084259 0.000000 0.513763
O O8 0.870258 0.500000 0.296345
O O9 0.825100 0.734226 0.262832
O O10 0.896742 0.696323 0.141303
O O11 0.061166 0.500000 0.174516
O O12 0.105276 0.269136 0.203846
O O13 0.053176 0.262606 0.045020
O O14 0.797528 0.225278 0.481436
O O15 0.748238 0.237383 0.327664
O O16 0.794728 0.000000 0.333539
O O17 0.048235 0.500000 0.907794
O O18 0.171075 0.764808 0.318368
O O19 0.213061 0.000000 0.372697
O O20 0.636733 0.000000 0.304620
#
# Coordination Sequence:
#
# PCOD9173451 Si02
#       8
#     8   8   8   8   8   8   8   8
#     4  10  21  35  54  79 104 131 171 222 267 305
#     4  10  20  34  50  73 106 139 169 209 262 312
#     4  10  18  30  53  80 105 134 170 212 257 306
#     4  10  22  38  54  74 102 139 178 214 259 309
#     4  10  19  31  51  79 110 138 167 207 254 303
#     4   9  19  36  56  77 103 136 173 216 262 307
#     4  10  20  33  51  76 108 141 169 206 253 304
#     4  11  22  35  53  75 104 140 176 213 252 308
#
# _framework density 18.702041000000001
#
# number of rings (size 3 to 8) (size 9 to 14) (size 15 to 20)
#    0.000    2.000    1.250    2.625    0.000    6.500 
#    0.000    2.500    0.000    0.750    0.000    0.000 
#    0.000    0.000    0.000    0.000    0.000    0.000 
#
# Total GULP energy -178662.330279 kJ/mol
# GULP energy per Si atom -5583.197821 kJ/mol
# Density = 1.865947 g / cm^3
# Si number density = 18.702041 Si / 1000 Ang^3
#
#
#
# Elastic Constant Matrix: (Units=GPa)
#
#
# Indices 1 2 3 4 5 6 
#
# 1 110.8561 12.1268 -3.2397 0.0000 -3.6424 0.0000
# 2 12.1268 18.0900 -6.6467 0.0000 -2.2567 0.0000
# 3 -3.2397 -6.6467 9.0998 0.0000 -2.1061 0.0000
# 4 0.0000 0.0000 0.0000 4.4286 0.0000 -1.6773
# 5 -3.6424 -2.2567 -2.1061 0.0000 21.7887 0.0000
# 6 0.0000 0.0000 0.0000 -1.6773 0.0000 34.3906
#
#
#
# Elastic Compliance Matrix: (Units=1/GPa)
#
#
# Indices 1 2 3 4 5 6 
#
# 1 0.009768 -0.006983 -0.001445 0.000000 0.000770 0.000000
# 2 -0.006983 0.084616 0.062475 0.000000 0.013636 0.000000
# 3 -0.001445 0.062475 0.160033 0.000000 0.021698 0.000000
# 4 0.000000 0.000000 0.000000 0.230053 0.000000 0.011220
# 5 0.000770 0.013636 0.021698 0.000000 0.049534 0.000000
# 6 0.000000 0.000000 0.000000 0.011220 0.000000 0.029625
#
#
# Mechanical properties :
#
#
# Convention : Reuss Voigt Hill
#
# Bulk Modulus (GPa) = 2.75852 15.83631 9.29742
# Shear Modulus (GPa) = 8.67498 21.17527 14.92513
#
# Velocity S-wave (km/s) = 2.15606 3.36853 2.82804
# Velocity P-wave (km/s) = 2.77062 4.85957 3.95549
#
# Compressibility (1/GPa) = 0.36251305
#
# Stress axis : x y z
#
# Youngs Moduli (GPa) = 102.37899 11.81808 6.24871
#
# Poissons Ratio (x) = 0.08252 0.00903
# Poissons Ratio (y) = 0.71487 -0.39039
# Poissons Ratio (z) = 0.14790 -0.73834
#
# Static dielectric constant tensor:
#      x y z
#    x 1.663770 0.000000 0.000570 
#    y 0.000000 1.623850 0.000000 
#    z 0.000570 0.000000 1.644910 
# 
# From -- ./inp_files/187443.got.cif
#   From: 2010.05.17/outbox.cif.g08.bks.cpg/sg12_94_cif.got.tgz:187443.got - 2010.06.03 13:09:07.
