data_PCOD9173624
_publ_section_title
;
Structure prediction by ZEFSAII (Michael W. Deem and Ramdas Pophale) SiO2 
 PCOD9173624
Probable space group: C 2/M
;
_chemical_formula_sum "Si O2"
_cell_formula_units_Z 48
_cell_length_a 17.712708
_cell_length_b 9.624046
_cell_length_c 13.665645
_cell_angle_alpha 90.000000
_cell_angle_beta 101.432023
_cell_angle_gamma 90.000000
_cell_volume 2283.336960
_symmetry_space_group_name_H-M "C 2/M"
_symmetry_group_IT_number 12
_symmetry_cell_setting 'monoclinic'
loop_
_space_group_symop_operation_xyz
x,y,z
-x,y,-z
-x,-y,-z
x,-y,z
1/2+x,1/2+y,z
1/2-x,1/2+y,-z
1/2-x,1/2-y,-z
1/2+x,1/2-y,z
loop_
_atom_site_type_symbol
_atom_site_label
_atom_site_fract_x
_atom_site_fract_y
_atom_site_fract_z
Si Si1 0.844819 0.652619 0.507699
Si Si2 0.527493 0.162411 0.788353
Si Si3 0.777078 0.151535 0.353566
Si Si4 0.856254 0.341176 0.840131
Si Si5 0.913295 0.159235 0.023317
Si Si6 0.475643 0.656936 0.606662
O O1 0.882286 0.500000 0.510864
O O2 0.827389 0.716468 0.396863
O O3 0.770854 0.635400 0.557803
O O4 0.895366 0.763164 0.579114
O O5 0.438203 0.169425 0.804055
O O6 0.579684 0.241142 0.881266
O O7 0.528356 0.250942 0.689801
O O8 0.546240 0.000000 0.782113
O O9 0.715661 0.175327 0.251672
O O10 0.816622 0.000000 0.347207
O O11 0.853459 0.500000 0.877921
O O12 0.859853 0.229998 0.927740
O O13 0.892114 0.000000 0.040869
O O14 0.000000 0.156668 0.000000
O O15 0.500000 0.652371 0.500000
O O16 0.469148 0.500000 0.642830
#
# Coordination Sequence:
#
# PCOD9173624 Si02
#       6
#     8   8   8   8   8   8
#     4  10  19  32  48  70  95 126 164 199 240 286
#     4  10  18  31  48  67  93 126 162 200 240 283
#     4   9  17  30  47  70  99 129 158 194 241 288
#     4   9  16  28  45  68  97 128 159 191 235 287
#     4   9  17  27  41  66  96 126 158 192 236 286
#     4  11  23  36  50  69  95 129 166 204 245 285
#
# _framework density 21.021864999999998
#
# number of rings (size 3 to 8) (size 9 to 14) (size 15 to 20)
#    0.000    2.333    1.667    2.000    0.000    5.333 
#    0.000    0.000    0.000    0.000    0.000    1.167 
#    0.000    0.000    0.000    0.000    0.000    0.000 
#
# Total GULP energy -133826.210391 kJ/mol
# GULP energy per Si atom -5576.092100 kJ/mol
# Density = 2.097402 g / cm^3
# Si number density = 21.021865 Si / 1000 Ang^3
#
#
#
# Elastic Constant Matrix: (Units=GPa)
#
#
# Indices 1 2 3 4 5 6 
#
# 1 9.0997 13.8355 -0.5582 0.0000 -1.4986 0.0000
# 2 13.8355 203.9927 95.3994 0.0000 9.6782 0.0000
# 3 -0.5582 95.3994 127.2278 0.0000 24.5658 0.0000
# 4 0.0000 0.0000 0.0000 41.7858 0.0000 9.4219
# 5 -1.4986 9.6782 24.5658 0.0000 13.9239 0.0000
# 6 0.0000 0.0000 0.0000 9.4219 0.0000 11.6937
#
#
#
# Elastic Compliance Matrix: (Units=1/GPa)
#
#
# Indices 1 2 3 4 5 6 
#
# 1 0.132630 -0.013815 0.009601 0.000000 0.006938 0.000000
# 2 -0.013815 0.009495 -0.008522 0.000000 0.006948 0.000000
# 3 0.009601 -0.008522 0.019639 0.000000 -0.027692 0.000000
# 4 0.000000 0.000000 0.000000 0.029245 0.000000 -0.023563
# 5 0.006938 0.006948 -0.027692 0.000000 0.116592 0.000000
# 6 0.000000 0.000000 0.000000 -0.023563 0.000000 0.104501
#
#
# Mechanical properties :
#
#
# Convention : Reuss Voigt Hill
#
# Bulk Modulus (GPa) = 7.33714 61.96372 34.65043
# Shear Modulus (GPa) = 10.35193 28.92361 19.63777
#
# Velocity S-wave (km/s) = 2.22150 3.71331 3.05972
# Velocity P-wave (km/s) = 3.17457 6.92277 5.38529
#
# Compressibility (1/GPa) = 0.13629285
#
# Stress axis : x y z
#
# Youngs Moduli (GPa) = 7.53978 105.32245 50.92009
#
# Poissons Ratio (x) = 1.45499 -0.48888
# Poissons Ratio (y) = 0.10416 0.43392
# Poissons Ratio (z) = -0.07239 0.89751
#
# Static dielectric constant tensor:
#      x y z
#    x 1.810930 0.000000 -0.003070 
#    y 0.000000 1.826310 0.000000 
#    z -0.003070 0.000000 1.749630 
# 
# From -- ./inp_files/172157.got.cif
#   From: 2010.05.17/outbox.cif.g08.bks.cpg/sg12_87_cif.got.tgz:172157.got - 2010.06.03 13:09:07.
