data_PCOD9173349
_publ_section_title
;
Structure prediction by ZEFSAII (Michael W. Deem and Ramdas Pophale) SiO2 
 PCOD9173349
Probable space group: C 2/M
;
_chemical_formula_sum "Si O2"
_cell_formula_units_Z 64
_cell_length_a 20.514394
_cell_length_b 20.520396
_cell_length_c 16.471789
_cell_angle_alpha 90.000000
_cell_angle_beta 153.279137
_cell_angle_gamma 90.000000
_cell_volume 3117.843155
_symmetry_space_group_name_H-M "C 2/M"
_symmetry_group_IT_number 12
_symmetry_cell_setting 'monoclinic'
loop_
_space_group_symop_operation_xyz
x,y,z
-x,y,-z
-x,-y,-z
x,-y,z
1/2+x,1/2+y,z
1/2-x,1/2+y,-z
1/2-x,1/2-y,-z
1/2+x,1/2-y,z
loop_
_atom_site_type_symbol
_atom_site_label
_atom_site_fract_x
_atom_site_fract_y
_atom_site_fract_z
Si Si1 0.703577 0.928203 0.189354
Si Si2 0.806783 0.070006 0.485897
Si Si3 0.430436 0.789203 0.005503
Si Si4 0.221869 0.815240 0.064856
Si Si5 0.594800 0.397419 0.720736
Si Si6 0.880038 0.666106 0.631778
Si Si7 0.141586 0.577579 0.862661
Si Si8 0.016849 0.227859 0.703641
O O1 0.718969 0.924538 0.303406
O O2 0.629839 0.861531 0.079751
O O3 0.855961 0.924739 0.310909
O O4 0.639458 0.000000 0.097525
O O5 0.761572 0.129211 0.493471
O O6 0.970595 0.068940 0.635417
O O7 0.772375 0.000000 0.485708
O O8 0.316577 0.733585 0.905343
O O9 0.500000 0.765907 0.000000
O O10 0.540153 0.802335 0.201478
O O11 0.355103 0.779604 0.168047
O O12 0.284245 0.888477 0.134293
O O13 0.077821 0.812258 0.848816
O O14 0.744515 0.403126 0.938916
O O15 0.528722 0.324080 0.644703
O O16 0.877456 0.727573 0.566734
O O17 0.988264 0.610728 0.715749
O O18 0.131349 0.500000 0.845893
#
# Coordination Sequence:
#
# PCOD9173349 Si02
#       8
#     8   8   8   8   8   8   8   8
#     4  11  21  31  44  64  90 127 163 185 210 263
#     4  11  23  32  40  64 100 127 150 188 225 259
#     4  11  18  30  49  67  88 123 156 186 229 265
#     4   8  15  29  46  69  89 109 152 195 224 263
#     4  11  19  32  48  63  92 127 158 184 220 271
#     4  10  19  31  47  69  92 116 152 195 226 265
#     4  10  18  30  52  72  88 118 154 186 225 276
#     4   8  15  29  48  64  84 117 155 190 226 258
#
# _framework density 20.527011000000002
#
# number of rings (size 3 to 8) (size 9 to 14) (size 15 to 20)
#    0.000    2.000    3.750    3.375    0.000    2.250 
#    0.000    0.000    0.000    0.375    0.000    0.000 
#    0.000    0.000    0.000    3.250    0.000    4.250 
#
# Total GULP energy -178146.739578 kJ/mol
# GULP energy per Si atom -5567.085612 kJ/mol
# Density = 2.048029 g / cm^3
# Si number density = 20.527011 Si / 1000 Ang^3
#
#
#
# Elastic Constant Matrix: (Units=GPa)
#
#
# Indices 1 2 3 4 5 6 
#
# 1 69.6782 46.3531 10.1723 0.0000 30.4633 0.0000
# 2 46.3531 123.3347 8.1417 0.0000 20.0684 0.0000
# 3 10.1723 8.1417 33.9083 0.0000 20.4142 0.0000
# 4 0.0000 0.0000 0.0000 8.8643 0.0000 -2.2403
# 5 30.4633 20.0684 20.4142 0.0000 26.2316 0.0000
# 6 0.0000 0.0000 0.0000 -2.2403 0.0000 10.8784
#
#
#
# Elastic Compliance Matrix: (Units=1/GPa)
#
#
# Indices 1 2 3 4 5 6 
#
# 1 0.047087 -0.007826 0.032118 0.000000 -0.073691 0.000000
# 2 -0.007826 0.010836 -0.001383 0.000000 0.001875 0.000000
# 3 0.032118 -0.001383 0.079039 0.000000 -0.097752 0.000000
# 4 0.000000 0.000000 0.000000 0.119007 0.000000 0.024509
# 5 -0.073691 0.001875 -0.097752 0.000000 0.198339 0.000000
# 6 0.000000 0.000000 0.000000 0.024509 0.000000 0.096972
#
#
# Mechanical properties :
#
#
# Convention : Reuss Voigt Hill
#
# Bulk Modulus (GPa) = 5.47110 39.58393 22.52751
# Shear Modulus (GPa) = 8.82789 20.01180 14.41984
#
# Velocity S-wave (km/s) = 2.07604 3.12573 2.65331
# Velocity P-wave (km/s) = 2.90133 5.68793 4.51499
#
# Compressibility (1/GPa) = 0.18277852
#
# Stress axis : x y z
#
# Youngs Moduli (GPa) = 21.23743 92.28902 12.65206
#
# Poissons Ratio (x) = 0.72228 -0.40636
# Poissons Ratio (y) = 0.16621 0.01750
# Poissons Ratio (z) = -0.68211 0.12763
#
# Static dielectric constant tensor:
#      x y z
#    x 1.785060 0.000000 0.023270 
#    y 0.000000 1.878340 0.000000 
#    z 0.023270 0.000000 1.787880 
# 
# From -- ./inp_files/322876.got.cif
#   From: 2010.05.17/outbox.cif.g08.bks.cpg/sg12_162_cif.got.tgz:322876.got - 2010.06.03 13:09:07.
