data_PCOD9173501
_publ_section_title
;
Structure prediction by ZEFSAII (Michael W. Deem and Ramdas Pophale) SiO2 
 PCOD9173501
Probable space group: C 2/M
;
_chemical_formula_sum "Si O2"
_cell_formula_units_Z 52
_cell_length_a 18.754933
_cell_length_b 11.464369
_cell_length_c 10.863707
_cell_angle_alpha 90.000000
_cell_angle_beta 106.898390
_cell_angle_gamma 90.000000
_cell_volume 2234.985743
_symmetry_space_group_name_H-M "C 2/M"
_symmetry_group_IT_number 12
_symmetry_cell_setting 'monoclinic'
loop_
_space_group_symop_operation_xyz
x,y,z
-x,y,-z
-x,-y,-z
x,-y,z
1/2+x,1/2+y,z
1/2-x,1/2+y,-z
1/2-x,1/2-y,-z
1/2+x,1/2-y,z
loop_
_atom_site_type_symbol
_atom_site_label
_atom_site_fract_x
_atom_site_fract_y
_atom_site_fract_z
Si Si1 0.743371 0.291525 0.140371
Si Si2 0.018050 0.500000 0.365382
Si Si3 0.148185 0.500000 0.823591
Si Si4 0.677946 0.631151 0.636942
Si Si5 0.410989 0.000000 0.940801
Si Si6 0.585613 0.736061 0.037015
Si Si7 0.945409 0.870781 0.213020
Si Si8 0.937547 0.748928 0.580039
O O1 0.804700 0.389478 0.196029
O O2 0.759506 0.191253 0.248409
O O3 0.658169 0.334808 0.113004
O O4 0.750000 0.250000 0.000000
O O5 0.062027 0.618982 0.364881
O O6 0.000000 0.500000 0.500000
O O7 0.937719 0.500000 0.260563
O O8 0.143124 0.500000 0.968378
O O9 0.698150 0.500000 0.607715
O O10 0.608855 0.622029 0.697763
O O11 0.641458 0.708014 0.510314
O O12 0.403647 0.863766 0.898202
O O13 0.500000 0.000000 0.000000
O O14 0.500000 0.694151 0.000000
O O15 0.587662 0.731248 0.888696
O O16 0.026694 0.835385 0.301906
O O17 0.944387 0.000000 0.154507
O O18 0.000000 0.747261 0.500000
#
# Coordination Sequence:
#
# PCOD9173501 Si02
#       8
#     8   4   4   8   4   8   8   8
#     4  12  23  35  57  83 119 156 195 242 293 347
#     4  10  18  30  54  81 121 152 185 244 293 344
#     4  12  22  36  57  88 118 156 197 242 293 345
#     4  10  20  33  55  85 119 149 190 242 296 344
#     4  10  20  36  56  79 113 149 189 243 289 342
#     4  11  24  39  56  82 117 157 200 244 295 352
#     4  10  19  33  54  79 113 151 191 235 285 346
#     4   9  17  31  51  84 114 148 184 239 297 340
#
# _framework density 23.266366999999999
#
# number of rings (size 3 to 8) (size 9 to 14) (size 15 to 20)
#    0.000    1.538    3.077    4.154    3.231    2.154 
#    0.000    0.000    0.000    0.923    0.000    0.000 
#    0.000    0.000    0.000    0.000    0.000    0.000 
#
# Total GULP energy -144869.163140 kJ/mol
# GULP energy per Si atom -5571.890890 kJ/mol
# Density = 2.321341 g / cm^3
# Si number density = 23.266367 Si / 1000 Ang^3
#
#
#
# Elastic Constant Matrix: (Units=GPa)
#
#
# Indices 1 2 3 4 5 6 
#
# 1 69.8980 30.2588 22.0818 0.0000 31.5645 0.0000
# 2 30.2588 114.5734 41.2288 0.0000 19.0801 0.0000
# 3 22.0818 41.2288 100.9273 0.0000 39.9719 0.0000
# 4 0.0000 0.0000 0.0000 21.1567 0.0000 9.7073
# 5 31.5645 19.0801 39.9719 0.0000 41.0677 0.0000
# 6 0.0000 0.0000 0.0000 9.7073 0.0000 4.5357
#
#
#
# Elastic Compliance Matrix: (Units=1/GPa)
#
#
# Indices 1 2 3 4 5 6 
#
# 1 0.024495 -0.004714 0.005134 0.000000 -0.021634 0.000000
# 2 -0.004714 0.011171 -0.004738 0.000000 0.003044 0.000000
# 3 0.005134 -0.004738 0.018569 0.000000 -0.019819 0.000000
# 4 0.000000 0.000000 0.000000 2.625593 0.000000 -5.619350
# 5 -0.021634 0.003044 -0.019819 0.000000 0.058853 0.000000
# 6 0.000000 0.000000 0.000000 -5.619350 0.000000 12.247127
#
#
# Mechanical properties :
#
#
# Convention : Reuss Voigt Hill
#
# Bulk Modulus (GPa) = 21.92955 52.50415 37.21685
# Shear Modulus (GPa) = 0.33312 26.14064 13.23688
#
# Velocity S-wave (km/s) = 0.37880 3.35556 2.38781
# Velocity P-wave (km/s) = 3.10438 6.13421 4.86137
#
# Compressibility (1/GPa) = 0.04560058
#
# Stress axis : x y z
#
# Youngs Moduli (GPa) = 40.82545 89.51900 53.85215
#
# Poissons Ratio (x) = 0.42199 -0.27650
# Poissons Ratio (y) = 0.19245 0.25513
# Poissons Ratio (z) = -0.20962 0.42411
#
# Static dielectric constant tensor:
#      x y z
#    x 1.920130 0.000000 -0.082580 
#    y 0.000000 1.971790 0.000000 
#    z -0.082580 0.000000 1.918670 
# 
# From -- ./inp_files/165814.got.cif
#   From: 2010.05.17/outbox.cif.g08.bks.cpg/sg12_83_cif.got.tgz:165814.got - 2010.06.03 13:09:07.
