data_PCOD9173566
_publ_section_title
;
Structure prediction by ZEFSAII (Michael W. Deem and Ramdas Pophale) SiO2 
 PCOD9173566
Probable space group: C 2/M
;
_chemical_formula_sum "Si O2"
_cell_formula_units_Z 52
_cell_length_a 16.964976
_cell_length_b 12.321864
_cell_length_c 21.325035
_cell_angle_alpha 90.000000
_cell_angle_beta 31.399839
_cell_angle_gamma 90.000000
_cell_volume 2322.539806
_symmetry_space_group_name_H-M "C 2/M"
_symmetry_group_IT_number 12
_symmetry_cell_setting 'monoclinic'
loop_
_space_group_symop_operation_xyz
x,y,z
-x,y,-z
-x,-y,-z
x,-y,z
1/2+x,1/2+y,z
1/2-x,1/2+y,-z
1/2-x,1/2-y,-z
1/2+x,1/2-y,z
loop_
_atom_site_type_symbol
_atom_site_label
_atom_site_fract_x
_atom_site_fract_y
_atom_site_fract_z
Si Si1 0.078977 0.726166 0.194795
Si Si2 0.343906 0.761973 0.566048
Si Si3 0.985074 0.874485 0.362751
Si Si4 0.389739 0.000000 0.514972
Si Si5 0.200085 0.372676 0.773513
Si Si6 0.056274 0.500000 0.267964
Si Si7 0.574580 0.736681 0.051112
Si Si8 0.914753 0.000000 0.993102
O O1 0.995797 0.822477 0.287116
O O2 0.012317 0.613156 0.265612
O O3 0.079337 0.725697 0.119862
O O4 0.256737 0.742372 0.091214
O O5 0.500000 0.767895 0.500000
O O6 0.377906 0.696926 0.479688
O O7 0.301434 0.886189 0.580044
O O8 0.240653 0.690578 0.681712
O O9 0.152099 0.867018 0.282347
O O10 0.939839 0.000000 0.392869
O O11 0.500000 0.000000 0.500000
O O12 0.492895 0.000000 0.381780
O O13 0.168060 0.500000 0.784844
O O14 0.052230 0.308212 0.896614
O O15 0.237892 0.500000 0.132546
O O16 0.540322 0.608817 0.073299
O O17 0.000000 0.000000 0.000000
#
# Coordination Sequence:
#
# PCOD9173566 Si02
#       8
#     8   8   8   4   8   4   8   4
#     4  10  22  40  61  84 118 159 202 247 297 372
#     4   9  18  33  55  87 120 153 199 249 305 360
#     4  10  20  35  61  85 116 157 199 252 299 358
#     4  10  18  30  58  92 118 154 202 259 297 359
#     4  10  22  38  59  88 121 159 203 254 307 354
#     4  10  20  38  62  88 118 162 203 240 319 358
#     4  10  24  40  60  86 119 157 202 244 302 360
#     4  10  24  38  64  90 123 155 192 259 310 363
#
# _framework density 22.389282000000001
#
# number of rings (size 3 to 8) (size 9 to 14) (size 15 to 20)
#    0.000    2.154    1.538    0.462    6.462    3.077 
#    0.000    2.308    0.000    0.000    0.000    0.000 
#    0.000    0.000    0.000    0.000    0.000    0.000 
#
# Total GULP energy -145255.196452 kJ/mol
# GULP energy per Si atom -5586.738325 kJ/mol
# Density = 2.233832 g / cm^3
# Si number density = 22.389282 Si / 1000 Ang^3
#
#
#
# Elastic Constant Matrix: (Units=GPa)
#
#
# Indices 1 2 3 4 5 6 
#
# 1 28.0068 31.2672 26.5972 0.0000 -2.1418 0.0001
# 2 31.2672 180.1666 53.5452 0.0000 9.1079 -0.0002
# 3 26.5972 53.5452 74.3837 -0.0002 18.6251 0.0006
# 4 0.0000 0.0000 -0.0002 21.9093 0.0001 0.7981
# 5 -2.1418 9.1079 18.6251 0.0001 45.9911 -0.0003
# 6 0.0001 -0.0002 0.0006 0.7981 -0.0003 -3.0628
#
#
#
# Elastic Compliance Matrix: (Units=1/GPa)
#
#
# Indices 1 2 3 4 5 6 
#
# 1 0.063562 -0.005045 -0.022354 0.000000 0.013012 -0.000003
# 2 -0.005045 0.007484 -0.003509 0.000000 -0.000296 -0.000001
# 3 -0.022354 -0.003509 0.026764 0.000000 -0.011185 0.000006
# 4 0.000000 0.000000 0.000000 0.045214 0.000000 0.011782
# 5 0.013012 -0.000296 -0.011185 0.000000 0.026937 -0.000005
# 6 -0.000003 -0.000001 0.000006 0.011782 -0.000005 -0.323427
#
#
# Mechanical properties :
#
#
# Convention : Reuss Voigt Hill
#
# Bulk Modulus (GPa) = 27.78346 56.15293 41.96820
# Shear Modulus (GPa) = -62.77311 24.37735 -19.19788
#
# Velocity S-wave (km/s) = -5.30075 3.30327 -2.93142
# Velocity P-wave (km/s) = 5.00278 6.29949 2.70700
#
# Compressibility (1/GPa) = 0.03599263
#
# Stress axis : x y z
#
# Youngs Moduli (GPa) = 15.73264 133.62069 37.36427
#
# Poissons Ratio (x) = 0.67414 0.83525
# Poissons Ratio (y) = 0.07937 0.13112
# Poissons Ratio (z) = 0.35169 0.46890
#
# Static dielectric constant tensor:
#      x y z
#    x 1.858750 0.000000 -0.044330 
#    y 0.000000 1.779750 0.000000 
#    z -0.044330 0.000000 1.790960 
# 
# From -- ./inp_files/315657.got.cif
#   From: 2010.05.17/outbox.cif.g08.bks.cpg/sg12_158_cif.got.tgz:315657.got - 2010.06.03 13:09:07.
