data_PCOD9173572
_publ_section_title
;
Structure prediction by ZEFSAII (Michael W. Deem and Ramdas Pophale) SiO2 
 PCOD9173572
Probable space group: C 2/M
;
_chemical_formula_sum "Si O2"
_cell_formula_units_Z 36
_cell_length_a 7.682718
_cell_length_b 17.886102
_cell_length_c 21.510839
_cell_angle_alpha 90.000000
_cell_angle_beta 41.737319
_cell_angle_gamma 90.000000
_cell_volume 1967.783365
_symmetry_space_group_name_H-M "C 2/M"
_symmetry_group_IT_number 12
_symmetry_cell_setting 'monoclinic'
loop_
_space_group_symop_operation_xyz
x,y,z
-x,y,-z
-x,-y,-z
x,-y,z
1/2+x,1/2+y,z
1/2-x,1/2+y,-z
1/2-x,1/2-y,-z
1/2+x,1/2-y,z
loop_
_atom_site_type_symbol
_atom_site_label
_atom_site_fract_x
_atom_site_fract_y
_atom_site_fract_z
Si Si1 0.722791 0.659312 0.602627
Si Si2 0.000000 0.709147 0.000000
Si Si3 0.182867 0.587599 0.710499
Si Si4 0.419944 0.803099 0.683962
Si Si5 0.481775 0.807951 0.139428
O O1 0.487250 0.606365 0.643278
O O2 0.632071 0.742043 0.605207
O O3 0.000000 0.638253 0.500000
O O4 0.761212 0.665912 0.667157
O O5 0.248501 0.763550 0.933400
O O6 0.043072 0.664883 0.924799
O O7 0.143024 0.500000 0.714583
O O8 0.069749 0.633268 0.682031
O O9 0.033745 0.624316 0.808765
O O10 0.232606 0.753104 0.779141
#
# Coordination Sequence:
#
# PCOD9173572 Si02
#       5
#     8   4   8   8   8
#     4  11  22  37  65  91 114 152 209 249 281 345
#     4  10  18  30  66  86 108 144 202 252 278 338
#     4  11  24  40  58  86 126 160 191 242 302 351
#     4  11  20  38  63  88 117 156 199 241 295 350
#     4  10  18  36  57  89 111 150 199 239 289 350
#
# _framework density 18.294695999999998
#
# number of rings (size 3 to 8) (size 9 to 14) (size 15 to 20)
#    0.000    1.333    6.667    2.000    0.000    1.333 
#    0.000    2.222    0.000    0.000    0.000    0.000 
#    0.000    0.000    0.000    0.000    0.000    0.000 
#
# Total GULP energy -100349.540041 kJ/mol
# GULP energy per Si atom -5574.974447 kJ/mol
# Density = 1.825306 g / cm^3
# Si number density = 18.294696 Si / 1000 Ang^3
#
#
#
# Elastic Constant Matrix: (Units=GPa)
#
#
# Indices 1 2 3 4 5 6 
#
# 1 92.6758 21.3276 20.0646 0.0002 4.8077 -0.0009
# 2 21.3276 92.2830 5.1373 0.0003 7.2684 -0.0005
# 3 20.0646 5.1373 78.6695 -0.0008 -2.3583 0.0007
# 4 0.0002 0.0003 -0.0008 11.2392 -0.0004 1.2150
# 5 4.8077 7.2684 -2.3583 -0.0004 30.8772 0.0009
# 6 -0.0009 -0.0005 0.0007 1.2150 0.0009 23.3681
#
#
#
# Elastic Compliance Matrix: (Units=1/GPa)
#
#
# Indices 1 2 3 4 5 6 
#
# 1 0.012088 -0.002509 -0.002965 -0.000001 -0.001518 0.000001
# 2 -0.002509 0.011612 -0.000189 0.000000 -0.002357 0.000000
# 3 -0.002965 -0.000189 0.013526 0.000001 0.001539 -0.000001
# 4 -0.000001 0.000000 0.000001 0.089477 0.000002 -0.004652
# 5 -0.001518 -0.002357 0.001539 0.000002 0.033295 -0.000002
# 6 0.000001 0.000000 -0.000001 -0.004652 -0.000002 0.043035
#
#
# Mechanical properties :
#
#
# Convention : Reuss Voigt Hill
#
# Bulk Modulus (GPa) = 38.60882 39.63195 39.12039
# Shear Modulus (GPa) = 22.42215 27.57017 24.99616
#
# Velocity S-wave (km/s) = 3.50467 3.88623 3.70037
# Velocity P-wave (km/s) = 6.12589 6.46893 6.29975
#
# Compressibility (1/GPa) = 0.02590082
#
# Stress axis : x y z
#
# Youngs Moduli (GPa) = 82.72413 86.11556 73.93140
#
# Poissons Ratio (x) = 0.21608 0.21919
# Poissons Ratio (y) = 0.20757 0.01397
# Poissons Ratio (z) = 0.24526 0.01628
#
# Static dielectric constant tensor:
#      x y z
#    x 1.704460 0.000000 0.031150 
#    y 0.000000 1.580150 0.000000 
#    z 0.031150 0.000000 1.671690 
# 
# From -- ./inp_files/194224.got.cif
#   From: 2010.05.17/outbox.cif.g08.bks.cpg/sg12_98_cif.got.tgz:194224.got - 2010.06.03 13:09:07.
