data_PCOD9173475
_publ_section_title
;
Structure prediction by ZEFSAII (Michael W. Deem and Ramdas Pophale) SiO2 
 PCOD9173475
Probable space group: C 2/M
;
_chemical_formula_sum "Si O2"
_cell_formula_units_Z 48
_cell_length_a 14.270626
_cell_length_b 16.547833
_cell_length_c 11.884015
_cell_angle_alpha 90.000000
_cell_angle_beta 65.964570
_cell_angle_gamma 90.000000
_cell_volume 2563.054493
_symmetry_space_group_name_H-M "C 2/M"
_symmetry_group_IT_number 12
_symmetry_cell_setting 'monoclinic'
loop_
_space_group_symop_operation_xyz
x,y,z
-x,y,-z
-x,-y,-z
x,-y,z
1/2+x,1/2+y,z
1/2-x,1/2+y,-z
1/2-x,1/2-y,-z
1/2+x,1/2-y,z
loop_
_atom_site_type_symbol
_atom_site_label
_atom_site_fract_x
_atom_site_fract_y
_atom_site_fract_z
Si Si1 0.607428 0.401877 0.501313
Si Si2 0.912192 0.136374 0.910700
Si Si3 0.638012 0.597721 0.740716
Si Si4 0.219858 0.096561 0.226486
Si Si5 0.107640 0.678727 0.005526
Si Si6 0.779685 0.590432 0.855268
O O1 0.500000 0.373385 0.500000
O O2 0.600099 0.500000 0.511436
O O3 0.629277 0.372900 0.616841
O O4 0.696135 0.384430 0.367361
O O5 0.881474 0.116907 0.796889
O O6 0.032615 0.118546 0.857534
O O7 0.892166 0.227336 0.961660
O O8 0.826245 0.086937 0.020674
O O9 0.644996 0.500000 0.736641
O O10 0.737653 0.628377 0.759971
O O11 0.306886 0.150263 0.125563
O O12 0.241458 0.000000 0.204750
O O13 0.138490 0.635063 0.106941
O O14 0.000000 0.658248 0.000000
O O15 0.817092 0.500000 0.816179
#
# Coordination Sequence:
#
# PCOD9173475 Si02
#       6
#     8   8   8   8   8   8
#     4   9  16  29  52  82 111 133 159 205 265 322
#     4  11  19  31  52  77 110 137 166 209 268 318
#     4  10  18  30  53  84 111 132 160 207 271 326
#     4  10  19  33  56  82 105 135 174 214 256 306
#     4  11  23  36  51  70 103 147 184 215 250 296
#     4  10  20  32  50  76 103 133 172 218 263 306
#
# _framework density 18.727654999999999
#
# number of rings (size 3 to 8) (size 9 to 14) (size 15 to 20)
#    0.000    1.833    1.667    6.500    0.000    2.667 
#    0.000    0.000    0.000   12.000    0.000    4.667 
#    0.000    0.000    0.000    0.333    0.000    0.000 
#
# Total GULP energy -133767.770373 kJ/mol
# GULP energy per Si atom -5573.657099 kJ/mol
# Density = 1.868503 g / cm^3
# Si number density = 18.727655 Si / 1000 Ang^3
#
#
#
# Elastic Constant Matrix: (Units=GPa)
#
#
# Indices 1 2 3 4 5 6 
#
# 1 96.7413 34.7127 21.0191 0.0000 27.6794 0.0000
# 2 34.7127 53.5431 18.0593 0.0000 6.8291 0.0000
# 3 21.0191 18.0593 87.0313 0.0000 27.4783 0.0000
# 4 0.0000 0.0000 0.0000 -9.7480 0.0000 1.8539
# 5 27.6794 6.8291 27.4783 0.0000 29.3192 0.0000
# 6 0.0000 0.0000 0.0000 1.8539 0.0000 21.4201
#
#
#
# Elastic Compliance Matrix: (Units=1/GPa)
#
#
# Indices 1 2 3 4 5 6 
#
# 1 0.018844 -0.011064 0.003619 0.000000 -0.018604 0.000000
# 2 -0.011064 0.026603 -0.005950 0.000000 0.009826 0.000000
# 3 0.003619 -0.005950 0.017742 0.000000 -0.018658 0.000000
# 4 0.000000 0.000000 0.000000 -0.100923 0.000000 0.008735
# 5 -0.018604 0.009826 -0.018658 0.000000 0.066869 0.000000
# 6 0.000000 0.000000 0.000000 0.008735 0.000000 0.045929
#
#
# Mechanical properties :
#
#
# Convention : Reuss Voigt Hill
#
# Bulk Modulus (GPa) = 27.47472 42.76642 35.12057
# Shear Modulus (GPa) = 43.86420 19.09989 31.48205
#
# Velocity S-wave (km/s) = 4.84489 3.19701 4.10450
# Velocity P-wave (km/s) = 6.78232 6.04263 6.42313
#
# Compressibility (1/GPa) = 0.03639709
#
# Stress axis : x y z
#
# Youngs Moduli (GPa) = 53.06819 37.58907 56.36395
#
# Poissons Ratio (x) = 0.41590 -0.20397
# Poissons Ratio (y) = 0.58716 0.33539
# Poissons Ratio (z) = -0.19204 0.22367
#
# Static dielectric constant tensor:
#      x y z
#    x 1.687770 0.000000 0.044960 
#    y 0.000000 1.646560 0.000000 
#    z 0.044960 0.000000 1.689130 
# 
# From -- ./inp_files/144797.got.cif
#   From: 2010.05.17/outbox.cif.g08.bks.cpg/sg12_73_cif.got.tgz:144797.got - 2010.06.03 13:09:07.
