data_PCOD9173625
_publ_section_title
;
Structure prediction by ZEFSAII (Michael W. Deem and Ramdas Pophale) SiO2 
 PCOD9173625
Probable space group: C 2/M
;
_chemical_formula_sum "Si O2"
_cell_formula_units_Z 64
_cell_length_a 25.442886
_cell_length_b 7.466829
_cell_length_c 16.531618
_cell_angle_alpha 90.000000
_cell_angle_beta 81.210467
_cell_angle_gamma 90.000000
_cell_volume 3103.755744
_symmetry_space_group_name_H-M "C 2/M"
_symmetry_group_IT_number 12
_symmetry_cell_setting 'monoclinic'
loop_
_space_group_symop_operation_xyz
x,y,z
-x,y,-z
-x,-y,-z
x,-y,z
1/2+x,1/2+y,z
1/2-x,1/2+y,-z
1/2-x,1/2-y,-z
1/2+x,1/2-y,z
loop_
_atom_site_type_symbol
_atom_site_label
_atom_site_fract_x
_atom_site_fract_y
_atom_site_fract_z
Si Si1 0.104587 0.714127 0.981686
Si Si2 0.457865 0.713119 0.855340
Si Si3 0.010503 0.218240 0.406836
Si Si4 0.155885 0.291004 0.803747
Si Si5 0.888253 0.219175 0.720104
Si Si6 0.273284 0.298665 0.757588
Si Si7 0.442871 0.716454 0.270775
Si Si8 0.298935 0.212827 0.930462
O O1 0.106133 0.500000 0.975106
O O2 0.052587 0.751877 0.047830
O O3 0.149961 0.777672 0.033102
O O4 0.123107 0.783572 0.889381
O O5 0.458308 0.500000 0.845701
O O6 0.412445 0.778297 0.801965
O O7 0.514203 0.778571 0.806951
O O8 0.067339 0.270171 0.355787
O O9 0.000000 0.280386 0.500000
O O10 0.966136 0.273188 0.351774
O O11 0.010102 0.000000 0.407856
O O12 0.166754 0.500000 0.820186
O O13 0.214323 0.213721 0.770305
O O14 0.115364 0.279121 0.739328
O O15 0.828818 0.283727 0.713189
O O16 0.885637 0.000000 0.723022
O O17 0.268912 0.500000 0.724012
O O18 0.287512 0.306059 0.849169
O O19 0.442117 0.500000 0.269774
O O20 0.303673 0.000000 0.915143
O O21 0.250000 0.250000 0.000000
#
# Coordination Sequence:
#
# PCOD9173625 Si02
#       8
#     8   8   8   8   8   8   8   8
#     4  10  20  31  43  64  92 124 168 206 239 281
#     4   9  17  30  48  67  90 121 159 205 249 278
#     4   8  14  28  53  82 103 116 142 192 246 290
#     4  10  21  34  45  62  93 134 168 196 232 281
#     4   8  14  25  46  73  96 120 151 194 243 284
#     4  10  18  31  48  67  94 127 166 204 238 284
#     4   9  19  34  50  72  96 121 158 197 235 289
#     4  11  20  30  44  65  93 126 167 213 250 278
#
# _framework density 20.620179
#
# number of rings (size 3 to 8) (size 9 to 14) (size 15 to 20)
#    0.000    2.625    2.500    1.875    0.000    2.500 
#    0.000    2.500    0.000    1.125    0.000    0.000 
#    0.000    0.000    0.000    0.000    0.000    0.000 
#
# Total GULP energy -178363.866693 kJ/mol
# GULP energy per Si atom -5573.870834 kJ/mol
# Density = 2.057325 g / cm^3
# Si number density = 20.620179 Si / 1000 Ang^3
#
#
#
# Elastic Constant Matrix: (Units=GPa)
#
#
# Indices 1 2 3 4 5 6 
#
# 1 138.4168 2.3187 71.5077 0.0000 2.0493 0.0000
# 2 2.3187 65.3031 -2.2471 0.0000 -0.1255 0.0000
# 3 71.5077 -2.2471 108.5009 0.0000 -13.9266 0.0000
# 4 0.0000 0.0000 0.0000 0.8111 0.0000 5.5067
# 5 2.0493 -0.1255 -13.9266 0.0000 17.4598 0.0000
# 6 0.0000 0.0000 0.0000 5.5067 0.0000 7.2867
#
#
#
# Elastic Compliance Matrix: (Units=1/GPa)
#
#
# Indices 1 2 3 4 5 6 
#
# 1 0.012050 -0.000757 -0.009068 0.000000 -0.008653 0.000000
# 2 -0.000757 0.015374 0.000939 0.000000 0.000948 0.000000
# 3 -0.009068 0.000939 0.017100 0.000000 0.014711 0.000000
# 4 0.000000 0.000000 0.000000 -0.298471 0.000000 0.225559
# 5 -0.008653 0.000948 0.014711 0.000000 0.070031 0.000000
# 6 0.000000 0.000000 0.000000 0.225559 0.000000 -0.033222
#
#
# Mechanical properties :
#
#
# Convention : Reuss Voigt Hill
#
# Bulk Modulus (GPa) = 37.37874 50.59771 43.98823
# Shear Modulus (GPa) = -26.25379 21.15428 -2.54976
#
# Velocity S-wave (km/s) = -3.57208 3.20644 -1.11320
# Velocity P-wave (km/s) = 1.07408 6.18867 4.44147
#
# Compressibility (1/GPa) = 0.02675317
#
# Stress axis : x y z
#
# Youngs Moduli (GPa) = 82.98882 65.04403 58.47869
#
# Poissons Ratio (x) = 0.04921 0.53027
# Poissons Ratio (y) = 0.06278 -0.05489
# Poissons Ratio (z) = 0.75252 -0.06105
#
# Static dielectric constant tensor:
#      x y z
#    x 1.818710 0.000000 -0.049570 
#    y 0.000000 1.735430 0.000000 
#    z -0.049570 0.000000 1.734580 
# 
# From -- ./inp_files/287574.got.cif
#   From: 2010.05.17/outbox.cif.g08.bks.cpg/sg12_144_cif.got.tgz:287574.got - 2010.06.03 13:09:07.
