data_PCOD9173326
_publ_section_title
;
Structure prediction by ZEFSAII (Michael W. Deem and Ramdas Pophale) SiO2 
 PCOD9173326
Probable space group: C 2/M
;
_chemical_formula_sum "Si O2"
_cell_formula_units_Z 64
_cell_length_a 30.098017
_cell_length_b 13.631895
_cell_length_c 21.467680
_cell_angle_alpha 90.000000
_cell_angle_beta 19.404192
_cell_angle_gamma 90.000000
_cell_volume 2926.296037
_symmetry_space_group_name_H-M "C 2/M"
_symmetry_group_IT_number 12
_symmetry_cell_setting 'monoclinic'
loop_
_space_group_symop_operation_xyz
x,y,z
-x,y,-z
-x,-y,-z
x,-y,z
1/2+x,1/2+y,z
1/2-x,1/2+y,-z
1/2-x,1/2-y,-z
1/2+x,1/2-y,z
loop_
_atom_site_type_symbol
_atom_site_label
_atom_site_fract_x
_atom_site_fract_y
_atom_site_fract_z
Si Si1 0.640577 0.117147 0.601904
Si Si2 0.947108 0.886370 0.224687
Si Si3 0.292765 0.118613 0.272185
Si Si4 0.277833 0.879578 0.908200
Si Si5 0.658058 0.886978 0.309517
Si Si6 0.420739 0.880476 0.455777
Si Si7 0.497559 0.615698 0.305288
Si Si8 0.008084 0.698208 0.086276
O O1 0.790301 0.138714 0.426014
O O2 0.625582 0.150729 0.550871
O O3 0.533206 0.160561 0.791059
O O4 0.624720 0.000000 0.624358
O O5 0.021980 0.814383 0.078389
O O6 0.979493 0.875003 0.254646
O O7 0.966236 0.000000 0.182838
O O8 0.384563 0.169074 0.204030
O O9 0.138102 0.149599 0.482374
O O10 0.301227 0.000000 0.270299
O O11 0.363821 0.147834 0.113859
O O12 0.272709 0.842742 0.843065
O O13 0.422986 0.856260 0.742996
O O14 0.273644 0.000000 0.910437
O O15 0.147737 0.846838 0.118368
O O16 0.500000 0.889907 0.500000
O O17 0.659154 0.844907 0.377566
O O18 0.704743 0.000000 0.251718
O O19 0.411549 0.000000 0.470017
O O20 0.501490 0.500000 0.314614
#
# Coordination Sequence:
#
# PCOD9173326 Si02
#       8
#     8   8   8   8   8   8   8   8
#     4  10  18  30  51  80 117 150 180 225 282 343
#     4  10  21  36  54  81 111 146 182 225 288 344
#     4  10  20  35  57  85 109 141 199 242 266 315
#     4   8  13  24  46  73 103 145 191 230 270 316
#     4   7  10  19  36  61  95 136 185 226 251 297
#     4   8  14  24  43  74 109 147 187 226 271 330
#     4   9  17  31  53  79 110 144 186 236 270 315
#     4  11  20  34  56  79 106 148 189 236 279 326
#
# _framework density 21.870650999999999
#
# number of rings (size 3 to 8) (size 9 to 14) (size 15 to 20)
#    0.000    2.875    1.250    3.375    0.000    0.000 
#    0.000    3.750    0.000    7.500    0.000    4.375 
#    0.000    0.000    0.000    0.250    0.000    2.625 
#
# Total GULP energy -178662.993943 kJ/mol
# GULP energy per Si atom -5583.218561 kJ/mol
# Density = 2.182087 g / cm^3
# Si number density = 21.870651 Si / 1000 Ang^3
#
#
#
# Elastic Constant Matrix: (Units=GPa)
#
#
# Indices 1 2 3 4 5 6 
#
# 1 -5.3269 -24.8333 -38.0430 0.0000 -4.7755 0.0000
# 2 -24.8333 76.7173 -11.9578 0.0000 7.1161 0.0000
# 3 -38.0430 -11.9578 100.1130 0.0000 -11.7811 0.0000
# 4 0.0000 0.0000 0.0000 18.0455 0.0000 19.0195
# 5 -4.7755 7.1161 -11.7811 0.0000 23.0809 0.0000
# 6 0.0000 0.0000 0.0000 19.0195 0.0000 2.3469
#
#
#
# Elastic Compliance Matrix: (Units=1/GPa)
#
#
# Indices 1 2 3 4 5 6 
#
# 1 -0.029791 -0.010878 -0.013778 0.000000 -0.009843 0.000000
# 2 -0.010878 0.009581 -0.003832 0.000000 -0.007160 0.000000
# 3 -0.013778 -0.003832 0.004361 0.000000 0.000557 0.000000
# 4 0.000000 0.000000 0.000000 -0.007348 0.000000 0.059549
# 5 -0.009843 -0.007160 0.000557 0.000000 0.043781 0.000000
# 6 0.000000 0.000000 0.000000 0.059549 0.000000 -0.056499
#
#
# Mechanical properties :
#
#
# Convention : Reuss Voigt Hill
#
# Bulk Modulus (GPa) = -13.73135 2.42611 -5.65262
# Shear Modulus (GPa) = -1555.23522 25.11714 -765.05904
#
# Velocity S-wave (km/s) = -26.69550 3.39254 -18.72352
# Velocity P-wave (km/s) = 30.92720 4.05678 21.67988
#
# Compressibility (1/GPa) = -0.07282604
#
# Stress axis : x y z
#
# Youngs Moduli (GPa) = -33.56703 104.37770 229.31735
#
# Poissons Ratio (x) = 1.13542 3.15959
# Poissons Ratio (y) = -0.36514 0.87873
# Poissons Ratio (z) = -0.46249 0.39997
#
# Static dielectric constant tensor:
#      x y z
#    x 1.787810 0.000000 -0.019640 
#    y 0.000000 1.848650 0.000000 
#    z -0.019640 0.000000 1.825370 
# 
# From -- ./inp_files/330366.got.cif
#   From: 2010.05.17/outbox.cif.g08.bks.cpg/sg12_166_cif.got.tgz:330366.got - 2010.06.03 13:09:07.
