data_PCOD9173219
_publ_section_title
;
Structure prediction by ZEFSAII (Michael W. Deem and Ramdas Pophale) SiO2 
 PCOD9173219
Probable space group: C 2/M
;
_chemical_formula_sum "Si O2"
_cell_formula_units_Z 64
_cell_length_a 19.981327
_cell_length_b 8.472553
_cell_length_c 27.864451
_cell_angle_alpha 90.000000
_cell_angle_beta 49.370678
_cell_angle_gamma 90.000000
_cell_volume 3580.102861
_symmetry_space_group_name_H-M "C 2/M"
_symmetry_group_IT_number 12
_symmetry_cell_setting 'monoclinic'
loop_
_space_group_symop_operation_xyz
x,y,z
-x,y,-z
-x,-y,-z
x,-y,z
1/2+x,1/2+y,z
1/2-x,1/2+y,-z
1/2-x,1/2-y,-z
1/2+x,1/2-y,z
loop_
_atom_site_type_symbol
_atom_site_label
_atom_site_fract_x
_atom_site_fract_y
_atom_site_fract_z
Si Si1 0.054891 0.309370 0.928700
Si Si2 0.731179 0.190128 0.390746
Si Si3 0.843287 0.310679 0.477265
Si Si4 0.072625 0.690535 0.209676
Si Si5 0.419828 0.688621 0.349240
Si Si6 0.765083 0.311675 0.273231
Si Si7 0.468759 0.808097 0.166728
Si Si8 0.251122 0.811321 0.823295
O O1 0.052023 0.500000 0.930257
O O2 0.156862 0.259525 0.881705
O O3 0.017087 0.255748 0.894664
O O4 0.000000 0.251244 0.000000
O O5 0.660683 0.235749 0.464824
O O6 0.828183 0.238426 0.365675
O O7 0.719170 0.260020 0.343750
O O8 0.731242 0.000000 0.387414
O O9 0.845105 0.500000 0.474036
O O10 0.750000 0.250000 0.500000
O O11 0.914193 0.242727 0.407207
O O12 0.074670 0.500000 0.207193
O O13 0.036976 0.748503 0.174884
O O14 0.169145 0.745403 0.180382
O O15 0.001296 0.740295 0.282617
O O16 0.423297 0.500000 0.345985
O O17 0.762279 0.500000 0.269729
O O18 0.729775 0.236788 0.240692
O O19 0.868721 0.263083 0.227775
O O20 0.471141 0.000000 0.165778
O O21 0.245268 0.000000 0.828694
#
# Coordination Sequence:
#
# PCOD9173219 Si02
#       8
#     8   8   8   8   8   8   8   8
#     4   9  18  35  58  80 103 133 169 207 246 293
#     4   9  17  28  44  70 100 128 166 214 259 299
#     4   9  17  28  42  65  98 133 169 212 258 307
#     4  10  19  33  51  72 101 137 172 208 253 302
#     4  10  19  29  45  71 101 133 168 212 260 304
#     4  10  18  30  51  73  97 132 170 212 256 302
#     4   8  15  29  50  75  97 127 169 204 240 291
#     4  10  21  34  51  75 105 135 166 209 254 300
#
# _framework density 17.876581999999999
#
# number of rings (size 3 to 8) (size 9 to 14) (size 15 to 20)
#    0.000    2.625    1.250    3.000    0.000    3.750 
#    0.000    0.625    0.000    0.750    0.000    5.250 
#    0.000    0.000    0.000    0.000    0.000    0.000 
#
# Total GULP energy -178344.349206 kJ/mol
# GULP energy per Si atom -5573.260913 kJ/mol
# Density = 1.783589 g / cm^3
# Si number density = 17.876582 Si / 1000 Ang^3
#
#
#
# Elastic Constant Matrix: (Units=GPa)
#
#
# Indices 1 2 3 4 5 6 
#
# 1 109.3134 11.5345 60.0020 -0.0004 16.6503 0.0002
# 2 11.5345 7.6922 8.1722 -0.0025 3.5225 -0.0028
# 3 60.0020 8.1722 135.0103 0.0000 27.6492 0.0000
# 4 -0.0004 -0.0025 0.0000 22.8682 0.0000 0.1843
# 5 16.6503 3.5225 27.6492 0.0000 19.6927 0.0001
# 6 0.0002 -0.0028 0.0000 0.1843 0.0001 16.0178
#
#
#
# Elastic Compliance Matrix: (Units=1/GPa)
#
#
# Indices 1 2 3 4 5 6 
#
# 1 0.013593 -0.014323 -0.004695 -0.000001 -0.002339 -0.000003
# 2 -0.014323 0.158897 0.000124 0.000017 -0.016486 0.000028
# 3 -0.004695 0.000124 0.012180 0.000000 -0.013153 0.000000
# 4 -0.000001 0.000017 0.000000 0.043733 -0.000002 -0.000503
# 5 -0.002339 -0.016486 -0.013153 -0.000002 0.074174 -0.000003
# 6 -0.000003 0.000028 0.000000 -0.000503 -0.000003 0.062436
#
#
# Mechanical properties :
#
#
# Convention : Reuss Voigt Hill
#
# Bulk Modulus (GPa) = 6.80829 45.71482 26.26155
# Shear Modulus (GPa) = 11.06780 23.20289 17.13534
#
# Velocity S-wave (km/s) = 2.49092 3.60661 3.09938
# Velocity P-wave (km/s) = 3.47702 6.55527 5.24696
#
# Compressibility (1/GPa) = 0.14687979
#
# Stress axis : x y z
#
# Youngs Moduli (GPa) = 73.56898 6.29340 82.10467
#
# Poissons Ratio (x) = 0.09014 0.38548
# Poissons Ratio (y) = 1.05376 -0.01017
# Poissons Ratio (z) = 0.34541 -0.00078
#
# Static dielectric constant tensor:
#      x y z
#    x 1.615780 0.000000 0.023640 
#    y 0.000000 1.604570 0.000000 
#    z 0.023640 0.000000 1.616530 
# 
# From -- ./inp_files/365163.got.cif
#   From: 2010.05.17/outbox.cif.g08.bks.cpg/sg12_183_cif.got.tgz:365163.got - 2010.06.03 13:09:07.
