data_PCOD9173928
_publ_section_title
;
Structure prediction by ZEFSAII (Michael W. Deem and Ramdas Pophale) SiO2 
 PCOD9173928
Probable space group: C 2/M
;
_chemical_formula_sum "Si O2"
_cell_formula_units_Z 48
_cell_length_a 8.081239
_cell_length_b 14.723087
_cell_length_c 19.523665
_cell_angle_alpha 90.000000
_cell_angle_beta 65.505053
_cell_angle_gamma 90.000000
_cell_volume 2113.871278
_symmetry_space_group_name_H-M "C 2/M"
_symmetry_group_IT_number 12
_symmetry_cell_setting 'monoclinic'
loop_
_space_group_symop_operation_xyz
x,y,z
-x,y,-z
-x,-y,-z
x,-y,z
1/2+x,1/2+y,z
1/2-x,1/2+y,-z
1/2-x,1/2-y,-z
1/2+x,1/2-y,z
loop_
_atom_site_type_symbol
_atom_site_label
_atom_site_fract_x
_atom_site_fract_y
_atom_site_fract_z
Si Si1 0.413124 0.611651 0.587340
Si Si2 0.993531 0.605067 0.326472
Si Si3 0.637283 0.355705 0.163426
Si Si4 0.647413 0.394883 0.673391
Si Si5 0.463945 0.855788 0.836678
Si Si6 0.800469 0.356061 0.000051
O O1 0.500000 0.636011 0.500000
O O2 0.408373 0.500000 0.592178
O O3 0.535186 0.644794 0.629642
O O4 0.206382 0.644780 0.629996
O O5 0.979202 0.500000 0.350564
O O6 0.159569 0.647755 0.339959
O O7 0.043914 0.605041 0.237624
O O8 0.480626 0.394777 0.237796
O O9 0.586520 0.249947 0.163604
O O10 0.830567 0.365307 0.169463
O O11 0.665149 0.392870 0.081438
O O12 0.681312 0.500000 0.649453
O O13 0.327859 0.892917 0.918718
O O14 0.750000 0.250000 0.000000
O O15 0.000000 0.361406 0.000000
#
# Coordination Sequence:
#
# PCOD9173928 Si02
#       6
#     8   8   8   8   8   8
#     4   9  18  34  56  79 103 133 168 211 260 309
#     4  10  20  34  53  79 107 135 172 214 256 307
#     4  10  18  31  51  76 104 139 176 216 257 305
#     4  10  20  34  53  79 107 135 172 214 256 307
#     4  10  18  31  51  76 104 139 176 216 257 305
#     4   8  16  28  45  70 101 133 174 216 252 292
#
# _framework density 22.707155
#
# number of rings (size 3 to 8) (size 9 to 14) (size 15 to 20)
#    0.000    2.500    1.667    1.000    0.000    2.000 
#    0.000    4.167    0.000    6.000    0.000    0.000 
#    0.000    0.000    0.000    0.000    0.000    0.000 
#
# Total GULP energy -133946.768278 kJ/mol
# GULP energy per Si atom -5581.115345 kJ/mol
# Density = 2.265547 g / cm^3
# Si number density = 22.707155 Si / 1000 Ang^3
#
#
#
# Elastic Constant Matrix: (Units=GPa)
#
#
# Indices 1 2 3 4 5 6 
#
# 1 179.3817 11.1484 99.6977 0.0000 -1.9278 0.0000
# 2 11.1484 55.2172 -1.0264 0.0000 -0.4098 0.0000
# 3 99.6977 -1.0264 163.3398 0.0000 3.1542 0.0000
# 4 0.0000 0.0000 0.0000 22.0374 0.0000 0.3234
# 5 -1.9278 -0.4098 3.1542 0.0000 3.0637 0.0000
# 6 0.0000 0.0000 0.0000 0.3234 0.0000 13.2071
#
#
#
# Elastic Compliance Matrix: (Units=1/GPa)
#
#
# Indices 1 2 3 4 5 6 
#
# 1 0.008986 -0.001837 -0.005715 0.000000 0.011292 0.000000
# 2 -0.001837 0.018504 0.001236 0.000000 0.000046 0.000000
# 3 -0.005715 0.001236 0.009881 0.000000 -0.013603 0.000000
# 4 0.000000 0.000000 0.000000 0.045394 0.000000 -0.001111
# 5 0.011292 0.000046 -0.013603 0.000000 0.347518 0.000000
# 6 0.000000 0.000000 0.000000 -0.001111 0.000000 0.075744
#
#
# Mechanical properties :
#
#
# Convention : Reuss Voigt Hill
#
# Bulk Modulus (GPa) = 40.41754 68.61980 54.51867
# Shear Modulus (GPa) = 9.48939 26.86958 18.17948
#
# Velocity S-wave (km/s) = 2.04649 3.44366 2.83257
# Velocity P-wave (km/s) = 4.83965 6.78946 5.89572
#
# Compressibility (1/GPa) = 0.02474173
#
# Stress axis : x y z
#
# Youngs Moduli (GPa) = 111.28081 54.04101 101.20805
#
# Poissons Ratio (x) = 0.09926 0.57836
# Poissons Ratio (y) = 0.20439 -0.12514
# Poissons Ratio (z) = 0.63592 -0.06682
#
# Static dielectric constant tensor:
#      x y z
#    x 1.853880 0.000000 -0.001070 
#    y 0.000000 2.021940 0.000000 
#    z -0.001070 0.000000 1.826540 
# 
# From -- ./inp_files/300395.got.cif
#   From: 2010.05.17/outbox.cif.g08.bks.cpg/sg12_151_cif.got.tgz:300395.got - 2010.06.03 13:09:07.
