data_PCOD9173111
_publ_section_title
;
Structure prediction by ZEFSAII (Michael W. Deem and Ramdas Pophale) SiO2 
 PCOD9173111
Probable space group: C 2/M
;
_chemical_formula_sum "Si O2"
_cell_formula_units_Z 48
_cell_length_a 20.964796
_cell_length_b 7.586505
_cell_length_c 24.103929
_cell_angle_alpha 90.000000
_cell_angle_beta 39.314772
_cell_angle_gamma 90.000000
_cell_volume 2428.968804
_symmetry_space_group_name_H-M "C 2/M"
_symmetry_group_IT_number 12
_symmetry_cell_setting 'monoclinic'
loop_
_space_group_symop_operation_xyz
x,y,z
-x,y,-z
-x,-y,-z
x,-y,z
1/2+x,1/2+y,z
1/2-x,1/2+y,-z
1/2-x,1/2-y,-z
1/2+x,1/2-y,z
loop_
_atom_site_type_symbol
_atom_site_label
_atom_site_fract_x
_atom_site_fract_y
_atom_site_fract_z
Si Si1 0.029157 0.708728 0.235534
Si Si2 0.607241 0.215862 0.950837
Si Si3 0.514798 0.291672 0.428225
Si Si4 0.362904 0.211877 0.943665
Si Si5 0.866658 0.709860 0.430511
Si Si6 0.819849 0.213426 0.768321
O O1 0.011765 0.500000 0.240169
O O2 0.059996 0.781193 0.154882
O O3 0.123663 0.733712 0.213092
O O4 0.934294 0.781239 0.333836
O O5 0.704464 0.271584 0.849791
O O6 0.607946 0.000000 0.950255
O O7 0.500000 0.273129 0.000000
O O8 0.620510 0.275956 0.005249
O O9 0.500000 0.217882 0.500000
O O10 0.533794 0.500000 0.421936
O O11 0.417923 0.273131 0.453233
O O12 0.610219 0.220236 0.329084
O O13 0.373743 0.000000 0.937932
O O14 0.250000 0.250000 0.000000
O O15 0.878535 0.500000 0.423299
O O16 0.750000 0.750000 0.500000
O O17 0.820766 0.000000 0.765854
#
# Coordination Sequence:
#
# PCOD9173111 Si02
#       6
#     8   8   8   8   8   8
#     4   9  18  31  49  74  98 126 163 202 247 292
#     4   9  17  29  45  70  99 126 158 196 239 285
#     4   9  18  33  52  76 101 130 170 212 252 299
#     4  10  18  30  50  74  97 126 162 202 241 288
#     4  10  20  35  53  75 103 135 167 209 260 305
#     4   9  16  29  50  72  94 128 166 200 241 289
#
# _framework density 19.761472000000001
#
# number of rings (size 3 to 8) (size 9 to 14) (size 15 to 20)
#    0.000    2.667    1.667    0.500    0.000    1.000 
#    3.000    0.000    0.000    2.000    0.000    0.000 
#    0.000    0.000    0.000    0.000    0.000    0.000 
#
# Total GULP energy -133830.934896 kJ/mol
# GULP energy per Si atom -5576.288954 kJ/mol
# Density = 1.971649 g / cm^3
# Si number density = 19.761472 Si / 1000 Ang^3
#
#
#
# Elastic Constant Matrix: (Units=GPa)
#
#
# Indices 1 2 3 4 5 6 
#
# 1 128.7469 -10.8345 104.2306 0.0002 1.9490 -0.0003
# 2 -10.8345 40.8508 -2.1302 0.0007 8.6168 -0.0011
# 3 104.2306 -2.1302 173.8367 0.0001 3.9174 -0.0002
# 4 0.0002 0.0007 0.0001 3.5767 0.0000 -1.0547
# 5 1.9490 8.6168 3.9174 0.0000 39.8784 0.0001
# 6 -0.0003 -0.0011 -0.0002 -1.0547 0.0001 18.8825
#
#
#
# Elastic Compliance Matrix: (Units=1/GPa)
#
#
# Indices 1 2 3 4 5 6 
#
# 1 0.015639 0.003804 -0.009315 -0.000001 -0.000671 0.000000
# 2 0.003804 0.026607 -0.001825 -0.000005 -0.005756 0.000001
# 3 -0.009315 -0.001825 0.011321 0.000000 -0.000263 0.000000
# 4 -0.000001 -0.000005 0.000000 0.284273 0.000001 0.015878
# 5 -0.000671 -0.005756 -0.000263 0.000001 0.026379 0.000000
# 6 0.000000 0.000001 0.000000 0.015878 0.000000 0.053846
#
#
# Mechanical properties :
#
#
# Convention : Reuss Voigt Hill
#
# Bulk Modulus (GPa) = 25.71067 58.44068 42.07568
# Shear Modulus (GPa) = 11.21826 29.27874 20.24850
#
# Velocity S-wave (km/s) = 2.38520 3.85334 3.20448
# Velocity P-wave (km/s) = 4.54140 7.03100 5.91858
#
# Compressibility (1/GPa) = 0.03889435
#
# Stress axis : x y z
#
# Youngs Moduli (GPa) = 63.94400 37.58405 88.32916
#
# Poissons Ratio (x) = -0.14295 0.82279
# Poissons Ratio (y) = -0.24321 0.16119
# Poissons Ratio (z) = 0.59564 0.06858
#
# Static dielectric constant tensor:
#      x y z
#    x 1.601930 0.000000 0.026280 
#    y 0.000000 1.735900 0.000000 
#    z 0.026280 0.000000 1.740300 
# 
# From -- ./inp_files/229304.got.cif
#   From: 2010.05.17/outbox.cif.g08.bks.cpg/sg12_115_cif.got.tgz:229304.got - 2010.06.03 13:09:07.
