data_PCOD9173682
_publ_section_title
;
Structure prediction by ZEFSAII (Michael W. Deem and Ramdas Pophale) SiO2 
 PCOD9173682
Probable space group: C 2/M
;
_chemical_formula_sum "Si O2"
_cell_formula_units_Z 42
_cell_length_a 13.264503
_cell_length_b 7.634229
_cell_length_c 15.629391
_cell_angle_alpha 90.000000
_cell_angle_beta 70.379182
_cell_angle_gamma 90.000000
_cell_volume 1490.800019
_symmetry_space_group_name_H-M "C 2/M"
_symmetry_group_IT_number 12
_symmetry_cell_setting 'monoclinic'
loop_
_space_group_symop_operation_xyz
x,y,z
-x,y,-z
-x,-y,-z
x,-y,z
1/2+x,1/2+y,z
1/2-x,1/2+y,-z
1/2-x,1/2-y,-z
1/2+x,1/2-y,z
loop_
_atom_site_type_symbol
_atom_site_label
_atom_site_fract_x
_atom_site_fract_y
_atom_site_fract_z
Si Si1 0.666959 0.798945 0.285909
Si Si2 0.166910 0.289642 0.097532
Si Si3 0.500000 0.000000 0.000000
Si Si4 0.575406 0.295288 0.674789
Si Si5 0.126117 0.710880 0.478323
Si Si6 0.426370 0.697444 0.135517
O O1 0.707895 0.742269 0.180996
O O2 0.537060 0.801984 0.307663
O O3 0.676926 0.713862 0.376527
O O4 0.701631 0.000000 0.286343
O O5 0.140399 0.500000 0.101322
O O6 0.054931 0.193130 0.117365
O O7 0.250000 0.250000 0.000000
O O8 0.425125 0.153105 0.065720
O O9 0.549465 0.500000 0.687524
O O10 0.646741 0.273364 0.569204
O O11 0.618502 0.250766 0.757273
O O12 0.137307 0.500000 0.475847
O O13 0.000000 0.750960 0.500000
O O14 0.394009 0.500000 0.118118
#
# Coordination Sequence:
#
# PCOD9173682 Si02
#       6
#     8   8   2   8   8   8
#     4   8  15  25  37  56  86 125 160 186 230 285
#     4  10  18  31  49  70 100 138 170 205 248 296
#     4  12  22  36  56  70  98 136 166 214 254 294
#     4   9  16  24  38  60  88 119 152 190 236 287
#     4   8  13  21  35  54  81 120 155 184 222 285
#     4  10  21  35  50  74 100 131 170 207 250 299
#
# _framework density 28.172792000000001
#
# number of rings (size 3 to 8) (size 9 to 14) (size 15 to 20)
#    0.000    2.857    0.952    2.571    2.667    4.190 
#    0.000    0.000    0.000    0.000    0.000    0.000 
#    0.000    1.524    2.667    0.571    0.000    0.381 
#
# Total GULP energy -117330.395313 kJ/mol
# GULP energy per Si atom -5587.161682 kJ/mol
# Density = 2.810867 g / cm^3
# Si number density = 28.172792 Si / 1000 Ang^3
#
#
#
# Elastic Constant Matrix: (Units=GPa)
#
#
# Indices 1 2 3 4 5 6 
#
# 1 74.4601 25.3866 40.0950 0.0000 4.0108 0.0000
# 2 25.3866 125.2535 67.1985 0.0000 -3.4047 0.0000
# 3 40.0950 67.1985 295.8947 0.0000 -35.7066 0.0000
# 4 0.0000 0.0000 0.0000 44.0132 0.0000 -0.6571
# 5 4.0108 -3.4047 -35.7066 0.0000 66.8684 0.0000
# 6 0.0000 0.0000 0.0000 -0.6571 0.0000 19.9145
#
#
#
# Elastic Compliance Matrix: (Units=1/GPa)
#
#
# Indices 1 2 3 4 5 6 
#
# 1 0.015255 -0.002173 -0.001814 0.000000 -0.001995 0.000000
# 2 -0.002173 0.009430 -0.001896 0.000000 -0.000402 0.000000
# 3 -0.001814 -0.001896 0.004337 0.000000 0.002328 0.000000
# 4 0.000000 0.000000 0.000000 0.022732 0.000000 0.000750
# 5 -0.001995 -0.000402 0.002328 0.000000 0.016297 0.000000
# 6 0.000000 0.000000 0.000000 0.000750 0.000000 0.050239
#
#
# Mechanical properties :
#
#
# Convention : Reuss Voigt Hill
#
# Bulk Modulus (GPa) = 57.94843 84.55207 71.25025
# Shear Modulus (GPa) = 36.81651 50.35442 43.58547
#
# Velocity S-wave (km/s) = 3.61891 4.23228 3.93756
# Velocity P-wave (km/s) = 6.17054 7.34575 6.78364
#
# Compressibility (1/GPa) = 0.01725672
#
# Stress axis : x y z
#
# Youngs Moduli (GPa) = 65.55126 106.04097 230.57912
#
# Poissons Ratio (x) = 0.23040 0.41836
# Poissons Ratio (y) = 0.14243 0.43711
# Poissons Ratio (z) = 0.11894 0.20102
#
# Static dielectric constant tensor:
#      x y z
#    x 2.449630 0.000000 0.099330 
#    y 0.000000 7.469800 0.000000 
#    z 0.099330 0.000000 2.312940 
# 
# From -- ./inp_files/229175.got.cif
#   From: 2010.05.17/outbox.cif.g08.bks.cpg/sg12_115_cif.got.tgz:229175.got - 2010.06.03 13:09:07.
