data_PCOD9173398
_publ_section_title
;
Structure prediction by ZEFSAII (Michael W. Deem and Ramdas Pophale) SiO2 
 PCOD9173398
Probable space group: C 2/M
;
_chemical_formula_sum "Si O2"
_cell_formula_units_Z 56
_cell_length_a 21.994024
_cell_length_b 15.883698
_cell_length_c 18.166569
_cell_angle_alpha 90.000000
_cell_angle_beta 25.776354
_cell_angle_gamma 90.000000
_cell_volume 2759.803690
_symmetry_space_group_name_H-M "C 2/M"
_symmetry_group_IT_number 12
_symmetry_cell_setting 'monoclinic'
loop_
_space_group_symop_operation_xyz
x,y,z
-x,y,-z
-x,-y,-z
x,-y,z
1/2+x,1/2+y,z
1/2-x,1/2+y,-z
1/2-x,1/2-y,-z
1/2+x,1/2-y,z
loop_
_atom_site_type_symbol
_atom_site_label
_atom_site_fract_x
_atom_site_fract_y
_atom_site_fract_z
Si Si1 0.813573 0.240396 0.131188
Si Si2 0.283750 0.406687 0.822916
Si Si3 0.852664 0.334122 0.889870
Si Si4 0.959811 0.646238 0.620384
Si Si5 0.923699 0.098853 0.422870
Si Si6 0.740244 0.762013 0.367473
Si Si7 0.531139 0.702680 0.769581
O O1 0.800947 0.339772 0.132066
O O2 0.656430 0.210808 0.282793
O O3 0.838260 0.224494 0.189611
O O4 0.916657 0.198197 0.959915
O O5 0.272740 0.500000 0.804971
O O6 0.447254 0.388571 0.660953
O O7 0.214183 0.396731 0.979095
O O8 0.883479 0.380806 0.779499
O O9 0.991581 0.289804 0.771189
O O10 0.750000 0.250000 0.000000
O O11 0.000000 0.598330 0.500000
O O12 0.099467 0.688488 0.500100
O O13 0.802925 0.164466 0.576131
O O14 0.972558 0.130826 0.288492
O O15 0.888748 0.000000 0.460200
O O16 0.820850 0.793041 0.351284
#
# Coordination Sequence:
#
# PCOD9173398 Si02
#       7
#     8   8   8   8   8   8   8
#     4  10  19  35  55  79 113 140 185 224 263 323
#     4  10  19  32  55  83 110 143 181 221 272 326
#     4  11  16  33  55  75 105 141 183 231 257 317
#     4  10  18  30  52  80 105 133 177 227 265 305
#     4  11  21  34  54  83 115 144 180 227 278 327
#     4  11  21  33  53  84 110 146 178 222 277 323
#     4  11  20  35  57  79 106 147 190 226 265 324
#
# _framework density 20.291298999999999
#
# number of rings (size 3 to 8) (size 9 to 14) (size 15 to 20)
#    0.000    1.429    7.143    0.857    0.000    0.571 
#    0.000    4.286    0.000    6.429    0.000    4.000 
#    0.000    0.000    0.000    0.000    0.000    0.000 
#
# Total GULP energy -155909.108250 kJ/mol
# GULP energy per Si atom -5568.182437 kJ/mol
# Density = 2.024512 g / cm^3
# Si number density = 20.291299 Si / 1000 Ang^3
#
#
#
# Elastic Constant Matrix: (Units=GPa)
#
#
# Indices 1 2 3 4 5 6 
#
# 1 75.0410 -12.1107 14.7151 -0.0001 0.1913 0.0001
# 2 -12.1107 34.3552 -5.4379 -0.0003 -12.6216 0.0002
# 3 14.7151 -5.4379 72.5709 -0.0007 5.5271 0.0003
# 4 -0.0001 -0.0003 -0.0007 11.0700 0.0002 -3.5908
# 5 0.1913 -12.6216 5.5271 0.0002 42.2784 0.0000
# 6 0.0001 0.0002 0.0003 -3.5908 0.0000 6.5799
#
#
#
# Elastic Compliance Matrix: (Units=1/GPa)
#
#
# Indices 1 2 3 4 5 6 
#
# 1 0.014738 0.005471 -0.002725 0.000000 0.001923 0.000000
# 2 0.005471 0.034939 0.000723 0.000001 0.010311 -0.000001
# 3 -0.002725 0.000723 0.014513 0.000001 -0.001669 0.000000
# 4 0.000000 0.000001 0.000001 0.109764 0.000000 0.059901
# 5 0.001923 0.010311 -0.001669 0.000000 0.026940 0.000000
# 6 0.000000 -0.000001 0.000000 0.059901 0.000000 0.184667
#
#
# Mechanical properties :
#
#
# Convention : Reuss Voigt Hill
#
# Bulk Modulus (GPa) = 14.05903 19.58890 16.82397
# Shear Modulus (GPa) = 12.42747 24.30570 18.36659
#
# Velocity S-wave (km/s) = 2.47746 3.46474 3.01183
# Velocity P-wave (km/s) = 3.88940 5.06761 4.51708
#
# Compressibility (1/GPa) = 0.07112866
#
# Stress axis : x y z
#
# Youngs Moduli (GPa) = 67.85008 28.62152 68.90140
#
# Poissons Ratio (x) = -0.15658 0.18776
# Poissons Ratio (y) = -0.37118 -0.04985
# Poissons Ratio (z) = 0.18489 -0.02071
#
# Static dielectric constant tensor:
#      x y z
#    x 1.760590 0.000000 0.040520 
#    y 0.000000 1.681100 0.000000 
#    z 0.040520 0.000000 1.823890 
# 
# From -- ./inp_files/284519.got.cif
#   From: 2010.05.17/outbox.cif.g08.bks.cpg/sg12_143_cif.got.tgz:284519.got - 2010.06.03 13:09:07.
