data_PCOD9173804
_publ_section_title
;
Structure prediction by ZEFSAII (Michael W. Deem and Ramdas Pophale) SiO2 
 PCOD9173804
Probable space group: C 2/M
;
_chemical_formula_sum "Si O2"
_cell_formula_units_Z 56
_cell_length_a 10.582413
_cell_length_b 20.871988
_cell_length_c 12.258801
_cell_angle_alpha 90.000000
_cell_angle_beta 63.982965
_cell_angle_gamma 90.000000
_cell_volume 2433.289062
_symmetry_space_group_name_H-M "C 2/M"
_symmetry_group_IT_number 12
_symmetry_cell_setting 'monoclinic'
loop_
_space_group_symop_operation_xyz
x,y,z
-x,y,-z
-x,-y,-z
x,-y,z
1/2+x,1/2+y,z
1/2-x,1/2+y,-z
1/2-x,1/2-y,-z
1/2+x,1/2-y,z
loop_
_atom_site_type_symbol
_atom_site_label
_atom_site_fract_x
_atom_site_fract_y
_atom_site_fract_z
Si Si1 0.017017 0.074068 0.735071
Si Si2 0.376603 0.656209 0.957910
Si Si3 0.261393 0.071030 0.825515
Si Si4 0.012857 0.638708 0.660927
Si Si5 0.321660 0.344041 0.481831
Si Si6 0.710666 0.758842 0.335188
Si Si7 0.531418 0.214526 0.873043
O O1 0.148677 0.079519 0.770444
O O2 0.069754 0.103942 0.602109
O O3 0.898072 0.115609 0.840013
O O4 0.978840 0.000000 0.739914
O O5 0.413080 0.729394 0.912358
O O6 0.500000 0.641886 0.000000
O O7 0.250881 0.625652 0.076254
O O8 0.412518 0.078386 0.712527
O O9 0.237185 0.000000 0.881477
O O10 0.916825 0.693918 0.642042
O O11 0.040029 0.667146 0.770039
O O12 0.162874 0.628313 0.549350
O O13 0.343979 0.305390 0.585608
O O14 0.311714 0.291557 0.388023
O O15 0.814336 0.748133 0.193744
O O16 0.500000 0.182574 0.000000
#
# Coordination Sequence:
#
# PCOD9173804 Si02
#       7
#     8   8   8   8   8   8   8
#     4  10  18  31  50  74 104 141 180 218 259 305
#     4   9  16  31  49  72 103 135 170 217 271 311
#     4  10  20  31  47  74 107 140 176 216 263 314
#     4  11  21  34  54  78 107 142 172 214 268 313
#     4  10  20  33  50  75 107 142 177 211 256 310
#     4  10  19  34  50  73 111 138 172 214 260 312
#     4  10  20  33  55  81 107 131 171 224 267 314
#
# _framework density 23.014116999999999
#
# number of rings (size 3 to 8) (size 9 to 14) (size 15 to 20)
#    0.000    2.000    2.857    2.571    0.000    4.571 
#    0.000    1.429    0.000    0.429    0.000    7.000 
#    0.000    0.000    0.000    0.000    0.000    0.000 
#
# Total GULP energy -156375.819059 kJ/mol
# GULP energy per Si atom -5584.850681 kJ/mol
# Density = 2.296174 g / cm^3
# Si number density = 23.014117 Si / 1000 Ang^3
#
#
#
# Elastic Constant Matrix: (Units=GPa)
#
#
# Indices 1 2 3 4 5 6 
#
# 1 32.4104 -0.4002 9.2692 0.0000 -5.1363 0.0000
# 2 -0.4002 26.3135 -6.2573 0.0000 12.9960 0.0000
# 3 9.2692 -6.2573 111.2487 0.0000 -1.8946 0.0000
# 4 0.0000 0.0000 0.0000 29.6095 0.0000 1.5803
# 5 -5.1363 12.9960 -1.8946 0.0000 30.5399 0.0000
# 6 0.0000 0.0000 0.0000 1.5803 0.0000 14.2145
#
#
#
# Elastic Compliance Matrix: (Units=1/GPa)
#
#
# Indices 1 2 3 4 5 6 
#
# 1 0.032696 -0.003545 -0.002807 0.000000 0.006834 0.000000
# 2 -0.003545 0.049127 0.002695 0.000000 -0.021335 0.000000
# 3 -0.002807 0.002695 0.009357 0.000000 -0.001039 0.000000
# 4 0.000000 0.000000 0.000000 0.033975 0.000000 -0.003777
# 5 0.006834 -0.021335 -0.001039 0.000000 0.042908 0.000000
# 6 0.000000 0.000000 0.000000 -0.003777 0.000000 0.070770
#
#
# Mechanical properties :
#
#
# Convention : Reuss Voigt Hill
#
# Bulk Modulus (GPa) = 11.92382 19.46623 15.69502
# Shear Modulus (GPa) = 18.24130 26.03017 22.13574
#
# Velocity S-wave (km/s) = 2.81839 3.36676 3.10471
# Velocity P-wave (km/s) = 3.97284 4.85697 4.43698
#
# Compressibility (1/GPa) = 0.08386575
#
# Stress axis : x y z
#
# Youngs Moduli (GPa) = 30.58445 20.35521 106.87556
#
# Poissons Ratio (x) = 0.07217 0.30003
# Poissons Ratio (y) = 0.10843 -0.28806
# Poissons Ratio (z) = 0.08586 -0.05486
#
# Static dielectric constant tensor:
#      x y z
#    x 1.946440 0.000000 -0.013820 
#    y 0.000000 1.881740 0.000000 
#    z -0.013820 0.000000 1.879350 
# 
# From -- ./inp_files/135289.got.cif
#   From: 2010.05.17/outbox.cif.g08.bks.cpg/sg12_68_cif.got.tgz:135289.got - 2010.06.03 13:09:07.
