data_PCOD9173903
_publ_section_title
;
Structure prediction by ZEFSAII (Michael W. Deem and Ramdas Pophale) SiO2 
 PCOD9173903
Probable space group: C 2/M
;
_chemical_formula_sum "Si O2"
_cell_formula_units_Z 56
_cell_length_a 28.392886
_cell_length_b 13.278972
_cell_length_c 14.705747
_cell_angle_alpha 90.000000
_cell_angle_beta 32.134437
_cell_angle_gamma 90.000000
_cell_volume 2949.153038
_symmetry_space_group_name_H-M "C 2/M"
_symmetry_group_IT_number 12
_symmetry_cell_setting 'monoclinic'
loop_
_space_group_symop_operation_xyz
x,y,z
-x,y,-z
-x,-y,-z
x,-y,z
1/2+x,1/2+y,z
1/2-x,1/2+y,-z
1/2-x,1/2-y,-z
1/2+x,1/2-y,z
loop_
_atom_site_type_symbol
_atom_site_label
_atom_site_fract_x
_atom_site_fract_y
_atom_site_fract_z
Si Si1 0.638194 0.882046 0.255508
Si Si2 0.933943 0.180975 0.184639
Si Si3 0.987062 0.114200 0.294162
Si Si4 0.937451 0.386913 0.266011
Si Si5 0.269000 0.380742 0.346012
Si Si6 0.986629 0.682378 0.379392
Si Si7 0.693893 0.379051 0.918817
O O1 0.581603 0.872109 0.441391
O O2 0.581450 0.823690 0.273270
O O3 0.735494 0.842850 0.122236
O O4 0.640987 0.000000 0.224799
O O5 0.961290 0.295877 0.161082
O O6 0.835831 0.172947 0.305185
O O7 0.943411 0.126203 0.266051
O O8 0.000000 0.138319 0.000000
O O9 0.955887 0.203043 0.411240
O O10 0.975521 0.000000 0.345672
O O11 0.091593 0.135982 0.108665
O O12 0.951712 0.500000 0.208787
O O13 0.833285 0.372763 0.459767
O O14 0.986771 0.370425 0.281298
O O15 0.291744 0.500000 0.310365
O O16 0.284478 0.341722 0.218126
O O17 0.708106 0.500000 0.892124
#
# Coordination Sequence:
#
# PCOD9173903 Si02
#       7
#     8   8   8   8   8   8   8
#     4  10  18  32  55  80 100 124 164 207 244 286
#     4  11  21  32  51  75  98 132 168 202 244 291
#     4  10  21  35  49  72 103 131 163 203 245 293
#     4  10  20  34  50  73 103 130 162 203 247 294
#     4  10  18  31  51  74  98 126 163 207 246 284
#     4  10  19  31  52  78  99 127 162 202 249 289
#     4   9  17  30  51  74  98 127 160 204 249 284
#
# _framework density 18.988502
#
# number of rings (size 3 to 8) (size 9 to 14) (size 15 to 20)
#    0.000    2.000    2.857    2.571    0.000    1.429 
#    0.000    1.429    0.000    0.000    0.000    6.000 
#    0.000    0.000    0.000    0.000    0.000    0.000 
#
# Total GULP energy -156210.010059 kJ/mol
# GULP energy per Si atom -5578.928931 kJ/mol
# Density = 1.894528 g / cm^3
# Si number density = 18.988502 Si / 1000 Ang^3
#
#
#
# Elastic Constant Matrix: (Units=GPa)
#
#
# Indices 1 2 3 4 5 6 
#
# 1 127.6739 9.8479 10.2720 0.0000 -14.2079 0.0000
# 2 9.8479 69.6279 -9.2732 0.0000 8.9377 0.0000
# 3 10.2720 -9.2732 11.8088 0.0000 -3.0211 0.0000
# 4 0.0000 0.0000 0.0000 13.2938 0.0000 -4.3876
# 5 -14.2079 8.9377 -3.0211 0.0000 21.6940 0.0000
# 6 0.0000 0.0000 0.0000 -4.3876 0.0000 13.9599
#
#
#
# Elastic Compliance Matrix: (Units=1/GPa)
#
#
# Indices 1 2 3 4 5 6 
#
# 1 0.009558 -0.003416 -0.009369 0.000000 0.006362 0.000000
# 2 -0.003416 0.017809 0.015043 0.000000 -0.007480 0.000000
# 3 -0.009369 0.015043 0.105239 0.000000 0.002322 0.000000
# 4 0.000000 0.000000 0.000000 0.083930 0.000000 0.026379
# 5 0.006362 -0.007480 0.002322 0.000000 0.053668 0.000000
# 6 0.000000 0.000000 0.000000 0.026379 0.000000 0.079925
#
#
# Mechanical properties :
#
#
# Convention : Reuss Voigt Hill
#
# Bulk Modulus (GPa) = 7.29283 25.64487 16.46885
# Shear Modulus (GPa) = 12.77729 23.00711 17.89220
#
# Velocity S-wave (km/s) = 2.59684 3.48463 3.07296
# Velocity P-wave (km/s) = 3.58335 5.45206 4.61332
#
# Compressibility (1/GPa) = 0.13712105
#
# Stress axis : x y z
#
# Youngs Moduli (GPa) = 104.62717 56.15205 9.50219
#
# Poissons Ratio (x) = 0.19183 0.08902
# Poissons Ratio (y) = 0.35743 -0.14294
# Poissons Ratio (z) = 0.98024 -0.84469
#
# Static dielectric constant tensor:
#      x y z
#    x 1.670100 0.000000 -0.016420 
#    y 0.000000 1.660300 0.000000 
#    z -0.016420 0.000000 1.657730 
# 
# From -- ./inp_files/223151.got.cif
#   From: 2010.05.17/outbox.cif.g08.bks.cpg/sg12_112_cif.got.tgz:223151.got - 2010.06.03 13:09:07.
