data_PCOD9173873
_publ_section_title
;
Structure prediction by ZEFSAII (Michael W. Deem and Ramdas Pophale) SiO2 
 PCOD9173873
Probable space group: C 2/M
;
_chemical_formula_sum "Si O2"
_cell_formula_units_Z 56
_cell_length_a 31.746761
_cell_length_b 7.435286
_cell_length_c 17.397696
_cell_angle_alpha 90.000000
_cell_angle_beta 136.407577
_cell_angle_gamma 90.000000
_cell_volume 2831.640279
_symmetry_space_group_name_H-M "C 2/M"
_symmetry_group_IT_number 12
_symmetry_cell_setting 'monoclinic'
loop_
_space_group_symop_operation_xyz
x,y,z
-x,y,-z
-x,-y,-z
x,-y,z
1/2+x,1/2+y,z
1/2-x,1/2+y,-z
1/2-x,1/2-y,-z
1/2+x,1/2-y,z
loop_
_atom_site_type_symbol
_atom_site_label
_atom_site_fract_x
_atom_site_fract_y
_atom_site_fract_z
Si Si1 0.595196 0.719698 0.093821
Si Si2 0.559893 0.717942 0.531829
Si Si3 0.802852 0.206790 0.879598
Si Si4 0.820131 0.289387 0.212397
Si Si5 0.624335 0.784081 0.872457
Si Si6 0.471056 0.719399 0.843395
Si Si7 0.019580 0.213216 0.315147
O O1 0.596240 0.500000 0.093852
O O2 0.657732 0.785190 0.138323
O O3 0.578511 0.774370 0.158388
O O4 0.537424 0.772767 0.964386
O O5 0.500000 0.776493 0.500000
O O6 0.559393 0.500000 0.530895
O O7 0.620941 0.775344 0.655606
O O8 0.553204 0.783152 0.435424
O O9 0.739445 0.289728 0.824985
O O10 0.789505 0.000000 0.840316
O O11 0.847632 0.209129 0.012318
O O12 0.806502 0.500000 0.181130
O O13 0.838656 0.216317 0.153202
O O14 0.553116 0.737871 0.770282
O O15 0.628964 0.000000 0.881978
O O16 0.471243 0.500000 0.842330
O O17 0.462928 0.784618 0.745833
O O18 0.031281 0.000000 0.328563
#
# Coordination Sequence:
#
# PCOD9173873 Si02
#       7
#     8   8   8   8   8   8   8
#     4   8  13  23  45  73  95 116 151 196 234 273
#     4  10  20  33  51  72  92 123 165 202 237 273
#     4  10  19  33  51  70  95 129 162 193 232 282
#     4  10  22  35  48  68  96 131 164 193 234 282
#     4  11  21  31  45  71 101 128 156 190 237 285
#     4   8  13  23  44  74  96 115 150 196 238 272
#     4  10  18  31  51  72  96 125 157 196 238 281
#
# _framework density 19.776523999999998
#
# number of rings (size 3 to 8) (size 9 to 14) (size 15 to 20)
#    0.000    2.429    2.857    1.714    0.000    2.000 
#    0.000    0.000    0.000    2.571    0.000    0.000 
#    0.000    0.000    0.000    0.000    0.000    0.000 
#
# Total GULP energy -156265.027014 kJ/mol
# GULP energy per Si atom -5580.893822 kJ/mol
# Density = 1.973151 g / cm^3
# Si number density = 19.776524 Si / 1000 Ang^3
#
#
#
# Elastic Constant Matrix: (Units=GPa)
#
#
# Indices 1 2 3 4 5 6 
#
# 1 188.2634 -0.4563 30.1522 0.0001 -11.8255 0.0000
# 2 -0.4563 56.0039 -6.8577 0.0004 -12.1882 0.0002
# 3 30.1522 -6.8577 18.6166 0.0002 1.5301 0.0001
# 4 0.0001 0.0004 0.0002 -122.0512 -0.0001 -47.1726
# 5 -11.8255 -12.1882 1.5301 -0.0001 26.6340 0.0000
# 6 0.0000 0.0002 0.0001 -47.1726 0.0000 -17.0873
#
#
#
# Elastic Compliance Matrix: (Units=1/GPa)
#
#
# Indices 1 2 3 4 5 6 
#
# 1 0.007615 -0.000689 -0.012901 0.000000 0.003807 0.000000
# 2 -0.000689 0.020732 0.008036 0.000000 0.008720 -0.000001
# 3 -0.012901 0.008036 0.078108 0.000000 -0.006538 -0.000001
# 4 0.000000 0.000000 0.000000 0.122286 0.000000 -0.337594
# 5 0.003807 0.008720 -0.006538 0.000000 0.043602 0.000000
# 6 0.000000 -0.000001 -0.000001 -0.337594 0.000000 0.873469
#
#
# Mechanical properties :
#
#
# Convention : Reuss Voigt Hill
#
# Bulk Modulus (GPa) = 10.48787 34.28449 22.38618
# Shear Modulus (GPa) = 4.20626 -6.49785 -1.14579
#
# Velocity S-wave (km/s) = 1.45997 -1.81460 -0.76199
# Velocity P-wave (km/s) = 2.85600 3.60322 3.25115
#
# Compressibility (1/GPa) = 0.09534824
#
# Stress axis : x y z
#
# Youngs Moduli (GPa) = 131.31321 48.23458 12.80276
#
# Poissons Ratio (x) = 0.03324 0.16517
# Poissons Ratio (y) = 0.09049 -0.10289
# Poissons Ratio (z) = 1.69406 -0.38763
#
# Static dielectric constant tensor:
#      x y z
#    x 1.733930 0.000000 -0.010550 
#    y 0.000000 1.748820 0.000000 
#    z -0.010550 0.000000 1.641240 
# 
# From -- ./inp_files/287331.got.cif
#   From: 2010.05.17/outbox.cif.g08.bks.cpg/sg12_144_cif.got.tgz:287331.got - 2010.06.03 13:09:07.
