data_PCOD9173470
_publ_section_title
;
Structure prediction by ZEFSAII (Michael W. Deem and Ramdas Pophale) SiO2 
 PCOD9173470
Probable space group: C 2/M
;
_chemical_formula_sum "Si O2"
_cell_formula_units_Z 52
_cell_length_a 9.013414
_cell_length_b 24.324969
_cell_length_c 23.912470
_cell_angle_alpha 90.000000
_cell_angle_beta 31.132316
_cell_angle_gamma 90.000000
_cell_volume 2710.629768
_symmetry_space_group_name_H-M "C 2/M"
_symmetry_group_IT_number 12
_symmetry_cell_setting 'monoclinic'
loop_
_space_group_symop_operation_xyz
x,y,z
-x,y,-z
-x,-y,-z
x,-y,z
1/2+x,1/2+y,z
1/2-x,1/2+y,-z
1/2-x,1/2-y,-z
1/2+x,1/2-y,z
loop_
_atom_site_type_symbol
_atom_site_label
_atom_site_fract_x
_atom_site_fract_y
_atom_site_fract_z
Si Si1 0.649892 0.803365 0.344639
Si Si2 0.349816 0.620318 0.450957
Si Si3 0.635300 0.812058 0.682804
Si Si4 0.601959 0.620153 0.243412
Si Si5 0.733714 0.500000 0.543016
Si Si6 0.855650 0.000000 0.771498
Si Si7 0.828928 0.500000 0.877533
Si Si8 0.829857 0.377572 0.874798
O O1 0.414891 0.839143 0.453799
O O2 0.532052 0.801542 0.320021
O O3 0.696407 0.742727 0.353369
O O4 0.951617 0.834933 0.253849
O O5 0.620814 0.641114 0.398915
O O6 0.449496 0.622927 0.353795
O O7 0.266194 0.557232 0.489567
O O8 0.418372 0.832750 0.800590
O O9 0.549614 0.558694 0.236252
O O10 0.937533 0.627892 0.149879
O O11 0.459185 0.500000 0.672978
O O12 0.000000 0.500000 0.500000
O O13 0.514615 0.000000 0.874663
O O14 0.882289 0.439880 0.833905
O O15 0.500000 0.500000 0.000000
O O16 0.500000 0.373059 0.000000
#
# Coordination Sequence:
#
# PCOD9173470 Si02
#       8
#     8   8   8   8   4   4   4   8
#     4  12  23  38  53  77 109 145 187 229 270 320
#     4  10  20  36  57  81 111 146 182 222 264 320
#     4  11  24  38  55  79 107 144 185 227 274 322
#     4   9  18  33  56  83 109 143 184 222 266 325
#     4  10  18  30  53  83 110 145 184 215 261 322
#     4   8  14  28  50  78 109 138 175 218 260 317
#     4   8  14  28  58  87 106 133 171 211 262 321
#     4   9  18  37  61  85 110 140 177 221 268 322
#
# _framework density 19.183733
#
# number of rings (size 3 to 8) (size 9 to 14) (size 15 to 20)
#    0.000    2.154    0.000    6.000    0.000    1.231 
#    0.000    7.692    0.000    0.000    0.000    6.462 
#    0.000    0.000    0.000    0.000    0.000    0.000 
#
# Total GULP energy -144968.834279 kJ/mol
# GULP energy per Si atom -5575.724395 kJ/mol
# Density = 1.914007 g / cm^3
# Si number density = 19.183733 Si / 1000 Ang^3
#
#
#
# Elastic Constant Matrix: (Units=GPa)
#
#
# Indices 1 2 3 4 5 6 
#
# 1 102.6066 52.5177 26.7646 -0.0032 -24.7228 0.0016
# 2 52.5177 146.8649 43.2817 -0.0046 -10.1178 -0.0020
# 3 26.7646 43.2817 93.0754 -0.0118 -28.3981 -0.0084
# 4 -0.0032 -0.0046 -0.0118 12.8050 0.0045 -18.5416
# 5 -24.7228 -10.1178 -28.3981 0.0045 18.4325 0.0014
# 6 0.0016 -0.0020 -0.0084 -18.5416 0.0014 20.7601
#
#
#
# Elastic Compliance Matrix: (Units=1/GPa)
#
#
# Indices 1 2 3 4 5 6 
#
# 1 0.019792 -0.007130 0.008547 0.000013 0.035801 0.000011
# 2 -0.007130 0.010520 -0.007544 0.000001 -0.015411 0.000000
# 3 0.008547 -0.007544 0.026472 -0.000054 0.048108 -0.000042
# 4 0.000013 0.000001 -0.000054 -0.266296 0.000018 -0.237839
# 5 0.035801 -0.015411 0.048108 0.000018 0.167929 0.000020
# 6 0.000011 0.000000 -0.000042 -0.237839 0.000020 -0.164253
#
#
# Mechanical properties :
#
#
# Convention : Reuss Voigt Hill
#
# Bulk Modulus (GPa) = 22.45590 65.29722 43.87656
# Shear Modulus (GPa) = -27.97373 25.06505 -1.45434
#
# Velocity S-wave (km/s) = -3.82278 3.61858 -0.87164
# Velocity P-wave (km/s) = 2.78456 7.18126 4.68064
#
# Compressibility (1/GPa) = 0.04453172
#
# Stress axis : x y z
#
# Youngs Moduli (GPa) = 50.52560 95.05594 37.77536
#
# Poissons Ratio (x) = 0.67775 -0.32288
# Poissons Ratio (y) = 0.36025 0.28497
# Poissons Ratio (z) = -0.43187 0.71708
#
# Static dielectric constant tensor:
#      x y z
#    x 1.666530 0.000000 -0.018570 
#    y 0.000000 1.718800 0.000000 
#    z -0.018570 0.000000 1.722260 
# 
# From -- ./inp_files/357046.got.cif
#   From: 2010.05.17/outbox.cif.g08.bks.cpg/sg12_179_cif.got.tgz:357046.got - 2010.06.03 13:09:07.
