data_PCOD9173012
_publ_section_title
;
Structure prediction by ZEFSAII (Michael W. Deem and Ramdas Pophale) SiO2 
 PCOD9173012
Probable space group: C 2/M
;
_chemical_formula_sum "Si O2"
_cell_formula_units_Z 56
_cell_length_a 12.271366
_cell_length_b 13.455303
_cell_length_c 22.257695
_cell_angle_alpha 90.000000
_cell_angle_beta 40.805553
_cell_angle_gamma 90.000000
_cell_volume 2401.641399
_symmetry_space_group_name_H-M "C 2/M"
_symmetry_group_IT_number 12
_symmetry_cell_setting 'monoclinic'
loop_
_space_group_symop_operation_xyz
x,y,z
-x,y,-z
-x,-y,-z
x,-y,z
1/2+x,1/2+y,z
1/2-x,1/2+y,-z
1/2-x,1/2-y,-z
1/2+x,1/2-y,z
loop_
_atom_site_type_symbol
_atom_site_label
_atom_site_fract_x
_atom_site_fract_y
_atom_site_fract_z
Si Si1 0.369738 0.172552 0.505887
Si Si2 0.669111 0.270368 0.116250
Si Si3 0.241635 0.614731 0.233729
Si Si4 0.099887 0.881175 0.708675
Si Si5 0.390407 0.614847 0.974856
Si Si6 0.788787 0.889225 0.543501
Si Si7 0.472193 0.115323 0.248542
O O1 0.500000 0.131565 0.500000
O O2 0.188857 0.157989 0.612191
O O3 0.354851 0.120245 0.448013
O O4 0.397124 0.290843 0.486954
O O5 0.585590 0.340659 0.201519
O O6 0.696878 0.346304 0.049774
O O7 0.519701 0.186804 0.173805
O O8 0.826825 0.196453 0.048911
O O9 0.195946 0.500000 0.261636
O O10 0.282578 0.652059 0.283706
O O11 0.418033 0.617729 0.125587
O O12 0.102461 0.651655 0.245901
O O13 0.096844 0.000000 0.709199
O O14 0.353381 0.500000 0.006901
O O15 0.704602 0.879283 0.644239
O O16 0.862177 0.000000 0.507109
O O17 0.502148 0.000000 0.221779
#
# Coordination Sequence:
#
# PCOD9173012 Si02
#       7
#     8   8   8   8   8   8   8
#     4  11  22  37  60  86 114 152 192 232 284 337
#     4  10  18  30  49  75 103 137 170 211 270 321
#     4   8  16  29  48  75 105 132 167 219 270 315
#     4  10  19  34  54  78 104 137 179 222 271 325
#     4   9  18  32  49  74 103 133 174 217 262 319
#     4  10  22  38  55  84 121 151 188 235 280 335
#     4  10  18  31  51  76 107 139 170 215 272 326
#
# _framework density 23.317387
#
# number of rings (size 3 to 8) (size 9 to 14) (size 15 to 20)
#    0.000    2.286    1.429    3.000    0.000    3.143 
#    0.000    2.143    0.000    0.000    0.000   44.000 
#    0.000    0.000    0.000    0.000    0.000    0.000 
#
# Total GULP energy -155961.620798 kJ/mol
# GULP energy per Si atom -5570.057886 kJ/mol
# Density = 2.326432 g / cm^3
# Si number density = 23.317387 Si / 1000 Ang^3
#
#
#
# Elastic Constant Matrix: (Units=GPa)
#
#
# Indices 1 2 3 4 5 6 
#
# 1 50.9505 12.3967 2.7976 0.0000 5.6634 0.0000
# 2 12.3967 132.8687 13.1100 0.0000 1.2324 0.0000
# 3 2.7976 13.1100 97.3776 -0.0001 17.5790 0.0000
# 4 0.0000 0.0000 -0.0001 31.5589 0.0000 7.0337
# 5 5.6634 1.2324 17.5790 0.0000 21.1090 0.0000
# 6 0.0000 0.0000 0.0000 7.0337 0.0000 14.2674
#
#
#
# Elastic Compliance Matrix: (Units=1/GPa)
#
#
# Indices 1 2 3 4 5 6 
#
# 1 0.020737 -0.001954 0.000766 0.000000 -0.006088 0.000000
# 2 -0.001954 0.007816 -0.001187 0.000000 0.001056 0.000000
# 3 0.000766 -0.001187 0.012277 0.000000 -0.010361 0.000000
# 4 0.000000 0.000000 0.000000 0.035598 0.000000 -0.017550
# 5 -0.006088 0.001056 -0.010361 0.000000 0.057573 0.000000
# 6 0.000000 0.000000 0.000000 -0.017550 0.000000 0.078742
#
#
# Mechanical properties :
#
#
# Convention : Reuss Voigt Hill
#
# Bulk Modulus (GPa) = 27.71522 37.53392 32.62457
# Shear Modulus (GPa) = 21.78473 30.24656 26.01565
#
# Velocity S-wave (km/s) = 3.05990 3.60553 3.34386
# Velocity P-wave (km/s) = 4.93922 5.78490 5.37870
#
# Compressibility (1/GPa) = 0.03608126
#
# Stress axis : x y z
#
# Youngs Moduli (GPa) = 48.22326 127.94546 81.45051
#
# Poissons Ratio (x) = 0.24999 -0.06241
# Poissons Ratio (y) = 0.09422 0.09666
# Poissons Ratio (z) = -0.03695 0.15184
#
# Static dielectric constant tensor:
#      x y z
#    x 1.953330 0.000000 0.002950 
#    y 0.000000 1.888060 0.000000 
#    z 0.002950 0.000000 1.956090 
# 
# From -- ./inp_files/361386.got.cif
#   From: 2010.05.17/outbox.cif.g08.bks.cpg/sg12_181_cif.got.tgz:361386.got - 2010.06.03 13:09:07.
