data_PCOD9173328
_publ_section_title
;
Structure prediction by ZEFSAII (Michael W. Deem and Ramdas Pophale) SiO2 
 PCOD9173328
Probable space group: C 2/M
;
_chemical_formula_sum "Si O2"
_cell_formula_units_Z 40
_cell_length_a 20.803101
_cell_length_b 8.648496
_cell_length_c 31.034925
_cell_angle_alpha 90.000000
_cell_angle_beta 24.373198
_cell_angle_gamma 90.000000
_cell_volume 2304.257905
_symmetry_space_group_name_H-M "C 2/M"
_symmetry_group_IT_number 12
_symmetry_cell_setting 'monoclinic'
loop_
_space_group_symop_operation_xyz
x,y,z
-x,y,-z
-x,-y,-z
x,-y,z
1/2+x,1/2+y,z
1/2-x,1/2+y,-z
1/2-x,1/2-y,-z
1/2+x,1/2-y,z
loop_
_atom_site_type_symbol
_atom_site_label
_atom_site_fract_x
_atom_site_fract_y
_atom_site_fract_z
Si Si1 0.316370 0.314166 0.504344
Si Si2 0.472961 0.315319 0.066938
Si Si3 0.865656 0.186224 0.724285
Si Si4 0.999936 0.313800 0.732934
Si Si5 0.741066 0.683921 0.053381
O O1 0.315149 0.500000 0.503400
O O2 0.250000 0.250000 0.500000
O O3 0.497627 0.268204 0.393051
O O4 0.183643 0.269539 0.619693
O O5 0.484845 0.500000 0.064436
O O6 0.301053 0.258096 0.184022
O O7 0.500000 0.277711 0.000000
O O8 0.606017 0.235892 0.013749
O O9 0.921268 0.246446 0.737376
O O10 0.854255 0.000000 0.732785
O O11 0.986746 0.500000 0.739414
O O12 0.906296 0.250806 0.830631
O O13 0.731584 0.500000 0.058076
O O14 0.750000 0.750000 0.000000
#
# Coordination Sequence:
#
# PCOD9173328 Si02
#       5
#     8   8   8   8   8
#     4   8  16  28  46  74 108 141 175 218 267 318
#     4  11  22  36  56  81 112 146 182 226 276 323
#     4  10  18  30  51  81 111 142 181 223 270 319
#     4  10  18  32  52  77 110 145 180 222 270 319
#     4  12  25  40  58  80 109 145 185 226 273 329
#
# _framework density 17.359169000000001
#
# number of rings (size 3 to 8) (size 9 to 14) (size 15 to 20)
#    0.000    1.800    2.000    3.600    0.000    2.400 
#    0.000    0.000    0.000    1.200    0.000    8.400 
#    0.000    0.000    0.000    0.000    0.000    0.000 
#
# Total GULP energy -111549.366566 kJ/mol
# GULP energy per Si atom -5577.468328 kJ/mol
# Density = 1.731966 g / cm^3
# Si number density = 17.359169 Si / 1000 Ang^3
#
#
#
# Elastic Constant Matrix: (Units=GPa)
#
#
# Indices 1 2 3 4 5 6 
#
# 1 52.9239 25.7762 46.3841 -0.0011 9.8398 -0.0008
# 2 25.7762 57.9327 38.6651 -0.0036 2.0125 -0.0010
# 3 46.3841 38.6651 192.2436 -0.0066 -0.4570 0.0002
# 4 -0.0011 -0.0036 -0.0066 26.1870 0.0010 -0.3725
# 5 9.8398 2.0125 -0.4570 0.0010 19.4523 0.0000
# 6 -0.0008 -0.0010 0.0002 -0.3725 0.0000 23.8031
#
#
#
# Elastic Compliance Matrix: (Units=1/GPa)
#
#
# Indices 1 2 3 4 5 6 
#
# 1 0.031337 -0.009647 -0.005656 -0.000001 -0.014987 0.000001
# 2 -0.009647 0.022999 -0.002292 0.000002 0.002447 0.000001
# 3 -0.005656 -0.002292 0.007035 0.000001 0.003264 0.000000
# 4 -0.000001 0.000002 0.000001 0.038195 -0.000002 0.000598
# 5 -0.014987 0.002447 0.003264 -0.000002 0.058812 -0.000001
# 6 0.000001 0.000001 0.000000 0.000598 -0.000001 0.042021
#
#
# Mechanical properties :
#
#
# Convention : Reuss Voigt Hill
#
# Bulk Modulus (GPa) = 38.19748 58.30566 48.25157
# Shear Modulus (GPa) = 20.46513 26.70679 23.58596
#
# Velocity S-wave (km/s) = 3.43727 3.92661 3.69006
# Velocity P-wave (km/s) = 6.14858 7.36331 6.78319
#
# Compressibility (1/GPa) = 0.02617974
#
# Stress axis : x y z
#
# Youngs Moduli (GPa) = 31.91065 43.48088 142.14161
#
# Poissons Ratio (x) = 0.41948 0.80400
# Poissons Ratio (y) = 0.30785 0.32580
# Poissons Ratio (z) = 0.18050 0.09966
#
# Static dielectric constant tensor:
#      x y z
#    x 1.541300 0.000000 -0.007710 
#    y 0.000000 1.596280 0.000000 
#    z -0.007710 0.000000 1.644830 
# 
# From -- ./inp_files/221214.got.cif
#   From: 2010.05.17/outbox.cif.g08.bks.cpg/sg12_111_cif.got.tgz:221214.got - 2010.06.03 13:09:07.
