data_PCOD9173993
_publ_section_title
;
Structure prediction by ZEFSAII (Michael W. Deem and Ramdas Pophale) SiO2 
 PCOD9173993
Probable space group: C 2/M
;
_chemical_formula_sum "Si O2"
_cell_formula_units_Z 48
_cell_length_a 14.516169
_cell_length_b 7.277730
_cell_length_c 26.184979
_cell_angle_alpha 90.000000
_cell_angle_beta 42.807449
_cell_angle_gamma 90.000000
_cell_volume 1879.806278
_symmetry_space_group_name_H-M "C 2/M"
_symmetry_group_IT_number 12
_symmetry_cell_setting 'monoclinic'
loop_
_space_group_symop_operation_xyz
x,y,z
-x,y,-z
-x,-y,-z
x,-y,z
1/2+x,1/2+y,z
1/2-x,1/2+y,-z
1/2-x,1/2-y,-z
1/2+x,1/2-y,z
loop_
_atom_site_type_symbol
_atom_site_label
_atom_site_fract_x
_atom_site_fract_y
_atom_site_fract_z
Si Si1 0.085842 0.207903 0.237240
Si Si2 0.616980 0.282356 0.520096
Si Si3 0.210608 0.722057 0.641134
Si Si4 0.155205 0.775379 0.313894
Si Si5 0.596322 0.710979 0.121740
Si Si6 0.916079 0.776758 0.983960
O O1 0.169099 0.290420 0.250259
O O2 0.074163 0.297525 0.186484
O O3 0.931771 0.203538 0.320327
O O4 0.136182 0.000000 0.208544
O O5 0.592982 0.500000 0.524425
O O6 0.750000 0.250000 0.500000
O O7 0.664051 0.216953 0.445075
O O8 0.484953 0.211736 0.602687
O O9 0.205313 0.500000 0.640331
O O10 0.232176 0.776243 0.690945
O O11 0.152479 0.000000 0.312352
O O12 0.549375 0.500000 0.143377
O O13 0.538951 0.785801 0.091328
O O14 0.760065 0.716002 0.051282
O O15 0.917151 0.000000 0.983003
O O16 0.000000 0.718594 0.000000
#
# Coordination Sequence:
#
# PCOD9173993 Si02
#       6
#     8   8   8   8   8   8
#     4  10  20  35  52  72 103 135 162 201 252 298
#     4  10  18  31  52  72  94 127 168 210 249 292
#     4  10  20  33  51  74  97 128 172 210 243 294
#     4   9  18  33  51  70  97 133 166 201 252 301
#     4   9  19  34  52  76 103 132 166 201 241 293
#     4   9  18  34  55  77 102 132 165 201 243 289
#
# _framework density 25.534545999999999
#
# number of rings (size 3 to 8) (size 9 to 14) (size 15 to 20)
#    0.000    2.500    1.667    0.500    0.000    4.333 
#    0.000    1.667    0.000    2.000    0.000    0.000 
#    0.000    0.000    0.000    0.000    0.000    0.000 
#
# Total GULP energy -134037.391550 kJ/mol
# GULP energy per Si atom -5584.891315 kJ/mol
# Density = 2.547643 g / cm^3
# Si number density = 25.534546 Si / 1000 Ang^3
#
#
#
# Elastic Constant Matrix: (Units=GPa)
#
#
# Indices 1 2 3 4 5 6 
#
# 1 168.8420 1.0693 31.9694 -0.0004 54.4316 -0.0024
# 2 1.0693 122.1562 1.0595 -0.0027 11.4319 -0.0045
# 3 31.9694 1.0595 70.6873 0.0001 40.5424 -0.0005
# 4 -0.0004 -0.0027 0.0001 0.6510 0.0002 -15.2745
# 5 54.4316 11.4319 40.5424 0.0002 58.8479 -0.0003
# 6 -0.0024 -0.0045 -0.0005 -15.2745 -0.0003 -6.3521
#
#
#
# Elastic Compliance Matrix: (Units=1/GPa)
#
#
# Indices 1 2 3 4 5 6 
#
# 1 0.008556 0.000748 0.001226 -0.000001 -0.008904 -0.000001
# 2 0.000748 0.008479 0.001449 -0.000002 -0.003337 -0.000002
# 3 0.001226 0.001449 0.023778 -0.000001 -0.017797 0.000000
# 4 -0.000001 -0.000002 -0.000001 0.026752 0.000002 -0.064328
# 5 -0.008904 -0.003337 -0.017797 0.000002 0.038138 0.000001
# 6 -0.000001 -0.000002 0.000000 -0.064328 0.000001 -0.002742
#
#
# Mechanical properties :
#
#
# Convention : Reuss Voigt Hill
#
# Bulk Modulus (GPa) = 20.98276 47.76466 34.37371
# Shear Modulus (GPa) = 44.64153 32.46851 38.55502
#
# Velocity S-wave (km/s) = 4.18578 3.56975 3.88998
# Velocity P-wave (km/s) = 5.62105 5.97807 5.80231
#
# Compressibility (1/GPa) = 0.04765817
#
# Stress axis : x y z
#
# Youngs Moduli (GPa) = 116.87235 117.93278 42.05579
#
# Poissons Ratio (x) = -0.08818 -0.05156
# Poissons Ratio (y) = -0.08739 -0.06092
# Poissons Ratio (z) = -0.14328 -0.17083
#
# Static dielectric constant tensor:
#      x y z
#    x 1.993190 0.000000 0.074570 
#    y 0.000000 1.964070 0.000000 
#    z 0.074570 0.000000 2.024870 
# 
# From -- ./inp_files/261639.got.cif
#   From: 2010.05.17/outbox.cif.g08.bks.cpg/sg12_131_cif.got.tgz:261639.got - 2010.06.03 13:09:07.
