data_PCOD9173168
_publ_section_title
;
Structure prediction by ZEFSAII (Michael W. Deem and Ramdas Pophale) SiO2 
 PCOD9173168
Probable space group: C 2/M
;
_chemical_formula_sum "Si O2"
_cell_formula_units_Z 64
_cell_length_a 16.706573
_cell_length_b 21.152010
_cell_length_c 20.900378
_cell_angle_alpha 90.000000
_cell_angle_beta 29.403655
_cell_angle_gamma 90.000000
_cell_volume 3626.090785
_symmetry_space_group_name_H-M "C 2/M"
_symmetry_group_IT_number 12
_symmetry_cell_setting 'monoclinic'
loop_
_space_group_symop_operation_xyz
x,y,z
-x,y,-z
-x,-y,-z
x,-y,z
1/2+x,1/2+y,z
1/2-x,1/2+y,-z
1/2-x,1/2-y,-z
1/2+x,1/2-y,z
loop_
_atom_site_type_symbol
_atom_site_label
_atom_site_fract_x
_atom_site_fract_y
_atom_site_fract_z
Si Si1 0.534578 0.680573 0.164601
Si Si2 0.642325 0.347145 0.590750
Si Si3 0.746469 0.223819 0.287831
Si Si4 0.100869 0.670460 0.127644
Si Si5 0.830448 0.071517 0.640451
Si Si6 0.587111 0.157636 0.874009
Si Si7 0.908580 0.258002 0.473065
Si Si8 0.873440 0.571239 0.348421
O O1 0.487650 0.643441 0.261954
O O2 0.380800 0.676478 0.223105
O O3 0.556092 0.755326 0.169240
O O4 0.704439 0.663160 0.012839
O O5 0.784469 0.304248 0.523638
O O6 0.567626 0.303841 0.586447
O O7 0.737448 0.405720 0.493627
O O8 0.842346 0.271697 0.176031
O O9 0.680440 0.259300 0.398100
O O10 0.577906 0.206468 0.370816
O O11 0.030607 0.654534 0.105857
O O12 0.012056 0.624768 0.240465
O O13 0.737086 0.111330 0.757627
O O14 0.717811 0.068955 0.656278
O O15 0.000000 0.100406 0.500000
O O16 0.862172 0.000000 0.640987
O O17 0.500000 0.142821 0.000000
O O18 0.932938 0.500000 0.321178
#
# Coordination Sequence:
#
# PCOD9173168 Si02
#       8
#     8   8   8   8   8   8   8   8
#     4   9  18  32  52  73  99 128 165 201 249 300
#     4  10  18  30  50  77  94 125 164 207 242 279
#     4   9  18  30  44  72 100 128 151 188 248 307
#     4   9  18  34  48  67 102 138 162 196 250 305
#     4   9  19  33  47  62  87 129 171 202 234 276
#     4  10  20  28  42  69  96 128 160 197 238 279
#     4   9  17  29  50  72 102 126 154 195 248 298
#     4  10  20  34  50  70  97 131 171 206 245 293
#
# _framework density 17.649861000000001
#
# number of rings (size 3 to 8) (size 9 to 14) (size 15 to 20)
#    0.000    2.625    0.000    3.750    5.250    0.250 
#    2.250    0.625    0.000    0.000    0.000    8.750 
#    0.000    0.000    0.000    0.000    0.000    0.000 
#
# Total GULP energy -178290.242851 kJ/mol
# GULP energy per Si atom -5571.570089 kJ/mol
# Density = 1.760969 g / cm^3
# Si number density = 17.649861 Si / 1000 Ang^3
#
#
#
# Elastic Constant Matrix: (Units=GPa)
#
#
# Indices 1 2 3 4 5 6 
#
# 1 33.0366 -6.4533 16.0872 0.0020 -7.4310 -0.0054
# 2 -6.4533 42.1321 21.5142 0.0022 11.4456 -0.0071
# 3 16.0872 21.5142 116.9176 -0.0014 2.6984 -0.0124
# 4 0.0020 0.0022 -0.0014 6.5830 -0.0033 -12.1751
# 5 -7.4310 11.4456 2.6984 -0.0033 32.1152 0.0086
# 6 -0.0054 -0.0071 -0.0124 -12.1751 0.0086 0.9664
#
#
#
# Elastic Compliance Matrix: (Units=1/GPa)
#
#
# Indices 1 2 3 4 5 6 
#
# 1 0.036230 0.007101 -0.006439 -0.000009 0.006394 0.000001
# 2 0.007101 0.030433 -0.006377 -0.000021 -0.008667 -0.000002
# 3 -0.006439 -0.006377 0.010615 -0.000005 -0.000109 -0.000006
# 4 -0.000009 -0.000021 -0.000005 -0.006812 0.000028 -0.085818
# 5 0.006394 -0.008667 -0.000109 0.000028 0.035715 0.000005
# 6 0.000001 -0.000002 -0.000006 -0.085818 0.000005 -0.046401
#
#
# Mechanical properties :
#
#
# Convention : Reuss Voigt Hill
#
# Bulk Modulus (GPa) = 15.18668 28.26471 21.72569
# Shear Modulus (GPa) = 53.67027 18.66213 36.16620
#
# Velocity S-wave (km/s) = 5.52036 3.25522 4.53160
# Velocity P-wave (km/s) = 7.01823 5.49341 6.30211
#
# Compressibility (1/GPa) = 0.06584719
#
# Stress axis : x y z
#
# Youngs Moduli (GPa) = 27.60127 32.85861 94.20634
#
# Poissons Ratio (x) = -0.23331 0.60661
# Poissons Ratio (y) = -0.19598 0.60076
# Poissons Ratio (z) = 0.17773 0.20954
#
# Static dielectric constant tensor:
#      x y z
#    x 1.637970 0.000000 -0.014620 
#    y 0.000000 1.614870 0.000000 
#    z -0.014620 0.000000 1.627660 
# 
# From -- ./inp_files/318155.got.cif
#   From: 2010.05.17/outbox.cif.g08.bks.cpg/sg12_160_cif.got.tgz:318155.got - 2010.06.03 13:09:07.
