data_PCOD9173939
_publ_section_title
;
Structure prediction by ZEFSAII (Michael W. Deem and Ramdas Pophale) SiO2 
 PCOD9173939
Probable space group: C 2/M
;
_chemical_formula_sum "Si O2"
_cell_formula_units_Z 64
_cell_length_a 20.829300
_cell_length_b 7.366362
_cell_length_c 19.477936
_cell_angle_alpha 90.000000
_cell_angle_beta 90.728707
_cell_angle_gamma 90.000000
_cell_volume 2988.378072
_symmetry_space_group_name_H-M "C 2/M"
_symmetry_group_IT_number 12
_symmetry_cell_setting 'monoclinic'
loop_
_space_group_symop_operation_xyz
x,y,z
-x,y,-z
-x,-y,-z
x,-y,z
1/2+x,1/2+y,z
1/2-x,1/2+y,-z
1/2-x,1/2-y,-z
1/2+x,1/2-y,z
loop_
_atom_site_type_symbol
_atom_site_label
_atom_site_fract_x
_atom_site_fract_y
_atom_site_fract_z
Si Si1 0.058276 0.208794 0.543972
Si Si2 0.972365 0.719833 0.300234
Si Si3 0.354265 0.219232 0.201794
Si Si4 0.299769 0.282852 0.439850
Si Si5 0.393427 0.777914 0.765604
Si Si6 0.238577 0.711299 0.298359
Si Si7 0.582501 0.220919 0.934040
Si Si8 0.933967 0.720790 0.914250
O O1 0.039431 0.212759 0.623437
O O2 0.129612 0.289949 0.540774
O O3 0.000000 0.292316 0.500000
O O4 0.063984 0.000000 0.519678
O O5 0.971682 0.500000 0.301916
O O6 0.914070 0.777236 0.250233
O O7 0.040961 0.776025 0.271155
O O8 0.288890 0.278338 0.236738
O O9 0.369054 0.280809 0.124559
O O10 0.353933 0.000000 0.201547
O O11 0.307869 0.500000 0.431165
O O12 0.250000 0.250000 0.500000
O O13 0.271869 0.211196 0.367249
O O14 0.329788 0.712742 0.726211
O O15 0.398323 0.719756 0.845076
O O16 0.392217 0.000000 0.766113
O O17 0.226524 0.500000 0.313856
O O18 0.509338 0.272525 0.913378
O O19 0.583302 0.000000 0.934216
O O20 0.593599 0.279980 0.012524
O O21 0.933389 0.500000 0.914274
#
# Coordination Sequence:
#
# PCOD9173939 Si02
#       8
#     8   8   8   8   8   8   8   8
#     4  10  22  39  55  74 102 133 164 202 247 300
#     4  10  19  32  54  79 100 125 165 215 250 280
#     4  10  18  31  51  77 102 128 166 210 247 284
#     4  10  22  38  54  73  99 131 166 200 243 298
#     4   9  17  30  48  73 102 130 166 208 247 289
#     4  10  21  36  52  71 101 137 165 196 245 305
#     4   8  13  22  42  72 102 128 159 205 253 285
#     4   8  12  22  42  70 101 129 160 203 250 290
#
# _framework density 21.416298999999999
#
# number of rings (size 3 to 8) (size 9 to 14) (size 15 to 20)
#    0.000    2.625    2.500    0.750    1.750    1.250 
#    0.000    1.250    0.000    0.000    0.000    2.625 
#    0.000    0.000    0.000    0.000    0.000    0.000 
#
# Total GULP energy -178672.032459 kJ/mol
# GULP energy per Si atom -5583.501014 kJ/mol
# Density = 2.136755 g / cm^3
# Si number density = 21.416299 Si / 1000 Ang^3
#
#
#
# Elastic Constant Matrix: (Units=GPa)
#
#
# Indices 1 2 3 4 5 6 
#
# 1 145.3782 -0.0483 57.7314 0.0000 12.5075 0.0000
# 2 -0.0483 76.2568 -7.6217 0.0000 9.7853 0.0000
# 3 57.7314 -7.6217 106.9509 0.0000 -6.2218 0.0000
# 4 0.0000 0.0000 0.0000 116.9547 0.0000 34.8913
# 5 12.5075 9.7853 -6.2218 0.0000 29.4628 0.0000
# 6 0.0000 0.0000 0.0000 34.8913 0.0000 15.0994
#
#
#
# Elastic Compliance Matrix: (Units=1/GPa)
#
#
# Indices 1 2 3 4 5 6 
#
# 1 0.009474 0.000134 -0.005408 0.000000 -0.005208 0.000000
# 2 0.000134 0.013754 0.000647 0.000000 -0.004488 0.000000
# 3 -0.005408 0.000647 0.012591 0.000000 0.004740 0.000000
# 4 0.000000 0.000000 0.000000 0.027526 0.000000 -0.063607
# 5 -0.005208 -0.004488 0.004740 0.000000 0.038644 0.000000
# 6 0.000000 0.000000 0.000000 -0.063607 0.000000 0.213209
#
#
# Mechanical properties :
#
#
# Convention : Reuss Voigt Hill
#
# Bulk Modulus (GPa) = 37.64276 47.63431 42.63853
# Shear Modulus (GPa) = 15.00119 50.87168 32.93643
#
# Velocity S-wave (km/s) = 2.64949 4.87907 3.92588
# Velocity P-wave (km/s) = 5.19370 7.35056 6.36417
#
# Compressibility (1/GPa) = 0.02656554
#
# Stress axis : x y z
#
# Youngs Moduli (GPa) = 105.55029 72.70477 79.42264
#
# Poissons Ratio (x) = -0.00973 0.42948
# Poissons Ratio (y) = -0.01413 -0.05137
# Poissons Ratio (z) = 0.57077 -0.04703
#
# Static dielectric constant tensor:
#      x y z
#    x 1.746960 0.000000 0.016510 
#    y 0.000000 1.824770 0.000000 
#    z 0.016510 0.000000 1.749360 
# 
# From -- ./inp_files/314067.got.cif
#   From: 2010.05.17/outbox.cif.g08.bks.cpg/sg12_158_cif.got.tgz:314067.got - 2010.06.03 13:09:07.
