data_PCOD9173311
_publ_section_title
;
Structure prediction by ZEFSAII (Michael W. Deem and Ramdas Pophale) SiO2 
 PCOD9173311
Probable space group: C 2/M
;
_chemical_formula_sum "Si O2"
_cell_formula_units_Z 56
_cell_length_a 19.840106
_cell_length_b 7.790047
_cell_length_c 27.719136
_cell_angle_alpha 90.000000
_cell_angle_beta 143.607498
_cell_angle_gamma 90.000000
_cell_volume 2541.838899
_symmetry_space_group_name_H-M "C 2/M"
_symmetry_group_IT_number 12
_symmetry_cell_setting 'monoclinic'
loop_
_space_group_symop_operation_xyz
x,y,z
-x,y,-z
-x,-y,-z
x,-y,z
1/2+x,1/2+y,z
1/2-x,1/2+y,-z
1/2-x,1/2-y,-z
1/2+x,1/2-y,z
loop_
_atom_site_type_symbol
_atom_site_label
_atom_site_fract_x
_atom_site_fract_y
_atom_site_fract_z
Si Si1 0.981670 0.298747 0.356940
Si Si2 0.728533 0.197085 0.217998
Si Si3 0.870976 0.697371 0.120000
Si Si4 0.515273 0.790756 0.908295
Si Si5 0.434363 0.700363 0.699667
Si Si6 0.794578 0.294337 0.472124
Si Si7 0.681546 0.703755 0.082817
O O1 0.003909 0.500000 0.361582
O O2 0.851188 0.279050 0.296332
O O3 0.008281 0.212572 0.320624
O O4 0.074380 0.236594 0.449814
O O5 0.613452 0.269906 0.175058
O O6 0.700110 0.208100 0.144564
O O7 0.739689 0.000000 0.239068
O O8 0.837281 0.500000 0.092493
O O9 0.774981 0.775094 0.098832
O O10 0.900745 0.773424 0.085272
O O11 0.986560 0.702783 0.217387
O O12 0.513783 0.000000 0.907083
O O13 0.563428 0.731179 0.987266
O O14 0.432359 0.500000 0.712167
O O15 0.305454 0.769960 0.620382
O O16 0.793516 0.500000 0.465198
O O17 0.750000 0.250000 0.500000
O O18 0.700584 0.500000 0.101637
#
# Coordination Sequence:
#
# PCOD9173311 Si02
#       7
#     8   8   8   8   8   8   8
#     4  10  18  31  51  76 107 139 172 214 261 307
#     4  11  22  36  55  78 106 140 178 218 259 309
#     4  10  21  37  55  77 107 141 175 215 263 309
#     4  10  23  40  55  74 105 143 179 216 260 311
#     4  10  18  30  51  79 107 137 173 212 257 311
#     4   8  16  28  45  73 106 135 167 210 257 304
#     4  11  22  36  57  81 104 133 175 223 266 312
#
# _framework density 22.031292000000001
#
# number of rings (size 3 to 8) (size 9 to 14) (size 15 to 20)
#    0.000    2.000    1.429    2.571    0.000    5.143 
#    0.000    0.000    0.000    0.857    0.000    6.000 
#    0.000    0.000    0.000    0.000    0.000    0.000 
#
# Total GULP energy -156274.507214 kJ/mol
# GULP energy per Si atom -5581.232400 kJ/mol
# Density = 2.198115 g / cm^3
# Si number density = 22.031292 Si / 1000 Ang^3
#
#
#
# Elastic Constant Matrix: (Units=GPa)
#
#
# Indices 1 2 3 4 5 6 
#
# 1 45.1937 -2.8830 -10.8222 0.0000 12.7697 -0.0003
# 2 -2.8830 41.1049 -5.7034 0.0000 2.2823 -0.0008
# 3 -10.8222 -5.7034 103.5071 0.0000 20.6322 0.0000
# 4 0.0000 0.0000 0.0000 23.9233 0.0000 2.1065
# 5 12.7697 2.2823 20.6322 0.0000 26.8647 0.0000
# 6 -0.0003 -0.0008 0.0000 2.1065 0.0000 7.8346
#
#
#
# Elastic Compliance Matrix: (Units=1/GPa)
#
#
# Indices 1 2 3 4 5 6 
#
# 1 0.029890 0.004247 0.007395 0.000000 -0.020248 0.000002
# 2 0.004247 0.025432 0.003163 0.000000 -0.006608 0.000003
# 3 0.007395 0.003163 0.013417 0.000000 -0.014088 0.000001
# 4 0.000000 0.000000 0.000000 0.042814 0.000000 -0.011511
# 5 -0.020248 -0.006608 -0.014088 0.000000 0.058229 -0.000001
# 6 0.000002 0.000003 0.000001 -0.011511 -0.000001 0.130734
#
#
# Mechanical properties :
#
#
# Convention : Reuss Voigt Hill
#
# Bulk Modulus (GPa) = 10.16805 16.77650 13.47228
# Shear Modulus (GPa) = 16.46421 25.67215 21.06818
#
# Velocity S-wave (km/s) = 2.73666 3.41729 3.09574
# Velocity P-wave (km/s) = 3.82244 4.81683 4.34816
#
# Compressibility (1/GPa) = 0.09834725
#
# Stress axis : x y z
#
# Youngs Moduli (GPa) = 33.45609 39.32119 74.53326
#
# Poissons Ratio (x) = -0.16699 -0.55119
# Poissons Ratio (y) = -0.14208 -0.23571
# Poissons Ratio (z) = -0.24741 -0.12435
#
# Static dielectric constant tensor:
#      x y z
#    x 1.813440 0.000000 0.046600 
#    y 0.000000 1.781980 0.000000 
#    z 0.046600 0.000000 1.846300 
# 
# From -- ./inp_files/275688.got.cif
#   From: 2010.05.17/outbox.cif.g08.bks.cpg/sg12_138_cif.got.tgz:275688.got - 2010.06.03 13:09:07.
