data_PCOD9173798
_publ_section_title
;
Structure prediction by ZEFSAII (Michael W. Deem and Ramdas Pophale) SiO2 
 PCOD9173798
Probable space group: C 2/M
;
_chemical_formula_sum "Si O2"
_cell_formula_units_Z 56
_cell_length_a 9.701924
_cell_length_b 23.349141
_cell_length_c 17.098943
_cell_angle_alpha 90.000000
_cell_angle_beta 62.238028
_cell_angle_gamma 90.000000
_cell_volume 3427.579121
_symmetry_space_group_name_H-M "C 2/M"
_symmetry_group_IT_number 12
_symmetry_cell_setting 'monoclinic'
loop_
_space_group_symop_operation_xyz
x,y,z
-x,y,-z
-x,-y,-z
x,-y,z
1/2+x,1/2+y,z
1/2-x,1/2+y,-z
1/2-x,1/2-y,-z
1/2+x,1/2-y,z
loop_
_atom_site_type_symbol
_atom_site_label
_atom_site_fract_x
_atom_site_fract_y
_atom_site_fract_z
Si Si1 0.862280 0.123575 0.357009
Si Si2 0.447721 0.850754 0.661574
Si Si3 0.803812 0.567946 0.829123
Si Si4 0.976611 0.932214 0.831337
Si Si5 0.159940 0.569219 0.997020
Si Si6 0.644937 0.938207 0.522388
Si Si7 0.072645 0.235501 0.567006
O O1 0.702381 0.143422 0.355940
O O2 0.799686 0.075493 0.433191
O O3 0.933733 0.175555 0.386384
O O4 0.974590 0.099334 0.260848
O O5 0.396194 0.885796 0.752283
O O6 0.595478 0.886111 0.589857
O O7 0.497509 0.784767 0.641842
O O8 0.844971 0.500000 0.802715
O O9 0.622353 0.573498 0.852442
O O10 0.829727 0.580498 0.913334
O O11 0.961659 0.000000 0.818911
O O12 0.816061 0.910889 0.911645
O O13 0.160352 0.500000 0.989989
O O14 0.000000 0.590302 0.000000
O O15 0.500000 0.941241 0.500000
O O16 0.653871 0.000000 0.559931
O O17 0.250000 0.250000 0.500000
O O18 0.000000 0.234114 0.500000
#
# Coordination Sequence:
#
# PCOD9173798 Si02
#       7
#     8   8   8   8   8   8   8
#     4  10  19  32  50  74 100 130 170 215 251 294
#     4  10  18  31  50  74 101 129 171 215 248 294
#     4   9  17  30  52  79 102 130 169 209 251 298
#     4   9  17  31  53  78 102 131 169 208 250 300
#     4   9  17  31  49  73 108 139 161 196 249 311
#     4   9  15  25  45  72 101 129 158 202 253 295
#     4  12  21  37  54  72  99 138 180 215 251 299
#
# _framework density 16.338061
#
# number of rings (size 3 to 8) (size 9 to 14) (size 15 to 20)
#    0.000    2.286    2.857    1.714    0.000    5.143 
#    2.571    0.000    0.000    2.571    0.000    0.000 
#    0.000    0.000    0.000    0.000    0.000    0.000 
#
# Total GULP energy -155891.720886 kJ/mol
# GULP energy per Si atom -5567.561460 kJ/mol
# Density = 1.630087 g / cm^3
# Si number density = 16.338061 Si / 1000 Ang^3
#
#
#
# Elastic Constant Matrix: (Units=GPa)
#
#
# Indices 1 2 3 4 5 6 
#
# 1 76.0651 33.7406 62.0258 0.0000 3.5322 0.0000
# 2 33.7406 80.9307 42.7929 0.0000 5.1035 0.0000
# 3 62.0258 42.7929 113.2228 0.0000 -0.9803 0.0000
# 4 0.0000 0.0000 0.0000 14.2586 0.0000 2.4484
# 5 3.5322 5.1035 -0.9803 0.0000 13.9050 0.0000
# 6 0.0000 0.0000 0.0000 2.4484 0.0000 13.4493
#
#
#
# Elastic Compliance Matrix: (Units=1/GPa)
#
#
# Indices 1 2 3 4 5 6 
#
# 1 0.025197 -0.003500 -0.012533 0.000000 -0.006000 0.000000
# 2 -0.003500 0.016460 -0.004351 0.000000 -0.005459 0.000000
# 3 -0.012533 -0.004351 0.017394 0.000000 0.006007 0.000000
# 4 0.000000 0.000000 0.000000 0.072397 0.000000 -0.013180
# 5 -0.006000 -0.005459 0.006007 0.000000 0.075868 0.000000
# 6 0.000000 0.000000 0.000000 -0.013180 0.000000 0.076753
#
#
# Mechanical properties :
#
#
# Convention : Reuss Voigt Hill
#
# Bulk Modulus (GPa) = 54.69126 60.81524 57.75325
# Shear Modulus (GPa) = 15.10887 17.09985 16.10436
#
# Velocity S-wave (km/s) = 3.04429 3.23867 3.14299
# Velocity P-wave (km/s) = 6.77528 7.16165 6.97114
#
# Compressibility (1/GPa) = 0.01828446
#
# Stress axis : x y z
#
# Youngs Moduli (GPa) = 39.68688 60.75196 57.48964
#
# Poissons Ratio (x) = 0.21262 0.72050
# Poissons Ratio (y) = 0.13889 0.25015
# Poissons Ratio (z) = 0.49739 0.26435
#
# Static dielectric constant tensor:
#      x y z
#    x 1.527880 0.000000 -0.010640 
#    y 0.000000 1.555020 0.000000 
#    z -0.010640 0.000000 1.544570 
# 
# From -- ./inp_files/198384.got.cif
#   From: 2010.05.17/outbox.cif.g08.bks.cpg/sg12_100_cif.got.tgz:198384.got - 2010.06.03 13:09:07.
