data_PCOD9173164
_publ_section_title
;
Structure prediction by ZEFSAII (Michael W. Deem and Ramdas Pophale) SiO2 
 PCOD9173164
Probable space group: C 2/M
;
_chemical_formula_sum "Si O2"
_cell_formula_units_Z 64
_cell_length_a 11.573313
_cell_length_b 20.326138
_cell_length_c 27.714931
_cell_angle_alpha 90.000000
_cell_angle_beta 149.345564
_cell_angle_gamma 90.000000
_cell_volume 3324.117994
_symmetry_space_group_name_H-M "C 2/M"
_symmetry_group_IT_number 12
_symmetry_cell_setting 'monoclinic'
loop_
_space_group_symop_operation_xyz
x,y,z
-x,y,-z
-x,-y,-z
x,-y,z
1/2+x,1/2+y,z
1/2-x,1/2+y,-z
1/2-x,1/2-y,-z
1/2+x,1/2-y,z
loop_
_atom_site_type_symbol
_atom_site_label
_atom_site_fract_x
_atom_site_fract_y
_atom_site_fract_z
Si Si1 0.307117 0.882334 0.398169
Si Si2 0.593627 0.075489 0.359996
Si Si3 0.600915 0.837521 0.790482
Si Si4 0.904176 0.306952 0.576961
Si Si5 0.915055 0.167915 0.090232
Si Si6 0.443857 0.282464 0.286117
Si Si7 0.056539 0.321453 0.885271
Si Si8 0.592587 0.429409 0.228580
O O1 0.500000 0.916366 0.500000
O O2 0.449544 0.836837 0.413071
O O3 0.145656 0.922270 0.304238
O O4 0.143642 0.833392 0.368171
O O5 0.550648 0.108833 0.292523
O O6 0.712167 0.131445 0.436215
O O7 0.342346 0.071783 0.293625
O O8 0.681492 0.000000 0.390659
O O9 0.513061 0.764036 0.744844
O O10 0.598695 0.847735 0.846699
O O11 0.854783 0.838547 0.859167
O O12 0.750000 0.250000 0.500000
O O13 0.062928 0.270877 0.673338
O O14 0.879758 0.243834 0.091666
O O15 0.950268 0.126583 0.151369
O O16 0.709336 0.146746 0.981753
O O17 0.209157 0.320728 0.198078
O O18 0.487455 0.500000 0.180692
#
# Coordination Sequence:
#
# PCOD9173164 Si02
#       8
#     8   8   8   8   8   8   8   8
#     4  11  20  32  52  76 103 129 172 219 261 314
#     4   8  16  30  50  75 103 135 169 212 260 307
#     4   9  16  29  50  74 104 134 169 207 251 307
#     4  10  18  31  50  78 106 132 167 217 267 309
#     4   9  18  31  50  76 105 133 170 208 257 312
#     4  10  19  31  48  76 107 133 165 211 267 310
#     4  10  18  30  50  77 106 134 165 211 262 307
#     4   9  18  34  53  74 102 134 173 218 258 303
#
# _framework density 19.253226999999999
#
# number of rings (size 3 to 8) (size 9 to 14) (size 15 to 20)
#    0.000    2.500    1.250    4.125    0.000    0.250 
#    0.000    2.500    0.000    5.250    0.000   14.875 
#    0.000    0.000    0.000    0.000    0.000    0.000 
#
# Total GULP energy -178224.458617 kJ/mol
# GULP energy per Si atom -5569.514332 kJ/mol
# Density = 1.920941 g / cm^3
# Si number density = 19.253227 Si / 1000 Ang^3
#
#
#
# Elastic Constant Matrix: (Units=GPa)
#
#
# Indices 1 2 3 4 5 6 
#
# 1 36.3170 15.0775 15.5124 -0.0002 -18.3932 -0.0003
# 2 15.0775 87.4725 39.4749 0.0002 -7.4412 0.0001
# 3 15.5124 39.4749 102.1503 0.0009 -21.9519 -0.0003
# 4 -0.0002 0.0002 0.0009 15.0986 -0.0001 -1.3828
# 5 -18.3932 -7.4412 -21.9519 -0.0001 20.0998 -0.0003
# 6 -0.0003 0.0001 -0.0003 -1.3828 -0.0003 7.1188
#
#
#
# Elastic Compliance Matrix: (Units=1/GPa)
#
#
# Indices 1 2 3 4 5 6 
#
# 1 0.056171 -0.007866 0.006442 0.000001 0.055525 0.000005
# 2 -0.007866 0.014962 -0.006460 0.000000 -0.008714 -0.000001
# 3 0.006442 -0.006460 0.015759 0.000000 0.020715 0.000002
# 4 0.000001 0.000000 0.000000 0.067431 0.000001 0.013099
# 5 0.055525 -0.008714 0.020715 0.000001 0.119960 0.000008
# 6 0.000005 -0.000001 0.000002 0.013099 0.000008 0.143018
#
#
# Mechanical properties :
#
#
# Convention : Reuss Voigt Hill
#
# Bulk Modulus (GPa) = 14.05993 40.67438 27.36715
# Shear Modulus (GPa) = 10.94627 18.85510 14.90068
#
# Velocity S-wave (km/s) = 2.38700 3.13281 2.78498
# Velocity P-wave (km/s) = 3.86206 5.85302 4.95849
#
# Compressibility (1/GPa) = 0.07112413
#
# Stress axis : x y z
#
# Youngs Moduli (GPa) = 17.80288 66.83607 63.45488
#
# Poissons Ratio (x) = 0.52571 -0.40877
# Poissons Ratio (y) = 0.14003 0.40992
# Poissons Ratio (z) = -0.11468 0.43177
#
# Static dielectric constant tensor:
#      x y z
#    x 1.679980 0.000000 -0.018550 
#    y 0.000000 1.699880 0.000000 
#    z -0.018550 0.000000 1.722100 
# 
# From -- ./inp_files/359020.got.cif
#   From: 2010.05.17/outbox.cif.g08.bks.cpg/sg12_180_cif.got.tgz:359020.got - 2010.06.03 13:09:07.
