data_PCOD9173029
_publ_section_title
;
Structure prediction by ZEFSAII (Michael W. Deem and Ramdas Pophale) SiO2 
 PCOD9173029
Probable space group: C 2/M
;
_chemical_formula_sum "Si O2"
_cell_formula_units_Z 56
_cell_length_a 19.894239
_cell_length_b 7.647211
_cell_length_c 20.780493
_cell_angle_alpha 90.000000
_cell_angle_beta 52.947532
_cell_angle_gamma 90.000000
_cell_volume 2523.102495
_symmetry_space_group_name_H-M "C 2/M"
_symmetry_group_IT_number 12
_symmetry_cell_setting 'monoclinic'
loop_
_space_group_symop_operation_xyz
x,y,z
-x,y,-z
-x,-y,-z
x,-y,z
1/2+x,1/2+y,z
1/2-x,1/2+y,-z
1/2-x,1/2-y,-z
1/2+x,1/2-y,z
loop_
_atom_site_type_symbol
_atom_site_label
_atom_site_fract_x
_atom_site_fract_y
_atom_site_fract_z
Si Si1 0.055000 0.795694 0.142926
Si Si2 0.690537 0.290923 0.973179
Si Si3 0.937533 0.199606 0.622955
Si Si4 0.387344 0.713062 0.420471
Si Si5 0.831519 0.297242 0.802385
Si Si6 0.629722 0.799341 0.717862
Si Si7 0.190179 0.214752 0.405203
O O1 0.100283 0.709787 0.178500
O O2 0.954899 0.780107 0.204324
O O3 0.076535 0.000000 0.136569
O O4 0.099520 0.730566 0.051415
O O5 0.686975 0.500000 0.965827
O O6 0.743649 0.224096 0.881673
O O7 0.750000 0.250000 0.000000
O O8 0.870069 0.200913 0.719480
O O9 0.890440 0.276453 0.588601
O O10 0.022991 0.274563 0.602458
O O11 0.959303 0.000000 0.593428
O O12 0.388334 0.500000 0.413204
O O13 0.377068 0.789018 0.355782
O O14 0.320325 0.762431 0.514037
O O15 0.820941 0.500000 0.790509
O O16 0.722529 0.722819 0.676299
O O17 0.630015 0.000000 0.738382
O O18 0.190923 0.000000 0.402561
#
# Coordination Sequence:
#
# PCOD9173029 Si02
#       7
#     8   8   8   8   8   8   8
#     4  10  18  31  50  73 100 133 172 204 242 297
#     4   8  16  28  45  70 100 130 160 201 246 296
#     4  10  19  33  54  76 101 134 173 208 244 299
#     4  10  19  34  56  76  97 130 174 214 251 299
#     4  10  18  30  49  76 106 130 159 204 259 299
#     4  11  21  33  51  75 106 135 166 210 256 297
#     4   9  20  36  52  73 101 138 174 206 248 300
#
# _framework density 22.194894999999999
#
# number of rings (size 3 to 8) (size 9 to 14) (size 15 to 20)
#    0.000    2.286    1.429    2.143    0.000    2.857 
#    0.000    2.857    0.000    2.571    0.000    6.000 
#    0.000    0.000    0.000    0.000    0.000    0.000 
#
# Total GULP energy -156213.998011 kJ/mol
# GULP energy per Si atom -5579.071358 kJ/mol
# Density = 2.214438 g / cm^3
# Si number density = 22.194895 Si / 1000 Ang^3
#
#
#
# Elastic Constant Matrix: (Units=GPa)
#
#
# Indices 1 2 3 4 5 6 
#
# 1 46.9012 -9.6878 -12.7227 0.0000 -15.5494 -0.0004
# 2 -9.6878 49.6033 -2.6428 -0.0002 0.1946 -0.0013
# 3 -12.7227 -2.6428 106.9394 0.0000 -23.5491 -0.0001
# 4 0.0000 -0.0002 0.0000 12.5781 0.0001 -1.1346
# 5 -15.5494 0.1946 -23.5491 0.0001 30.4651 0.0001
# 6 -0.0004 -0.0013 -0.0001 -1.1346 0.0001 6.2334
#
#
#
# Elastic Compliance Matrix: (Units=1/GPa)
#
#
# Indices 1 2 3 4 5 6 
#
# 1 0.033410 0.006936 0.009511 0.000000 0.024360 0.000003
# 2 0.006936 0.021629 0.002542 0.000001 0.005367 0.000005
# 3 0.009511 0.002542 0.013993 0.000000 0.015654 0.000001
# 4 0.000000 0.000001 0.000000 0.080830 0.000000 0.014712
# 5 0.024360 0.005367 0.015654 0.000000 0.057324 0.000002
# 6 0.000003 0.000005 0.000001 0.014712 0.000002 0.163105
#
#
# Mechanical properties :
#
#
# Convention : Reuss Voigt Hill
#
# Bulk Modulus (GPa) = 9.34505 17.03750 13.19127
# Shear Modulus (GPa) = 13.58755 25.08844 19.33800
#
# Velocity S-wave (km/s) = 2.47694 3.36574 2.95495
# Velocity P-wave (km/s) = 3.52135 4.77465 4.19507
#
# Compressibility (1/GPa) = 0.10700854
#
# Stress axis : x y z
#
# Youngs Moduli (GPa) = 29.93096 46.23426 71.46656
#
# Poissons Ratio (x) = -0.32069 -0.67969
# Poissons Ratio (y) = -0.20761 -0.18164
# Poissons Ratio (z) = -0.28466 -0.11751
#
# Static dielectric constant tensor:
#      x y z
#    x 1.808210 0.000000 -0.042380 
#    y 0.000000 1.761730 0.000000 
#    z -0.042380 0.000000 1.851120 
# 
# From -- ./inp_files/280423.got.cif
#   From: 2010.05.17/outbox.cif.g08.bks.cpg/sg12_141_cif.got.tgz:280423.got - 2010.06.03 13:09:07.
