data_PCOD9173657
_publ_section_title
;
Structure prediction by ZEFSAII (Michael W. Deem and Ramdas Pophale) SiO2 
 PCOD9173657
Probable space group: C 2/M
;
_chemical_formula_sum "Si O2"
_cell_formula_units_Z 56
_cell_length_a 7.643331
_cell_length_b 21.704102
_cell_length_c 16.121271
_cell_angle_alpha 90.000000
_cell_angle_beta 66.332972
_cell_angle_gamma 90.000000
_cell_volume 2449.451606
_symmetry_space_group_name_H-M "C 2/M"
_symmetry_group_IT_number 12
_symmetry_cell_setting 'monoclinic'
loop_
_space_group_symop_operation_xyz
x,y,z
-x,y,-z
-x,-y,-z
x,-y,z
1/2+x,1/2+y,z
1/2-x,1/2+y,-z
1/2-x,1/2-y,-z
1/2+x,1/2-y,z
loop_
_atom_site_type_symbol
_atom_site_label
_atom_site_fract_x
_atom_site_fract_y
_atom_site_fract_z
Si Si1 0.775776 0.350598 0.125621
Si Si2 0.820684 0.173305 0.420843
Si Si3 0.226079 0.928278 0.973824
Si Si4 0.170975 0.627796 0.212253
Si Si5 0.520910 0.426986 0.717726
Si Si6 0.539223 0.733470 0.894269
Si Si7 0.441514 0.192203 0.382926
O O1 0.668158 0.394866 0.209504
O O2 0.636061 0.295860 0.121314
O O3 0.797577 0.390007 0.038245
O O4 0.058279 0.306168 0.873572
O O5 0.922376 0.110733 0.375339
O O6 0.624883 0.178261 0.405414
O O7 0.751822 0.178153 0.529081
O O8 0.938009 0.234025 0.371119
O O9 0.340118 0.912023 0.868986
O O10 0.239821 0.000000 0.990426
O O11 0.000000 0.914624 0.000000
O O12 0.310070 0.588750 0.247951
O O13 0.291099 0.689514 0.169109
O O14 0.981740 0.649889 0.296117
O O15 0.502280 0.500000 0.711611
O O16 0.500000 0.726910 0.000000
#
# Coordination Sequence:
#
# PCOD9173657 Si02
#       7
#     8   8   8   8   8   8   8
#     4  11  21  34  51  80 103 134 170 214 261 303
#     4   9  18  34  54  79 107 133 164 208 264 306
#     4  11  19  32  50  71 101 139 177 209 245 304
#     4  10  18  31  48  77 101 129 167 213 255 291
#     4  10  19  33  53  77 103 137 177 210 246 304
#     4  11  20  32  50  77 108 128 168 216 261 298
#     4   9  18  33  52  80 109 129 164 210 263 312
#
# _framework density 22.862259999999999
#
# number of rings (size 3 to 8) (size 9 to 14) (size 15 to 20)
#    0.000    1.857    4.286    2.143    0.000    0.000 
#    0.000    6.429    0.000    1.714    0.000   12.000 
#    0.000    0.000    0.000    0.000    0.000    0.000 
#
# Total GULP energy -156648.130274 kJ/mol
# GULP energy per Si atom -5594.576081 kJ/mol
# Density = 2.281022 g / cm^3
# Si number density = 22.862260 Si / 1000 Ang^3
#
#
#
# Elastic Constant Matrix: (Units=GPa)
#
#
# Indices 1 2 3 4 5 6 
#
# 1 47.0488 30.4121 15.9757 0.0000 -5.0257 0.0000
# 2 30.4121 205.3654 68.3352 0.0000 -5.4754 0.0000
# 3 15.9757 68.3352 114.2070 0.0000 -1.2872 0.0000
# 4 0.0000 0.0000 0.0000 43.6557 0.0000 -4.3862
# 5 -5.0257 -5.4754 -1.2872 0.0000 20.8032 0.0000
# 6 0.0000 0.0000 0.0000 -4.3862 0.0000 27.9322
#
#
#
# Elastic Compliance Matrix: (Units=1/GPa)
#
#
# Indices 1 2 3 4 5 6 
#
# 1 0.024215 -0.002928 -0.001579 0.000000 0.004982 0.000000
# 2 -0.002928 0.006473 -0.003455 0.000000 0.000783 0.000000
# 3 -0.001579 -0.003455 0.011037 0.000000 -0.000608 0.000000
# 4 0.000000 0.000000 0.000000 0.023274 0.000000 0.003655
# 5 0.004982 0.000783 -0.000608 0.000000 0.049441 0.000000
# 6 0.000000 0.000000 0.000000 0.003655 0.000000 0.036375
#
#
# Mechanical properties :
#
#
# Convention : Reuss Voigt Hill
#
# Bulk Modulus (GPa) = 38.75660 66.22967 52.49314
# Shear Modulus (GPa) = 28.51589 35.27145 31.89367
#
# Velocity S-wave (km/s) = 3.53553 3.93209 3.73907
# Velocity P-wave (km/s) = 5.80135 7.04606 6.45378
#
# Compressibility (1/GPa) = 0.02580206
#
# Stress axis : x y z
#
# Youngs Moduli (GPa) = 41.29610 154.47759 90.60109
#
# Poissons Ratio (x) = 0.45225 0.14310
# Poissons Ratio (y) = 0.12090 0.31303
# Poissons Ratio (z) = 0.06523 0.53372
#
# Static dielectric constant tensor:
#      x y z
#    x 2.047200 0.000000 -0.012770 
#    y 0.000000 1.797370 0.000000 
#    z -0.012770 0.000000 1.910430 
# 
# From -- ./inp_files/306600.got.cif
#   From: 2010.05.17/outbox.cif.g08.bks.cpg/sg12_154_cif.got.tgz:306600.got - 2010.06.03 13:09:07.
