data_PCOD9173920
_publ_section_title
;
Structure prediction by ZEFSAII (Michael W. Deem and Ramdas Pophale) SiO2 
 PCOD9173920
Probable space group: C 2/M
;
_chemical_formula_sum "Si O2"
_cell_formula_units_Z 56
_cell_length_a 20.200575
_cell_length_b 9.304151
_cell_length_c 21.977156
_cell_angle_alpha 90.000000
_cell_angle_beta 38.191756
_cell_angle_gamma 90.000000
_cell_volume 2553.923763
_symmetry_space_group_name_H-M "C 2/M"
_symmetry_group_IT_number 12
_symmetry_cell_setting 'monoclinic'
loop_
_space_group_symop_operation_xyz
x,y,z
-x,y,-z
-x,-y,-z
x,-y,z
1/2+x,1/2+y,z
1/2-x,1/2+y,-z
1/2-x,1/2-y,-z
1/2+x,1/2-y,z
loop_
_atom_site_type_symbol
_atom_site_label
_atom_site_fract_x
_atom_site_fract_y
_atom_site_fract_z
Si Si1 0.306869 0.164850 0.105758
Si Si2 0.993354 0.168608 0.263890
Si Si3 0.425115 0.169676 0.904913
Si Si4 0.568906 0.333927 0.334604
Si Si5 0.155582 0.332279 0.382362
Si Si6 0.751601 0.330867 0.562362
Si Si7 0.893262 0.833649 0.151788
O O1 0.185976 0.170793 0.217394
O O2 0.374744 0.274331 0.097333
O O3 0.344583 0.000000 0.088837
O O4 0.323989 0.194909 0.022205
O O5 0.872368 0.178300 0.326807
O O6 0.070032 0.252731 0.163229
O O7 0.995612 0.221350 0.332200
O O8 0.022783 0.000000 0.244144
O O9 0.523895 0.234125 0.872371
O O10 0.437843 0.000000 0.886719
O O11 0.542509 0.500000 0.367174
O O12 0.580057 0.247125 0.388840
O O13 0.126743 0.500000 0.406750
O O14 0.171791 0.274246 0.439208
O O15 0.275384 0.325191 0.267344
O O16 0.774924 0.500000 0.536453
O O17 0.750000 0.250000 0.500000
O O18 0.927607 0.000000 0.128552
#
# Coordination Sequence:
#
# PCOD9173920 Si02
#       7
#     8   8   8   8   8   8   8
#     4   9  19  33  47  74 111 145 185 230 269 311
#     4  10  21  39  58  79 110 144 181 227 271 320
#     4  11  21  31  48  75 111 147 183 229 274 316
#     4   9  19  36  58  79 107 149 188 221 264 317
#     4   9  18  35  57  80 110 142 175 223 271 317
#     4  10  21  39  61  86 111 136 172 222 274 326
#     4  10  18  31  51  75 105 144 188 229 271 317
#
# _framework density 21.927046000000001
#
# number of rings (size 3 to 8) (size 9 to 14) (size 15 to 20)
#    0.000    2.286    1.429    1.286    0.000    5.714 
#    0.000    0.714    0.000    4.286    0.000    0.000 
#    0.000    0.000    0.000    0.000    0.000    0.000 
#
# Total GULP energy -156414.122994 kJ/mol
# GULP energy per Si atom -5586.218678 kJ/mol
# Density = 2.187714 g / cm^3
# Si number density = 21.927046 Si / 1000 Ang^3
#
#
#
# Elastic Constant Matrix: (Units=GPa)
#
#
# Indices 1 2 3 4 5 6 
#
# 1 142.0645 40.6021 33.5378 0.0000 36.0652 -0.0001
# 2 40.6021 49.0882 37.2513 0.0000 25.0806 -0.0002
# 3 33.5378 37.2513 94.5070 0.0000 34.1890 0.0000
# 4 0.0000 0.0000 0.0000 22.4708 0.0000 15.4250
# 5 36.0652 25.0806 34.1890 0.0000 48.2650 0.0000
# 6 -0.0001 -0.0002 0.0000 15.4250 0.0000 30.5297
#
#
#
# Elastic Compliance Matrix: (Units=1/GPa)
#
#
# Indices 1 2 3 4 5 6 
#
# 1 0.009841 -0.006307 0.000630 0.000000 -0.004522 0.000000
# 2 -0.006307 0.036665 -0.009447 0.000000 -0.007648 0.000000
# 3 0.000630 -0.009447 0.016774 0.000000 -0.007444 0.000000
# 4 0.000000 0.000000 0.000000 0.068132 0.000000 -0.034423
# 5 -0.004522 -0.007648 -0.007444 0.000000 0.033345 0.000000
# 6 0.000000 0.000000 0.000000 -0.034423 0.000000 0.050147
#
#
# Mechanical properties :
#
#
# Convention : Reuss Voigt Hill
#
# Bulk Modulus (GPa) = 30.27446 56.49359 43.38403
# Shear Modulus (GPa) = 19.51880 31.87099 25.69489
#
# Velocity S-wave (km/s) = 2.98681 3.81662 3.42692
# Velocity P-wave (km/s) = 5.07263 6.72624 5.95709
#
# Compressibility (1/GPa) = 0.03303114
#
# Stress axis : x y z
#
# Youngs Moduli (GPa) = 101.61600 27.27413 59.61501
#
# Poissons Ratio (x) = 0.17202 -0.03754
# Poissons Ratio (y) = 0.64090 0.56319
# Poissons Ratio (z) = -0.06398 0.25766
#
# Static dielectric constant tensor:
#      x y z
#    x 1.813370 0.000000 -0.014820 
#    y 0.000000 1.739250 0.000000 
#    z -0.014820 0.000000 1.857810 
# 
# From -- ./inp_files/319637.got.cif
#   From: 2010.05.17/outbox.cif.g08.bks.cpg/sg12_160_cif.got.tgz:319637.got - 2010.06.03 13:09:07.
