data_PCOD9173405
_publ_section_title
;
Structure prediction by ZEFSAII (Michael W. Deem and Ramdas Pophale) SiO2 
 PCOD9173405
Probable space group: C 2/M
;
_chemical_formula_sum "Si O2"
_cell_formula_units_Z 56
_cell_length_a 12.834853
_cell_length_b 20.994912
_cell_length_c 13.292920
_cell_angle_alpha 90.000000
_cell_angle_beta 115.907430
_cell_angle_gamma 90.000000
_cell_volume 3222.011313
_symmetry_space_group_name_H-M "C 2/M"
_symmetry_group_IT_number 12
_symmetry_cell_setting 'monoclinic'
loop_
_space_group_symop_operation_xyz
x,y,z
-x,y,-z
-x,-y,-z
x,-y,z
1/2+x,1/2+y,z
1/2-x,1/2+y,-z
1/2-x,1/2-y,-z
1/2+x,1/2-y,z
loop_
_atom_site_type_symbol
_atom_site_label
_atom_site_fract_x
_atom_site_fract_y
_atom_site_fract_z
Si Si1 0.461989 0.235178 0.243553
Si Si2 0.348919 0.632367 0.170684
Si Si3 0.362647 0.570791 0.959737
Si Si4 0.102352 0.687211 0.119088
Si Si5 0.541760 0.426693 0.402502
Si Si6 0.163046 0.799852 0.412957
Si Si7 0.220194 0.185262 0.202143
O O1 0.407888 0.299073 0.170496
O O2 0.541295 0.194378 0.201820
O O3 0.539728 0.263966 0.364872
O O4 0.354217 0.196659 0.238145
O O5 0.220669 0.646132 0.162306
O O6 0.437282 0.596692 0.284246
O O7 0.337914 0.595230 0.061688
O O8 0.315854 0.500000 0.927781
O O9 0.314166 0.618303 0.856801
O O10 0.500000 0.569677 0.000000
O O11 0.147363 0.759085 0.115438
O O12 0.000000 0.667907 0.000000
O O13 0.500000 0.427274 0.500000
O O14 0.574337 0.500000 0.389243
O O15 0.641284 0.372119 0.439988
O O16 0.250000 0.750000 0.500000
O O17 0.193780 0.806695 0.308232
#
# Coordination Sequence:
#
# PCOD9173405 Si02
#       7
#     8   8   8   8   8   8   8
#     4   9  19  32  52  80 110 144 177 233 288 339
#     4  10  20  34  55  82 114 146 189 234 282 344
#     4  11  21  33  54  79 109 144 184 228 277 340
#     4  10  18  30  52  80 111 146 181 228 280 338
#     4  10  22  38  59  84 115 152 192 239 294 348
#     4  10  22  34  59  86 113 143 189 244 288 344
#     4  10  20  34  51  81 110 146 181 228 294 338
#
# _framework density 17.380448000000001
#
# number of rings (size 3 to 8) (size 9 to 14) (size 15 to 20)
#    0.000    2.000    0.000    5.143    8.000    4.000 
#    0.000    0.000    0.000    8.571    0.000    2.000 
#    0.000    0.000    0.000    0.000    0.000    0.000 
#
# Total GULP energy -156035.443936 kJ/mol
# GULP energy per Si atom -5572.694426 kJ/mol
# Density = 1.734089 g / cm^3
# Si number density = 17.380448 Si / 1000 Ang^3
#
#
#
# Elastic Constant Matrix: (Units=GPa)
#
#
# Indices 1 2 3 4 5 6 
#
# 1 89.9382 40.6594 13.3264 0.0000 6.8314 0.0000
# 2 40.6594 127.2392 50.7256 0.0000 9.7240 0.0000
# 3 13.3264 50.7256 72.4350 0.0000 1.7852 0.0000
# 4 0.0000 0.0000 0.0000 20.9731 0.0000 8.7595
# 5 6.8314 9.7240 1.7852 0.0000 24.0803 0.0000
# 6 0.0000 0.0000 0.0000 8.7595 0.0000 55.9019
#
#
#
# Elastic Compliance Matrix: (Units=1/GPa)
#
#
# Indices 1 2 3 4 5 6 
#
# 1 0.013119 -0.004293 0.000643 0.000000 -0.002036 0.000000
# 2 -0.004293 0.012675 -0.008005 0.000000 -0.003307 0.000000
# 3 0.000643 -0.008005 0.019253 0.000000 0.001623 0.000000
# 4 0.000000 0.000000 0.000000 0.051019 0.000000 -0.007994
# 5 -0.002036 -0.003307 0.001623 0.000000 0.043320 0.000000
# 6 0.000000 0.000000 0.000000 -0.007994 0.000000 0.019141
#
#
# Mechanical properties :
#
#
# Convention : Reuss Voigt Hill
#
# Bulk Modulus (GPa) = 46.00443 55.44836 50.72639
# Shear Modulus (GPa) = 26.44342 32.51779 29.48061
#
# Velocity S-wave (km/s) = 3.90480 4.33013 4.12296
# Velocity P-wave (km/s) = 6.84518 7.54798 7.20516
#
# Compressibility (1/GPa) = 0.02173704
#
# Stress axis : x y z
#
# Youngs Moduli (GPa) = 76.22629 78.89554 51.93997
#
# Poissons Ratio (x) = 0.33868 -0.03339
# Poissons Ratio (y) = 0.32723 0.41577
# Poissons Ratio (z) = -0.04900 0.63155
#
# Static dielectric constant tensor:
#      x y z
#    x 1.602510 0.000000 0.006750 
#    y 0.000000 1.605850 0.000000 
#    z 0.006750 0.000000 1.608230 
# 
# From -- ./inp_files/133988.got.cif
#   From: 2010.05.17/outbox.cif.g08.bks.cpg/sg12_67_cif.got.tgz:133988.got - 2010.06.03 13:09:07.
