data_PCOD9173456
_publ_section_title
;
Structure prediction by ZEFSAII (Michael W. Deem and Ramdas Pophale) SiO2 
 PCOD9173456
Probable space group: C 2/M
;
_chemical_formula_sum "Si O2"
_cell_formula_units_Z 64
_cell_length_a 25.857981
_cell_length_b 7.476479
_cell_length_c 29.964173
_cell_angle_alpha 90.000000
_cell_angle_beta 29.872697
_cell_angle_gamma 90.000000
_cell_volume 2885.282927
_symmetry_space_group_name_H-M "C 2/M"
_symmetry_group_IT_number 12
_symmetry_cell_setting 'monoclinic'
loop_
_space_group_symop_operation_xyz
x,y,z
-x,y,-z
-x,-y,-z
x,-y,z
1/2+x,1/2+y,z
1/2-x,1/2+y,-z
1/2-x,1/2-y,-z
1/2+x,1/2-y,z
loop_
_atom_site_type_symbol
_atom_site_label
_atom_site_fract_x
_atom_site_fract_y
_atom_site_fract_z
Si Si1 0.527453 0.784207 0.029476
Si Si2 0.511998 0.285248 0.798497
Si Si3 0.196031 0.282378 0.783940
Si Si4 0.640748 0.719174 0.269514
Si Si5 0.248146 0.286015 0.649379
Si Si6 0.331283 0.704117 0.999624
Si Si7 0.972529 0.781732 0.469575
Si Si8 0.108249 0.205648 0.193976
O O1 0.422742 0.729287 0.133242
O O2 0.539340 0.000000 0.020370
O O3 0.500000 0.729804 0.000000
O O4 0.624451 0.710126 0.983155
O O5 0.501320 0.500000 0.807124
O O6 0.632822 0.251406 0.717928
O O7 0.475508 0.216038 0.777463
O O8 0.425075 0.218780 0.899207
O O9 0.195712 0.500000 0.785334
O O10 0.251314 0.224615 0.787903
O O11 0.254608 0.223496 0.695909
O O12 0.643645 0.500000 0.265756
O O13 0.552697 0.773108 0.371094
O O14 0.622400 0.783729 0.232923
O O15 0.255080 0.500000 0.645329
O O16 0.354376 0.224361 0.546935
O O17 0.313055 0.500000 0.999718
O O18 0.218971 0.792902 0.085527
O O19 0.000000 0.727204 0.500000
O O20 0.977769 0.000000 0.465972
O O21 0.077487 0.000000 0.224236
#
# Coordination Sequence:
#
# PCOD9173456 Si02
#       8
#     8   8   8   8   8   8   8   8
#     4  10  19  31  49  74 105 139 175 212 253 310
#     4  10  22  38  53  73 104 143 181 216 257 308
#     4   9  15  25  45  75 104 128 160 205 256 301
#     4   9  16  29  51  79 107 132 166 216 264 305
#     4  10  18  30  53  81 105 132 168 213 261 306
#     4  11  22  35  52  75 104 136 175 221 268 311
#     4   9  15  26  49  83 113 130 158 212 267 309
#     4  10  21  37  56  75 100 139 183 220 257 306
#
# _framework density 22.181533999999999
#
# number of rings (size 3 to 8) (size 9 to 14) (size 15 to 20)
#    0.000    2.250    2.500    1.500    0.000    3.250 
#    0.000    0.625    0.000    1.125    0.000    0.000 
#    0.000    0.000    0.000    0.000    0.000    0.000 
#
# Total GULP energy -178574.086799 kJ/mol
# GULP energy per Si atom -5580.440212 kJ/mol
# Density = 2.213105 g / cm^3
# Si number density = 22.181534 Si / 1000 Ang^3
#
#
#
# Elastic Constant Matrix: (Units=GPa)
#
#
# Indices 1 2 3 4 5 6 
#
# 1 149.9735 -0.8210 45.7895 0.0086 -16.5786 -0.0308
# 2 -0.8210 58.7787 -5.4780 0.0041 4.2067 -0.0845
# 3 45.7895 -5.4780 89.0755 -0.0065 -13.1109 -0.0444
# 4 0.0086 0.0041 -0.0065 2.8485 0.0090 -4.1560
# 5 -16.5786 4.2067 -13.1109 0.0090 25.3744 0.0193
# 6 -0.0308 -0.0845 -0.0444 -4.1560 0.0193 7.6298
#
#
#
# Elastic Compliance Matrix: (Units=1/GPa)
#
#
# Indices 1 2 3 4 5 6 
#
# 1 0.008190 -0.000484 -0.003724 -0.000233 0.003507 -0.000130
# 2 -0.000484 0.017287 0.000913 0.001371 -0.002711 0.000948
# 3 -0.003724 0.000913 0.013871 0.000588 0.004583 0.000384
# 4 -0.000233 0.001371 0.000588 1.710453 -0.001392 0.931711
# 5 0.003507 -0.002711 0.004583 -0.001392 0.044520 -0.000860
# 6 -0.000130 0.000948 0.000384 0.931711 -0.000860 0.638585
#
#
# Mechanical properties :
#
#
# Convention : Reuss Voigt Hill
#
# Bulk Modulus (GPa) = 30.52533 41.86764 36.19648
# Shear Modulus (GPa) = 2.04047 24.39301 13.21674
#
# Velocity S-wave (km/s) = 0.96015 3.31977 2.44364
# Velocity P-wave (km/s) = 3.87565 5.79745 4.93108
#
# Compressibility (1/GPa) = 0.03275968
#
# Stress axis : x y z
#
# Youngs Moduli (GPa) = 122.10363 57.84817 72.09048
#
# Poissons Ratio (x) = 0.02799 0.26843
# Poissons Ratio (y) = 0.05908 -0.06584
# Poissons Ratio (z) = 0.45466 -0.05283
#
# Static dielectric constant tensor:
#      x y z
#    x 1.820850 0.000040 0.019830 
#    y 0.000040 1.888640 0.000060 
#    z 0.019830 0.000060 1.832170 
# 
# From -- ./inp_files/238608.got.cif
#   From: 2010.05.17/outbox.cif.g08.bks.cpg/sg12_120_cif.got.tgz:238608.got - 2010.06.03 13:09:07.
