data_PCOD9173191
_publ_section_title
;
Structure prediction by ZEFSAII (Michael W. Deem and Ramdas Pophale) SiO2 
 PCOD9173191
Probable space group: C 2/M
;
_chemical_formula_sum "Si O2"
_cell_formula_units_Z 48
_cell_length_a 14.781023
_cell_length_b 17.439136
_cell_length_c 15.818569
_cell_angle_alpha 90.000000
_cell_angle_beta 142.006365
_cell_angle_gamma 90.000000
_cell_volume 2510.018199
_symmetry_space_group_name_H-M "C 2/M"
_symmetry_group_IT_number 12
_symmetry_cell_setting 'monoclinic'
loop_
_space_group_symop_operation_xyz
x,y,z
-x,y,-z
-x,-y,-z
x,-y,z
1/2+x,1/2+y,z
1/2-x,1/2+y,-z
1/2-x,1/2-y,-z
1/2+x,1/2-y,z
loop_
_atom_site_type_symbol
_atom_site_label
_atom_site_fract_x
_atom_site_fract_y
_atom_site_fract_z
Si Si1 0.425138 0.618958 0.034573
Si Si2 0.705204 0.586691 0.332568
Si Si3 0.440654 0.089423 0.633502
Si Si4 0.145663 0.414986 0.924319
Si Si5 0.645827 0.791154 0.061739
Si Si6 0.879402 0.290781 0.348081
O O1 0.532958 0.594733 0.189421
O O2 0.500000 0.595794 0.000000
O O3 0.264983 0.586495 0.936246
O O4 0.406207 0.710404 0.016591
O O5 0.747556 0.500000 0.336641
O O6 0.774054 0.596896 0.476565
O O7 0.776985 0.651609 0.326665
O O8 0.487845 0.101805 0.764955
O O9 0.531109 0.152243 0.647556
O O10 0.481921 0.000000 0.645963
O O11 0.144076 0.500000 0.960323
O O12 0.190613 0.350576 0.023253
O O13 0.776645 0.767455 0.221385
O O14 0.500000 0.822684 0.000000
O O15 0.000000 0.255114 0.500000
#
# Coordination Sequence:
#
# PCOD9173191 Si02
#       6
#     8   8   8   8   8   8
#     4  11  20  35  56  87 117 144 170 229 284 337
#     4  10  18  30  50  81 118 145 172 215 279 347
#     4   9  18  31  50  80 114 146 177 216 272 340
#     4  11  23  38  59  82 110 149 189 228 274 325
#     4  11  22  40  57  79 112 147 193 235 267 316
#     4  10  18  32  53  81 113 148 182 220 276 329
#
# _framework density 19.123366999999998
#
# number of rings (size 3 to 8) (size 9 to 14) (size 15 to 20)
#    0.000    1.667    5.000    1.500    0.000    5.000 
#    0.000    2.500    0.000    0.500    0.000    0.000 
#    0.000    0.000    0.000    0.000    0.000    0.000 
#
# Total GULP energy -133754.564451 kJ/mol
# GULP energy per Si atom -5573.106852 kJ/mol
# Density = 1.907984 g / cm^3
# Si number density = 19.123367 Si / 1000 Ang^3
#
#
#
# Elastic Constant Matrix: (Units=GPa)
#
#
# Indices 1 2 3 4 5 6 
#
# 1 30.4555 16.1776 18.7009 0.0001 -3.4543 0.0004
# 2 16.1776 64.7602 48.1956 0.0002 -18.9819 0.0003
# 3 18.7009 48.1956 188.0179 -0.0011 0.9429 0.0006
# 4 0.0001 0.0002 -0.0011 20.3249 -0.0001 2.3850
# 5 -3.4543 -18.9819 0.9429 -0.0001 17.1679 0.0004
# 6 0.0004 0.0003 0.0006 2.3850 0.0004 -5.1043
#
#
#
# Elastic Compliance Matrix: (Units=1/GPa)
#
#
# Indices 1 2 3 4 5 6 
#
# 1 0.038338 -0.009201 -0.001443 0.000000 -0.002380 0.000002
# 2 -0.009201 0.034597 -0.008138 -0.000001 0.036848 0.000003
# 3 -0.001443 -0.008138 0.007597 0.000000 -0.009706 0.000000
# 4 0.000000 -0.000001 0.000000 0.046643 -0.000001 0.021794
# 5 -0.002380 0.036848 -0.009706 -0.000001 0.099044 0.000009
# 6 0.000002 0.000003 0.000000 0.021794 0.000009 -0.185730
#
#
# Mechanical properties :
#
#
# Convention : Reuss Voigt Hill
#
# Bulk Modulus (GPa) = 23.27288 49.93133 36.60211
# Shear Modulus (GPa) = 54.12594 19.82167 36.97380
#
# Velocity S-wave (km/s) = 5.32588 3.22299 4.40186
# Velocity P-wave (km/s) = 7.07222 6.32590 6.70944
#
# Compressibility (1/GPa) = 0.04296846
#
# Stress axis : x y z
#
# Youngs Moduli (GPa) = 26.08360 28.90397 131.63255
#
# Poissons Ratio (x) = 0.26595 0.18991
# Poissons Ratio (y) = 0.24000 1.07124
# Poissons Ratio (z) = 0.03763 0.23522
#
# Static dielectric constant tensor:
#      x y z
#    x 1.677790 0.000000 -0.005310 
#    y 0.000000 1.646700 0.000000 
#    z -0.005310 0.000000 1.733310 
# 
# From -- ./inp_files/216480.got.cif
#   From: 2010.05.17/outbox.cif.g08.bks.cpg/sg12_109_cif.got.tgz:216480.got - 2010.06.03 13:09:07.
