data_PCOD9173239
_publ_section_title
;
Structure prediction by ZEFSAII (Michael W. Deem and Ramdas Pophale) SiO2 
 PCOD9173239
Probable space group: C 2/M
;
_chemical_formula_sum "Si O2"
_cell_formula_units_Z 56
_cell_length_a 21.952178
_cell_length_b 7.406007
_cell_length_c 16.111488
_cell_angle_alpha 90.000000
_cell_angle_beta 93.117983
_cell_angle_gamma 90.000000
_cell_volume 2615.495642
_symmetry_space_group_name_H-M "C 2/M"
_symmetry_group_IT_number 12
_symmetry_cell_setting 'monoclinic'
loop_
_space_group_symop_operation_xyz
x,y,z
-x,y,-z
-x,-y,-z
x,-y,z
1/2+x,1/2+y,z
1/2-x,1/2+y,-z
1/2-x,1/2-y,-z
1/2+x,1/2-y,z
loop_
_atom_site_type_symbol
_atom_site_label
_atom_site_fract_x
_atom_site_fract_y
_atom_site_fract_z
Si Si1 0.588603 0.780069 0.450294
Si Si2 0.239350 0.782452 0.767749
Si Si3 0.432709 0.778769 0.025170
Si Si4 0.956621 0.279592 0.378188
Si Si5 0.599378 0.213331 0.795222
Si Si6 0.718923 0.783924 0.408583
Si Si7 0.195474 0.283779 0.062792
O O1 0.525758 0.724658 0.402619
O O2 0.584473 0.724621 0.546343
O O3 0.649640 0.716759 0.411324
O O4 0.589193 0.000000 0.449535
O O5 0.171392 0.736455 0.791108
O O6 0.251032 0.715672 0.674592
O O7 0.284131 0.717411 0.844514
O O8 0.244188 0.000000 0.766232
O O9 0.371498 0.719654 0.971408
O O10 0.431940 0.000000 0.023077
O O11 0.500000 0.723745 0.000000
O O12 0.423398 0.716291 0.118886
O O13 0.955716 0.500000 0.377634
O O14 0.932252 0.212096 0.289314
O O15 0.586089 0.000000 0.795243
O O16 0.750000 0.750000 0.500000
O O17 0.717258 0.000000 0.400651
O O18 0.190950 0.500000 0.067666
O O19 0.250000 0.250000 0.000000
#
# Coordination Sequence:
#
# PCOD9173239 Si02
#       7
#     8   8   8   8   8   8   8
#     4   8  14  26  42  64  95 124 153 197 250 295
#     4  10  21  33  49  74 103 136 170 206 255 308
#     4   9  18  31  49  76 105 129 163 216 268 305
#     4   8  14  24  43  69  92 118 157 203 245 289
#     4  10  18  30  51  75  96 127 171 211 251 303
#     4  10  20  33  49  72 102 134 166 206 253 301
#     4  10  19  34  54  75 103 138 173 213 259 313
#
# _framework density 21.410857
#
# number of rings (size 3 to 8) (size 9 to 14) (size 15 to 20)
#    0.000    2.714    1.429    1.714    0.000    2.857 
#    0.000    5.714    0.000    2.571    0.000    6.000 
#    0.000    0.000    0.000    0.000    0.000    0.000 
#
# Total GULP energy -156267.907459 kJ/mol
# GULP energy per Si atom -5580.996695 kJ/mol
# Density = 2.136212 g / cm^3
# Si number density = 21.410857 Si / 1000 Ang^3
#
#
#
# Elastic Constant Matrix: (Units=GPa)
#
#
# Indices 1 2 3 4 5 6 
#
# 1 129.6301 -16.3168 89.2345 0.0000 -16.7257 0.0000
# 2 -16.3168 65.2658 -4.5798 0.0000 -0.3733 0.0000
# 3 89.2345 -4.5798 188.5550 0.0000 1.8895 0.0000
# 4 0.0000 0.0000 0.0000 4.1821 0.0000 0.8416
# 5 -16.7257 -0.3733 1.8895 0.0000 40.2566 0.0000
# 6 0.0000 0.0000 0.0000 0.8416 0.0000 9.8541
#
#
#
# Elastic Compliance Matrix: (Units=1/GPa)
#
#
# Indices 1 2 3 4 5 6 
#
# 1 0.013064 0.002866 -0.006170 0.000000 0.005744 0.000000
# 2 0.002866 0.015977 -0.000982 0.000000 0.001385 0.000000
# 3 -0.006170 -0.000982 0.008229 0.000000 -0.002959 0.000000
# 4 0.000000 0.000000 0.000000 0.243295 0.000000 -0.020780
# 5 0.005744 0.001385 -0.002959 0.000000 0.027379 0.000000
# 6 0.000000 0.000000 0.000000 -0.020780 0.000000 0.103255
#
#
# Mechanical properties :
#
#
# Convention : Reuss Voigt Hill
#
# Bulk Modulus (GPa) = 34.84644 57.79184 46.31914
# Shear Modulus (GPa) = 11.64582 31.86610 21.75596
#
# Velocity S-wave (km/s) = 2.33474 3.86205 3.19112
# Velocity P-wave (km/s) = 4.85577 6.85111 5.93785
#
# Compressibility (1/GPa) = 0.02869734
#
# Stress axis : x y z
#
# Youngs Moduli (GPa) = 76.54832 62.58819 121.51478
#
# Poissons Ratio (x) = -0.17937 0.74979
# Poissons Ratio (y) = -0.21938 0.11934
# Poissons Ratio (z) = 0.47233 0.06147
#
# Static dielectric constant tensor:
#      x y z
#    x 1.736090 0.000000 0.022240 
#    y 0.000000 1.895560 0.000000 
#    z 0.022240 0.000000 1.806480 
# 
# From -- ./inp_files/231039.got.cif
#   From: 2010.05.17/outbox.cif.g08.bks.cpg/sg12_116_cif.got.tgz:231039.got - 2010.06.03 13:09:07.
