data_PCOD9173145
_publ_section_title
;
Structure prediction by ZEFSAII (Michael W. Deem and Ramdas Pophale) SiO2 
 PCOD9173145
Probable space group: C 2/M
;
_chemical_formula_sum "Si O2"
_cell_formula_units_Z 56
_cell_length_a 20.764357
_cell_length_b 8.699306
_cell_length_c 22.178695
_cell_angle_alpha 90.000000
_cell_angle_beta 50.449936
_cell_angle_gamma 90.000000
_cell_volume 3089.100531
_symmetry_space_group_name_H-M "C 2/M"
_symmetry_group_IT_number 12
_symmetry_cell_setting 'monoclinic'
loop_
_space_group_symop_operation_xyz
x,y,z
-x,y,-z
-x,-y,-z
x,-y,z
1/2+x,1/2+y,z
1/2-x,1/2+y,-z
1/2-x,1/2-y,-z
1/2+x,1/2-y,z
loop_
_atom_site_type_symbol
_atom_site_label
_atom_site_fract_x
_atom_site_fract_y
_atom_site_fract_z
Si Si1 0.946574 0.814494 0.404756
Si Si2 0.300840 0.315511 0.149377
Si Si3 0.150817 0.314622 0.650162
Si Si4 0.423223 0.817204 0.178303
Si Si5 0.363615 0.686103 0.701718
Si Si6 0.937383 0.178010 0.979579
Si Si7 0.664729 0.687004 0.419470
O O1 0.887796 0.755936 0.386604
O O2 0.908763 0.764149 0.491674
O O3 0.042258 0.765467 0.338971
O O4 0.945884 0.000000 0.405183
O O5 0.301832 0.500000 0.148796
O O6 0.355658 0.258187 0.173611
O O7 0.208112 0.253062 0.213114
O O8 0.350252 0.264463 0.059467
O O9 0.150185 0.500000 0.645455
O O10 0.097091 0.271403 0.741274
O O11 0.246016 0.265740 0.606572
O O12 0.514717 0.769995 0.100543
O O13 0.412733 0.000000 0.179862
O O14 0.359055 0.500000 0.706275
O O15 0.345547 0.736118 0.643439
O O16 0.929240 0.000000 0.966083
O O17 0.000000 0.181680 0.000000
O O18 0.664188 0.500000 0.418377
#
# Coordination Sequence:
#
# PCOD9173145 Si02
#       7
#     8   8   8   8   8   8   8
#     4  10  21  34  53  77 101 136 175 212 255 304
#     4  10  19  31  49  75 105 135 166 206 258 305
#     4  10  20  34  52  74 106 139 167 209 256 302
#     4  10  18  30  50  76 102 134 172 208 251 299
#     4  10  19  34  54  76 103 134 173 215 253 301
#     4   8  16  29  45  71 105 133 160 204 258 303
#     4   9  17  34  55  75 100 133 173 214 257 301
#
# _framework density 18.128253999999998
#
# number of rings (size 3 to 8) (size 9 to 14) (size 15 to 20)
#    0.000    2.429    1.429    2.571    0.000    6.571 
#    0.000    0.714    0.000    2.571    0.000    0.000 
#    0.000    0.000    0.000    0.000    0.000    0.000 
#
# Total GULP energy -156154.360011 kJ/mol
# GULP energy per Si atom -5576.941429 kJ/mol
# Density = 1.808699 g / cm^3
# Si number density = 18.128254 Si / 1000 Ang^3
#
#
#
# Elastic Constant Matrix: (Units=GPa)
#
#
# Indices 1 2 3 4 5 6 
#
# 1 40.7731 3.0818 -4.4099 0.0000 -16.2621 -0.0002
# 2 3.0818 14.6672 15.6597 -0.0001 -6.0391 -0.0004
# 3 -4.4099 15.6597 86.7593 0.0000 -28.2212 0.0000
# 4 0.0000 -0.0001 0.0000 14.6763 0.0000 0.0222
# 5 -16.2621 -6.0391 -28.2212 0.0000 21.2268 0.0000
# 6 -0.0002 -0.0004 0.0000 0.0222 0.0000 19.8381
#
#
#
# Elastic Compliance Matrix: (Units=1/GPa)
#
#
# Indices 1 2 3 4 5 6 
#
# 1 0.071294 -0.015083 0.040028 0.000000 0.103545 0.000000
# 2 -0.015083 0.088178 -0.021639 0.000001 -0.015237 0.000002
# 3 0.040028 -0.021639 0.044824 0.000000 0.084103 0.000000
# 4 0.000000 0.000001 0.000000 0.068137 -0.000001 -0.000076
# 5 0.103545 -0.015237 0.084103 -0.000001 0.233918 0.000000
# 6 0.000000 0.000002 0.000000 -0.000076 0.000000 0.050408
#
#
# Mechanical properties :
#
#
# Convention : Reuss Voigt Hill
#
# Bulk Modulus (GPa) = 4.74141 18.98476 11.86309
# Shear Modulus (GPa) = 8.05867 19.67279 13.86573
#
# Velocity S-wave (km/s) = 2.11069 3.29781 2.76863
# Velocity P-wave (km/s) = 2.92595 4.99960 4.09616
#
# Compressibility (1/GPa) = 0.21090750
#
# Stress axis : x y z
#
# Youngs Moduli (GPa) = 14.02644 11.34067 22.30968
#
# Poissons Ratio (x) = 0.17105 -0.89300
# Poissons Ratio (y) = 0.21156 0.48276
# Poissons Ratio (z) = -0.56145 0.24540
#
# Static dielectric constant tensor:
#      x y z
#    x 1.593820 0.000000 -0.025100 
#    y 0.000000 1.618080 0.000000 
#    z -0.025100 0.000000 1.647450 
# 
# From -- ./inp_files/314395.got.cif
#   From: 2010.05.17/outbox.cif.g08.bks.cpg/sg12_158_cif.got.tgz:314395.got - 2010.06.03 13:09:07.
