data_PCOD9173121
_publ_section_title
;
Structure prediction by ZEFSAII (Michael W. Deem and Ramdas Pophale) SiO2 
 PCOD9173121
Probable space group: C 2/M
;
_chemical_formula_sum "Si O2"
_cell_formula_units_Z 56
_cell_length_a 17.881177
_cell_length_b 28.804953
_cell_length_c 7.459451
_cell_angle_alpha 90.000000
_cell_angle_beta 140.936239
_cell_angle_gamma 90.000000
_cell_volume 2421.241393
_symmetry_space_group_name_H-M "C 2/M"
_symmetry_group_IT_number 12
_symmetry_cell_setting 'monoclinic'
loop_
_space_group_symop_operation_xyz
x,y,z
-x,y,-z
-x,-y,-z
x,-y,z
1/2+x,1/2+y,z
1/2-x,1/2+y,-z
1/2-x,1/2-y,-z
1/2+x,1/2-y,z
loop_
_atom_site_type_symbol
_atom_site_label
_atom_site_fract_x
_atom_site_fract_y
_atom_site_fract_z
Si Si1 0.067149 0.948703 0.348681
Si Si2 0.893742 0.724366 0.551441
Si Si3 0.757853 0.615166 0.637956
Si Si4 0.642993 0.878798 0.580840
Si Si5 0.163099 0.715653 0.124818
Si Si6 0.049135 0.551314 0.888060
Si Si7 0.821243 0.949575 0.049728
O O1 0.122424 0.901115 0.377809
O O2 0.113170 0.949969 0.639082
O O3 0.925284 0.945865 0.096195
O O4 0.099277 0.000000 0.331450
O O5 0.876481 0.675052 0.421066
O O6 0.866276 0.721016 0.715628
O O7 0.783510 0.757509 0.290599
O O8 0.037327 0.732511 0.803444
O O9 0.805297 0.620030 0.525197
O O10 0.801496 0.661139 0.821884
O O11 0.820052 0.570317 0.840657
O O12 0.524955 0.909552 0.350279
O O13 0.734244 0.906705 0.871020
O O14 0.043282 0.500000 0.799362
O O15 0.000000 0.549077 0.000000
O O16 0.761154 0.000000 0.910754
#
# Coordination Sequence:
#
# PCOD9173121 Si02
#       7
#     8   8   8   8   8   8   8
#     4   9  19  35  51  69 100 139 171 204 254 312
#     4   9  17  30  48  72 105 140 172 213 266 317
#     4  10  18  30  50  75 101 130 169 212 254 302
#     4  10  18  30  50  75 101 130 169 212 254 302
#     4   9  17  30  48  72 105 140 172 213 266 317
#     4   9  16  26  43  69 101 131 157 195 250 299
#     4   9  19  35  51  69 100 139 171 204 254 312
#
# _framework density 23.128632
#
# number of rings (size 3 to 8) (size 9 to 14) (size 15 to 20)
#    0.000    2.714    1.429    1.714    0.000    3.429 
#    0.000    5.000    0.000    3.429    0.000    0.000 
#    0.000    0.000    0.000    0.000    0.000    0.000 
#
# Total GULP energy -156165.703671 kJ/mol
# GULP energy per Si atom -5577.346560 kJ/mol
# Density = 2.307599 g / cm^3
# Si number density = 23.128632 Si / 1000 Ang^3
#
#
#
# Elastic Constant Matrix: (Units=GPa)
#
#
# Indices 1 2 3 4 5 6 
#
# 1 68.8247 29.8611 29.5884 0.0000 22.0146 0.0000
# 2 29.8611 105.0180 43.5454 0.0000 6.6733 0.0000
# 3 29.5884 43.5454 101.4414 0.0000 9.6259 0.0000
# 4 0.0000 0.0000 0.0000 31.8278 0.0000 8.7100
# 5 22.0146 6.6733 9.6259 0.0000 25.8108 0.0000
# 6 0.0000 0.0000 0.0000 8.7100 0.0000 9.9569
#
#
#
# Elastic Compliance Matrix: (Units=1/GPa)
#
#
# Indices 1 2 3 4 5 6 
#
# 1 0.023423 -0.004137 -0.003382 0.000000 -0.017647 0.000000
# 2 -0.004137 0.012349 -0.004278 0.000000 0.001931 0.000000
# 3 -0.003382 -0.004278 0.012753 0.000000 -0.000766 0.000000
# 4 0.000000 0.000000 0.000000 0.041308 0.000000 -0.036135
# 5 -0.017647 0.001931 -0.000766 0.000000 0.053582 0.000000
# 6 0.000000 0.000000 0.000000 -0.036135 0.000000 0.132042
#
#
# Mechanical properties :
#
#
# Convention : Reuss Voigt Hill
#
# Bulk Modulus (GPa) = 40.10670 53.47486 46.79078
# Shear Modulus (GPa) = 16.26751 25.00505 20.63628
#
# Velocity S-wave (km/s) = 2.65495 3.29162 2.99028
# Velocity P-wave (km/s) = 5.17462 6.13328 5.67424
#
# Compressibility (1/GPa) = 0.02493349
#
# Stress axis : x y z
#
# Youngs Moduli (GPa) = 42.69303 80.97497 78.41093
#
# Poissons Ratio (x) = 0.33496 0.26517
# Poissons Ratio (y) = 0.17660 0.33543
# Poissons Ratio (z) = 0.14438 0.34640
#
# Static dielectric constant tensor:
#      x y z
#    x 1.955490 0.000000 0.000470 
#    y 0.000000 1.833460 0.000000 
#    z 0.000470 0.000000 1.900590 
# 
# From -- ./inp_files/91604.got.cif
#   From: 2010.05.17/outbox.cif.g08.bks.cpg/sg12_46_cif.got.tgz:91604.got - 2010.06.03 13:09:07.
