data_PCOD9173915
_publ_section_title
;
Structure prediction by ZEFSAII (Michael W. Deem and Ramdas Pophale) SiO2 
 PCOD9173915
Probable space group: C 2/M
;
_chemical_formula_sum "Si O2"
_cell_formula_units_Z 56
_cell_length_a 31.129311
_cell_length_b 7.784245
_cell_length_c 12.867964
_cell_angle_alpha 90.000000
_cell_angle_beta 74.013504
_cell_angle_gamma 90.000000
_cell_volume 2997.552628
_symmetry_space_group_name_H-M "C 2/M"
_symmetry_group_IT_number 12
_symmetry_cell_setting 'monoclinic'
loop_
_space_group_symop_operation_xyz
x,y,z
-x,y,-z
-x,-y,-z
x,-y,z
1/2+x,1/2+y,z
1/2-x,1/2+y,-z
1/2-x,1/2-y,-z
1/2+x,1/2-y,z
loop_
_atom_site_type_symbol
_atom_site_label
_atom_site_fract_x
_atom_site_fract_y
_atom_site_fract_z
Si Si1 0.042478 0.701235 0.033607
Si Si2 0.204974 0.795826 0.410093
Si Si3 0.557395 0.208157 0.640546
Si Si4 0.455644 0.789942 0.733362
Si Si5 0.696663 0.703299 0.651210
Si Si6 0.889709 0.293067 0.598760
Si Si7 0.608570 0.701857 0.815781
O O1 0.031802 0.500000 0.056918
O O2 0.049727 0.771301 0.144392
O O3 0.084822 0.715243 0.930342
O O4 0.000000 0.777833 0.000000
O O5 0.253047 0.727894 0.342537
O O6 0.195899 0.725803 0.533495
O O7 0.162203 0.754281 0.369592
O O8 0.209473 0.000000 0.414901
O O9 0.505584 0.257015 0.663731
O O10 0.586920 0.268339 0.523581
O O11 0.577324 0.273724 0.735480
O O12 0.559201 0.000000 0.643118
O O13 0.417940 0.729909 0.678450
O O14 0.453642 0.000000 0.733826
O O15 0.687807 0.500000 0.648411
O O16 0.656958 0.773076 0.749070
O O17 0.892532 0.500000 0.595710
O O18 0.612292 0.500000 0.836395
#
# Coordination Sequence:
#
# PCOD9173915 Si02
#       7
#     8   8   8   8   8   8   8
#     4  10  19  34  54  74 100 136 177 217 249 289
#     4  10  19  32  51  75 104 132 164 207 255 309
#     4  10  18  31  51  75 103 137 175 206 244 301
#     4   9  18  33  51  74 103 137 177 213 246 291
#     4   9  19  34  50  72 102 134 166 205 255 306
#     4  10  19  31  52  77 104 138 171 207 252 305
#     4  11  21  33  51  76 107 134 165 211 260 302
#
# _framework density 18.681908
#
# number of rings (size 3 to 8) (size 9 to 14) (size 15 to 20)
#    0.000    2.143    2.857    1.286    0.000    3.714 
#    0.000    1.429    0.000    2.571    0.000    0.000 
#    0.000    0.000    0.000    0.000    0.000    0.000 
#
# Total GULP energy -156252.137601 kJ/mol
# GULP energy per Si atom -5580.433486 kJ/mol
# Density = 1.863939 g / cm^3
# Si number density = 18.681908 Si / 1000 Ang^3
#
#
#
# Elastic Constant Matrix: (Units=GPa)
#
#
# Indices 1 2 3 4 5 6 
#
# 1 125.0849 -18.0332 33.4531 0.0000 -9.3034 0.0000
# 2 -18.0332 18.1396 -9.7051 0.0000 1.6862 0.0000
# 3 33.4531 -9.7051 50.5847 0.0000 -1.5861 0.0000
# 4 0.0000 0.0000 0.0000 6.6917 0.0000 -2.3026
# 5 -9.3034 1.6862 -1.5861 0.0000 27.4725 0.0000
# 6 0.0000 0.0000 0.0000 -2.3026 0.0000 16.7548
#
#
#
# Elastic Compliance Matrix: (Units=1/GPa)
#
#
# Indices 1 2 3 4 5 6 
#
# 1 0.010783 0.007451 -0.005612 0.000000 0.002870 0.000000
# 2 0.007451 0.066846 0.007862 0.000000 -0.001126 0.000000
# 3 -0.005612 0.007862 0.024959 0.000000 -0.000942 0.000000
# 4 0.000000 0.000000 0.000000 0.156856 0.000000 0.021556
# 5 0.002870 -0.001126 -0.000942 0.000000 0.037387 0.000000
# 6 0.000000 0.000000 0.000000 0.021556 0.000000 0.062647
#
#
# Mechanical properties :
#
#
# Convention : Reuss Voigt Hill
#
# Bulk Modulus (GPa) = 8.19734 22.80431 15.50082
# Shear Modulus (GPa) = 13.13238 22.72343 17.92790
#
# Velocity S-wave (km/s) = 2.65419 3.49138 3.10117
# Velocity P-wave (km/s) = 3.71353 5.33724 4.59763
#
# Compressibility (1/GPa) = 0.12199085
#
# Stress axis : x y z
#
# Youngs Moduli (GPa) = 92.73877 14.95972 40.06580
#
# Poissons Ratio (x) = -0.11146 0.22484
# Poissons Ratio (y) = -0.69095 -0.31502
# Poissons Ratio (z) = 0.52042 -0.11762
#
# Static dielectric constant tensor:
#      x y z
#    x 1.644910 0.000000 -0.009090 
#    y 0.000000 1.684490 0.000000 
#    z -0.009090 0.000000 1.637170 
# 
# From -- ./inp_files/186471.got.cif
#   From: 2010.05.17/outbox.cif.g08.bks.cpg/sg12_94_cif.got.tgz:186471.got - 2010.06.03 13:09:07.
