data_PCOD9173575
_publ_section_title
;
Structure prediction by ZEFSAII (Michael W. Deem and Ramdas Pophale) SiO2 
 PCOD9173575
Probable space group: C 2/M
;
_chemical_formula_sum "Si O2"
_cell_formula_units_Z 64
_cell_length_a 26.135403
_cell_length_b 26.586235
_cell_length_c 11.167660
_cell_angle_alpha 90.000000
_cell_angle_beta 27.813401
_cell_angle_gamma 90.000000
_cell_volume 3620.653215
_symmetry_space_group_name_H-M "C 2/M"
_symmetry_group_IT_number 12
_symmetry_cell_setting 'monoclinic'
loop_
_space_group_symop_operation_xyz
x,y,z
-x,y,-z
-x,-y,-z
x,-y,z
1/2+x,1/2+y,z
1/2-x,1/2+y,-z
1/2-x,1/2-y,-z
1/2+x,1/2-y,z
loop_
_atom_site_type_symbol
_atom_site_label
_atom_site_fract_x
_atom_site_fract_y
_atom_site_fract_z
Si Si1 0.279835 0.863305 0.356460
Si Si2 0.148153 0.708488 0.600997
Si Si3 0.506390 0.128697 0.766993
Si Si4 0.412465 0.685092 0.375821
Si Si5 0.572156 0.802982 0.250687
Si Si6 0.137966 0.799674 0.003227
Si Si7 0.203950 0.805794 0.126814
Si Si8 0.618000 0.057781 0.685904
O O1 0.308248 0.809542 0.360512
O O2 0.164758 0.856112 0.527883
O O3 0.295337 0.905916 0.426751
O O4 0.377936 0.876966 0.062336
O O5 0.053354 0.669271 0.763573
O O6 0.104101 0.764025 0.667148
O O7 0.247464 0.699065 0.302480
O O8 0.509458 0.156454 0.635374
O O9 0.581927 0.080670 0.632895
O O10 0.541197 0.675373 0.126794
O O11 0.368780 0.694104 0.602843
O O12 0.500000 0.775424 0.500000
O O13 0.606312 0.759510 0.086913
O O14 0.680753 0.830122 0.073608
O O15 0.150398 0.821962 0.112227
O O16 0.250000 0.750000 0.000000
O O17 0.651956 0.000000 0.613074
O O18 0.500000 0.061050 0.000000
#
# Coordination Sequence:
#
# PCOD9173575 Si02
#       8
#     8   8   8   8   8   8   8   8
#     4  10  21  34  48  73  99 126 161 199 251 298
#     4  11  20  32  45  65  98 135 166 197 239 279
#     4  10  18  33  50  71  98 126 162 201 245 295
#     4  12  20  31  45  63 101 135 168 203 236 270
#     4  11  18  29  47  66  95 133 175 204 233 272
#     4  11  21  31  44  65  93 140 177 204 221 270
#     4  10  18  31  43  60  90 133 179 205 225 262
#     4   8  16  32  55  76  96 118 150 199 253 309
#
# _framework density 17.676369000000001
#
# number of rings (size 3 to 8) (size 9 to 14) (size 15 to 20)
#    0.000    1.625    5.000    4.125    0.000    0.500 
#    2.250    0.000    0.000    0.375    0.000    7.000 
#    0.000    3.000    0.000    0.000    0.000    4.500 
#
# Total GULP energy -178288.097251 kJ/mol
# GULP energy per Si atom -5571.503039 kJ/mol
# Density = 1.763614 g / cm^3
# Si number density = 17.676369 Si / 1000 Ang^3
#
#
#
# Elastic Constant Matrix: (Units=GPa)
#
#
# Indices 1 2 3 4 5 6 
#
# 1 102.6484 30.6060 9.5656 0.0000 -27.3382 0.0000
# 2 30.6060 58.4007 8.0394 0.0000 -7.7467 0.0000
# 3 9.5656 8.0394 42.8851 -0.0001 -7.6190 0.0000
# 4 0.0000 0.0000 -0.0001 8.8413 0.0001 -2.3431
# 5 -27.3382 -7.7467 -7.6190 0.0001 34.9755 0.0000
# 6 0.0000 0.0000 0.0000 -2.3431 0.0000 15.8819
#
#
#
# Elastic Compliance Matrix: (Units=1/GPa)
#
#
# Indices 1 2 3 4 5 6 
#
# 1 0.014159 -0.006099 -0.000300 0.000000 0.009651 0.000000
# 2 -0.006099 0.020578 -0.002637 0.000000 -0.000783 0.000000
# 3 -0.000300 -0.002637 0.024689 0.000000 0.004560 0.000000
# 4 0.000000 0.000000 0.000000 0.117707 0.000000 0.017365
# 5 0.009651 -0.000783 0.004560 0.000000 0.036955 0.000000
# 6 0.000000 0.000000 0.000000 0.017365 0.000000 0.065527
#
#
# Mechanical properties :
#
#
# Convention : Reuss Voigt Hill
#
# Bulk Modulus (GPa) = 24.18063 33.37292 28.77677
# Shear Modulus (GPa) = 16.05285 22.32128 19.18707
#
# Velocity S-wave (km/s) = 3.01683 3.55741 3.29821
# Velocity P-wave (km/s) = 5.08373 5.98285 5.55152
#
# Compressibility (1/GPa) = 0.04135541
#
# Stress axis : x y z
#
# Youngs Moduli (GPa) = 70.62823 48.59512 40.50315
#
# Poissons Ratio (x) = 0.29636 0.01216
# Poissons Ratio (y) = 0.43074 0.10679
# Poissons Ratio (z) = 0.02121 0.12812
#
# Static dielectric constant tensor:
#      x y z
#    x 1.730170 0.000000 -0.011780 
#    y 0.000000 1.594860 0.000000 
#    z -0.011780 0.000000 1.633460 
# 
# From -- ./inp_files/185079.got.cif
#   From: 2010.05.17/outbox.cif.g08.bks.cpg/sg12_93_cif.got.tgz:185079.got - 2010.06.03 13:09:07.
