data_PCOD9173584
_publ_section_title
;
Structure prediction by ZEFSAII (Michael W. Deem and Ramdas Pophale) SiO2 
 PCOD9173584
Probable space group: C 2/M
;
_chemical_formula_sum "Si O2"
_cell_formula_units_Z 56
_cell_length_a 5.400653
_cell_length_b 34.806283
_cell_length_c 18.883559
_cell_angle_alpha 90.000000
_cell_angle_beta 64.596104
_cell_angle_gamma 90.000000
_cell_volume 3206.437102
_symmetry_space_group_name_H-M "C 2/M"
_symmetry_group_IT_number 12
_symmetry_cell_setting 'monoclinic'
loop_
_space_group_symop_operation_xyz
x,y,z
-x,y,-z
-x,-y,-z
x,-y,z
1/2+x,1/2+y,z
1/2-x,1/2+y,-z
1/2-x,1/2-y,-z
1/2+x,1/2-y,z
loop_
_atom_site_type_symbol
_atom_site_label
_atom_site_fract_x
_atom_site_fract_y
_atom_site_fract_z
Si Si1 0.362062 0.455972 0.925292
Si Si2 0.640390 0.773872 0.406407
Si Si3 0.403779 0.876759 0.230814
Si Si4 0.897569 0.425795 0.901620
Si Si5 0.266186 0.042703 0.322542
Si Si6 0.359632 0.933046 0.593579
Si Si7 0.280636 0.353251 0.312909
O O1 0.322686 0.500000 0.951543
O O2 0.679090 0.446882 0.878481
O O3 0.185466 0.446882 0.878481
O O4 0.244297 0.430021 0.003802
O O5 0.500000 0.781397 0.500000
O O6 0.417133 0.750000 0.388578
O O7 0.709920 0.813681 0.360053
O O8 0.543491 0.884271 0.137673
O O9 0.351363 0.920304 0.265758
O O10 0.607608 0.857179 0.261608
O O11 0.107567 0.857179 0.261608
O O12 0.439378 0.047416 0.373774
O O13 0.939299 0.047416 0.373773
O O14 0.320110 0.000000 0.286593
O O15 0.500000 0.933028 0.500000
O O16 0.308571 0.889510 0.627620
#
# Coordination Sequence:
#
# PCOD9173584 Si02
#       7
#     8   8   8   8   8   8   8
#     4  10  19  30  47  71  96 127 167 215 269 305
#     4  10  20  34  56  84 107 130 160 198 246 297
#     4  10  21  34  49  67  95 136 166 196 246 291
#     4  10  18  31  46  66  93 125 166 205 238 298
#     4  10  21  32  43  63  85 112 161 210 243 279
#     4  10  20  33  48  62  82 118 156 196 246 283
#     4  10  20  36  51  71 100 128 160 193 234 301
#
# _framework density 17.464869
#
# number of rings (size 3 to 8) (size 9 to 14) (size 15 to 20)
#    0.000    2.000    0.000    5.143    0.000    3.429 
#    0.000    4.286    0.000    0.000    0.000    0.000 
#    0.000    0.000    0.000  180.000    0.000    0.000 
#
# Total GULP energy -156133.513463 kJ/mol
# GULP energy per Si atom -5576.196909 kJ/mol
# Density = 1.742512 g / cm^3
# Si number density = 17.464869 Si / 1000 Ang^3
#
#
#
# Elastic Constant Matrix: (Units=GPa)
#
#
# Indices 1 2 3 4 5 6 
#
# 1 192.5331 52.8362 35.8294 0.0000 -5.4076 0.0000
# 2 52.8362 111.6168 33.4018 0.0000 -0.7863 0.0000
# 3 35.8294 33.4018 51.7183 0.0000 -0.2893 0.0000
# 4 0.0000 0.0000 0.0000 85.1996 0.0000 2.7055
# 5 -5.4076 -0.7863 -0.2893 0.0000 11.7267 0.0000
# 6 0.0000 0.0000 0.0000 2.7055 0.0000 18.3249
#
#
#
# Elastic Compliance Matrix: (Units=1/GPa)
#
#
# Indices 1 2 3 4 5 6 
#
# 1 0.006419 -0.002099 -0.003076 0.000000 0.002744 0.000000
# 2 -0.002099 0.011796 -0.006166 0.000000 -0.000329 0.000000
# 3 -0.003076 -0.006166 0.025442 0.000000 -0.001204 0.000000
# 4 0.000000 0.000000 0.000000 0.011792 0.000000 -0.001741
# 5 0.002744 -0.000329 -0.001204 0.000000 0.086489 0.000000
# 6 0.000000 0.000000 0.000000 -0.001741 0.000000 0.054828
#
#
# Mechanical properties :
#
#
# Convention : Reuss Voigt Hill
#
# Bulk Modulus (GPa) = 47.67573 66.66698 57.17135
# Shear Modulus (GPa) = 22.08085 38.63695 30.35890
#
# Velocity S-wave (km/s) = 3.55956 4.70858 4.17380
# Velocity P-wave (km/s) = 6.65216 8.23504 7.48556
#
# Compressibility (1/GPa) = 0.02097503
#
# Stress axis : x y z
#
# Youngs Moduli (GPa) = 155.77659 84.77737 39.30471
#
# Poissons Ratio (x) = 0.17793 0.12092
# Poissons Ratio (y) = 0.32695 0.24235
# Poissons Ratio (z) = 0.47923 0.52273
#
# Static dielectric constant tensor:
#      x y z
#    x 1.609000 0.000000 0.001050 
#    y 0.000000 1.556330 0.000000 
#    z 0.001050 0.000000 1.635070 
# 
# From -- ./inp_files/298265.got.cif
#   From: 2010.05.17/outbox.cif.g08.bks.cpg/sg12_150_cif.got.tgz:298265.got - 2010.06.03 13:09:07.
