data_PCOD9173839
_publ_section_title
;
Structure prediction by ZEFSAII (Michael W. Deem and Ramdas Pophale) SiO2 
 PCOD9173839
Probable space group: C 2/M
;
_chemical_formula_sum "Si O2"
_cell_formula_units_Z 56
_cell_length_a 21.670956
_cell_length_b 13.436563
_cell_length_c 21.237420
_cell_angle_alpha 90.000000
_cell_angle_beta 146.641943
_cell_angle_gamma 90.000000
_cell_volume 3400.381219
_symmetry_space_group_name_H-M "C 2/M"
_symmetry_group_IT_number 12
_symmetry_cell_setting 'monoclinic'
loop_
_space_group_symop_operation_xyz
x,y,z
-x,y,-z
-x,-y,-z
x,-y,z
1/2+x,1/2+y,z
1/2-x,1/2+y,-z
1/2-x,1/2-y,-z
1/2+x,1/2-y,z
loop_
_atom_site_type_symbol
_atom_site_label
_atom_site_fract_x
_atom_site_fract_y
_atom_site_fract_z
Si Si1 0.371700 0.390269 0.908459
Si Si2 0.834925 0.385517 0.355006
Si Si3 0.733566 0.272882 0.076343
Si Si4 0.872701 0.881869 0.609489
Si Si5 0.325625 0.210366 0.479471
Si Si6 0.632775 0.617348 0.870724
Si Si7 0.941571 0.382575 0.310883
O O1 0.349309 0.500000 0.920176
O O2 0.290775 0.387679 0.779603
O O3 0.339034 0.299470 0.924886
O O4 0.500000 0.387062 0.000000
O O5 0.863246 0.500000 0.399304
O O6 0.835857 0.310831 0.413998
O O7 0.910029 0.359245 0.357605
O O8 0.777039 0.161496 0.102044
O O9 0.849132 0.332903 0.187582
O O10 0.664464 0.318427 0.959279
O O11 0.788860 0.836357 0.590668
O O12 0.840958 0.821718 0.518940
O O13 0.003904 0.866468 0.739191
O O14 0.854535 0.000000 0.588768
O O15 0.434227 0.152809 0.599249
O O16 0.647090 0.500000 0.893969
O O17 0.932495 0.500000 0.297846
#
# Coordination Sequence:
#
# PCOD9173839 Si02
#       7
#     8   8   8   8   8   8   8
#     4   9  18  31  50  80 109 131 158 206 261 308
#     4   9  18  30  49  76 103 131 165 204 256 308
#     4  10  19  33  53  77 103 134 170 207 258 301
#     4  10  22  36  51  73 103 138 174 212 250 295
#     4  11  20  33  52  74 101 138 172 205 253 305
#     4  10  20  35  54  74 101 137 176 212 247 298
#     4  10  18  31  50  78 107 131 161 211 259 305
#
# _framework density 16.468741999999999
#
# number of rings (size 3 to 8) (size 9 to 14) (size 15 to 20)
#    0.000    2.143    1.429    3.857    2.000    1.143 
#    0.000    0.000    0.000    5.571    0.000    0.000 
#    0.000    0.000    0.000    0.000    0.000    0.000 
#
# Total GULP energy -155966.226648 kJ/mol
# GULP energy per Si atom -5570.222380 kJ/mol
# Density = 1.643126 g / cm^3
# Si number density = 16.468742 Si / 1000 Ang^3
#
#
#
# Elastic Constant Matrix: (Units=GPa)
#
#
# Indices 1 2 3 4 5 6 
#
# 1 19.6411 22.5181 33.3887 0.0000 5.1036 0.0000
# 2 22.5181 77.9547 36.9525 0.0000 1.9358 0.0000
# 3 33.3887 36.9525 69.1931 0.0000 12.7828 0.0000
# 4 0.0000 0.0000 0.0000 25.2153 0.0000 -0.2887
# 5 5.1036 1.9358 12.7828 0.0000 29.6723 0.0000
# 6 0.0000 0.0000 0.0000 -0.2887 0.0000 25.1861
#
#
#
# Elastic Compliance Matrix: (Units=1/GPa)
#
#
# Indices 1 2 3 4 5 6 
#
# 1 0.318918 -0.025006 -0.142007 0.000000 0.007954 0.000000
# 2 -0.025006 0.019399 0.001245 0.000000 0.002499 0.000000
# 3 -0.142007 0.001245 0.084544 0.000000 -0.012077 0.000000
# 4 0.000000 0.000000 0.000000 0.039664 0.000000 0.000455
# 5 0.007954 0.002499 -0.012077 0.000000 0.037373 0.000000
# 6 0.000000 0.000000 0.000000 0.000455 0.000000 0.039710
#
#
# Mechanical properties :
#
#
# Convention : Reuss Voigt Hill
#
# Bulk Modulus (GPa) = 10.95000 39.16749 25.05875
# Shear Modulus (GPa) = 5.54578 20.94337 13.24458
#
# Velocity S-wave (km/s) = 1.83706 3.56997 2.83896
# Velocity P-wave (km/s) = 3.34112 6.38963 5.09855
#
# Compressibility (1/GPa) = 0.09132419
#
# Stress axis : x y z
#
# Youngs Moduli (GPa) = 3.13560 51.54872 11.82823
#
# Poissons Ratio (x) = 1.28901 1.67969
# Poissons Ratio (y) = 0.07841 -0.01472
# Poissons Ratio (z) = 0.44528 -0.06416
#
# Static dielectric constant tensor:
#      x y z
#    x 1.577370 0.000000 -0.004130 
#    y 0.000000 1.549240 0.000000 
#    z -0.004130 0.000000 1.576210 
# 
# From -- ./inp_files/349193.got.cif
#   From: 2010.05.17/outbox.cif.g08.bks.cpg/sg12_175_cif.got.tgz:349193.got - 2010.06.03 13:09:07.
