data_PCOD9173289
_publ_section_title
;
Structure prediction by ZEFSAII (Michael W. Deem and Ramdas Pophale) SiO2 
 PCOD9173289
Probable space group: C 2/M
;
_chemical_formula_sum "Si O2"
_cell_formula_units_Z 56
_cell_length_a 11.734342
_cell_length_b 27.564358
_cell_length_c 12.323679
_cell_angle_alpha 90.000000
_cell_angle_beta 33.727078
_cell_angle_gamma 90.000000
_cell_volume 2213.226329
_symmetry_space_group_name_H-M "C 2/M"
_symmetry_group_IT_number 12
_symmetry_cell_setting 'monoclinic'
loop_
_space_group_symop_operation_xyz
x,y,z
-x,y,-z
-x,-y,-z
x,-y,z
1/2+x,1/2+y,z
1/2-x,1/2+y,-z
1/2-x,1/2-y,-z
1/2+x,1/2-y,z
loop_
_atom_site_type_symbol
_atom_site_label
_atom_site_fract_x
_atom_site_fract_y
_atom_site_fract_z
Si Si1 0.847104 0.740292 0.271200
Si Si2 0.661299 0.946155 0.225605
Si Si3 0.403723 0.447010 0.247546
Si Si4 0.429617 0.728026 0.706855
Si Si5 0.290827 0.946864 0.237298
Si Si6 0.078649 0.121206 0.255436
Si Si7 0.005739 0.632120 0.786685
O O1 0.628531 0.754545 0.499112
O O2 0.777035 0.742552 0.197755
O O3 0.027399 0.768851 0.195920
O O4 0.908218 0.685573 0.259273
O O5 0.729304 0.945809 0.295661
O O6 0.553066 0.896121 0.277168
O O7 0.566575 0.000000 0.276239
O O8 0.874723 0.946720 0.988243
O O9 0.393535 0.500000 0.310678
O O10 0.405925 0.397211 0.311294
O O11 0.459019 0.671398 0.656635
O O12 0.118063 0.925716 0.296961
O O13 0.336945 0.905603 0.286023
O O14 0.249877 0.000000 0.311877
O O15 0.500000 0.949579 0.000000
O O16 0.293752 0.130804 0.023177
#
# Coordination Sequence:
#
# PCOD9173289 Si02
#       7
#     8   8   8   8   8   8   8
#     4  10  22  40  58  74  98 135 176 218 268 324
#     4   8  14  25  43  71 107 141 170 203 247 302
#     4   8  14  25  43  71 107 141 170 203 247 302
#     4  10  22  40  58  74  98 135 176 218 268 324
#     4   9  16  26  45  75 107 135 163 197 244 303
#     4  10  18  30  51  78 104 131 168 213 258 302
#     4  10  18  30  51  78 104 131 168 213 258 302
#
# _framework density 25.302427999999999
#
# number of rings (size 3 to 8) (size 9 to 14) (size 15 to 20)
#    0.000    2.714    1.429    1.714    0.000    5.143 
#    0.000    0.000    0.000    4.286    0.000    2.000 
#    0.000    0.000    0.000    0.000    0.000    0.000 
#
# Total GULP energy -156139.613364 kJ/mol
# GULP energy per Si atom -5576.414763 kJ/mol
# Density = 2.524484 g / cm^3
# Si number density = 25.302428 Si / 1000 Ang^3
#
#
#
# Elastic Constant Matrix: (Units=GPa)
#
#
# Indices 1 2 3 4 5 6 
#
# 1 161.4406 51.0721 21.2049 0.0000 -14.7908 0.0000
# 2 51.0721 104.1171 -3.4941 0.0000 -4.8922 0.0000
# 3 21.2049 -3.4941 98.8494 0.0000 -24.8404 0.0000
# 4 0.0000 0.0000 0.0000 10.9169 0.0000 -60.7340
# 5 -14.7908 -4.8922 -24.8404 0.0000 31.1654 0.0000
# 6 0.0000 0.0000 0.0000 -60.7340 0.0000 11.1476
#
#
#
# Elastic Compliance Matrix: (Units=1/GPa)
#
#
# Indices 1 2 3 4 5 6 
#
# 1 0.007734 -0.003739 -0.001271 0.000000 0.002070 0.000000
# 2 -0.003739 0.011549 0.001525 0.000000 0.001254 0.000000
# 3 -0.001271 0.001525 0.012944 0.000000 0.009954 0.000000
# 4 0.000000 0.000000 0.000000 -0.003125 0.000000 -0.017027
# 5 0.002070 0.001254 0.009954 0.000000 0.041200 0.000000
# 6 0.000000 0.000000 0.000000 -0.017027 0.000000 -0.003061
#
#
# Mechanical properties :
#
#
# Convention : Reuss Voigt Hill
#
# Bulk Modulus (GPa) = 39.59138 55.77475 47.68307
# Shear Modulus (GPa) = 60.51173 30.35426 45.43299
#
# Velocity S-wave (km/s) = 4.89564 3.46737 4.24205
# Velocity P-wave (km/s) = 6.90200 6.17424 6.54824
#
# Compressibility (1/GPa) = 0.02525802
#
# Stress axis : x y z
#
# Youngs Moduli (GPa) = 129.30486 86.58954 77.25451
#
# Poissons Ratio (x) = 0.32375 0.09818
# Poissons Ratio (y) = 0.48346 -0.11785
# Poissons Ratio (z) = 0.16433 -0.13209
#
# Static dielectric constant tensor:
#      x y z
#    x 2.087060 0.000000 0.048550 
#    y 0.000000 1.930400 0.000000 
#    z 0.048550 0.000000 2.107610 
# 
# From -- ./inp_files/209119.got.cif
#   From: 2010.05.17/outbox.cif.g08.bks.cpg/sg12_105_cif.got.tgz:209119.got - 2010.06.03 13:09:07.
