data_PCOD9173143
_publ_section_title
;
Structure prediction by ZEFSAII (Michael W. Deem and Ramdas Pophale) SiO2 
 PCOD9173143
Probable space group: C 2/M
;
_chemical_formula_sum "Si O2"
_cell_formula_units_Z 64
_cell_length_a 20.488953
_cell_length_b 8.826254
_cell_length_c 22.090260
_cell_angle_alpha 90.000000
_cell_angle_beta 69.659664
_cell_angle_gamma 90.000000
_cell_volume 3745.719116
_symmetry_space_group_name_H-M "C 2/M"
_symmetry_group_IT_number 12
_symmetry_cell_setting 'monoclinic'
loop_
_space_group_symop_operation_xyz
x,y,z
-x,y,-z
-x,-y,-z
x,-y,z
1/2+x,1/2+y,z
1/2-x,1/2+y,-z
1/2-x,1/2-y,-z
1/2+x,1/2-y,z
loop_
_atom_site_type_symbol
_atom_site_label
_atom_site_fract_x
_atom_site_fract_y
_atom_site_fract_z
Si Si1 0.421507 0.817236 0.542164
Si Si2 0.720012 0.818432 0.947601
Si Si3 0.675146 0.182984 0.538385
Si Si4 0.925061 0.183892 0.052174
Si Si5 0.173123 0.181748 0.326069
Si Si6 0.674165 0.818733 0.673676
Si Si7 0.879884 0.827048 0.193935
Si Si8 0.722983 0.174587 0.190131
O O1 0.500000 0.775950 0.500000
O O2 0.375556 0.771436 0.499128
O O3 0.389068 0.743455 0.612523
O O4 0.417956 0.000000 0.550207
O O5 0.641761 0.756756 0.959234
O O6 0.767836 0.762784 0.875801
O O7 0.719106 0.000000 0.950243
O O8 0.750000 0.750000 0.000000
O O9 0.750000 0.250000 0.500000
O O10 0.654826 0.233010 0.612612
O O11 0.678644 0.000000 0.537603
O O12 0.797217 0.500000 0.813793
O O13 0.923729 0.232869 0.123138
O O14 0.000000 0.219241 0.000000
O O15 0.246315 0.228045 0.335317
O O16 0.176386 0.248971 0.257234
O O17 0.171567 0.000000 0.323702
O O18 0.623680 0.761243 0.742467
O O19 0.673799 0.000000 0.674797
O O20 0.800972 0.826034 0.193325
O O21 0.900179 0.000000 0.199402
O O22 0.915502 0.000000 0.054231
#
# Coordination Sequence:
#
# PCOD9173143 Si02
#       8
#     8   8   8   8   8   8   8   8
#     4  10  21  35  51  71  98 136 175 208 252 309
#     4  11  21  34  54  81 111 141 178 221 266 312
#     4  10  19  32  50  73  98 125 165 210 252 298
#     4   9  18  34  55  78 106 142 180 218 262 313
#     4  10  18  30  50  76 102 129 166 210 260 307
#     4   9  17  28  45  71  99 124 156 207 258 296
#     4   8  15  27  46  73 100 129 165 204 249 301
#     4   9  17  31  51  76 104 134 172 213 258 308
#
# _framework density 17.086171
#
# number of rings (size 3 to 8) (size 9 to 14) (size 15 to 20)
#    0.000    2.500    1.250    2.625    0.000    4.500 
#    0.000    0.000    2.750    0.000    0.000    0.000 
#    0.000    0.000    0.000    0.000    0.000    0.000 
#
# Total GULP energy -178325.112166 kJ/mol
# GULP energy per Si atom -5572.659755 kJ/mol
# Density = 1.704728 g / cm^3
# Si number density = 17.086171 Si / 1000 Ang^3
#
#
#
# Elastic Constant Matrix: (Units=GPa)
#
#
# Indices 1 2 3 4 5 6 
#
# 1 69.9065 31.2179 66.4617 0.0000 -2.0764 0.0001
# 2 31.2179 55.2086 57.0975 0.0001 1.5283 0.0003
# 3 66.4617 57.0975 198.0118 0.0000 -1.3185 0.0000
# 4 0.0000 0.0001 0.0000 33.3910 0.0000 0.8803
# 5 -2.0764 1.5283 -1.3185 0.0000 27.1894 0.0000
# 6 0.0001 0.0003 0.0000 0.8803 0.0000 14.8763
#
#
#
# Elastic Compliance Matrix: (Units=1/GPa)
#
#
# Indices 1 2 3 4 5 6 
#
# 1 0.022901 -0.007217 -0.005593 0.000000 0.001883 0.000000
# 2 -0.007217 0.028174 -0.005718 0.000000 -0.002412 -0.000001
# 3 -0.005593 -0.005718 0.008578 0.000000 0.000310 0.000000
# 4 0.000000 0.000000 0.000000 0.029995 0.000000 -0.001775
# 5 0.001883 -0.002412 0.000310 0.000000 0.037074 0.000000
# 6 0.000000 -0.000001 0.000000 -0.001775 0.000000 0.067326
#
#
# Mechanical properties :
#
#
# Convention : Reuss Voigt Hill
#
# Bulk Modulus (GPa) = 44.25250 70.29792 57.27521
# Shear Modulus (GPa) = 20.95233 26.31466 23.63349
#
# Velocity S-wave (km/s) = 3.50562 3.92869 3.72317
# Velocity P-wave (km/s) = 6.50705 7.86206 7.21642
#
# Compressibility (1/GPa) = 0.02259759
#
# Stress axis : x y z
#
# Youngs Moduli (GPa) = 43.66597 35.49323 116.57352
#
# Poissons Ratio (x) = 0.25617 0.65199
# Poissons Ratio (y) = 0.31515 0.66654
# Poissons Ratio (z) = 0.24422 0.20294
#
# Static dielectric constant tensor:
#      x y z
#    x 1.604770 0.000000 0.027270 
#    y 0.000000 1.582880 0.000000 
#    z 0.027270 0.000000 1.602740 
# 
# From -- ./inp_files/319941.got.cif
#   From: 2010.05.17/outbox.cif.g08.bks.cpg/sg12_160_cif.got.tgz:319941.got - 2010.06.03 13:09:07.
