data_PCOD9173318
_publ_section_title
;
Structure prediction by ZEFSAII (Michael W. Deem and Ramdas Pophale) SiO2 
 PCOD9173318
Probable space group: C 2/M
;
_chemical_formula_sum "Si O2"
_cell_formula_units_Z 64
_cell_length_a 9.166761
_cell_length_b 14.894881
_cell_length_c 20.721802
_cell_angle_alpha 90.000000
_cell_angle_beta 86.091857
_cell_angle_gamma 90.000000
_cell_volume 2822.730282
_symmetry_space_group_name_H-M "C 2/M"
_symmetry_group_IT_number 12
_symmetry_cell_setting 'monoclinic'
loop_
_space_group_symop_operation_xyz
x,y,z
-x,y,-z
-x,-y,-z
x,-y,z
1/2+x,1/2+y,z
1/2-x,1/2+y,-z
1/2-x,1/2-y,-z
1/2+x,1/2-y,z
loop_
_atom_site_type_symbol
_atom_site_label
_atom_site_fract_x
_atom_site_fract_y
_atom_site_fract_z
Si Si1 0.094944 0.900731 0.211755
Si Si2 0.278600 0.139156 0.328345
Si Si3 0.082051 0.403761 0.379053
Si Si4 0.141651 0.390366 0.146146
Si Si5 0.785756 0.165143 0.268248
Si Si6 0.627883 0.720061 0.453369
Si Si7 0.664216 0.609524 0.978751
Si Si8 0.825664 0.390051 0.101380
O O1 0.187888 0.906955 0.274637
O O2 0.200617 0.858767 0.154900
O O3 0.942416 0.857525 0.234394
O O4 0.057813 0.000000 0.187825
O O5 0.435065 0.098808 0.340598
O O6 0.299487 0.238141 0.299113
O O7 0.187568 0.153908 0.396755
O O8 0.087247 0.500000 0.413775
O O9 0.222362 0.395466 0.328027
O O10 0.075920 0.313192 0.421363
O O11 0.142789 0.500000 0.154182
O O12 0.170802 0.345129 0.213743
O O13 0.270393 0.365343 0.092356
O O14 0.986036 0.363600 0.120341
O O15 0.500000 0.678819 0.500000
O O16 0.750000 0.750000 0.500000
O O17 0.661359 0.500000 0.979706
O O18 0.500000 0.640100 0.000000
O O19 0.776868 0.637577 0.031526
O O20 0.827119 0.500000 0.102627
#
# Coordination Sequence:
#
# PCOD9173318 Si02
#       8
#     8   8   8   8   8   8   8   8
#     4  11  22  37  59  88 120 153 200 258 302 348
#     4  11  24  42  65  88 122 163 201 241 300 367
#     4  11  23  41  66  94 123 160 208 253 295 352
#     4  10  18  30  51  79 115 157 205 255 302 364
#     4  11  22  37  58  88 123 159 198 249 310 362
#     4  11  23  44  67  93 126 166 200 242 297 365
#     4   9  16  27  46  75 112 155 202 254 311 363
#     4   9  18  31  49  77 115 156 200 253 310 362
#
# _framework density 22.673085
#
# number of rings (size 3 to 8) (size 9 to 14) (size 15 to 20)
#    0.000    1.625    1.250    4.875    1.750    4.750 
#    0.000    0.000    0.000    2.625    0.000    1.750 
#    0.000    0.000    0.000    0.000    0.000    0.500 
#
# Total GULP energy -178982.974428 kJ/mol
# GULP energy per Si atom -5593.217951 kJ/mol
# Density = 2.262148 g / cm^3
# Si number density = 22.673085 Si / 1000 Ang^3
#
#
#
# Elastic Constant Matrix: (Units=GPa)
#
#
# Indices 1 2 3 4 5 6 
#
# 1 92.1261 2.3534 6.7785 0.0000 -12.3426 0.0000
# 2 2.3534 55.2508 -4.8033 0.0000 -9.0178 0.0000
# 3 6.7785 -4.8033 84.7173 0.0000 -12.7328 0.0000
# 4 0.0000 0.0000 0.0000 14.1915 0.0000 11.2911
# 5 -12.3426 -9.0178 -12.7328 0.0000 51.9803 0.0000
# 6 0.0000 0.0000 0.0000 11.2911 0.0000 32.0342
#
#
#
# Elastic Compliance Matrix: (Units=1/GPa)
#
#
# Indices 1 2 3 4 5 6 
#
# 1 0.011234 -0.000113 -0.000527 0.000000 0.002519 0.000000
# 2 -0.000113 0.018839 0.001624 0.000000 0.003639 0.000000
# 3 -0.000527 0.001624 0.012419 0.000000 0.003199 0.000000
# 4 0.000000 0.000000 0.000000 0.097927 0.000000 -0.034516
# 5 0.002519 0.003639 0.003199 0.000000 0.021251 0.000000
# 6 0.000000 0.000000 0.000000 -0.034516 0.000000 0.043382
#
#
# Mechanical properties :
#
#
# Convention : Reuss Voigt Hill
#
# Bulk Modulus (GPa) = 22.49181 26.75017 24.62099
# Shear Modulus (GPa) = 22.94590 34.82558 28.88574
#
# Velocity S-wave (km/s) = 3.18470 3.92342 3.57320
# Velocity P-wave (km/s) = 4.84403 5.68754 5.28265
#
# Compressibility (1/GPa) = 0.04446063
#
# Stress axis : x y z
#
# Youngs Moduli (GPa) = 89.01719 53.08054 80.52202
#
# Poissons Ratio (x) = 0.00601 0.04241
# Poissons Ratio (y) = 0.01008 -0.13078
# Poissons Ratio (z) = 0.04689 -0.08621
#
# Static dielectric constant tensor:
#      x y z
#    x 1.802880 0.000000 0.000170 
#    y 0.000000 2.304250 0.000000 
#    z 0.000170 0.000000 1.801280 
# 
# From -- ./inp_files/300822.got.cif
#   From: 2010.05.17/outbox.cif.g08.bks.cpg/sg12_151_cif.got.tgz:300822.got - 2010.06.03 13:09:07.
