data_PCOD9173700
_publ_section_title
;
Structure prediction by ZEFSAII (Michael W. Deem and Ramdas Pophale) SiO2 
 PCOD9173700
Probable space group: C 2/M
;
_chemical_formula_sum "Si O2"
_cell_formula_units_Z 64
_cell_length_a 35.891948
_cell_length_b 8.862439
_cell_length_c 12.706208
_cell_angle_alpha 90.000000
_cell_angle_beta 77.213040
_cell_angle_gamma 90.000000
_cell_volume 3941.484574
_symmetry_space_group_name_H-M "C 2/M"
_symmetry_group_IT_number 12
_symmetry_cell_setting 'monoclinic'
loop_
_space_group_symop_operation_xyz
x,y,z
-x,y,-z
-x,-y,-z
x,-y,z
1/2+x,1/2+y,z
1/2-x,1/2+y,-z
1/2-x,1/2-y,-z
1/2+x,1/2-y,z
loop_
_atom_site_type_symbol
_atom_site_label
_atom_site_fract_x
_atom_site_fract_y
_atom_site_fract_z
Si Si1 0.290289 0.319926 0.752957
Si Si2 0.297730 0.819966 0.147020
Si Si3 0.076688 0.180695 0.822188
Si Si4 0.341652 0.680506 0.316660
Si Si5 0.288921 0.819709 0.523156
Si Si6 0.340804 0.819560 0.903135
Si Si7 0.502596 0.173974 0.125979
Si Si8 0.917958 0.820027 0.933698
O O1 0.294195 0.500000 0.738484
O O2 0.247413 0.289011 0.822212
O O3 0.293942 0.241092 0.637795
O O4 0.320657 0.257133 0.816677
O O5 0.318146 0.730872 0.228091
O O6 0.303029 0.000000 0.161734
O O7 0.316707 0.781350 0.023693
O O8 0.114148 0.220095 0.732322
O O9 0.037531 0.258305 0.811076
O O10 0.071476 0.000000 0.822666
O O11 0.084477 0.220766 0.940086
O O12 0.338619 0.500000 0.331095
O O13 0.323029 0.763285 0.427183
O O14 0.250000 0.750000 0.500000
O O15 0.286188 0.000000 0.523411
O O16 0.383511 0.760430 0.895594
O O17 0.340559 0.000000 0.891431
O O18 0.540423 0.266696 0.130877
O O19 0.506785 0.000000 0.154099
O O20 0.500000 0.180649 0.000000
O O21 0.914353 0.000000 0.927605
#
# Coordination Sequence:
#
# PCOD9173700 Si02
#       8
#     8   8   8   8   8   8   8   8
#     4  11  23  39  56  76 102 140 183 223 267 315
#     4  10  21  35  53  76 106 141 177 218 264 316
#     4   9  18  31  48  74 105 138 174 213 259 313
#     4  11  21  34  55  80 106 140 179 219 265 314
#     4  12  24  39  57  78 103 136 178 224 272 315
#     4  11  22  35  52  78 109 142 179 220 264 315
#     4   9  17  28  45  71 102 138 173 211 257 311
#     4  10  18  31  49  72 104 142 176 213 259 313
#
# _framework density 16.237535999999999
#
# number of rings (size 3 to 8) (size 9 to 14) (size 15 to 20)
#    0.000    1.625    2.500    3.375    0.000    4.000 
#    0.000    0.000    0.000    0.000    0.000    0.875 
#    0.000    7.000    0.000    0.000    0.000    0.000 
#
# Total GULP energy -178702.582886 kJ/mol
# GULP energy per Si atom -5584.455715 kJ/mol
# Density = 1.620058 g / cm^3
# Si number density = 16.237536 Si / 1000 Ang^3
#
#
#
# Elastic Constant Matrix: (Units=GPa)
#
#
# Indices 1 2 3 4 5 6 
#
# 1 135.1144 63.1301 62.8444 0.0000 -8.9742 0.0000
# 2 63.1301 76.5983 46.1337 0.0000 0.3209 0.0000
# 3 62.8444 46.1337 77.4670 0.0000 7.2148 0.0000
# 4 0.0000 0.0000 0.0000 25.0126 0.0000 1.7432
# 5 -8.9742 0.3209 7.2148 0.0000 16.2106 0.0000
# 6 0.0000 0.0000 0.0000 1.7432 0.0000 30.4877
#
#
#
# Elastic Compliance Matrix: (Units=1/GPa)
#
#
# Indices 1 2 3 4 5 6 
#
# 1 0.016665 -0.007590 -0.010300 0.000000 0.013960 0.000000
# 2 -0.007590 0.024244 -0.008183 0.000000 -0.001040 0.000000
# 3 -0.010300 -0.008183 0.027806 0.000000 -0.017915 0.000000
# 4 0.000000 0.000000 0.000000 0.040140 0.000000 -0.002295
# 5 0.013960 -0.001040 -0.017915 0.000000 0.077411 0.000000
# 6 0.000000 0.000000 0.000000 -0.002295 0.000000 0.032931
#
#
# Mechanical properties :
#
#
# Convention : Reuss Voigt Hill
#
# Bulk Modulus (GPa) = 60.35468 70.37735 65.36601
# Shear Modulus (GPa) = 18.05921 22.14696 20.10308
#
# Velocity S-wave (km/s) = 3.33857 3.69716 3.52243
# Velocity P-wave (km/s) = 7.21886 7.85250 7.54234
#
# Compressibility (1/GPa) = 0.01656872
#
# Stress axis : x y z
#
# Youngs Moduli (GPa) = 60.00462 41.24731 35.96333
#
# Poissons Ratio (x) = 0.31308 0.37040
# Poissons Ratio (y) = 0.45546 0.29430
# Poissons Ratio (z) = 0.61802 0.33755
#
# Static dielectric constant tensor:
#      x y z
#    x 1.534370 0.000000 -0.015590 
#    y 0.000000 1.540860 0.000000 
#    z -0.015590 0.000000 1.517140 
# 
# From -- ./inp_files/187621.got.cif
#   From: 2010.05.17/outbox.cif.g08.bks.cpg/sg12_94_cif.got.tgz:187621.got - 2010.06.03 13:09:07.
