data_PCOD9173053
_publ_section_title
;
Structure prediction by ZEFSAII (Michael W. Deem and Ramdas Pophale) SiO2 
 PCOD9173053
Probable space group: C 2/M
;
_chemical_formula_sum "Si O2"
_cell_formula_units_Z 60
_cell_length_a 25.806145
_cell_length_b 9.876045
_cell_length_c 16.936863
_cell_angle_alpha 90.000000
_cell_angle_beta 121.122285
_cell_angle_gamma 90.000000
_cell_volume 3695.272546
_symmetry_space_group_name_H-M "C 2/M"
_symmetry_group_IT_number 12
_symmetry_cell_setting 'monoclinic'
loop_
_space_group_symop_operation_xyz
x,y,z
-x,y,-z
-x,-y,-z
x,-y,z
1/2+x,1/2+y,z
1/2-x,1/2+y,-z
1/2-x,1/2-y,-z
1/2+x,1/2-y,z
loop_
_atom_site_type_symbol
_atom_site_label
_atom_site_fract_x
_atom_site_fract_y
_atom_site_fract_z
Si Si1 0.065281 0.334829 0.515921
Si Si2 0.392002 0.652146 0.022024
Si Si3 0.098970 0.662867 0.819805
Si Si4 0.460004 0.163776 0.677534
Si Si5 0.668507 0.835385 0.718512
Si Si6 0.000000 0.748997 0.000000
Si Si7 0.596608 0.842603 0.201675
Si Si8 0.306677 0.340344 0.807722
O O1 0.066315 0.500000 0.516977
O O2 0.068291 0.289324 0.427335
O O3 0.120027 0.289415 0.614869
O O4 0.000000 0.295947 0.500000
O O5 0.390450 0.500000 0.053359
O O6 0.390746 0.761081 0.090241
O O7 0.452484 0.668890 0.016371
O O8 0.336287 0.670423 0.918002
O O9 0.101951 0.500000 0.833040
O O10 0.145229 0.703496 0.787140
O O11 0.031096 0.696776 0.737191
O O12 0.427970 0.207201 0.733031
O O13 0.456980 0.000000 0.675132
O O14 0.737110 0.795117 0.754683
O O15 0.667636 0.000000 0.717145
O O16 0.957803 0.668056 0.905265
O O17 0.651273 0.750023 0.214898
O O18 0.614346 0.000000 0.221635
O O19 0.309767 0.500000 0.788321
#
# Coordination Sequence:
#
# PCOD9173053 Si02
#       8
#     8   8   8   8   8   4   8   8
#     4   9  14  24  47  76 100 121 154 202 252 291
#     4  10  20  32  46  68 100 136 168 196 236 289
#     4  10  18  30  50  76 102 125 157 205 250 287
#     4   9  16  27  44  75 106 120 147 204 257 288
#     4   9  17  31  51  72  98 131 164 201 244 289
#     4  10  18  30  50  70  96 128 170 206 240 278
#     4  10  19  31  49  73 100 129 162 203 248 288
#     4   9  20  36  49  67  99 137 171 198 231 288
#
# _framework density 16.236961000000001
#
# number of rings (size 3 to 8) (size 9 to 14) (size 15 to 20)
#    0.000    2.533    2.667    0.400    0.000    3.200 
#    0.000    1.333    0.000    0.000    0.000    3.733 
#    0.000    0.000    0.000    0.000    0.000    0.000 
#
# Total GULP energy -167108.178725 kJ/mol
# GULP energy per Si atom -5570.272624 kJ/mol
# Density = 1.620000 g / cm^3
# Si number density = 16.236961 Si / 1000 Ang^3
#
#
#
# Elastic Constant Matrix: (Units=GPa)
#
#
# Indices 1 2 3 4 5 6 
#
# 1 133.1019 32.8572 76.0584 0.0000 3.3635 0.0000
# 2 32.8572 33.2464 27.4571 0.0000 -0.8406 0.0000
# 3 76.0584 27.4571 93.8062 0.0000 -2.6605 0.0000
# 4 0.0000 0.0000 0.0000 7.5211 0.0000 4.2632
# 5 3.3635 -0.8406 -2.6605 0.0000 31.4418 0.0000
# 6 0.0000 0.0000 0.0000 4.2632 0.0000 9.8477
#
#
#
# Elastic Compliance Matrix: (Units=1/GPa)
#
#
# Indices 1 2 3 4 5 6 
#
# 1 0.015152 -0.006374 -0.010495 0.000000 -0.002679 0.000000
# 2 -0.006374 0.042349 -0.007193 0.000000 0.001205 0.000000
# 3 -0.010495 -0.007193 0.021353 0.000000 0.002737 0.000000
# 4 0.000000 0.000000 0.000000 0.176196 0.000000 -0.076279
# 5 -0.002679 0.001205 0.002737 0.000000 0.032355 0.000000
# 6 0.000000 0.000000 0.000000 -0.076279 0.000000 0.134570
#
#
# Mechanical properties :
#
#
# Convention : Reuss Voigt Hill
#
# Bulk Modulus (GPa) = 32.54317 59.21108 45.87713
# Shear Modulus (GPa) = 10.40924 18.01424 14.21174
#
# Velocity S-wave (km/s) = 2.53471 3.33447 2.96171
# Velocity P-wave (km/s) = 5.35280 7.16735 6.32548
#
# Compressibility (1/GPa) = 0.03072841
#
# Stress axis : x y z
#
# Youngs Moduli (GPa) = 65.99985 23.61324 46.83212
#
# Poissons Ratio (x) = 0.15052 0.49151
# Poissons Ratio (y) = 0.42070 0.33687
# Poissons Ratio (z) = 0.69268 0.16985
#
# Static dielectric constant tensor:
#      x y z
#    x 1.537070 0.000000 -0.003150 
#    y 0.000000 1.532280 0.000000 
#    z -0.003150 0.000000 1.547180 
# 
# From -- ./inp_files/288334.got.cif
#   From: 2010.05.17/outbox.cif.g08.bks.cpg/sg12_145_cif.got.tgz:288334.got - 2010.06.03 13:09:07.
