data_PCOD9173855
_publ_section_title
;
Structure prediction by ZEFSAII (Michael W. Deem and Ramdas Pophale) SiO2 
 PCOD9173855
Probable space group: C 2/M
;
_chemical_formula_sum "Si O2"
_cell_formula_units_Z 64
_cell_length_a 17.107277
_cell_length_b 22.860366
_cell_length_c 11.742528
_cell_angle_alpha 90.000000
_cell_angle_beta 120.616998
_cell_angle_gamma 90.000000
_cell_volume 3952.050238
_symmetry_space_group_name_H-M "C 2/M"
_symmetry_group_IT_number 12
_symmetry_cell_setting 'monoclinic'
loop_
_space_group_symop_operation_xyz
x,y,z
-x,y,-z
-x,-y,-z
x,-y,z
1/2+x,1/2+y,z
1/2-x,1/2+y,-z
1/2-x,1/2-y,-z
1/2+x,1/2-y,z
loop_
_atom_site_type_symbol
_atom_site_label
_atom_site_fract_x
_atom_site_fract_y
_atom_site_fract_z
Si Si1 0.640535 0.286553 0.659592
Si Si2 0.462336 0.720160 0.647286
Si Si3 0.339654 0.831715 0.815824
Si Si4 0.709259 0.845368 0.695068
Si Si5 0.899718 0.646818 0.604952
Si Si6 0.407410 0.063089 0.004069
Si Si7 0.068390 0.567339 0.706567
Si Si8 0.091427 0.199503 0.137082
O O1 0.597536 0.299319 0.504369
O O2 0.564913 0.298233 0.697849
O O3 0.733184 0.320603 0.736223
O O4 0.664847 0.217921 0.686674
O O5 0.450780 0.790610 0.634750
O O6 0.429267 0.698317 0.743788
O O7 0.371852 0.856475 0.716751
O O8 0.359524 0.878862 0.926270
O O9 0.385855 0.768234 0.871545
O O10 0.687208 0.853342 0.543608
O O11 0.650983 0.894760 0.716228
O O12 0.815336 0.837956 0.807673
O O13 0.971381 0.598721 0.614855
O O14 0.361323 0.000000 0.946995
O O15 0.500000 0.062389 0.000000
O O16 0.423767 0.066997 0.150372
O O17 0.070190 0.500000 0.668670
O O18 0.000000 0.183028 0.000000
#
# Coordination Sequence:
#
# PCOD9173855 Si02
#       8
#     8   8   8   8   8   8   8   8
#     4   9  17  30  50  75 100 133 166 211 252 299
#     4   9  17  31  48  71 104 133 166 202 258 300
#     4  10  19  30  51  76 100 132 175 204 248 304
#     4  10  20  34  48  73 104 134 169 211 253 295
#     4  10  18  31  51  70 104 136 163 207 253 301
#     4  10  20  34  48  67 101 136 163 198 245 298
#     4  11  22  34  52  76 103 137 171 206 251 302
#     4  10  21  32  49  73 103 137 170 207 251 301
#
# _framework density 16.194126000000001
#
# number of rings (size 3 to 8) (size 9 to 14) (size 15 to 20)
#    0.000    2.125    2.500    1.500    1.750    5.000 
#    0.000    2.500    0.000    0.375    0.000    2.625 
#    0.000    0.000    0.000    0.000    0.000    0.000 
#
# Total GULP energy -178281.649334 kJ/mol
# GULP energy per Si atom -5571.301542 kJ/mol
# Density = 1.615727 g / cm^3
# Si number density = 16.194126 Si / 1000 Ang^3
#
#
#
# Elastic Constant Matrix: (Units=GPa)
#
#
# Indices 1 2 3 4 5 6 
#
# 1 78.5543 28.1031 34.5692 0.0000 18.2471 0.0000
# 2 28.1031 59.2599 24.7963 0.0000 8.7184 0.0000
# 3 34.5692 24.7963 56.7889 0.0000 14.4458 0.0000
# 4 0.0000 0.0000 0.0000 12.6112 0.0000 0.9322
# 5 18.2471 8.7184 14.4458 0.0000 28.9216 0.0000
# 6 0.0000 0.0000 0.0000 0.9322 0.0000 12.5649
#
#
#
# Elastic Compliance Matrix: (Units=1/GPa)
#
#
# Indices 1 2 3 4 5 6 
#
# 1 0.019635 -0.004931 -0.008049 0.000000 -0.006881 0.000000
# 2 -0.004931 0.021984 -0.006533 0.000000 -0.000253 0.000000
# 3 -0.008049 -0.006533 0.026999 0.000000 -0.006438 0.000000
# 4 0.000000 0.000000 0.000000 0.079732 0.000000 -0.005915
# 5 -0.006881 -0.000253 -0.006438 0.000000 0.042209 0.000000
# 6 0.000000 0.000000 0.000000 -0.005915 0.000000 0.080025
#
#
# Mechanical properties :
#
#
# Convention : Reuss Voigt Hill
#
# Bulk Modulus (GPa) = 33.79321 41.06001 37.42661
# Shear Modulus (GPa) = 15.65073 17.96186 16.80630
#
# Velocity S-wave (km/s) = 3.11214 3.33402 3.22499
# Velocity P-wave (km/s) = 5.81608 6.34278 6.08513
#
# Compressibility (1/GPa) = 0.02959174
#
# Stress axis : x y z
#
# Youngs Moduli (GPa) = 50.93069 45.48714 37.03867
#
# Poissons Ratio (x) = 0.22431 0.29811
# Poissons Ratio (y) = 0.25115 0.24198
# Poissons Ratio (z) = 0.40992 0.29717
#
# Static dielectric constant tensor:
#      x y z
#    x 1.544130 0.000000 0.000970 
#    y 0.000000 1.543100 0.000000 
#    z 0.000970 0.000000 1.565830 
# 
# From -- ./inp_files/160300.got.cif
#   From: 2010.05.17/outbox.cif.g08.bks.cpg/sg12_81_cif.got.tgz:160300.got - 2010.06.03 13:09:07.
