data_PCOD9173062
_publ_section_title
;
Structure prediction by ZEFSAII (Michael W. Deem and Ramdas Pophale) SiO2 
 PCOD9173062
Probable space group: C 2/M
;
_chemical_formula_sum "Si O2"
_cell_formula_units_Z 48
_cell_length_a 20.882064
_cell_length_b 8.752797
_cell_length_c 17.295498
_cell_angle_alpha 90.000000
_cell_angle_beta 115.385494
_cell_angle_gamma 90.000000
_cell_volume 2855.975786
_symmetry_space_group_name_H-M "C 2/M"
_symmetry_group_IT_number 12
_symmetry_cell_setting 'monoclinic'
loop_
_space_group_symop_operation_xyz
x,y,z
-x,y,-z
-x,-y,-z
x,-y,z
1/2+x,1/2+y,z
1/2-x,1/2+y,-z
1/2-x,1/2-y,-z
1/2+x,1/2-y,z
loop_
_atom_site_type_symbol
_atom_site_label
_atom_site_fract_x
_atom_site_fract_y
_atom_site_fract_z
Si Si1 0.612240 0.818689 0.591358
Si Si2 0.207648 0.682852 0.051042
Si Si3 0.041821 0.681533 0.406348
Si Si4 0.948453 0.817137 0.043833
Si Si5 0.467241 0.184157 0.220073
Si Si6 0.671564 0.681710 0.768778
O O1 0.535061 0.802623 0.592384
O O2 0.599626 0.758338 0.497527
O O3 0.665361 0.736244 0.677078
O O4 0.627794 0.000000 0.597321
O O5 0.202738 0.500000 0.040325
O O6 0.254569 0.717632 0.151118
O O7 0.250000 0.750000 0.000000
O O8 0.129918 0.753481 0.012356
O O9 0.055480 0.500000 0.408143
O O10 0.027548 0.738692 0.312347
O O11 0.975000 0.748634 0.138621
O O12 0.945198 0.000000 0.048998
O O13 0.000000 0.776468 0.000000
O O14 0.391623 0.238784 0.215362
O O15 0.467324 0.000000 0.219118
O O16 0.660289 0.500000 0.766914
#
# Coordination Sequence:
#
# PCOD9173062 Si02
#       6
#     8   8   8   8   8   8
#     4   8  13  24  41  62  93 129 162 196 239 295
#     4  11  22  35  54  76 102 135 172 211 252 303
#     4   7  12  23  40  64  92 124 162 200 239 291
#     4  11  24  39  53  73 103 134 169 215 260 304
#     4  10  18  30  50  71  95 131 170 206 248 300
#     4  10  19  29  44  71 103 129 161 206 251 294
#
# _framework density 16.806865999999999
#
# number of rings (size 3 to 8) (size 9 to 14) (size 15 to 20)
#    0.000    2.500    1.667    4.000    0.000    3.333 
#    0.000    7.500    0.000    0.000    0.000    1.167 
#    0.000    0.000    0.000    0.000    0.000    0.000 
#
# Total GULP energy -133673.304536 kJ/mol
# GULP energy per Si atom -5569.721022 kJ/mol
# Density = 1.676861 g / cm^3
# Si number density = 16.806866 Si / 1000 Ang^3
#
#
#
# Elastic Constant Matrix: (Units=GPa)
#
#
# Indices 1 2 3 4 5 6 
#
# 1 64.5125 28.2538 58.8123 0.0000 -4.3053 0.0000
# 2 28.2538 42.7498 55.7682 0.0000 -2.3266 0.0000
# 3 58.8123 55.7682 209.5205 0.0000 -8.7189 0.0000
# 4 0.0000 0.0000 0.0000 28.6111 0.0000 -1.1734
# 5 -4.3053 -2.3266 -8.7189 0.0000 12.6492 0.0000
# 6 0.0000 0.0000 0.0000 -1.1734 0.0000 16.4983
#
#
#
# Elastic Compliance Matrix: (Units=1/GPa)
#
#
# Indices 1 2 3 4 5 6 
#
# 1 0.023790 -0.010740 -0.003669 0.000000 0.003592 0.000000
# 2 -0.010740 0.040684 -0.007881 0.000000 -0.001605 0.000000
# 3 -0.003669 -0.007881 0.008018 0.000000 0.002828 0.000000
# 4 0.000000 0.000000 0.000000 0.035054 0.000000 0.002493
# 5 0.003592 -0.001605 0.002828 0.000000 0.081934 0.000000
# 6 0.000000 0.000000 0.000000 0.002493 0.000000 0.060790
#
#
# Mechanical properties :
#
#
# Convention : Reuss Voigt Hill
#
# Bulk Modulus (GPa) = 35.82916 66.93906 51.38411
# Shear Modulus (GPa) = 16.43908 23.14828 19.79368
#
# Velocity S-wave (km/s) = 3.13088 3.71524 3.43551
# Velocity P-wave (km/s) = 5.86808 7.63668 6.81004
#
# Compressibility (1/GPa) = 0.02791023
#
# Stress axis : x y z
#
# Youngs Moduli (GPa) = 42.03496 24.57989 124.71703
#
# Poissons Ratio (x) = 0.26400 0.45765
# Poissons Ratio (y) = 0.45147 0.98286
# Poissons Ratio (z) = 0.15425 0.19371
#
# Static dielectric constant tensor:
#      x y z
#    x 1.521400 0.000000 -0.004510 
#    y 0.000000 1.566590 0.000000 
#    z -0.004510 0.000000 1.636530 
# 
# From -- ./inp_files/280530.got.cif
#   From: 2010.05.17/outbox.cif.g08.bks.cpg/sg12_141_cif.got.tgz:280530.got - 2010.06.03 13:09:07.
