data_PCOD9173715
_publ_section_title
;
Structure prediction by ZEFSAII (Michael W. Deem and Ramdas Pophale) SiO2 
 PCOD9173715
Probable space group: C 2/M
;
_chemical_formula_sum "Si O2"
_cell_formula_units_Z 56
_cell_length_a 14.959255
_cell_length_b 24.754146
_cell_length_c 9.543630
_cell_angle_alpha 90.000000
_cell_angle_beta 58.933761
_cell_angle_gamma 90.000000
_cell_volume 3027.157554
_symmetry_space_group_name_H-M "C 2/M"
_symmetry_group_IT_number 12
_symmetry_cell_setting 'monoclinic'
loop_
_space_group_symop_operation_xyz
x,y,z
-x,y,-z
-x,-y,-z
x,-y,z
1/2+x,1/2+y,z
1/2-x,1/2+y,-z
1/2-x,1/2-y,-z
1/2+x,1/2-y,z
loop_
_atom_site_type_symbol
_atom_site_label
_atom_site_fract_x
_atom_site_fract_y
_atom_site_fract_z
Si Si1 0.929307 0.835713 0.442077
Si Si2 0.716865 0.140411 0.156050
Si Si3 0.423283 0.697413 0.931854
Si Si4 0.701480 0.855171 0.608769
Si Si5 0.615118 0.178393 0.970009
Si Si6 0.880732 0.563319 0.544217
Si Si7 0.616773 0.781475 0.446902
O O1 0.824046 0.863778 0.475691
O O2 0.884286 0.782335 0.554686
O O3 0.000000 0.865742 0.500000
O O4 0.003975 0.812120 0.261545
O O5 0.692520 0.090225 0.276723
O O6 0.692396 0.191634 0.274953
O O7 0.832310 0.152859 0.007728
O O8 0.639391 0.143272 0.087186
O O9 0.500000 0.689786 0.000000
O O10 0.377922 0.758610 0.985386
O O11 0.686242 0.843103 0.784849
O O12 0.640093 0.904032 0.582936
O O13 0.654059 0.802943 0.566862
O O14 0.500000 0.172603 0.000000
O O15 0.860872 0.500000 0.543758
O O16 0.000000 0.570609 0.500000
O O17 0.500000 0.799803 0.500000
#
# Coordination Sequence:
#
# PCOD9173715 Si02
#       7
#     8   8   8   8   8   8   8
#     4  11  21  33  49  76 114 152 183 209 247 311
#     4  11  20  34  54  76 108 144 177 216 262 307
#     4  11  21  32  48  77 114 147 179 212 247 301
#     4  11  20  34  55  76 106 144 181 218 265 313
#     4  11  20  31  49  82 115 140 172 212 262 315
#     4  10  22  41  62  81  99 128 175 226 274 324
#     4  10  18  31  49  74 106 147 184 210 248 307
#
# _framework density 18.499202
#
# number of rings (size 3 to 8) (size 9 to 14) (size 15 to 20)
#    0.000    1.286    0.000   11.143    0.000    0.000 
#    0.000    0.714    0.000    6.857    0.000    0.000 
#    0.000    0.000    0.000    0.000    0.000    0.000 
#
# Total GULP energy -156236.840404 kJ/mol
# GULP energy per Si atom -5579.887157 kJ/mol
# Density = 1.845710 g / cm^3
# Si number density = 18.499202 Si / 1000 Ang^3
#
#
#
# Elastic Constant Matrix: (Units=GPa)
#
#
# Indices 1 2 3 4 5 6 
#
# 1 51.5339 23.5159 4.0715 0.0000 -3.4802 0.0000
# 2 23.5159 58.2100 26.6809 0.0000 -11.3968 0.0000
# 3 4.0715 26.6809 91.3932 0.0000 4.2972 0.0000
# 4 0.0000 0.0000 0.0000 7.9318 0.0000 -1.1813
# 5 -3.4802 -11.3968 4.2972 0.0000 37.0606 0.0000
# 6 0.0000 0.0000 0.0000 -1.1813 0.0000 15.8497
#
#
#
# Elastic Compliance Matrix: (Units=1/GPa)
#
#
# Indices 1 2 3 4 5 6 
#
# 1 0.024181 -0.011055 0.002215 0.000000 -0.001386 0.000000
# 2 -0.011055 0.026757 -0.007699 0.000000 0.008083 0.000000
# 3 0.002215 -0.007699 0.013264 0.000000 -0.003697 0.000000
# 4 0.000000 0.000000 0.000000 0.127490 0.000000 0.009502
# 5 -0.001386 0.008083 -0.003697 0.000000 0.029767 0.000000
# 6 0.000000 0.000000 0.000000 0.009502 0.000000 0.063801
#
#
# Mechanical properties :
#
#
# Convention : Reuss Voigt Hill
#
# Bulk Modulus (GPa) = 32.12916 34.40818 33.26867
# Shear Modulus (GPa) = 15.21088 21.95967 18.58527
#
# Velocity S-wave (km/s) = 2.87059 3.44911 3.17306
# Velocity P-wave (km/s) = 5.32847 5.87384 5.60779
#
# Compressibility (1/GPa) = 0.03112437
#
# Stress axis : x y z
#
# Youngs Moduli (GPa) = 41.35496 37.37387 75.38958
#
# Poissons Ratio (x) = 0.41319 -0.16702
# Poissons Ratio (y) = 0.45720 0.58041
# Poissons Ratio (z) = -0.09162 0.28773
#
# Static dielectric constant tensor:
#      x y z
#    x 1.699780 0.000000 -0.023360 
#    y 0.000000 1.613520 0.000000 
#    z -0.023360 0.000000 1.692290 
# 
# From -- ./inp_files/66847.got.cif
#   From: 2010.05.17/outbox.cif.g08.bks.cpg/sg12_34_cif.got.tgz:66847.got - 2010.06.03 13:09:07.
