data_PCOD9173613
_publ_section_title
;
Structure prediction by ZEFSAII (Michael W. Deem and Ramdas Pophale) SiO2 
 PCOD9173613
Probable space group: C 2/M
;
_chemical_formula_sum "Si O2"
_cell_formula_units_Z 64
_cell_length_a 8.772080
_cell_length_b 21.348734
_cell_length_c 24.342743
_cell_angle_alpha 90.000000
_cell_angle_beta 132.485216
_cell_angle_gamma 90.000000
_cell_volume 3361.845621
_symmetry_space_group_name_H-M "C 2/M"
_symmetry_group_IT_number 12
_symmetry_cell_setting 'monoclinic'
loop_
_space_group_symop_operation_xyz
x,y,z
-x,y,-z
-x,-y,-z
x,-y,z
1/2+x,1/2+y,z
1/2-x,1/2+y,-z
1/2-x,1/2-y,-z
1/2+x,1/2-y,z
loop_
_atom_site_type_symbol
_atom_site_label
_atom_site_fract_x
_atom_site_fract_y
_atom_site_fract_z
Si Si1 0.118864 0.660157 0.652781
Si Si2 0.728248 0.296756 0.074588
Si Si3 0.067949 0.133050 0.762636
Si Si4 0.918880 0.714520 0.234928
Si Si5 0.690950 0.371342 0.676552
Si Si6 0.975850 0.224767 0.556078
Si Si7 0.407737 0.839871 0.924083
Si Si8 0.758316 0.930116 0.424146
O O1 0.325249 0.618937 0.704632
O O2 0.124803 0.692593 0.714095
O O3 0.118678 0.716264 0.608118
O O4 0.907988 0.620533 0.594659
O O5 0.776239 0.311163 0.150445
O O6 0.702366 0.221154 0.074048
O O7 0.915022 0.317156 0.078005
O O8 0.500000 0.319416 0.000000
O O9 0.077555 0.210085 0.763349
O O10 0.147827 0.103768 0.725748
O O11 0.230656 0.120791 0.850385
O O12 0.134856 0.681641 0.274606
O O13 0.503682 0.331293 0.605346
O O14 0.749959 0.419711 0.643726
O O15 0.750000 0.250000 0.500000
O O16 0.000000 0.202876 0.500000
O O17 0.500000 0.873520 0.000000
O O18 0.000000 0.925513 0.500000
O O19 0.690801 0.000000 0.422983
#
# Coordination Sequence:
#
# PCOD9173613 Si02
#       8
#     8   8   8   8   8   8   8   8
#     4  11  22  33  55  81 108 146 176 229 276 333
#     4  10  19  28  43  65 102 157 198 223 245 316
#     4  11  19  31  50  79 115 142 181 221 279 325
#     4  10  18  31  47  73 113 151 183 213 268 324
#     4  11  19  35  52  80 110 144 179 219 279 331
#     4  12  21  31  48  77 110 135 171 216 272 336
#     4  10  20  29  43  68 108 155 192 220 256 319
#     4  10  23  44  62  75 102 146 191 231 274 327
#
# _framework density 19.037161999999999
#
# number of rings (size 3 to 8) (size 9 to 14) (size 15 to 20)
#    0.000    1.375    3.750    4.875    7.000    0.000 
#    0.000    0.625    0.000    1.875    0.000    0.000 
#    0.000   19.000    0.000    0.000    0.000    0.000 
#
# Total GULP energy -178152.333539 kJ/mol
# GULP energy per Si atom -5567.260423 kJ/mol
# Density = 1.899383 g / cm^3
# Si number density = 19.037162 Si / 1000 Ang^3
#
#
#
# Elastic Constant Matrix: (Units=GPa)
#
#
# Indices 1 2 3 4 5 6 
#
# 1 46.5516 -3.6828 8.7579 0.0000 3.5096 -0.0001
# 2 -3.6828 34.6515 8.1104 0.0000 -6.0237 0.0000
# 3 8.7579 8.1104 123.6207 0.0000 -3.0272 0.0000
# 4 0.0000 0.0000 0.0000 7.2601 0.0000 1.1531
# 5 3.5096 -6.0237 -3.0272 0.0000 22.6950 0.0000
# 6 -0.0001 0.0000 0.0000 1.1531 0.0000 6.9709
#
#
#
# Elastic Compliance Matrix: (Units=1/GPa)
#
#
# Indices 1 2 3 4 5 6 
#
# 1 0.022230 0.002248 -0.001798 0.000000 -0.003081 0.000000
# 2 0.002248 0.030884 -0.002000 0.000000 0.007583 0.000000
# 3 -0.001798 -0.002000 0.008369 0.000000 0.000864 0.000000
# 4 0.000000 0.000000 0.000000 0.141456 0.000000 -0.023399
# 5 -0.003081 0.007583 0.000864 0.000000 0.046667 0.000000
# 6 0.000000 0.000000 0.000000 -0.023399 0.000000 0.147325
#
#
# Mechanical properties :
#
#
# Convention : Reuss Voigt Hill
#
# Bulk Modulus (GPa) = 17.12820 25.68832 21.40826
# Shear Modulus (GPa) = 11.91920 20.16106 16.04013
#
# Velocity S-wave (km/s) = 2.50492 3.25782 2.90585
# Velocity P-wave (km/s) = 4.16928 5.26063 4.74643
#
# Compressibility (1/GPa) = 0.05838326
#
# Stress axis : x y z
#
# Youngs Moduli (GPa) = 44.98450 32.37933 119.48897
#
# Poissons Ratio (x) = -0.07278 0.21482
# Poissons Ratio (y) = -0.10112 0.23895
# Poissons Ratio (z) = 0.08087 0.06475
#
# Static dielectric constant tensor:
#      x y z
#    x 1.947480 0.000000 -0.134690 
#    y 0.000000 1.667290 0.000000 
#    z -0.134690 0.000000 1.859830 
# 
# From -- ./inp_files/334002.got.cif
#   From: 2010.05.17/outbox.cif.g08.bks.cpg/sg12_168_cif.got.tgz:334002.got - 2010.06.03 13:09:07.
