data_PCOD9173098
_publ_section_title
;
Structure prediction by ZEFSAII (Michael W. Deem and Ramdas Pophale) SiO2 
 PCOD9173098
Probable space group: C 2/M
;
_chemical_formula_sum "Si O2"
_cell_formula_units_Z 48
_cell_length_a 18.645860
_cell_length_b 8.724891
_cell_length_c 16.102200
_cell_angle_alpha 90.000000
_cell_angle_beta 88.723153
_cell_angle_gamma 90.000000
_cell_volume 2618.905303
_symmetry_space_group_name_H-M "C 2/M"
_symmetry_group_IT_number 12
_symmetry_cell_setting 'monoclinic'
loop_
_space_group_symop_operation_xyz
x,y,z
-x,y,-z
-x,-y,-z
x,-y,z
1/2+x,1/2+y,z
1/2-x,1/2+y,-z
1/2-x,1/2-y,-z
1/2+x,1/2-y,z
loop_
_atom_site_type_symbol
_atom_site_label
_atom_site_fract_x
_atom_site_fract_y
_atom_site_fract_z
Si Si1 0.947985 0.317704 0.248349
Si Si2 0.712930 0.683012 0.419514
Si Si3 0.042512 0.683045 0.080796
Si Si4 0.168141 0.182439 0.169416
Si Si5 0.208079 0.818479 0.744128
Si Si6 0.086949 0.315954 0.333601
O O1 0.932337 0.500000 0.253131
O O2 0.874979 0.224889 0.250372
O O3 0.991641 0.290110 0.161937
O O4 0.003263 0.279402 0.321697
O O5 0.712032 0.500000 0.421291
O O6 0.750000 0.750000 0.500000
O O7 0.758325 0.740808 0.338924
O O8 0.632090 0.746255 0.407879
O O9 0.055102 0.500000 0.075837
O O10 0.118631 0.763999 0.094589
O O11 0.000000 0.732368 0.000000
O O12 0.247185 0.252465 0.178732
O O13 0.126093 0.249170 0.250829
O O14 0.171495 0.000000 0.173708
O O15 0.218768 0.000000 0.739118
O O16 0.093998 0.500000 0.333155
#
# Coordination Sequence:
#
# PCOD9173098 Si02
#       6
#     8   8   8   8   8   8
#     4   9  18  33  53  77 104 133 167 209 256 303
#     4  11  21  35  55  78 105 134 169 210 253 301
#     4   9  18  34  55  77 103 135 170 210 257 307
#     4  10  18  30  50  74 101 133 171 210 250 301
#     4  11  21  34  53  76 103 135 173 211 251 300
#     4   9  17  32  53  75 101 134 171 207 249 303
#
# _framework density 18.328268999999999
#
# number of rings (size 3 to 8) (size 9 to 14) (size 15 to 20)
#    0.000    2.167    0.000    8.000    0.000    3.667 
#    0.000    1.667    0.000    5.000    0.000    0.000 
#    0.000    0.000    0.000    0.000    0.000    0.000 
#
# Total GULP energy -133847.883719 kJ/mol
# GULP energy per Si atom -5576.995155 kJ/mol
# Density = 1.828655 g / cm^3
# Si number density = 18.328269 Si / 1000 Ang^3
#
#
#
# Elastic Constant Matrix: (Units=GPa)
#
#
# Indices 1 2 3 4 5 6 
#
# 1 140.8218 75.4587 43.2878 0.0000 49.9165 0.0000
# 2 75.4587 131.6298 39.2038 0.0000 28.5803 0.0000
# 3 43.2878 39.2038 67.6057 0.0000 44.8271 0.0000
# 4 0.0000 0.0000 0.0000 20.7469 0.0000 7.5652
# 5 49.9165 28.5803 44.8271 0.0000 37.4853 0.0000
# 6 0.0000 0.0000 0.0000 7.5652 0.0000 35.5901
#
#
#
# Elastic Compliance Matrix: (Units=1/GPa)
#
#
# Indices 1 2 3 4 5 6 
#
# 1 0.026469 -0.010606 0.034828 0.000000 -0.068809 0.000000
# 2 -0.010606 0.013506 -0.017279 0.000000 0.024489 0.000000
# 3 0.034828 -0.017279 0.118453 0.000000 -0.174856 0.000000
# 4 0.000000 0.000000 0.000000 0.052250 0.000000 -0.011107
# 5 -0.068809 0.024489 -0.174856 0.000000 0.308738 0.000000
# 6 0.000000 0.000000 0.000000 -0.011107 0.000000 0.030459
#
#
# Mechanical properties :
#
#
# Convention : Reuss Voigt Hill
#
# Bulk Modulus (GPa) = 5.80339 72.88423 39.34381
# Shear Modulus (GPa) = 8.42563 30.90491 19.66527
#
# Velocity S-wave (km/s) = 2.14640 4.11078 3.27914
# Velocity P-wave (km/s) = 3.05221 7.89833 5.98747
#
# Compressibility (1/GPa) = 0.17231313
#
# Stress axis : x y z
#
# Youngs Moduli (GPa) = 37.77949 74.03930 8.44220
#
# Poissons Ratio (x) = 0.78529 -0.29402
# Poissons Ratio (y) = 0.40071 0.14587
# Poissons Ratio (z) = -1.31577 1.27930
#
# Static dielectric constant tensor:
#      x y z
#    x 1.663560 0.000000 0.032100 
#    y 0.000000 1.608730 0.000000 
#    z 0.032100 0.000000 1.650730 
# 
# From -- ./inp_files/273660.got.cif
#   From: 2010.05.17/outbox.cif.g08.bks.cpg/sg12_137_cif.got.tgz:273660.got - 2010.06.03 13:09:07.
