data_PCOD9173180
_publ_section_title
;
Structure prediction by ZEFSAII (Michael W. Deem and Ramdas Pophale) SiO2 
 PCOD9173180
Probable space group: C 2/M
;
_chemical_formula_sum "Si O2"
_cell_formula_units_Z 64
_cell_length_a 27.688812
_cell_length_b 21.371526
_cell_length_c 18.313283
_cell_angle_alpha 90.000000
_cell_angle_beta 160.884326
_cell_angle_gamma 90.000000
_cell_volume 3548.837033
_symmetry_space_group_name_H-M "C 2/M"
_symmetry_group_IT_number 12
_symmetry_cell_setting 'monoclinic'
loop_
_space_group_symop_operation_xyz
x,y,z
-x,y,-z
-x,-y,-z
x,-y,z
1/2+x,1/2+y,z
1/2-x,1/2+y,-z
1/2-x,1/2-y,-z
1/2+x,1/2-y,z
loop_
_atom_site_type_symbol
_atom_site_label
_atom_site_fract_x
_atom_site_fract_y
_atom_site_fract_z
Si Si1 0.860133 0.074859 0.745682
Si Si2 0.128426 0.714253 0.027161
Si Si3 0.258153 0.931526 0.177396
Si Si4 0.934303 0.352812 0.642251
Si Si5 0.145559 0.248050 0.781004
Si Si6 0.619882 0.714396 0.503897
Si Si7 0.058302 0.611920 0.679362
Si Si8 0.981192 0.156953 0.790882
O O1 0.708079 0.103294 0.559140
O O2 0.884768 0.115137 0.707344
O O3 0.849881 0.000000 0.719357
O O4 0.000000 0.085582 0.000000
O O5 0.252150 0.727294 0.140261
O O6 0.222854 0.701956 0.234339
O O7 0.015332 0.663012 0.833825
O O8 0.029698 0.776645 0.894209
O O9 0.322349 0.931734 0.187350
O O10 0.397636 0.911047 0.424854
O O11 0.206376 0.000000 0.126706
O O12 0.130902 0.881776 0.998107
O O13 0.891241 0.286023 0.542741
O O14 0.055006 0.382803 0.760908
O O15 0.091112 0.319178 0.694110
O O16 0.004298 0.209595 0.609148
O O17 0.250000 0.250000 0.000000
O O18 0.583805 0.671918 0.382095
#
# Coordination Sequence:
#
# PCOD9173180 Si02
#       8
#     8   8   8   8   8   8   8   8
#     4  11  24  42  63  83 108 148 190 233 289 345
#     4  11  20  34  56  87 119 153 186 225 285 343
#     4  11  21  31  50  80 110 149 186 230 284 335
#     4  10  22  36  56  83 114 147 186 230 284 334
#     4  11  16  31  51  84 122 159 177 215 282 346
#     4  10  21  32  56  87 117 154 186 225 284 342
#     4  10  18  30  50  78 116 141 178 226 276 336
#     4  11  21  37  56  80 117 146 186 237 282 337
#
# _framework density 18.034077
#
# number of rings (size 3 to 8) (size 9 to 14) (size 15 to 20)
#    0.000    1.375    5.000    4.500    3.500    4.000 
#    0.000    1.875    0.000    2.250    0.000    0.875 
#    0.000    0.000    0.000    0.000    0.000    0.000 
#
# Total GULP energy -178462.075267 kJ/mol
# GULP energy per Si atom -5576.939852 kJ/mol
# Density = 1.799303 g / cm^3
# Si number density = 18.034077 Si / 1000 Ang^3
#
#
#
# Elastic Constant Matrix: (Units=GPa)
#
#
# Indices 1 2 3 4 5 6 
#
# 1 -4.0244 -22.6134 -60.5178 0.0000 33.9397 0.0000
# 2 -22.6134 30.1666 -36.7488 0.0000 19.0277 0.0000
# 3 -60.5178 -36.7488 -2.5583 0.0000 19.6305 0.0000
# 4 0.0000 0.0000 0.0000 16.9344 0.0000 -7.6925
# 5 33.9397 19.0277 19.6305 0.0000 13.8759 0.0000
# 6 0.0000 0.0000 0.0000 -7.6925 0.0000 32.2910
#
#
#
# Elastic Compliance Matrix: (Units=1/GPa)
#
#
# Indices 1 2 3 4 5 6 
#
# 1 0.008437 -0.009721 -0.009786 0.000000 0.006538 0.000000
# 2 -0.009721 0.018460 -0.003967 0.000000 0.004074 0.000000
# 3 -0.009786 -0.003967 0.010376 0.000000 0.014698 0.000000
# 4 0.000000 0.000000 0.000000 0.066217 0.000000 0.015775
# 5 0.006538 0.004074 0.014698 0.000000 0.029697 0.000000
# 6 0.000000 0.000000 0.000000 0.015775 0.000000 0.034726
#
#
# Mechanical properties :
#
#
# Convention : Reuss Voigt Hill
#
# Bulk Modulus (GPa) = -103.36612 -24.01958 -63.69285
# Shear Modulus (GPa) = 23.62540 22.18453 22.90497
#
# Velocity S-wave (km/s) = 3.62338 3.51115 3.56770
# Velocity P-wave (km/s) = 6.31952 1.75774 4.29225
#
# Compressibility (1/GPa) = -0.00967435
#
# Stress axis : x y z
#
# Youngs Moduli (GPa) = 118.52315 54.16995 96.37823
#
# Poissons Ratio (x) = 0.52657 0.94319
# Poissons Ratio (y) = 1.15213 0.38232
# Poissons Ratio (z) = 1.15991 0.21488
#
# Static dielectric constant tensor:
#      x y z
#    x 1.698570 0.000000 0.021260 
#    y 0.000000 1.648220 0.000000 
#    z 0.021260 0.000000 1.627340 
# 
# From -- ./inp_files/294171.got.cif
#   From: 2010.05.17/outbox.cif.g08.bks.cpg/sg12_148_cif.got.tgz:294171.got - 2010.06.03 13:09:07.
