data_PCOD9173165
_publ_section_title
;
Structure prediction by ZEFSAII (Michael W. Deem and Ramdas Pophale) SiO2 
 PCOD9173165
Probable space group: C 2/M
;
_chemical_formula_sum "Si O2"
_cell_formula_units_Z 56
_cell_length_a 23.819147
_cell_length_b 13.429628
_cell_length_c 22.851413
_cell_angle_alpha 90.000000
_cell_angle_beta 28.169074
_cell_angle_gamma 90.000000
_cell_volume 3450.756001
_symmetry_space_group_name_H-M "C 2/M"
_symmetry_group_IT_number 12
_symmetry_cell_setting 'monoclinic'
loop_
_space_group_symop_operation_xyz
x,y,z
-x,y,-z
-x,-y,-z
x,-y,z
1/2+x,1/2+y,z
1/2-x,1/2+y,-z
1/2-x,1/2-y,-z
1/2+x,1/2-y,z
loop_
_atom_site_type_symbol
_atom_site_label
_atom_site_fract_x
_atom_site_fract_y
_atom_site_fract_z
Si Si1 0.317673 0.295144 0.804910
Si Si2 0.526806 0.267214 0.786541
Si Si3 0.678378 0.385215 0.977477
Si Si4 0.275467 0.885436 0.353927
Si Si5 0.673850 0.112215 0.041073
Si Si6 0.447429 0.383063 0.354155
Si Si7 0.635361 0.617729 0.361731
O O1 0.271276 0.182965 0.856921
O O2 0.448479 0.321868 0.708958
O O3 0.314575 0.326239 0.740497
O O4 0.230510 0.359117 0.926886
O O5 0.627341 0.198574 0.722638
O O6 0.429697 0.189647 0.850304
O O7 0.570890 0.336303 0.693041
O O8 0.451273 0.334672 0.901180
O O9 0.675801 0.500000 0.961891
O O10 0.725775 0.380767 0.001183
O O11 0.171355 0.878091 0.497997
O O12 0.214577 0.870941 0.346715
O O13 0.322067 0.000000 0.313259
O O14 0.628746 0.000000 0.082073
O O15 0.482956 0.500000 0.317327
O O16 0.500000 0.649494 0.500000
O O17 0.629718 0.500000 0.352187
#
# Coordination Sequence:
#
# PCOD9173165 Si02
#       7
#     8   8   8   8   8   8   8
#     4  11  18  32  55  82 105 133 175 218 265 308
#     4  11  19  33  50  76 110 142 171 209 266 312
#     4  10  20  34  54  77 104 137 179 222 259 308
#     4  10  22  35  50  78 112 142 173 211 258 314
#     4  10  18  30  50  77 106 136 172 215 261 309
#     4  11  19  31  53  81 111 139 171 213 260 318
#     4  10  19  33  55  80 106 139 176 212 254 311
#
# _framework density 16.228328000000001
#
# number of rings (size 3 to 8) (size 9 to 14) (size 15 to 20)
#    0.000    1.571    4.286    3.429    0.000    0.000 
#    0.000    2.857    0.000   11.571    0.000    0.000 
#    0.000    0.000    0.000    0.000    0.000    0.000 
#
# Total GULP energy -156188.203039 kJ/mol
# GULP energy per Si atom -5578.150109 kJ/mol
# Density = 1.619139 g / cm^3
# Si number density = 16.228328 Si / 1000 Ang^3
#
#
#
# Elastic Constant Matrix: (Units=GPa)
#
#
# Indices 1 2 3 4 5 6 
#
# 1 58.0560 42.2191 40.9048 0.0000 -0.8957 0.0000
# 2 42.2191 134.1151 58.2399 0.0000 -5.0723 0.0000
# 3 40.9048 58.2399 79.5744 0.0000 7.8332 0.0000
# 4 0.0000 0.0000 0.0000 24.5611 0.0000 -5.8952
# 5 -0.8957 -5.0723 7.8332 0.0000 23.5082 0.0000
# 6 0.0000 0.0000 0.0000 -5.8952 0.0000 20.1862
#
#
#
# Elastic Compliance Matrix: (Units=1/GPa)
#
#
# Indices 1 2 3 4 5 6 
#
# 1 0.028720 -0.003307 -0.012801 0.000000 0.004646 0.000000
# 2 -0.003307 0.011961 -0.007543 0.000000 0.004968 0.000000
# 3 -0.012801 -0.007543 0.025720 0.000000 -0.010685 0.000000
# 4 0.000000 0.000000 0.000000 0.043784 0.000000 0.012787
# 5 0.004646 0.004968 -0.010685 0.000000 0.047348 0.000000
# 6 0.000000 0.000000 0.000000 0.012787 0.000000 0.053273
#
#
# Mechanical properties :
#
#
# Convention : Reuss Voigt Hill
#
# Bulk Modulus (GPa) = 52.35773 61.60813 56.98293
# Shear Modulus (GPa) = 18.90550 22.34322 20.62436
#
# Velocity S-wave (km/s) = 3.41687 3.71456 3.56882
# Velocity P-wave (km/s) = 6.92097 7.51285 7.22298
#
# Compressibility (1/GPa) = 0.01909938
#
# Stress axis : x y z
#
# Youngs Moduli (GPa) = 34.81879 83.60632 38.88041
#
# Poissons Ratio (x) = 0.27644 0.49770
# Poissons Ratio (y) = 0.11513 0.29329
# Poissons Ratio (z) = 0.44571 0.63068
#
# Static dielectric constant tensor:
#      x y z
#    x 1.532110 0.000000 -0.013580 
#    y 0.000000 1.556980 0.000000 
#    z -0.013580 0.000000 1.547060 
# 
# From -- ./inp_files/325136.got.cif
#   From: 2010.05.17/outbox.cif.g08.bks.cpg/sg12_163_cif.got.tgz:325136.got - 2010.06.03 13:09:07.
