data_PCOD9173632
_publ_section_title
;
Structure prediction by ZEFSAII (Michael W. Deem and Ramdas Pophale) SiO2 
 PCOD9173632
Probable space group: C 2/M
;
_chemical_formula_sum "Si O2"
_cell_formula_units_Z 64
_cell_length_a 29.538085
_cell_length_b 9.069974
_cell_length_c 27.172677
_cell_angle_alpha 90.000000
_cell_angle_beta 34.511562
_cell_angle_gamma 90.000000
_cell_volume 4124.547585
_symmetry_space_group_name_H-M "C 2/M"
_symmetry_group_IT_number 12
_symmetry_cell_setting 'monoclinic'
loop_
_space_group_symop_operation_xyz
x,y,z
-x,y,-z
-x,-y,-z
x,-y,z
1/2+x,1/2+y,z
1/2-x,1/2+y,-z
1/2-x,1/2-y,-z
1/2+x,1/2-y,z
loop_
_atom_site_type_symbol
_atom_site_label
_atom_site_fract_x
_atom_site_fract_y
_atom_site_fract_z
Si Si1 0.217219 0.677198 0.579766
Si Si2 0.160320 0.829284 0.445110
Si Si3 0.004092 0.166487 0.652624
Si Si4 0.628202 0.323040 0.093176
Si Si5 0.763431 0.824433 0.909537
Si Si6 0.593041 0.822312 0.411332
Si Si7 0.949745 0.826359 0.275230
Si Si8 0.356097 0.174520 0.743094
O O1 0.222289 0.500000 0.570245
O O2 0.250000 0.750000 0.500000
O O3 0.271949 0.721532 0.577283
O O4 0.126964 0.730831 0.669249
O O5 0.145141 0.737766 0.409621
O O6 0.077798 0.825086 0.549546
O O7 0.176664 0.000000 0.417756
O O8 0.938516 0.284426 0.696610
O O9 0.036716 0.185750 0.678219
O O10 0.968598 0.000000 0.681823
O O11 0.633657 0.500000 0.082455
O O12 0.667744 0.289212 0.111179
O O13 0.534970 0.282272 0.175769
O O14 0.682774 0.243641 0.004133
O O15 0.788569 0.755864 0.835113
O O16 0.757445 0.000000 0.911738
O O17 0.500000 0.772592 0.500000
O O18 0.629732 0.776827 0.325915
O O19 0.591860 0.000000 0.413671
O O20 0.935245 0.000000 0.277585
O O21 0.342387 0.000000 0.756184
#
# Coordination Sequence:
#
# PCOD9173632 Si02
#       8
#     8   8   8   8   8   8   8   8
#     4  11  22  35  50  73 101 132 172 210 247 293
#     4  10  21  35  50  69  98 133 170 210 245 287
#     4  10  18  31  48  69 100 133 169 205 242 289
#     4   9  18  32  49  71 101 132 163 203 246 293
#     4  10  19  32  49  71 100 132 166 204 245 295
#     4  10  21  35  49  71 100 129 167 209 247 293
#     4  10  19  34  51  72 102 135 169 205 246 293
#     4  11  21  32  48  72 101 133 169 206 247 294
#
# _framework density 15.516854
#
# number of rings (size 3 to 8) (size 9 to 14) (size 15 to 20)
#    0.000    1.875    3.750    1.125    0.000    3.750 
#    0.000    0.000    0.000    0.000    0.000    0.875 
#    0.000    7.000    0.000    0.000    0.000    0.000 
#
# Total GULP energy -178507.550958 kJ/mol
# GULP energy per Si atom -5578.360967 kJ/mol
# Density = 1.548154 g / cm^3
# Si number density = 15.516854 Si / 1000 Ang^3
#
#
#
# Elastic Constant Matrix: (Units=GPa)
#
#
# Indices 1 2 3 4 5 6 
#
# 1 89.8229 36.4593 54.3359 -0.0002 9.0334 0.0007
# 2 36.4593 34.2013 43.0724 0.0001 5.6533 0.0004
# 3 54.3359 43.0724 110.9547 -0.0006 11.8728 -0.0003
# 4 -0.0002 0.0001 -0.0006 26.4791 0.0021 -1.6528
# 5 9.0334 5.6533 11.8728 0.0021 25.5360 0.0006
# 6 0.0007 0.0004 -0.0003 -1.6528 0.0006 24.1151
#
#
#
# Elastic Compliance Matrix: (Units=1/GPa)
#
#
# Indices 1 2 3 4 5 6 
#
# 1 0.020207 -0.017648 -0.002839 0.000000 -0.001921 0.000000
# 2 -0.017648 0.072766 -0.019521 -0.000001 -0.000790 -0.000001
# 3 -0.002839 -0.019521 0.018323 0.000001 -0.003193 0.000001
# 4 0.000000 -0.000001 0.000001 0.037928 -0.000003 0.002600
# 5 -0.001921 -0.000790 -0.003193 -0.000003 0.041500 -0.000001
# 6 0.000000 -0.000001 0.000001 0.002600 -0.000001 0.041646
#
#
# Mechanical properties :
#
#
# Convention : Reuss Voigt Hill
#
# Bulk Modulus (GPa) = 31.96903 55.85711 43.91307
# Shear Modulus (GPa) = 15.48890 21.96680 18.72785
#
# Velocity S-wave (km/s) = 3.16286 3.76663 3.47787
# Velocity P-wave (km/s) = 5.82973 7.41569 6.67001
#
# Compressibility (1/GPa) = 0.03128027
#
# Stress axis : x y z
#
# Youngs Moduli (GPa) = 49.48771 13.74263 54.57726
#
# Poissons Ratio (x) = 0.24253 0.15495
# Poissons Ratio (y) = 0.87336 1.06539
# Poissons Ratio (z) = 0.14050 0.26827
#
# Static dielectric constant tensor:
#      x y z
#    x 1.496220 0.000000 0.002480 
#    y 0.000000 1.524900 0.000000 
#    z 0.002480 0.000000 1.522350 
# 
# From -- ./inp_files/384549.got.cif
#   From: 2010.05.17/outbox.cif.g08.bks.cpg/sg12_193_cif.got.tgz:384549.got - 2010.06.03 13:09:07.
