data_PCOD9173300
_publ_section_title
;
Structure prediction by ZEFSAII (Michael W. Deem and Ramdas Pophale) SiO2 
 PCOD9173300
Probable space group: C 2/M
;
_chemical_formula_sum "Si O2"
_cell_formula_units_Z 56
_cell_length_a 30.987071
_cell_length_b 7.734784
_cell_length_c 12.028175
_cell_angle_alpha 90.000000
_cell_angle_beta 64.359956
_cell_angle_gamma 90.000000
_cell_volume 2599.015046
_symmetry_space_group_name_H-M "C 2/M"
_symmetry_group_IT_number 12
_symmetry_cell_setting 'monoclinic'
loop_
_space_group_symop_operation_xyz
x,y,z
-x,y,-z
-x,-y,-z
x,-y,z
1/2+x,1/2+y,z
1/2-x,1/2+y,-z
1/2-x,1/2-y,-z
1/2+x,1/2-y,z
loop_
_atom_site_type_symbol
_atom_site_label
_atom_site_fract_x
_atom_site_fract_y
_atom_site_fract_z
Si Si1 0.721957 0.298687 0.206087
Si Si2 0.706094 0.704129 0.469581
Si Si3 0.581485 0.791385 0.171020
Si Si4 0.511136 0.788376 0.863387
Si Si5 0.555870 0.211190 0.440894
Si Si6 0.099852 0.707711 0.623971
Si Si7 0.314930 0.295840 0.988806
O O1 0.707762 0.500000 0.223816
O O2 0.709788 0.220137 0.339728
O O3 0.697680 0.224190 0.121088
O O4 0.778594 0.286207 0.117211
O O5 0.708182 0.500000 0.453644
O O6 0.750000 0.750000 0.500000
O O7 0.655002 0.749082 0.578935
O O8 0.532332 0.735367 0.168149
O O9 0.581046 0.731103 0.299393
O O10 0.629159 0.733283 0.055639
O O11 0.581399 0.000000 0.171629
O O12 0.561889 0.730263 0.757692
O O13 0.511564 0.000000 0.863545
O O14 0.500000 0.730505 0.000000
O O15 0.500000 0.261334 0.500000
O O16 0.582063 0.271537 0.522902
O O17 0.556433 0.000000 0.441334
O O18 0.096127 0.500000 0.625820
O O19 0.304766 0.500000 0.001132
#
# Coordination Sequence:
#
# PCOD9173300 Si02
#       7
#     8   8   8   8   8   8   8
#     4   9  20  39  58  78 108 145 184 228 278 335
#     4  11  24  41  60  82 111 147 190 235 283 337
#     4  10  18  30  51  78 108 143 182 222 268 322
#     4   9  18  32  51  76 106 141 180 218 259 318
#     4   9  15  27  51  81 108 139 184 232 268 312
#     4  10  19  34  57  82 109 142 183 231 279 323
#     4  10  20  34  56  84 113 142 178 227 283 336
#
# _framework density 21.546626
#
# number of rings (size 3 to 8) (size 9 to 14) (size 15 to 20)
#    0.000    2.286    1.429    1.714    0.000    2.857 
#    0.000    3.571    0.000    1.714    0.000    0.000 
#    0.000    0.000    0.000    0.000    0.000    0.000 
#
# Total GULP energy -156376.807563 kJ/mol
# GULP energy per Si atom -5584.885984 kJ/mol
# Density = 2.149758 g / cm^3
# Si number density = 21.546626 Si / 1000 Ang^3
#
#
#
# Elastic Constant Matrix: (Units=GPa)
#
#
# Indices 1 2 3 4 5 6 
#
# 1 127.0578 -3.1547 57.8510 0.0000 -25.6456 0.0000
# 2 -3.1547 34.9763 1.5118 0.0000 7.3371 0.0000
# 3 57.8510 1.5118 124.8428 0.0000 -9.0573 0.0000
# 4 0.0000 0.0000 0.0000 8.4055 0.0000 -6.4936
# 5 -25.6456 7.3371 -9.0573 0.0000 31.6906 0.0000
# 6 0.0000 0.0000 0.0000 -6.4936 0.0000 12.2113
#
#
#
# Elastic Compliance Matrix: (Units=1/GPa)
#
#
# Indices 1 2 3 4 5 6 
#
# 1 0.011713 -0.000456 -0.004827 0.000000 0.008205 0.000000
# 2 -0.000456 0.030165 -0.000702 0.000000 -0.007553 0.000000
# 3 -0.004827 -0.000702 0.010195 0.000000 -0.000830 0.000000
# 4 0.000000 0.000000 0.000000 0.201922 0.000000 0.107377
# 5 0.008205 -0.007553 -0.000830 0.000000 0.039706 0.000000
# 6 0.000000 0.000000 0.000000 0.107377 0.000000 0.138992
#
#
# Mechanical properties :
#
#
# Convention : Reuss Voigt Hill
#
# Bulk Modulus (GPa) = 24.93591 44.36588 34.65090
# Shear Modulus (GPa) = 10.91631 25.83940 18.37786
#
# Velocity S-wave (km/s) = 2.25330 3.46675 2.92367
# Velocity P-wave (km/s) = 4.28578 6.05473 5.24537
#
# Compressibility (1/GPa) = 0.04010280
#
# Stress axis : x y z
#
# Youngs Moduli (GPa) = 85.37601 33.15152 98.08635
#
# Poissons Ratio (x) = 0.01512 0.47345
# Poissons Ratio (y) = 0.03894 0.06885
# Poissons Ratio (z) = 0.41210 0.02327
#
# Static dielectric constant tensor:
#      x y z
#    x 1.729730 0.000000 0.007560 
#    y 0.000000 1.809470 0.000000 
#    z 0.007560 0.000000 1.793860 
# 
# From -- ./inp_files/186366.got.cif
#   From: 2010.05.17/outbox.cif.g08.bks.cpg/sg12_94_cif.got.tgz:186366.got - 2010.06.03 13:09:07.
