data_PCOD9173913
_publ_section_title
;
Structure prediction by ZEFSAII (Michael W. Deem and Ramdas Pophale) SiO2 
 PCOD9173913
Probable space group: C 2/M
;
_chemical_formula_sum "Si O2"
_cell_formula_units_Z 52
_cell_length_a 14.263071
_cell_length_b 23.737786
_cell_length_c 10.547984
_cell_angle_alpha 90.000000
_cell_angle_beta 58.481501
_cell_angle_gamma 90.000000
_cell_volume 3044.405832
_symmetry_space_group_name_H-M "C 2/M"
_symmetry_group_IT_number 12
_symmetry_cell_setting 'monoclinic'
loop_
_space_group_symop_operation_xyz
x,y,z
-x,y,-z
-x,-y,-z
x,-y,z
1/2+x,1/2+y,z
1/2-x,1/2+y,-z
1/2-x,1/2-y,-z
1/2+x,1/2-y,z
loop_
_atom_site_type_symbol
_atom_site_label
_atom_site_fract_x
_atom_site_fract_y
_atom_site_fract_z
Si Si1 0.241203 0.328546 0.568221
Si Si2 0.832026 0.226553 0.760919
Si Si3 0.500000 0.693306 0.000000
Si Si4 0.771591 0.163456 0.062593
Si Si5 0.628632 0.066028 0.060268
Si Si6 0.631055 0.065961 0.757456
Si Si7 0.427326 0.267259 0.316624
O O1 0.286485 0.300803 0.666138
O O2 0.203379 0.391415 0.624435
O O3 0.339767 0.317364 0.400800
O O4 0.136872 0.289940 0.605364
O O5 0.791419 0.290526 0.807640
O O6 0.963480 0.224806 0.678714
O O7 0.785116 0.192103 0.914412
O O8 0.394279 0.657852 0.031301
O O9 0.465579 0.731731 0.143576
O O10 0.703254 0.107011 0.090384
O O11 0.498785 0.077057 0.172426
O O12 0.648350 0.000000 0.071718
O O13 0.650422 0.075366 0.894422
O O14 0.651817 0.000000 0.716885
#
# Coordination Sequence:
#
# PCOD9173913 Si02
#       7
#     8   8   4   8   8   8   8
#     4  11  19  34  52  79 106 135 168 213 260 306
#     4  10  19  31  49  76 103 138 171 204 262 303
#     4  10  20  36  49  74 105 134 176 206 258 310
#     4  10  18  31  51  75 102 140 169 214 248 303
#     4   9  17  31  52  80 105 134 173 212 254 301
#     4   9  18  31  52  79 107 132 166 216 262 303
#     4  10  22  32  51  76 107 135 169 212 255 309
#
# _framework density 17.080507999999998
#
# number of rings (size 3 to 8) (size 9 to 14) (size 15 to 20)
#    0.000    2.154    3.077    2.308    0.000    1.231 
#    0.000    0.385    0.000    6.462    0.000    2.154 
#    0.000    0.000    0.000    0.000    0.000    0.000 
#
# Total GULP energy -145048.189204 kJ/mol
# GULP energy per Si atom -5578.776508 kJ/mol
# Density = 1.704163 g / cm^3
# Si number density = 17.080508 Si / 1000 Ang^3
#
#
#
# Elastic Constant Matrix: (Units=GPa)
#
#
# Indices 1 2 3 4 5 6 
#
# 1 58.9643 37.8140 0.2444 0.0000 -16.0720 0.0000
# 2 37.8140 88.0268 26.1596 0.0000 -21.5587 0.0000
# 3 0.2444 26.1596 66.2486 0.0000 -13.6957 0.0000
# 4 0.0000 0.0000 0.0000 23.2404 0.0000 -0.5707
# 5 -16.0720 -21.5587 -13.6957 0.0000 24.5974 0.0000
# 6 0.0000 0.0000 0.0000 -0.5707 0.0000 27.4341
#
#
#
# Elastic Compliance Matrix: (Units=1/GPa)
#
#
# Indices 1 2 3 4 5 6 
#
# 1 0.027014 -0.010618 0.006575 0.000000 0.012006 0.000000
# 2 -0.010618 0.019391 -0.006259 0.000000 0.006573 0.000000
# 3 0.006575 -0.006259 0.019546 0.000000 0.009693 0.000000
# 4 0.000000 0.000000 0.000000 0.043051 0.000000 0.000896
# 5 0.012006 0.006573 0.009693 0.000000 0.059657 0.000000
# 6 0.000000 0.000000 0.000000 0.000896 0.000000 0.036470
#
#
# Mechanical properties :
#
#
# Convention : Reuss Voigt Hill
#
# Bulk Modulus (GPa) = 22.05228 37.96396 30.00812
# Shear Modulus (GPa) = 20.75995 24.98915 22.87455
#
# Velocity S-wave (km/s) = 3.49007 3.82910 3.66351
# Velocity P-wave (km/s) = 5.40181 6.46715 5.95834
#
# Compressibility (1/GPa) = 0.04534678
#
# Stress axis : x y z
#
# Youngs Moduli (GPa) = 37.01782 51.56963 51.16167
#
# Poissons Ratio (x) = 0.54758 -0.33639
# Poissons Ratio (y) = 0.39306 0.32023
# Poissons Ratio (z) = -0.24340 0.32278
#
# Static dielectric constant tensor:
#      x y z
#    x 1.585920 0.000000 0.005320 
#    y 0.000000 1.550620 0.000000 
#    z 0.005320 0.000000 1.605200 
# 
# From -- ./inp_files/147548.got.cif
#   From: 2010.05.17/outbox.cif.g08.bks.cpg/sg12_74_cif.got.tgz:147548.got - 2010.06.03 13:09:07.
