data_PCOD9173704
_publ_section_title
;
Structure prediction by ZEFSAII (Michael W. Deem and Ramdas Pophale) SiO2 
 PCOD9173704
Probable space group: C 2/M
;
_chemical_formula_sum "Si O2"
_cell_formula_units_Z 64
_cell_length_a 24.410666
_cell_length_b 19.785984
_cell_length_c 20.120952
_cell_angle_alpha 90.000000
_cell_angle_beta 24.429846
_cell_angle_gamma 90.000000
_cell_volume 4019.240858
_symmetry_space_group_name_H-M "C 2/M"
_symmetry_group_IT_number 12
_symmetry_cell_setting 'monoclinic'
loop_
_space_group_symop_operation_xyz
x,y,z
-x,y,-z
-x,-y,-z
x,-y,z
1/2+x,1/2+y,z
1/2-x,1/2+y,-z
1/2-x,1/2-y,-z
1/2+x,1/2-y,z
loop_
_atom_site_type_symbol
_atom_site_label
_atom_site_fract_x
_atom_site_fract_y
_atom_site_fract_z
Si Si1 0.590461 0.078400 0.584114
Si Si2 0.142080 0.080130 0.648782
Si Si3 0.534177 0.307260 0.384919
Si Si4 0.180218 0.304362 0.389949
Si Si5 0.209771 0.421862 0.099969
Si Si6 0.462564 0.420608 0.726457
Si Si7 0.964701 0.168147 0.113300
Si Si8 0.249092 0.697588 0.162852
O O1 0.700640 0.092735 0.518612
O O2 0.626429 0.129180 0.485463
O O3 0.436110 0.086825 0.770475
O O4 0.609891 0.000000 0.542996
O O5 0.072592 0.113306 0.789713
O O6 0.074982 0.103090 0.654698
O O7 0.119201 0.000000 0.677448
O O8 0.500000 0.320598 0.500000
O O9 0.418339 0.257043 0.488221
O O10 0.538183 0.374195 0.337056
O O11 0.669972 0.264172 0.227722
O O12 0.329132 0.290681 0.251320
O O13 0.187496 0.317819 0.303289
O O14 0.217859 0.500000 0.116437
O O15 0.228050 0.365364 0.136578
O O16 0.325102 0.414053 0.918668
O O17 0.482530 0.500000 0.689184
O O18 0.000000 0.140781 0.000000
O O19 0.094159 0.206456 0.997250
#
# Coordination Sequence:
#
# PCOD9173704 Si02
#       8
#     8   8   8   8   8   8   8   8
#     4   9  17  30  47  71 105 140 169 198 232 285
#     4   9  17  31  48  69 100 135 170 206 242 283
#     4  10  21  37  55  73  97 128 165 211 258 301
#     4   9  18  32  48  71 103 137 171 204 237 286
#     4  10  19  31  49  74 105 135 165 201 242 293
#     4  10  21  37  55  74  97 126 165 214 258 298
#     4   9  17  29  47  71 104 138 167 198 234 286
#     4  10  18  31  49  73 104 136 166 203 246 289
#
# _framework density 15.923405000000001
#
# number of rings (size 3 to 8) (size 9 to 14) (size 15 to 20)
#    0.000    2.500    2.500    0.000    0.000    1.500 
#    0.000    7.500    0.000    0.000    0.000    0.000 
#    0.000   10.000    0.000    0.000    0.000    0.000 
#
# Total GULP energy -178137.518742 kJ/mol
# GULP energy per Si atom -5566.797461 kJ/mol
# Density = 1.588716 g / cm^3
# Si number density = 15.923405 Si / 1000 Ang^3
#
#
#
# Elastic Constant Matrix: (Units=GPa)
#
#
# Indices 1 2 3 4 5 6 
#
# 1 93.7724 59.5465 46.9596 0.0002 -14.4180 -0.0004
# 2 59.5465 71.1674 38.9765 0.0002 0.6742 -0.0003
# 3 46.9596 38.9765 68.4541 0.0000 -21.8702 0.0000
# 4 0.0002 0.0002 0.0000 14.6938 -0.0002 6.5669
# 5 -14.4180 0.6742 -21.8702 -0.0002 23.1089 0.0004
# 6 -0.0004 -0.0003 0.0000 6.5669 0.0004 27.7591
#
#
#
# Elastic Compliance Matrix: (Units=1/GPa)
#
#
# Indices 1 2 3 4 5 6 
#
# 1 0.029212 -0.024668 0.000085 0.000000 0.019026 0.000000
# 2 -0.024668 0.046950 -0.021738 -0.000001 -0.037333 0.000001
# 3 0.000085 -0.021738 0.038912 0.000001 0.037514 -0.000001
# 4 0.000000 -0.000001 0.000001 0.076102 0.000002 -0.018003
# 5 0.019026 -0.037333 0.037514 0.000002 0.091736 -0.000002
# 6 0.000000 0.000001 -0.000001 -0.018003 -0.000002 0.040283
#
#
# Mechanical properties :
#
#
# Convention : Reuss Voigt Hill
#
# Bulk Modulus (GPa) = 44.57891 58.26210 51.42051
# Shear Modulus (GPa) = 11.81153 18.97309 15.39231
#
# Velocity S-wave (km/s) = 2.72650 3.45559 3.11247
# Velocity P-wave (km/s) = 6.16185 7.25189 6.72898
#
# Compressibility (1/GPa) = 0.02243213
#
# Stress axis : x y z
#
# Youngs Moduli (GPa) = 34.23301 21.29904 25.69892
#
# Poissons Ratio (x) = 0.52541 -0.00219
# Poissons Ratio (y) = 0.84447 0.55863
# Poissons Ratio (z) = -0.00291 0.46299
#
# Static dielectric constant tensor:
#      x y z
#    x 1.544350 0.000000 -0.040940 
#    y 0.000000 1.506330 0.000000 
#    z -0.040940 0.000000 1.545530 
# 
# From -- ./inp_files/285768.got.cif
#   From: 2010.05.17/outbox.cif.g08.bks.cpg/sg12_143_cif.got.tgz:285768.got - 2010.06.03 13:09:07.
