data_PCOD9173018
_publ_section_title
;
Structure prediction by ZEFSAII (Michael W. Deem and Ramdas Pophale) SiO2 
 PCOD9173018
Probable space group: C 2/M
;
_chemical_formula_sum "Si O2"
_cell_formula_units_Z 56
_cell_length_a 20.954567
_cell_length_b 9.081154
_cell_length_c 20.121271
_cell_angle_alpha 90.000000
_cell_angle_beta 121.305905
_cell_angle_gamma 90.000000
_cell_volume 3271.440810
_symmetry_space_group_name_H-M "C 2/M"
_symmetry_group_IT_number 12
_symmetry_cell_setting 'monoclinic'
loop_
_space_group_symop_operation_xyz
x,y,z
-x,y,-z
-x,-y,-z
x,-y,z
1/2+x,1/2+y,z
1/2-x,1/2+y,-z
1/2-x,1/2-y,-z
1/2+x,1/2-y,z
loop_
_atom_site_type_symbol
_atom_site_label
_atom_site_fract_x
_atom_site_fract_y
_atom_site_fract_z
Si Si1 0.993942 0.824392 0.337960
Si Si2 0.958243 0.679151 0.910399
Si Si3 0.154319 0.175700 0.656467
Si Si4 0.215021 0.322376 0.174861
Si Si5 0.463217 0.823580 0.183540
Si Si6 0.786041 0.324353 0.083774
Si Si7 0.423573 0.830564 0.502260
O O1 0.913450 0.789034 0.328853
O O2 0.995371 0.754771 0.265966
O O3 0.056518 0.757947 0.420552
O O4 0.000141 0.000000 0.338369
O O5 0.961354 0.500000 0.912912
O O6 0.871205 0.719966 0.863023
O O7 0.999055 0.726034 0.864895
O O8 0.000000 0.730134 0.000000
O O9 0.232015 0.213577 0.733966
O O10 0.137508 0.257617 0.578695
O O11 0.151462 0.000000 0.643659
O O12 0.218665 0.500000 0.167600
O O13 0.248929 0.244459 0.128902
O O14 0.374672 0.795298 0.132586
O O15 0.473837 0.000000 0.195728
O O16 0.775097 0.500000 0.076039
O O17 0.750000 0.250000 0.000000
O O18 0.500000 0.826705 0.500000
O O19 0.406222 0.000000 0.507556
#
# Coordination Sequence:
#
# PCOD9173018 Si02
#       7
#     8   8   8   8   8   8   8
#     4  10  18  30  49  75 107 138 168 210 261 312
#     4   9  18  34  55  76 101 137 179 217 257 309
#     4   9  17  29  47  74 105 136 168 207 259 311
#     4  10  19  34  55  77 104 136 174 216 260 312
#     4  10  20  34  53  77 103 136 176 217 258 308
#     4  11  22  34  52  76 104 134 170 217 266 312
#     4   9  17  28  46  73 105 138 170 208 251 305
#
# _framework density 17.117840999999999
#
# number of rings (size 3 to 8) (size 9 to 14) (size 15 to 20)
#    0.000    2.286    1.429    2.143    0.000    5.714 
#    0.000    0.714    0.000    2.571    0.000    0.000 
#    0.000    0.000    0.000    0.000    0.000    0.000 
#
# Total GULP energy -156209.258490 kJ/mol
# GULP energy per Si atom -5578.902089 kJ/mol
# Density = 1.707888 g / cm^3
# Si number density = 17.117841 Si / 1000 Ang^3
#
#
#
# Elastic Constant Matrix: (Units=GPa)
#
#
# Indices 1 2 3 4 5 6 
#
# 1 101.1250 40.1045 75.0204 0.0000 -6.0291 0.0000
# 2 40.1045 38.4106 65.9687 0.0000 -4.2321 0.0000
# 3 75.0204 65.9687 195.2122 0.0000 -4.5102 0.0000
# 4 0.0000 0.0000 0.0000 34.9482 0.0000 -4.4466
# 5 -6.0291 -4.2321 -4.5102 0.0000 23.2494 0.0000
# 6 0.0000 0.0000 0.0000 -4.4466 0.0000 12.5616
#
#
#
# Elastic Compliance Matrix: (Units=1/GPa)
#
#
# Indices 1 2 3 4 5 6 
#
# 1 0.017052 -0.015378 -0.001325 0.000000 0.001366 0.000000
# 2 -0.015378 0.077157 -0.020021 0.000000 0.006173 0.000000
# 3 -0.001325 -0.020021 0.012361 0.000000 -0.001590 0.000000
# 4 0.000000 0.000000 0.000000 0.029963 0.000000 0.010607
# 5 0.001366 0.006173 -0.001590 0.000000 0.044181 0.000000
# 6 0.000000 0.000000 0.000000 0.010607 0.000000 0.083362
#
#
# Mechanical properties :
#
#
# Convention : Reuss Voigt Hill
#
# Bulk Modulus (GPa) = 30.19230 77.43723 53.81477
# Shear Modulus (GPa) = 14.34455 24.39545 19.37000
#
# Velocity S-wave (km/s) = 2.89794 3.77921 3.36753
# Velocity P-wave (km/s) = 5.37342 8.02366 6.82835
#
# Compressibility (1/GPa) = 0.03312103
#
# Stress axis : x y z
#
# Youngs Moduli (GPa) = 58.64580 12.96061 80.90043
#
# Poissons Ratio (x) = 0.19931 0.10716
# Poissons Ratio (y) = 0.90186 1.61975
# Poissons Ratio (z) = 0.07768 0.25949
#
# Static dielectric constant tensor:
#      x y z
#    x 1.564390 0.000000 0.007800 
#    y 0.000000 1.571590 0.000000 
#    z 0.007800 0.000000 1.566640 
# 
# From -- ./inp_files/280928.got.cif
#   From: 2010.05.17/outbox.cif.g08.bks.cpg/sg12_141_cif.got.tgz:280928.got - 2010.06.03 13:09:07.
