data_PCOD9173677
_publ_section_title
;
Structure prediction by ZEFSAII (Michael W. Deem and Ramdas Pophale) SiO2 
 PCOD9173677
Probable space group: C 2/M
;
_chemical_formula_sum "Si O2"
_cell_formula_units_Z 64
_cell_length_a 25.537401
_cell_length_b 9.187190
_cell_length_c 21.648394
_cell_angle_alpha 90.000000
_cell_angle_beta 127.312168
_cell_angle_gamma 90.000000
_cell_volume 4039.619930
_symmetry_space_group_name_H-M "C 2/M"
_symmetry_group_IT_number 12
_symmetry_cell_setting 'monoclinic'
loop_
_space_group_symop_operation_xyz
x,y,z
-x,y,-z
-x,-y,-z
x,-y,z
1/2+x,1/2+y,z
1/2-x,1/2+y,-z
1/2-x,1/2-y,-z
1/2+x,1/2-y,z
loop_
_atom_site_type_symbol
_atom_site_label
_atom_site_fract_x
_atom_site_fract_y
_atom_site_fract_z
Si Si1 0.944636 0.174255 0.179391
Si Si2 0.642820 0.672550 0.661342
Si Si3 0.002638 0.672831 0.899445
Si Si4 0.251363 0.671860 0.818337
Si Si5 0.609231 0.172730 0.081467
Si Si6 0.486817 0.327938 0.347633
Si Si7 0.434386 0.167623 0.496177
Si Si8 0.696844 0.826806 0.917995
O O1 0.989145 0.232860 0.155628
O O2 0.975965 0.209386 0.268485
O O3 0.874142 0.253362 0.123983
O O4 0.935702 0.000000 0.169697
O O5 0.651764 0.500000 0.661557
O O6 0.706370 0.747200 0.736110
O O7 0.582281 0.697397 0.666013
O O8 0.619812 0.742747 0.580466
O O9 0.003658 0.500000 0.885949
O O10 0.937384 0.702618 0.892920
O O11 0.064335 0.702214 0.989195
O O12 0.252241 0.500000 0.806666
O O13 0.324490 0.736331 0.871143
O O14 0.219589 0.693887 0.863415
O O15 0.624222 0.000000 0.092014
O O16 0.501001 0.500000 0.363112
O O17 0.542609 0.238942 0.423389
O O18 0.500000 0.171696 0.500000
O O19 0.415049 0.000000 0.489723
O O20 0.693622 0.000000 0.928427
O O21 0.750000 0.750000 0.000000
#
# Coordination Sequence:
#
# PCOD9173677 Si02
#       8
#     8   8   8   8   8   8   8   8
#     4  11  21  33  50  74 102 132 167 206 247 294
#     4  10  18  31  49  68  97 135 167 199 241 294
#     4   9  19  36  55  74  95 127 169 213 255 298
#     4  11  22  33  48  73 101 129 166 209 251 292
#     4   9  19  36  55  72  95 128 169 211 255 302
#     4   9  18  31  46  68  98 133 168 198 237 294
#     4   9  17  28  45  69  97 128 163 203 243 284
#     4  11  23  35  48  68  99 135 168 203 246 299
#
# _framework density 15.843075000000001
#
# number of rings (size 3 to 8) (size 9 to 14) (size 15 to 20)
#    0.000    2.125    1.250    3.375    0.000    7.500 
#    0.000    1.250    0.000    0.000    0.000    0.875 
#    0.000    0.000    0.000    0.000    0.000    0.000 
#
# Total GULP energy -178586.185234 kJ/mol
# GULP energy per Si atom -5580.818289 kJ/mol
# Density = 1.580702 g / cm^3
# Si number density = 15.843075 Si / 1000 Ang^3
#
#
#
# Elastic Constant Matrix: (Units=GPa)
#
#
# Indices 1 2 3 4 5 6 
#
# 1 37.1459 28.7788 13.9378 0.0000 -10.9722 0.0000
# 2 28.7788 62.2774 41.1551 0.0000 -8.7672 0.0000
# 3 13.9378 41.1551 63.7452 0.0000 -17.9189 0.0000
# 4 0.0000 0.0000 0.0000 30.9458 0.0000 0.1954
# 5 -10.9722 -8.7672 -17.9189 0.0000 20.0310 0.0000
# 6 0.0000 0.0000 0.0000 0.1954 0.0000 25.5522
#
#
#
# Elastic Compliance Matrix: (Units=1/GPa)
#
#
# Indices 1 2 3 4 5 6 
#
# 1 0.055165 -0.033081 0.018329 0.000000 0.032135 0.000000
# 2 -0.033081 0.048260 -0.030834 0.000000 -0.024581 0.000000
# 3 0.018329 -0.030834 0.040901 0.000000 0.033132 0.000000
# 4 0.000000 0.000000 0.000000 0.032316 0.000000 -0.000247
# 5 0.032135 -0.024581 0.033132 0.000000 0.086405 0.000000
# 6 0.000000 0.000000 0.000000 -0.000247 0.000000 0.039138
#
#
# Mechanical properties :
#
#
# Convention : Reuss Voigt Hill
#
# Bulk Modulus (GPa) = 18.81348 36.76799 27.79073
# Shear Modulus (GPa) = 12.16327 20.59223 16.37775
#
# Velocity S-wave (km/s) = 2.77381 3.60913 3.21868
# Velocity P-wave (km/s) = 4.70737 6.37384 5.60291
#
# Compressibility (1/GPa) = 0.05315339
#
# Stress axis : x y z
#
# Youngs Moduli (GPa) = 18.12756 20.72115 24.44945
#
# Poissons Ratio (x) = 0.68547 -0.44813
# Poissons Ratio (y) = 0.59967 0.75388
# Poissons Ratio (z) = -0.33226 0.63892
#
# Static dielectric constant tensor:
#      x y z
#    x 1.508840 0.000000 -0.010850 
#    y 0.000000 1.525910 0.000000 
#    z -0.010850 0.000000 1.512180 
# 
# From -- ./inp_files/324092.got.cif
#   From: 2010.05.17/outbox.cif.g08.bks.cpg/sg12_163_cif.got.tgz:324092.got - 2010.06.03 13:09:07.
