data_PCOD9173156
_publ_section_title
;
Structure prediction by ZEFSAII (Michael W. Deem and Ramdas Pophale) SiO2 
 PCOD9173156
Probable space group: C 2/M
;
_chemical_formula_sum "Si O2"
_cell_formula_units_Z 56
_cell_length_a 19.005623
_cell_length_b 7.758345
_cell_length_c 18.076229
_cell_angle_alpha 90.000000
_cell_angle_beta 64.902756
_cell_angle_gamma 90.000000
_cell_volume 2413.738783
_symmetry_space_group_name_H-M "C 2/M"
_symmetry_group_IT_number 12
_symmetry_cell_setting 'monoclinic'
loop_
_space_group_symop_operation_xyz
x,y,z
-x,y,-z
-x,-y,-z
x,-y,z
1/2+x,1/2+y,z
1/2-x,1/2+y,-z
1/2-x,1/2-y,-z
1/2+x,1/2-y,z
loop_
_atom_site_type_symbol
_atom_site_label
_atom_site_fract_x
_atom_site_fract_y
_atom_site_fract_z
Si Si1 0.927246 0.807327 0.618939
Si Si2 0.135338 0.697339 0.723216
Si Si3 0.341243 0.793229 0.968571
Si Si4 0.321931 0.789381 0.137163
Si Si5 0.407241 0.791712 0.411581
Si Si6 0.791585 0.696353 0.581419
Si Si7 0.639980 0.795970 0.199606
O O1 0.865481 0.693223 0.603417
O O2 0.904184 0.796520 0.715263
O O3 0.016742 0.756062 0.576935
O O4 0.916492 0.000000 0.595616
O O5 0.108408 0.500000 0.744068
O O6 0.139714 0.773030 0.803528
O O7 0.089045 0.774225 0.674360
O O8 0.223341 0.699967 0.651543
O O9 0.378772 0.731388 0.875174
O O10 0.349336 0.000000 0.964306
O O11 0.250000 0.750000 0.000000
O O12 0.362257 0.734548 0.041989
O O13 0.232373 0.729199 0.172542
O O14 0.320112 0.000000 0.140034
O O15 0.330136 0.732808 0.489014
O O16 0.402548 0.000000 0.410901
O O17 0.764573 0.500000 0.583961
O O18 0.622465 0.000000 0.211748
#
# Coordination Sequence:
#
# PCOD9173156 Si02
#       7
#     8   8   8   8   8   8   8
#     4  12  24  37  55  78 105 139 181 227 270 316
#     4  10  20  35  57  82 111 142 174 214 261 314
#     4   8  15  26  44  73 106 136 168 208 256 307
#     4   9  16  29  50  78 109 138 170 211 257 310
#     4  10  23  40  55  77 108 143 178 217 266 317
#     4  11  22  37  58  80 106 138 177 222 266 317
#     4  10  18  30  50  76 106 139 174 215 262 314
#
# _framework density 23.200524000000001
#
# number of rings (size 3 to 8) (size 9 to 14) (size 15 to 20)
#    0.000    2.000    1.429    3.000    0.000    4.000 
#    0.000    0.000    0.000    0.857    0.000    6.000 
#    0.000    0.000    0.000    0.000    0.000    0.000 
#
# Total GULP energy -156353.475412 kJ/mol
# GULP energy per Si atom -5584.052693 kJ/mol
# Density = 2.314772 g / cm^3
# Si number density = 23.200524 Si / 1000 Ang^3
#
#
#
# Elastic Constant Matrix: (Units=GPa)
#
#
# Indices 1 2 3 4 5 6 
#
# 1 69.5311 4.1963 4.6055 0.0000 24.2216 0.0000
# 2 4.1963 59.3589 3.4116 0.0001 4.3595 0.0003
# 3 4.6055 3.4116 105.9021 0.0000 43.7676 0.0000
# 4 0.0000 0.0001 0.0000 18.8289 0.0000 -1.0596
# 5 24.2216 4.3595 43.7676 0.0000 42.9705 0.0000
# 6 0.0000 0.0003 0.0000 -1.0596 0.0000 11.9397
#
#
#
# Elastic Compliance Matrix: (Units=1/GPa)
#
#
# Indices 1 2 3 4 5 6 
#
# 1 0.020293 -0.000483 0.006632 0.000000 -0.018144 0.000000
# 2 -0.000483 0.016990 0.000127 0.000000 -0.001581 0.000000
# 3 0.006632 0.000127 0.018479 0.000000 -0.022573 0.000000
# 4 0.000000 0.000000 0.000000 0.053376 0.000000 0.004737
# 5 -0.018144 -0.001581 -0.022573 0.000000 0.056652 0.000000
# 6 0.000000 0.000000 0.000000 0.004737 0.000000 0.084175
#
#
# Mechanical properties :
#
#
# Convention : Reuss Voigt Hill
#
# Bulk Modulus (GPa) = 14.63850 28.80210 21.72030
# Shear Modulus (GPa) = 19.21717 29.58642 24.40179
#
# Velocity S-wave (km/s) = 2.88116 3.57494 3.24663
# Velocity P-wave (km/s) = 4.17029 5.42969 4.84112
#
# Compressibility (1/GPa) = 0.06831303
#
# Stress axis : x y z
#
# Youngs Moduli (GPa) = 49.27886 58.85943 54.11445
#
# Poissons Ratio (x) = 0.02844 -0.35888
# Poissons Ratio (y) = 0.02381 -0.00687
# Poissons Ratio (z) = -0.32681 -0.00747
#
# Static dielectric constant tensor:
#      x y z
#    x 1.861780 0.000000 0.058160 
#    y 0.000000 1.828130 0.000000 
#    z 0.058160 0.000000 1.930140 
# 
# From -- ./inp_files/281038.got.cif
#   From: 2010.05.17/outbox.cif.g08.bks.cpg/sg12_141_cif.got.tgz:281038.got - 2010.06.03 13:09:07.
