data_PCOD9173667
_publ_section_title
;
Structure prediction by ZEFSAII (Michael W. Deem and Ramdas Pophale) SiO2 
 PCOD9173667
Probable space group: C 2/M
;
_chemical_formula_sum "Si O2"
_cell_formula_units_Z 48
_cell_length_a 24.939098
_cell_length_b 7.939282
_cell_length_c 15.627311
_cell_angle_alpha 90.000000
_cell_angle_beta 74.220883
_cell_angle_gamma 90.000000
_cell_volume 2977.587000
_symmetry_space_group_name_H-M "C 2/M"
_symmetry_group_IT_number 12
_symmetry_cell_setting 'monoclinic'
loop_
_space_group_symop_operation_xyz
x,y,z
-x,y,-z
-x,-y,-z
x,-y,z
1/2+x,1/2+y,z
1/2-x,1/2+y,-z
1/2-x,1/2-y,-z
1/2+x,1/2-y,z
loop_
_atom_site_type_symbol
_atom_site_label
_atom_site_fract_x
_atom_site_fract_y
_atom_site_fract_z
Si Si1 0.407659 0.500000 0.561214
Si Si2 0.335743 0.800903 0.008970
Si Si3 0.974685 0.687956 0.746238
Si Si4 0.275000 0.203045 0.861632
Si Si5 0.019225 0.000000 0.630932
Si Si6 0.137904 0.696646 0.317271
Si Si7 0.958567 0.802865 0.944664
O O1 0.464210 0.500000 0.594068
O O2 0.428177 0.500000 0.454827
O O3 0.375020 0.331591 0.603639
O O4 0.287337 0.768890 0.098866
O O5 0.345458 0.000000 0.996663
O O6 0.310344 0.737783 0.929296
O O7 0.394608 0.716464 0.000851
O O8 0.995658 0.500000 0.718582
O O9 0.914456 0.703913 0.725997
O O10 0.966162 0.711764 0.850808
O O11 0.013348 0.833731 0.691098
O O12 0.308005 0.246922 0.761496
O O13 0.273336 0.000000 0.866827
O O14 0.142456 0.500000 0.342454
O O15 0.970723 0.000000 0.924994
O O16 0.000000 0.739034 0.000000
#
# Coordination Sequence:
#
# PCOD9173667 Si02
#       7
#     4   8   8   8   4   8   8
#     4   9  18  28  46  66  94 128 155 196 248 285
#     4  10  19  29  44  67  91 125 167 198 234 281
#     4  10  18  31  49  66  91 129 164 198 237 285
#     4   9  17  29  43  65  95 126 160 197 235 281
#     4   9  18  32  43  68  94 122 163 200 238 292
#     4   9  17  28  45  68  95 127 161 192 237 293
#     4  11  22  34  48  67  95 132 169 205 242 282
#
# _framework density 16.120435000000001
#
# number of rings (size 3 to 8) (size 9 to 14) (size 15 to 20)
#    0.000    2.333    2.500    1.000    1.167    2.667 
#    0.000    3.333    0.000    0.000    0.000    0.000 
#    0.000    1.333    0.667    0.000    0.000    0.000 
#
# Total GULP energy -133794.797293 kJ/mol
# GULP energy per Si atom -5574.783221 kJ/mol
# Density = 1.608374 g / cm^3
# Si number density = 16.120435 Si / 1000 Ang^3
#
#
#
# Elastic Constant Matrix: (Units=GPa)
#
#
# Indices 1 2 3 4 5 6 
#
# 1 58.5442 17.8516 36.1153 0.0000 -9.7871 0.0000
# 2 17.8516 80.7854 50.5004 0.0000 -14.1989 0.0000
# 3 36.1153 50.5004 89.6643 0.0000 -30.7629 0.0000
# 4 0.0000 0.0000 0.0000 15.7789 0.0000 -5.0876
# 5 -9.7871 -14.1989 -30.7629 0.0000 21.0950 0.0000
# 6 0.0000 0.0000 0.0000 -5.0876 0.0000 12.8410
#
#
#
# Elastic Compliance Matrix: (Units=1/GPa)
#
#
# Indices 1 2 3 4 5 6 
#
# 1 0.023176 0.001470 -0.012277 0.000000 -0.006161 0.000000
# 2 0.001470 0.019543 -0.013713 0.000000 -0.006161 0.000000
# 3 -0.012277 -0.013713 0.037425 0.000000 0.039651 0.000000
# 4 0.000000 0.000000 0.000000 0.072657 0.000000 0.028787
# 5 -0.006161 -0.006161 0.039651 0.000000 0.098222 0.000000
# 6 0.000000 0.000000 0.000000 0.028787 0.000000 0.089281
#
#
# Mechanical properties :
#
#
# Convention : Reuss Voigt Hill
#
# Bulk Modulus (GPa) = 32.14954 48.65872 40.40413
# Shear Modulus (GPa) = 12.50900 18.24475 15.37687
#
# Velocity S-wave (km/s) = 2.78865 3.36784 3.09184
# Velocity P-wave (km/s) = 5.50957 6.73596 6.15339
#
# Compressibility (1/GPa) = 0.03110465
#
# Stress axis : x y z
#
# Youngs Moduli (GPa) = 43.14742 51.16941 26.72016
#
# Poissons Ratio (x) = -0.07523 0.32804
# Poissons Ratio (y) = -0.06344 0.36641
# Poissons Ratio (z) = 0.52972 0.70169
#
# Static dielectric constant tensor:
#      x y z
#    x 1.522040 0.000000 -0.013850 
#    y 0.000000 1.569610 0.000000 
#    z -0.013850 0.000000 1.525760 
# 
# From -- ./inp_files/172996.got.cif
#   From: 2010.05.17/outbox.cif.g08.bks.cpg/sg12_87_cif.got.tgz:172996.got - 2010.06.03 13:09:07.
