data_PCOD9173114
_publ_section_title
;
Structure prediction by ZEFSAII (Michael W. Deem and Ramdas Pophale) SiO2 
 PCOD9173114
Probable space group: C 2/M
;
_chemical_formula_sum "Si O2"
_cell_formula_units_Z 40
_cell_length_a 18.228716
_cell_length_b 13.595546
_cell_length_c 14.703372
_cell_angle_alpha 90.000000
_cell_angle_beta 33.256313
_cell_angle_gamma 90.000000
_cell_volume 1998.276301
_symmetry_space_group_name_H-M "C 2/M"
_symmetry_group_IT_number 12
_symmetry_cell_setting 'monoclinic'
loop_
_space_group_symop_operation_xyz
x,y,z
-x,y,-z
-x,-y,-z
x,-y,z
1/2+x,1/2+y,z
1/2-x,1/2+y,-z
1/2-x,1/2-y,-z
1/2+x,1/2-y,z
loop_
_atom_site_type_symbol
_atom_site_label
_atom_site_fract_x
_atom_site_fract_y
_atom_site_fract_z
Si Si1 0.106200 0.615512 0.675794
Si Si2 0.104370 0.705712 0.973483
Si Si3 0.379807 0.304842 0.449322
Si Si4 0.629503 0.385177 0.273668
Si Si5 0.904384 0.887663 0.896053
O O1 0.115254 0.500000 0.646571
O O2 0.232047 0.652311 0.605861
O O3 0.113201 0.689470 0.582121
O O4 0.973061 0.639874 0.871042
O O5 0.135950 0.810279 0.986931
O O6 0.246422 0.658722 0.801459
O O7 0.000000 0.716734 0.000000
O O8 0.483574 0.334589 0.420365
O O9 0.445578 0.358971 0.292228
O O10 0.612731 0.500000 0.310072
O O11 0.671199 0.375773 0.122317
O O12 0.895941 0.000000 0.933778
#
# Coordination Sequence:
#
# PCOD9173114 Si02
#       5
#     8   8   8   8   8
#     4  10  18  30  50  74  99 124 158 203 245 283
#     4  11  22  32  45  73 108 132 157 197 242 291
#     4   8  17  32  51  74  93 120 165 207 241 280
#     4   9  17  33  53  70  95 128 163 202 244 285
#     4   8  16  32  55  71  89 124 168 206 240 280
#
# _framework density 20.017251999999999
#
# number of rings (size 3 to 8) (size 9 to 14) (size 15 to 20)
#    1.200    1.600    0.000    2.400    0.000    2.000 
#    0.000    1.000    0.000    2.400    0.000    0.000 
#    0.000   11.200    0.000    0.000    0.000    0.000 
#
# Total GULP energy -111395.090153 kJ/mol
# GULP energy per Si atom -5569.754508 kJ/mol
# Density = 1.997169 g / cm^3
# Si number density = 20.017252 Si / 1000 Ang^3
#
#
#
# Elastic Constant Matrix: (Units=GPa)
#
#
# Indices 1 2 3 4 5 6 
#
# 1 77.1119 44.3928 23.9848 0.0000 -16.8817 0.0000
# 2 44.3928 147.6445 20.0471 0.0000 -2.3523 0.0000
# 3 23.9848 20.0471 76.6901 0.0000 -24.7487 0.0000
# 4 0.0000 0.0000 0.0000 11.4723 0.0000 -6.9282
# 5 -16.8817 -2.3523 -24.7487 0.0000 21.6103 0.0000
# 6 0.0000 0.0000 0.0000 -6.9282 0.0000 -1.3492
#
#
#
# Elastic Compliance Matrix: (Units=1/GPa)
#
#
# Indices 1 2 3 4 5 6 
#
# 1 0.019367 -0.005609 0.000150 0.000000 0.014690 0.000000
# 2 -0.005609 0.008709 -0.002586 0.000000 -0.006396 0.000000
# 3 0.000150 -0.002586 0.021598 0.000000 0.024570 0.000000
# 4 0.000000 0.000000 0.000000 0.021255 0.000000 -0.109143
# 5 0.014690 -0.006396 0.024570 0.000000 0.085192 0.000000
# 6 0.000000 0.000000 0.000000 -0.109143 0.000000 -0.180729
#
#
# Mechanical properties :
#
#
# Convention : Reuss Voigt Hill
#
# Bulk Modulus (GPa) = 29.77761 53.14400 41.46080
# Shear Modulus (GPa) = 1868.67555 20.54814 944.61185
#
# Velocity S-wave (km/s) = 30.58691 3.20741 21.74680
# Velocity P-wave (km/s) = 35.52915 6.35007 25.52101
#
# Compressibility (1/GPa) = 0.03358228
#
# Stress axis : x y z
#
# Youngs Moduli (GPa) = 51.63450 114.82520 46.30159
#
# Poissons Ratio (x) = 0.64411 -0.00695
# Poissons Ratio (y) = 0.28964 0.11974
# Poissons Ratio (z) = -0.00775 0.29696
#
# Static dielectric constant tensor:
#      x y z
#    x 1.756610 0.000000 0.026820 
#    y 0.000000 1.676360 0.000000 
#    z 0.026820 0.000000 1.744960 
# 
# From -- ./inp_files/283148.got.cif
#   From: 2010.05.17/outbox.cif.g08.bks.cpg/sg12_142_cif.got.tgz:283148.got - 2010.06.03 13:09:07.
