data_PCOD9173592
_publ_section_title
;
Structure prediction by ZEFSAII (Michael W. Deem and Ramdas Pophale) SiO2 
 PCOD9173592
Probable space group: C 2/M
;
_chemical_formula_sum "Si O2"
_cell_formula_units_Z 56
_cell_length_a 12.105364
_cell_length_b 24.685490
_cell_length_c 11.837168
_cell_angle_alpha 90.000000
_cell_angle_beta 71.442791
_cell_angle_gamma 90.000000
_cell_volume 3353.348319
_symmetry_space_group_name_H-M "C 2/M"
_symmetry_group_IT_number 12
_symmetry_cell_setting 'monoclinic'
loop_
_space_group_symop_operation_xyz
x,y,z
-x,y,-z
-x,-y,-z
x,-y,z
1/2+x,1/2+y,z
1/2-x,1/2+y,-z
1/2-x,1/2-y,-z
1/2+x,1/2-y,z
loop_
_atom_site_type_symbol
_atom_site_label
_atom_site_fract_x
_atom_site_fract_y
_atom_site_fract_z
Si Si1 0.250821 0.844830 0.157381
Si Si2 0.862351 0.663102 0.532809
Si Si3 0.584756 0.940990 0.363905
Si Si4 0.971916 0.812687 0.885504
Si Si5 0.722965 0.726533 0.743624
Si Si6 0.412218 0.877539 0.272938
Si Si7 0.382502 0.806715 0.896276
O O1 0.116983 0.847441 0.160949
O O2 0.265584 0.789266 0.225222
O O3 0.311288 0.889802 0.215898
O O4 0.326021 0.837706 0.019107
O O5 0.839259 0.610667 0.621762
O O6 0.785180 0.711097 0.606673
O O7 0.852874 0.646245 0.405812
O O8 0.000000 0.676747 0.500000
O O9 0.500000 0.945309 0.500000
O O10 0.500084 0.923930 0.288781
O O11 0.639812 0.000000 0.327886
O O12 0.906558 0.754986 0.927061
O O13 0.091767 0.795518 0.787078
O O14 0.000000 0.836138 0.000000
O O15 0.794318 0.696741 0.820504
O O16 0.499600 0.834390 0.185885
#
# Coordination Sequence:
#
# PCOD9173592 Si02
#       7
#     8   8   8   8   8   8   8
#     4  11  21  28  45  66  96 132 166 196 230 272
#     4   9  18  31  48  69  97 122 150 195 241 293
#     4   8  15  30  53  74  91 116 154 199 247 292
#     4  11  18  29  42  64  89 128 174 198 215 263
#     4  11  18  30  46  65  92 129 169 197 225 268
#     4  10  18  31  46  72  99 120 153 194 247 287
#     4  11  17  30  47  65  91 128 163 208 224 264
#
# _framework density 16.699726999999999
#
# number of rings (size 3 to 8) (size 9 to 14) (size 15 to 20)
#    0.000    2.143    7.143    1.286    0.000    0.571 
#    0.000    0.714    0.000    1.714    0.000    1.000 
#    0.000   12.571    0.000    0.000    0.000    0.000 
#
# Total GULP energy -155880.388860 kJ/mol
# GULP energy per Si atom -5567.156745 kJ/mol
# Density = 1.666172 g / cm^3
# Si number density = 16.699727 Si / 1000 Ang^3
#
#
#
# Elastic Constant Matrix: (Units=GPa)
#
#
# Indices 1 2 3 4 5 6 
#
# 1 91.0442 -0.6255 21.5912 0.0000 14.1727 0.0000
# 2 -0.6255 29.2903 10.9082 0.0000 0.2397 0.0000
# 3 21.5912 10.9082 57.8833 0.0000 3.4826 0.0000
# 4 0.0000 0.0000 0.0000 2.7354 0.0000 -1.0782
# 5 14.1727 0.2397 3.4826 0.0000 28.7386 0.0000
# 6 0.0000 0.0000 0.0000 -1.0782 0.0000 5.4198
#
#
#
# Elastic Compliance Matrix: (Units=1/GPa)
#
#
# Indices 1 2 3 4 5 6 
#
# 1 0.013083 0.002165 -0.004935 0.000000 -0.005872 0.000000
# 2 0.002165 0.037085 -0.007770 0.000000 -0.000436 0.000000
# 3 -0.004935 -0.007770 0.020581 0.000000 0.000004 0.000000
# 4 0.000000 0.000000 0.000000 0.396682 0.000000 0.078913
# 5 -0.005872 -0.000436 0.000004 0.000000 0.037695 0.000000
# 6 0.000000 0.000000 0.000000 0.078913 0.000000 0.200207
#
#
# Mechanical properties :
#
#
# Convention : Reuss Voigt Hill
#
# Bulk Modulus (GPa) = 20.13326 26.88506 23.50916
# Shear Modulus (GPa) = 6.72976 17.13502 11.93239
#
# Velocity S-wave (km/s) = 2.00963 3.20670 2.67596
# Velocity P-wave (km/s) = 4.17936 5.46302 4.86373
#
# Compressibility (1/GPa) = 0.04966906
#
# Stress axis : x y z
#
# Youngs Moduli (GPa) = 76.43542 26.96542 48.58871
#
# Poissons Ratio (x) = -0.05839 0.23978
# Poissons Ratio (y) = -0.16550 0.37754
# Poissons Ratio (z) = 0.37720 0.20952
#
# Static dielectric constant tensor:
#      x y z
#    x 1.605860 0.000000 0.025180 
#    y 0.000000 1.594840 0.000000 
#    z 0.025180 0.000000 1.585620 
# 
# From -- ./inp_files/134836.got.cif
#   From: 2010.05.17/outbox.cif.g08.bks.cpg/sg12_68_cif.got.tgz:134836.got - 2010.06.03 13:09:07.
