data_PCOD9173717
_publ_section_title
;
Structure prediction by ZEFSAII (Michael W. Deem and Ramdas Pophale) SiO2 
 PCOD9173717
Probable space group: C 2/M
;
_chemical_formula_sum "Si O2"
_cell_formula_units_Z 40
_cell_length_a 29.162084
_cell_length_b 7.747134
_cell_length_c 21.600509
_cell_angle_alpha 90.000000
_cell_angle_beta 150.890297
_cell_angle_gamma 90.000000
_cell_volume 2374.059434
_symmetry_space_group_name_H-M "C 2/M"
_symmetry_group_IT_number 12
_symmetry_cell_setting 'monoclinic'
loop_
_space_group_symop_operation_xyz
x,y,z
-x,y,-z
-x,-y,-z
x,-y,z
1/2+x,1/2+y,z
1/2-x,1/2+y,-z
1/2-x,1/2-y,-z
1/2+x,1/2-y,z
loop_
_atom_site_type_symbol
_atom_site_label
_atom_site_fract_x
_atom_site_fract_y
_atom_site_fract_z
Si Si1 0.366768 0.203579 0.964748
Si Si2 0.899385 0.000000 0.302272
Si Si3 0.737677 0.700554 0.285344
Si Si4 0.274372 0.802046 0.098591
Si Si5 0.049734 0.791982 0.121896
Si Si6 0.118901 0.000000 0.570433
O O1 0.316862 0.285271 0.845210
O O2 0.318185 0.281567 0.967684
O O3 0.347271 0.000000 0.940265
O O4 0.479051 0.231421 0.091691
O O5 0.849828 0.831656 0.215182
O O6 0.882571 0.000000 0.356353
O O7 0.010870 0.000000 0.422089
O O8 0.763511 0.500000 0.325015
O O9 0.659094 0.755165 0.243681
O O10 0.823947 0.831601 0.384239
O O11 0.306659 0.000000 0.139259
O O12 0.250000 0.750000 0.000000
O O13 0.047105 0.000000 0.118149
O O14 0.000000 0.727518 0.000000
#
# Coordination Sequence:
#
# PCOD9173717 Si02
#       6
#     8   4   8   8   8   4
#     4  11  18  29  48  77 110 140 176 217 272 326
#     4  11  24  40  51  86 107 145 185 226 267 320
#     4  10  18  31  49  74 108 147 176 212 267 323
#     4  12  22  38  59  78 109 140 181 229 274 315
#     4   8  16  26  42  71 106 139 174 211 263 326
#     4  11  22  36  56  75 120 143 184 218 262 332
#
# _framework density 16.848779
#
# number of rings (size 3 to 8) (size 9 to 14) (size 15 to 20)
#    0.000    1.600    5.000    3.000    1.400    2.000 
#    0.000    2.000    0.000    0.000    0.000    1.400 
#    0.000    0.000    0.000    0.000    0.000    0.000 
#
# Total GULP energy -111534.422708 kJ/mol
# GULP energy per Si atom -5576.721135 kJ/mol
# Density = 1.681043 g / cm^3
# Si number density = 16.848779 Si / 1000 Ang^3
#
#
#
# Elastic Constant Matrix: (Units=GPa)
#
#
# Indices 1 2 3 4 5 6 
#
# 1 104.0790 34.3287 60.5516 0.0000 28.1043 0.0000
# 2 34.3287 131.9458 53.9441 0.0000 20.5588 0.0000
# 3 60.5516 53.9441 79.6934 0.0000 28.6985 0.0000
# 4 0.0000 0.0000 0.0000 7.6901 0.0000 7.1881
# 5 28.1043 20.5588 28.6985 0.0000 32.5480 0.0000
# 6 0.0000 0.0000 0.0000 7.1881 0.0000 25.7830
#
#
#
# Elastic Compliance Matrix: (Units=1/GPa)
#
#
# Indices 1 2 3 4 5 6 
#
# 1 0.017929 0.001312 -0.012656 0.000000 -0.005151 0.000000
# 2 0.001312 0.010581 -0.007831 0.000000 -0.000912 0.000000
# 3 -0.012656 -0.007831 0.031867 0.000000 -0.012223 0.000000
# 4 0.000000 0.000000 0.000000 0.175866 0.000000 -0.049030
# 5 -0.005151 -0.000912 -0.012223 0.000000 0.046525 0.000000
# 6 0.000000 0.000000 0.000000 -0.049030 0.000000 0.052454
#
#
# Mechanical properties :
#
#
# Convention : Reuss Voigt Hill
#
# Bulk Modulus (GPa) = 45.39786 68.15191 56.77489
# Shear Modulus (GPa) = 13.12628 24.33048 18.72838
#
# Velocity S-wave (km/s) = 2.79420 3.80419 3.33762
# Velocity P-wave (km/s) = 6.11661 7.73517 6.97301
#
# Compressibility (1/GPa) = 0.02202747
#
# Stress axis : x y z
#
# Youngs Moduli (GPa) = 55.77448 94.50801 31.38071
#
# Poissons Ratio (x) = -0.12400 0.39716
# Poissons Ratio (y) = -0.07318 0.24574
# Poissons Ratio (z) = 0.70588 0.74009
#
# Static dielectric constant tensor:
#      x y z
#    x 1.593540 0.000000 0.039600 
#    y 0.000000 1.580400 0.000000 
#    z 0.039600 0.000000 1.546060 
# 
# From -- ./inp_files/172603.got.cif
#   From: 2010.05.17/outbox.cif.g08.bks.cpg/sg12_87_cif.got.tgz:172603.got - 2010.06.03 13:09:07.
