data_PCOD9173568
_publ_section_title
;
Structure prediction by ZEFSAII (Michael W. Deem and Ramdas Pophale) SiO2 
 PCOD9173568
Probable space group: C 2/M
;
_chemical_formula_sum "Si O2"
_cell_formula_units_Z 48
_cell_length_a 12.124184
_cell_length_b 15.693940
_cell_length_c 11.788184
_cell_angle_alpha 90.000000
_cell_angle_beta 98.018954
_cell_angle_gamma 90.000000
_cell_volume 2221.078829
_symmetry_space_group_name_H-M "C 2/M"
_symmetry_group_IT_number 12
_symmetry_cell_setting 'monoclinic'
loop_
_space_group_symop_operation_xyz
x,y,z
-x,y,-z
-x,-y,-z
x,-y,z
1/2+x,1/2+y,z
1/2-x,1/2+y,-z
1/2-x,1/2-y,-z
1/2+x,1/2-y,z
loop_
_atom_site_type_symbol
_atom_site_label
_atom_site_fract_x
_atom_site_fract_y
_atom_site_fract_z
Si Si1 0.537547 0.852042 0.382178
Si Si2 0.393130 0.092167 0.151651
Si Si3 0.859920 0.287274 0.954104
Si Si4 0.329022 0.345626 0.782305
Si Si5 0.495355 0.646937 0.368938
Si Si6 0.245700 0.662715 0.279072
O O1 0.500000 0.881133 0.500000
O O2 0.464492 0.893934 0.274056
O O3 0.517372 0.749658 0.372664
O O4 0.666111 0.868287 0.368401
O O5 0.263648 0.098950 0.169438
O O6 0.415365 0.000000 0.104962
O O7 0.419906 0.166030 0.065819
O O8 0.901970 0.206417 0.886575
O O9 0.815415 0.352303 0.850474
O O10 0.750000 0.250000 0.000000
O O11 0.408804 0.386789 0.700929
O O12 0.258390 0.266793 0.716327
O O13 0.500000 0.617961 0.500000
O O14 0.371273 0.632317 0.304622
#
# Coordination Sequence:
#
# PCOD9173568 Si02
#       6
#     8   8   8   8   8   8
#     4  10  21  33  54  82 119 144 182 236 287 336
#     4  11  21  37  58  83 113 152 196 227 280 345
#     4   8  16  35  54  76 112 147 186 235 278 328
#     4   8  18  33  56  85 115 146 188 236 283 327
#     4  10  18  30  59  90 112 144 185 241 287 333
#     4   9  18  34  54  83 112 145 184 234 291 327
#
# _framework density 21.61112
#
# number of rings (size 3 to 8) (size 9 to 14) (size 15 to 20)
#    1.000    1.667    1.667    0.000    2.333    3.000 
#    3.000    4.167    0.000    3.500    0.000    0.000 
#    0.000    0.000    0.000    0.000    0.000    0.000 
#
# Total GULP energy -133756.192223 kJ/mol
# GULP energy per Si atom -5573.174676 kJ/mol
# Density = 2.156193 g / cm^3
# Si number density = 21.611120 Si / 1000 Ang^3
#
#
#
# Elastic Constant Matrix: (Units=GPa)
#
#
# Indices 1 2 3 4 5 6 
#
# 1 90.8256 -3.0968 33.4035 0.0000 -21.3313 0.0000
# 2 -3.0968 37.2335 3.2872 0.0000 -3.6897 0.0000
# 3 33.4035 3.2872 102.4811 0.0000 -23.0684 0.0000
# 4 0.0000 0.0000 0.0000 -0.2288 0.0000 -2.3746
# 5 -21.3313 -3.6897 -23.0684 0.0000 43.9342 0.0000
# 6 0.0000 0.0000 0.0000 -2.3746 0.0000 -2.3407
#
#
#
# Elastic Compliance Matrix: (Units=1/GPa)
#
#
# Indices 1 2 3 4 5 6 
#
# 1 0.013463 0.001904 -0.003336 0.000000 0.004945 0.000000
# 2 0.001904 0.027367 -0.000877 0.000000 0.002763 0.000000
# 3 -0.003336 -0.000877 0.011899 0.000000 0.004554 0.000000
# 4 0.000000 0.000000 0.000000 0.458668 0.000000 -0.465317
# 5 0.004945 0.002763 0.004554 0.000000 0.027785 0.000000
# 6 0.000000 0.000000 0.000000 -0.465317 0.000000 0.044843
#
#
# Mechanical properties :
#
#
# Convention : Reuss Voigt Hill
#
# Bulk Modulus (GPa) = 20.78490 33.08090 26.93290
# Shear Modulus (GPa) = 8.26884 21.40269 14.83577
#
# Velocity S-wave (km/s) = 1.95819 3.15041 2.62293
# Velocity P-wave (km/s) = 3.84073 5.34546 4.65431
#
# Compressibility (1/GPa) = 0.04811184
#
# Stress axis : x y z
#
# Youngs Moduli (GPa) = 74.27514 36.54027 84.04353
#
# Poissons Ratio (x) = -0.06959 0.28040
# Poissons Ratio (y) = -0.14145 0.07368
# Poissons Ratio (z) = 0.24781 0.03203
#
# Static dielectric constant tensor:
#      x y z
#    x 1.858410 0.000000 0.019990 
#    y 0.000000 1.790260 0.000000 
#    z 0.019990 0.000000 1.800940 
# 
# From -- ./inp_files/131245.got.cif
#   From: 2010.05.17/outbox.cif.g08.bks.cpg/sg12_66_cif.got.tgz:131245.got - 2010.06.03 13:09:07.
