data_PCOD9173734
_publ_section_title
;
Structure prediction by ZEFSAII (Michael W. Deem and Ramdas Pophale) SiO2 
 PCOD9173734
Probable space group: C 2/M
;
_chemical_formula_sum "Si O2"
_cell_formula_units_Z 60
_cell_length_a 15.600538
_cell_length_b 19.816416
_cell_length_c 24.143948
_cell_angle_alpha 90.000000
_cell_angle_beta 147.245071
_cell_angle_gamma 90.000000
_cell_volume 4038.385962
_symmetry_space_group_name_H-M "C 2/M"
_symmetry_group_IT_number 12
_symmetry_cell_setting 'monoclinic'
loop_
_space_group_symop_operation_xyz
x,y,z
-x,y,-z
-x,-y,-z
x,-y,z
1/2+x,1/2+y,z
1/2-x,1/2+y,-z
1/2-x,1/2-y,-z
1/2+x,1/2-y,z
loop_
_atom_site_type_symbol
_atom_site_label
_atom_site_fract_x
_atom_site_fract_y
_atom_site_fract_z
Si Si1 0.000000 0.830015 0.000000
Si Si2 0.485837 0.748200 0.877977
Si Si3 0.127961 0.580785 0.301904
Si Si4 0.770268 0.420258 0.097812
Si Si5 0.689745 0.921194 0.110426
Si Si6 0.932103 0.921891 0.525784
Si Si7 0.723096 0.353285 0.955589
Si Si8 0.728999 0.646544 0.729203
O O1 0.028732 0.784876 0.069541
O O2 0.147622 0.877565 0.066559
O O3 0.567867 0.693119 0.882064
O O4 0.317085 0.781316 0.770874
O O5 0.620164 0.806283 0.955310
O O6 0.129830 0.500000 0.303491
O O7 0.251566 0.601215 0.416963
O O8 0.188499 0.603246 0.274622
O O9 0.947547 0.603031 0.209291
O O10 0.755815 0.500000 0.099472
O O11 0.737931 0.403985 0.015585
O O12 0.770769 0.889829 0.100005
O O13 0.731523 0.881184 0.188686
O O14 0.731885 0.000000 0.139359
O O15 0.500000 0.917030 0.000000
O O16 0.000000 0.925370 0.500000
O O17 0.043176 0.868990 0.618065
O O18 0.940204 0.000000 0.551742
#
# Coordination Sequence:
#
# PCOD9173734 Si02
#       8
#     4   8   8   8   8   8   8   8
#     4  10  21  32  44  66  91 124 156 184 214 260
#     4  10  19  30  44  58  87 123 155 176 207 262
#     4   9  16  28  46  70  93 116 144 185 235 270
#     4  10  18  31  50  68  90 114 149 194 230 258
#     4  11  19  26  40  64  92 115 141 181 227 270
#     4   8  15  26  43  67  93 114 143 185 229 272
#     4  10  19  31  41  62  89 122 154 175 210 267
#     4  11  17  28  43  67  89 118 147 176 218 264
#
# _framework density 14.857421
#
# number of rings (size 3 to 8) (size 9 to 14) (size 15 to 20)
#    0.000    2.133    2.667    3.400    0.000    2.133 
#    0.000    0.000    0.000    0.800    3.467    0.000 
#    0.000    0.000    0.000   18.000    0.000    0.000 
#
# Total GULP energy -167040.310353 kJ/mol
# GULP energy per Si atom -5568.010345 kJ/mol
# Density = 1.482360 g / cm^3
# Si number density = 14.857421 Si / 1000 Ang^3
#
#
#
# Elastic Constant Matrix: (Units=GPa)
#
#
# Indices 1 2 3 4 5 6 
#
# 1 67.6324 19.2402 24.8900 0.0001 5.3306 0.0000
# 2 19.2402 38.8999 24.5666 0.0003 3.1556 0.0002
# 3 24.8900 24.5666 90.5902 0.0008 10.7947 0.0003
# 4 0.0001 0.0003 0.0008 19.1451 0.0002 0.5607
# 5 5.3306 3.1556 10.7947 0.0002 13.0856 0.0001
# 6 0.0000 0.0002 0.0003 0.5607 0.0001 21.6984
#
#
#
# Elastic Compliance Matrix: (Units=1/GPa)
#
#
# Indices 1 2 3 4 5 6 
#
# 1 0.018013 -0.006954 -0.002649 0.000000 -0.003476 0.000000
# 2 -0.006954 0.033709 -0.007319 0.000000 0.000742 0.000000
# 3 -0.002649 -0.007319 0.014875 0.000000 -0.009426 0.000000
# 4 0.000000 0.000000 0.000000 0.052272 0.000000 -0.001351
# 5 -0.003476 0.000742 -0.009426 0.000000 0.085433 0.000000
# 6 0.000000 0.000000 0.000000 -0.001351 0.000000 0.046121
#
#
# Mechanical properties :
#
#
# Convention : Reuss Voigt Hill
#
# Bulk Modulus (GPa) = 30.53297 37.16844 33.85070
# Shear Modulus (GPa) = 16.93855 19.34754 18.14304
#
# Velocity S-wave (km/s) = 3.38016 3.61253 3.49828
# Velocity P-wave (km/s) = 5.98575 6.51702 6.25703
#
# Compressibility (1/GPa) = 0.03275149
#
# Stress axis : x y z
#
# Youngs Moduli (GPa) = 55.51522 29.66590 67.22881
#
# Poissons Ratio (x) = 0.20631 0.17809
# Poissons Ratio (y) = 0.38608 0.49204
# Poissons Ratio (z) = 0.14706 0.21712
#
# Static dielectric constant tensor:
#      x y z
#    x 1.473220 0.000000 0.023000 
#    y 0.000000 1.500850 0.000000 
#    z 0.023000 0.000000 1.523950 
# 
# From -- ./inp_files/341123.got.cif
#   From: 2010.05.17/outbox.cif.g08.bks.cpg/sg12_171_cif.got.tgz:341123.got - 2010.06.03 13:09:07.
