data_PCOD9173891
_publ_section_title
;
Structure prediction by ZEFSAII (Michael W. Deem and Ramdas Pophale) SiO2 
 PCOD9173891
Probable space group: C 2/M
;
_chemical_formula_sum "Si O2"
_cell_formula_units_Z 56
_cell_length_a 28.365644
_cell_length_b 7.339945
_cell_length_c 18.167353
_cell_angle_alpha 90.000000
_cell_angle_beta 141.049674
_cell_angle_gamma 90.000000
_cell_volume 2377.844955
_symmetry_space_group_name_H-M "C 2/M"
_symmetry_group_IT_number 12
_symmetry_cell_setting 'monoclinic'
loop_
_space_group_symop_operation_xyz
x,y,z
-x,y,-z
-x,-y,-z
x,-y,z
1/2+x,1/2+y,z
1/2-x,1/2+y,-z
1/2-x,1/2-y,-z
1/2+x,1/2-y,z
loop_
_atom_site_type_symbol
_atom_site_label
_atom_site_fract_x
_atom_site_fract_y
_atom_site_fract_z
Si Si1 0.789295 0.717909 0.627614
Si Si2 0.851441 0.221717 0.453535
Si Si3 0.255146 0.217495 0.919906
Si Si4 0.393853 0.722147 0.341558
Si Si5 0.490557 0.279888 0.325372
Si Si6 0.459183 0.222375 0.873161
Si Si7 0.914697 0.290562 0.083768
O O1 0.793605 0.500000 0.639564
O O2 0.750000 0.750000 0.500000
O O3 0.727481 0.785893 0.611299
O O4 0.873944 0.783766 0.749437
O O5 0.875912 0.280981 0.402152
O O6 0.924310 0.274373 0.589547
O O7 0.847981 0.000000 0.448733
O O8 0.179318 0.281652 0.791625
O O9 0.256481 0.000000 0.910477
O O10 0.250000 0.250000 0.000000
O O11 0.331906 0.291642 0.978618
O O12 0.399249 0.500000 0.351714
O O13 0.462941 0.777704 0.373218
O O14 0.487092 0.500000 0.320503
O O15 0.436429 0.213312 0.195883
O O16 0.516891 0.285890 0.880051
O O17 0.455515 0.000000 0.869105
O O18 0.500000 0.273611 0.000000
O O19 0.908378 0.500000 0.051450
#
# Coordination Sequence:
#
# PCOD9173891 Si02
#       7
#     8   8   8   8   8   8   8
#     4  10  20  35  56  78 103 135 173 217 260 306
#     4   9  18  30  50  77  98 124 166 211 248 285
#     4  10  19  31  49  73  99 129 162 199 242 292
#     4   9  17  29  47  72 100 125 158 204 246 283
#     4  10  18  31  51  74 100 131 164 200 243 297
#     4   9  19  34  53  78 104 133 174 220 260 299
#     4  10  20  32  50  74 101 131 163 202 247 296
#
# _framework density 23.550737999999999
#
# number of rings (size 3 to 8) (size 9 to 14) (size 15 to 20)
#    0.000    2.429    1.429    1.286    2.000    1.714 
#    0.000    0.000    0.000    6.000    0.000    0.000 
#    0.000    0.000    0.000    0.000    0.000    0.000 
#
# Total GULP energy -156258.605779 kJ/mol
# GULP energy per Si atom -5580.664492 kJ/mol
# Density = 2.349713 g / cm^3
# Si number density = 23.550738 Si / 1000 Ang^3
#
#
#
# Elastic Constant Matrix: (Units=GPa)
#
#
# Indices 1 2 3 4 5 6 
#
# 1 180.7009 2.9637 78.8883 0.0000 39.6142 0.0000
# 2 2.9637 90.7211 -1.9239 0.0000 10.1095 0.0000
# 3 78.8883 -1.9239 131.5931 0.0000 32.9268 0.0000
# 4 0.0000 0.0000 0.0000 -14.3511 0.0000 -31.2465
# 5 39.6142 10.1095 32.9268 0.0000 51.9760 0.0000
# 6 0.0000 0.0000 0.0000 -31.2465 0.0000 -23.8937
#
#
#
# Elastic Compliance Matrix: (Units=1/GPa)
#
#
# Indices 1 2 3 4 5 6 
#
# 1 0.008040 0.000063 -0.003901 0.000000 -0.003669 0.000000
# 2 0.000063 0.011348 0.000823 0.000000 -0.002777 0.000000
# 3 -0.003901 0.000823 0.010988 0.000000 -0.004147 0.000000
# 4 0.000000 0.000000 0.000000 0.037720 0.000000 -0.049328
# 5 -0.003669 -0.002777 -0.004147 0.000000 0.025204 0.000000
# 6 0.000000 0.000000 0.000000 -0.049328 0.000000 0.022656
#
#
# Mechanical properties :
#
#
# Convention : Reuss Voigt Hill
#
# Bulk Modulus (GPa) = 41.07526 62.54124 51.80825
# Shear Modulus (GPa) = 38.43181 24.28536 31.35859
#
# Velocity S-wave (km/s) = 4.04403 3.21470 3.65298
# Velocity P-wave (km/s) = 6.26774 6.35553 6.31179
#
# Compressibility (1/GPa) = 0.02434556
#
# Stress axis : x y z
#
# Youngs Moduli (GPa) = 124.37130 88.12447 91.01146
#
# Poissons Ratio (x) = -0.00559 0.35505
# Poissons Ratio (y) = -0.00789 -0.07487
# Poissons Ratio (z) = 0.48519 -0.07249
#
# Static dielectric constant tensor:
#      x y z
#    x 1.865550 0.000000 0.010450 
#    y 0.000000 1.946780 0.000000 
#    z 0.010450 0.000000 1.869330 
# 
# From -- ./inp_files/282793.got.cif
#   From: 2010.05.17/outbox.cif.g08.bks.cpg/sg12_142_cif.got.tgz:282793.got - 2010.06.03 13:09:07.
