data_PCOD9173826
_publ_section_title
;
Structure prediction by ZEFSAII (Michael W. Deem and Ramdas Pophale) SiO2 
 PCOD9173826
Probable space group: C 2/M
;
_chemical_formula_sum "Si O2"
_cell_formula_units_Z 48
_cell_length_a 12.950202
_cell_length_b 18.945006
_cell_length_c 9.289868
_cell_angle_alpha 90.000000
_cell_angle_beta 68.766025
_cell_angle_gamma 90.000000
_cell_volume 2124.455452
_symmetry_space_group_name_H-M "C 2/M"
_symmetry_group_IT_number 12
_symmetry_cell_setting 'monoclinic'
loop_
_space_group_symop_operation_xyz
x,y,z
-x,y,-z
-x,-y,-z
x,-y,z
1/2+x,1/2+y,z
1/2-x,1/2+y,-z
1/2-x,1/2-y,-z
1/2+x,1/2-y,z
loop_
_atom_site_type_symbol
_atom_site_label
_atom_site_fract_x
_atom_site_fract_y
_atom_site_fract_z
Si Si1 0.191032 0.077524 0.852487
Si Si2 0.329776 0.920319 0.357463
Si Si3 0.874355 0.773978 0.638039
Si Si4 0.443855 0.880218 0.680894
Si Si5 0.319982 0.315802 0.368442
Si Si6 0.647769 0.421529 0.211423
O O1 0.324629 0.086281 0.771031
O O2 0.133577 0.134871 0.779645
O O3 0.158202 0.000000 0.818897
O O4 0.162323 0.084012 0.033971
O O5 0.456092 0.898963 0.264835
O O6 0.268240 0.867140 0.500697
O O7 0.262293 0.922128 0.243423
O O8 0.325336 0.000000 0.419963
O O9 0.922367 0.703233 0.682267
O O10 0.745021 0.747566 0.678982
O O11 0.897623 0.788179 0.456670
O O12 0.896070 0.846603 0.709029
O O13 0.500000 0.901848 0.500000
O O14 0.595925 0.500000 0.269103
#
# Coordination Sequence:
#
# PCOD9173826 Si02
#       6
#     8   8   8   8   8   8
#     4  10  19  31  50  77 103 130 170 205 248 300
#     4  10  18  31  50  76 107 136 163 196 254 307
#     4   9  18  33  48  69 103 129 175 204 247 298
#     4  11  20  30  48  77 105 142 155 202 251 301
#     4   9  17  29  50  72  95 140 164 211 240 289
#     4   9  20  35  52  72 100 135 170 214 248 287
#
# _framework density 22.594027000000001
#
# number of rings (size 3 to 8) (size 9 to 14) (size 15 to 20)
#    0.000    2.333    3.333    1.000    0.000    4.667 
#    0.000    2.500    3.667    0.500    0.000    0.000 
#    0.000    2.667    0.000    0.000    0.000    0.000 
#
# Total GULP energy -133793.108630 kJ/mol
# GULP energy per Si atom -5574.712860 kJ/mol
# Density = 2.254260 g / cm^3
# Si number density = 22.594027 Si / 1000 Ang^3
#
#
#
# Elastic Constant Matrix: (Units=GPa)
#
#
# Indices 1 2 3 4 5 6 
#
# 1 22.4981 12.9406 -5.2607 0.0000 0.8905 0.0000
# 2 12.9406 157.0474 34.5686 0.0000 8.6538 0.0000
# 3 -5.2607 34.5686 54.8143 0.0000 11.9520 0.0000
# 4 0.0000 0.0000 0.0000 33.1956 0.0000 4.2431
# 5 0.8905 8.6538 11.9520 0.0000 15.3684 0.0000
# 6 0.0000 0.0000 0.0000 4.2431 0.0000 31.9221
#
#
#
# Elastic Compliance Matrix: (Units=1/GPa)
#
#
# Indices 1 2 3 4 5 6 
#
# 1 0.050621 -0.006023 0.010304 0.000000 -0.007555 0.000000
# 2 -0.006023 0.008116 -0.005751 0.000000 0.000252 0.000000
# 3 0.010304 -0.005751 0.026834 0.000000 -0.018227 0.000000
# 4 0.000000 0.000000 0.000000 0.030645 0.000000 -0.004073
# 5 -0.007555 0.000252 -0.018227 0.000000 0.079540 0.000000
# 6 0.000000 0.000000 0.000000 -0.004073 0.000000 0.031868
#
#
# Mechanical properties :
#
#
# Convention : Reuss Voigt Hill
#
# Bulk Modulus (GPa) = 12.10216 35.42853 23.76535
# Shear Modulus (GPa) = 19.37186 28.90465 24.13826
#
# Velocity S-wave (km/s) = 2.93130 3.58062 3.27210
# Velocity P-wave (km/s) = 4.10179 5.72791 4.98165
#
# Compressibility (1/GPa) = 0.08262990
#
# Stress axis : x y z
#
# Youngs Moduli (GPa) = 19.75474 123.21596 37.26673
#
# Poissons Ratio (x) = 0.74211 -0.38399
# Poissons Ratio (y) = 0.11898 0.21433
# Poissons Ratio (z) = -0.20355 0.70863
#
# Static dielectric constant tensor:
#      x y z
#    x 1.967350 0.000000 0.015750 
#    y 0.000000 1.894190 0.000000 
#    z 0.015750 0.000000 1.827060 
# 
# From -- ./inp_files/74492.got.cif
#   From: 2010.05.17/outbox.cif.g08.bks.cpg/sg12_38_cif.got.tgz:74492.got - 2010.06.03 13:09:07.
