data_PCOD9173415
_publ_section_title
;
Structure prediction by ZEFSAII (Michael W. Deem and Ramdas Pophale) SiO2 
 PCOD9173415
Probable space group: C 2/M
;
_chemical_formula_sum "Si O2"
_cell_formula_units_Z 48
_cell_length_a 9.522881
_cell_length_b 19.989297
_cell_length_c 19.600767
_cell_angle_alpha 90.000000
_cell_angle_beta 143.965316
_cell_angle_gamma 90.000000
_cell_volume 2194.922803
_symmetry_space_group_name_H-M "C 2/M"
_symmetry_group_IT_number 12
_symmetry_cell_setting 'monoclinic'
loop_
_space_group_symop_operation_xyz
x,y,z
-x,y,-z
-x,-y,-z
x,-y,z
1/2+x,1/2+y,z
1/2-x,1/2+y,-z
1/2-x,1/2-y,-z
1/2+x,1/2-y,z
loop_
_atom_site_type_symbol
_atom_site_label
_atom_site_fract_x
_atom_site_fract_y
_atom_site_fract_z
Si Si1 0.850757 0.348982 0.999039
Si Si2 0.042313 0.191358 0.249253
Si Si3 0.084574 0.073523 0.109580
Si Si4 0.927405 0.419754 0.395414
Si Si5 0.627050 0.919866 0.333180
Si Si6 0.255470 0.319997 0.270720
O O1 0.704258 0.297596 0.891932
O O2 0.630507 0.387316 0.942878
O O3 0.000000 0.388625 0.000000
O O4 0.027199 0.330474 0.129827
O O5 0.967285 0.187125 0.298907
O O6 0.188955 0.123831 0.288250
O O7 0.210456 0.252567 0.295183
O O8 0.351566 0.101188 0.211049
O O9 0.106362 0.000000 0.149874
O O10 0.000000 0.066274 0.000000
O O11 0.888572 0.500000 0.381063
O O12 0.127213 0.407114 0.415030
O O13 0.000000 0.399934 0.500000
O O14 0.773849 0.878669 0.334636
O O15 0.658250 0.000000 0.334917
#
# Coordination Sequence:
#
# PCOD9173415 Si02
#       6
#     8   8   8   8   8   8
#     4  10  21  34  52  84 124 163 200 239 289 353
#     4  11  23  39  59  87 124 161 203 249 300 350
#     4  10  18  30  52  81 116 157 196 240 290 352
#     4  10  22  43  69  92 116 152 200 253 308 362
#     4  10  20  37  60  85 118 158 198 246 302 356
#     4  11  23  38  58  89 125 164 201 243 293 361
#
# _framework density 21.868652000000001
#
# number of rings (size 3 to 8) (size 9 to 14) (size 15 to 20)
#    0.000    1.667    3.333    1.500    0.000    1.000 
#    0.000    7.500    0.000    3.000    0.000    0.000 
#    0.000    0.000    0.000    0.000    0.000    0.000 
#
# Total GULP energy -133630.013549 kJ/mol
# GULP energy per Si atom -5567.917231 kJ/mol
# Density = 2.181888 g / cm^3
# Si number density = 21.868652 Si / 1000 Ang^3
#
#
#
# Elastic Constant Matrix: (Units=GPa)
#
#
# Indices 1 2 3 4 5 6 
#
# 1 186.8207 72.9592 12.9891 -0.0001 -21.0613 0.0002
# 2 72.9592 68.6391 6.8381 0.0004 -2.1675 0.0002
# 3 12.9891 6.8381 53.7785 0.0032 -18.7179 -0.0004
# 4 -0.0001 0.0004 0.0032 6.4797 -0.0002 -2.8320
# 5 -21.0613 -2.1675 -18.7179 -0.0002 36.0270 0.0000
# 6 0.0002 0.0002 -0.0004 -2.8320 0.0000 42.8497
#
#
#
# Elastic Compliance Matrix: (Units=1/GPa)
#
#
# Indices 1 2 3 4 5 6 
#
# 1 0.010088 -0.010632 0.000910 0.000001 0.005730 0.000000
# 2 -0.010632 0.025963 -0.002872 0.000000 -0.006146 0.000000
# 3 0.000910 -0.002872 0.023030 -0.000011 0.012324 0.000000
# 4 0.000001 0.000000 -0.000011 0.158919 -0.000004 0.010503
# 5 0.005730 -0.006146 0.012324 -0.000004 0.037140 0.000000
# 6 0.000000 0.000000 0.000000 0.010503 0.000000 0.024032
#
#
# Mechanical properties :
#
#
# Convention : Reuss Voigt Hill
#
# Bulk Modulus (GPa) = 29.50673 54.97902 42.24287
# Shear Modulus (GPa) = 15.83996 31.50139 23.67067
#
# Velocity S-wave (km/s) = 2.69424 3.79949 3.29356
# Velocity P-wave (km/s) = 4.81670 6.66658 5.81566
#
# Compressibility (1/GPa) = 0.03389057
#
# Stress axis : x y z
#
# Youngs Moduli (GPa) = 99.13035 38.51696 43.42203
#
# Poissons Ratio (x) = 0.40953 -0.03951
# Poissons Ratio (y) = 1.05399 0.12472
# Poissons Ratio (z) = -0.09020 0.11063
#
# Static dielectric constant tensor:
#      x y z
#    x 3.258320 0.000020 0.471230 
#    y 0.000020 1.827170 0.000010 
#    z 0.471230 0.000010 2.087070 
# 
# From -- ./inp_files/302184.got.cif
#   From: 2010.05.17/outbox.cif.g08.bks.cpg/sg12_152_cif.got.tgz:302184.got - 2010.06.03 13:09:07.
