data_PCOD9173602
_publ_section_title
;
Structure prediction by ZEFSAII (Michael W. Deem and Ramdas Pophale) SiO2 
 PCOD9173602
Probable space group: C 2/M
;
_chemical_formula_sum "Si O2"
_cell_formula_units_Z 64
_cell_length_a 29.350421
_cell_length_b 8.572594
_cell_length_c 16.162168
_cell_angle_alpha 90.000000
_cell_angle_beta 90.085727
_cell_angle_gamma 90.000000
_cell_volume 4066.546303
_symmetry_space_group_name_H-M "C 2/M"
_symmetry_group_IT_number 12
_symmetry_cell_setting 'monoclinic'
loop_
_space_group_symop_operation_xyz
x,y,z
-x,y,-z
-x,-y,-z
x,-y,z
1/2+x,1/2+y,z
1/2-x,1/2+y,-z
1/2-x,1/2-y,-z
1/2+x,1/2-y,z
loop_
_atom_site_type_symbol
_atom_site_label
_atom_site_fract_x
_atom_site_fract_y
_atom_site_fract_z
Si Si1 0.194955 0.686643 0.675135
Si Si2 0.356709 0.686602 0.166219
Si Si3 0.300946 0.310218 0.680368
Si Si4 0.948759 0.312113 0.903596
Si Si5 0.801693 0.812959 0.498692
Si Si6 0.948203 0.688303 0.096206
Si Si7 0.143370 0.188333 0.159947
Si Si8 0.198757 0.188540 0.996941
O O1 0.195208 0.500000 0.674111
O O2 0.165037 0.746566 0.750668
O O3 0.247894 0.739570 0.686859
O O4 0.177915 0.746317 0.585740
O O5 0.355023 0.500000 0.168975
O O6 0.408220 0.740819 0.150435
O O7 0.327046 0.739966 0.086492
O O8 0.300338 0.500000 0.682814
O O9 0.319891 0.266334 0.589572
O O10 0.330844 0.255712 0.757578
O O11 0.947036 0.500000 0.901201
O O12 0.908287 0.244358 0.849138
O O13 0.000232 0.265039 0.880323
O O14 0.941390 0.265334 0.999797
O O15 0.750000 0.750000 0.500000
O O16 0.801367 0.000000 0.494110
O O17 0.945774 0.500000 0.099579
O O18 0.170977 0.240096 0.078190
O O19 0.143760 0.000000 0.160531
O O20 0.199704 0.000000 0.997268
O O21 0.250000 0.250000 0.000000
#
# Coordination Sequence:
#
# PCOD9173602 Si02
#       8
#     8   8   8   8   8   8   8   8
#     4  10  19  32  49  68  93 130 164 196 239 282
#     4  11  21  32  46  70  96 122 160 200 235 276
#     4   8  16  29  47  68  94 127 159 189 231 279
#     4   9  18  32  49  69  90 118 157 198 238 279
#     4   9  16  29  47  69  95 124 159 200 238 278
#     4   9  18  33  50  66  90 122 156 195 240 285
#     4  10  18  31  47  67  94 125 158 192 230 277
#     4  10  21  32  43  63  94 130 163 192 224 268
#
# _framework density 15.738172
#
# number of rings (size 3 to 8) (size 9 to 14) (size 15 to 20)
#    0.000    2.500    1.250    3.375    0.000    3.000 
#    0.000    5.000    0.000    0.000    0.000    0.875 
#    0.000    7.000    0.000    0.000    0.000    0.000 
#
# Total GULP energy -178365.057037 kJ/mol
# GULP energy per Si atom -5573.908032 kJ/mol
# Density = 1.570235 g / cm^3
# Si number density = 15.738172 Si / 1000 Ang^3
#
#
#
# Elastic Constant Matrix: (Units=GPa)
#
#
# Indices 1 2 3 4 5 6 
#
# 1 106.1227 21.3185 74.0409 0.0000 -7.1722 0.0000
# 2 21.3185 23.2225 32.2276 0.0000 -2.4021 0.0000
# 3 74.0409 32.2276 155.4790 0.0000 -5.2793 0.0000
# 4 0.0000 0.0000 0.0000 16.1557 0.0000 -1.1339
# 5 -7.1722 -2.4021 -5.2793 0.0000 10.0437 0.0000
# 6 0.0000 0.0000 0.0000 -1.1339 0.0000 24.9313
#
#
#
# Elastic Compliance Matrix: (Units=1/GPa)
#
#
# Indices 1 2 3 4 5 6 
#
# 1 0.014945 -0.004888 -0.005886 0.000000 0.006409 0.000000
# 2 -0.004888 0.062690 -0.010463 0.000000 0.006003 0.000000
# 3 -0.005886 -0.010463 0.011379 0.000000 -0.000725 0.000000
# 4 0.000000 0.000000 0.000000 0.062096 0.000000 0.002824
# 5 0.006409 0.006003 -0.000725 0.000000 0.105196 0.000000
# 6 0.000000 0.000000 0.000000 0.002824 0.000000 0.040239
#
#
# Mechanical properties :
#
#
# Convention : Reuss Voigt Hill
#
# Bulk Modulus (GPa) = 21.48694 59.99979 40.74337
# Shear Modulus (GPa) = 14.10312 20.70862 17.40587
#
# Velocity S-wave (km/s) = 2.99676 3.63136 3.32921
# Velocity P-wave (km/s) = 5.06522 7.46919 6.38143
#
# Compressibility (1/GPa) = 0.04653991
#
# Stress axis : x y z
#
# Youngs Moduli (GPa) = 66.91283 15.95152 87.88198
#
# Poissons Ratio (x) = 0.07797 0.51728
# Poissons Ratio (y) = 0.32707 0.91949
# Poissons Ratio (z) = 0.39386 0.16690
#
# Static dielectric constant tensor:
#      x y z
#    x 1.503490 0.000000 0.010450 
#    y 0.000000 1.534020 0.000000 
#    z 0.010450 0.000000 1.536630 
# 
# From -- ./inp_files/243979.got.cif
#   From: 2010.05.17/outbox.cif.g08.bks.cpg/sg12_122_cif.got.tgz:243979.got - 2010.06.03 13:09:07.
