data_PCOD9173227
_publ_section_title
;
Structure prediction by ZEFSAII (Michael W. Deem and Ramdas Pophale) SiO2 
 PCOD9173227
Probable space group: C 2/M
;
_chemical_formula_sum "Si O2"
_cell_formula_units_Z 40
_cell_length_a 27.131369
_cell_length_b 7.418235
_cell_length_c 9.548933
_cell_angle_alpha 90.000000
_cell_angle_beta 48.633311
_cell_angle_gamma 90.000000
_cell_volume 1442.365042
_symmetry_space_group_name_H-M "C 2/M"
_symmetry_group_IT_number 12
_symmetry_cell_setting 'monoclinic'
loop_
_space_group_symop_operation_xyz
x,y,z
-x,y,-z
-x,-y,-z
x,-y,z
1/2+x,1/2+y,z
1/2-x,1/2+y,-z
1/2-x,1/2-y,-z
1/2+x,1/2-y,z
loop_
_atom_site_type_symbol
_atom_site_label
_atom_site_fract_x
_atom_site_fract_y
_atom_site_fract_z
Si Si1 0.643637 0.717342 0.249403
Si Si2 0.962729 0.216838 0.757235
Si Si3 0.059257 0.709880 0.801254
Si Si4 0.674475 0.717728 0.890543
Si Si5 0.693501 0.207857 0.461948
O O1 0.643447 0.500000 0.263503
O O2 0.570674 0.768818 0.327917
O O3 0.669463 0.792248 0.345056
O O4 0.686554 0.767316 0.031365
O O5 0.028690 0.286544 0.701638
O O6 0.968135 0.000000 0.743592
O O7 0.902059 0.269471 0.977567
O O8 0.065304 0.500000 0.827833
O O9 0.132030 0.792427 0.659776
O O10 0.000000 0.796340 0.000000
O O11 0.676191 0.500000 0.880754
O O12 0.733200 0.787329 0.683879
O O13 0.698708 0.000000 0.492926
#
# Coordination Sequence:
#
# PCOD9173227 Si02
#       5
#     8   8   8   8   8
#     4   8  16  30  50  76 103 123 148 193 244 287
#     4   8  17  34  53  71  96 127 156 194 242 287
#     4  10  22  37  49  66  96 131 165 202 240 276
#     4   7  14  30  50  74  99 124 153 190 239 287
#     4  10  18  30  51  74  97 129 163 192 231 286
#
# _framework density 27.732230999999999
#
# number of rings (size 3 to 8) (size 9 to 14) (size 15 to 20)
#    1.200    2.200    0.000    0.600    0.000    2.800 
#    0.000    6.000    0.000    0.000    0.000    0.000 
#    0.000    0.000    0.000    0.000    0.000    0.000 
#
# Total GULP energy -111664.992141 kJ/mol
# GULP energy per Si atom -5583.249607 kJ/mol
# Density = 2.766911 g / cm^3
# Si number density = 27.732231 Si / 1000 Ang^3
#
#
#
# Elastic Constant Matrix: (Units=GPa)
#
#
# Indices 1 2 3 4 5 6 
#
# 1 143.1504 22.9234 46.0035 0.0000 -19.8070 0.0000
# 2 22.9234 113.7910 1.1557 0.0000 9.4645 0.0000
# 3 46.0035 1.1557 161.1517 0.0000 -24.9055 0.0000
# 4 0.0000 0.0000 0.0000 3.2466 0.0000 8.9828
# 5 -19.8070 9.4645 -24.9055 0.0000 59.4055 0.0000
# 6 0.0000 0.0000 0.0000 8.9828 0.0000 28.1111
#
#
#
# Elastic Compliance Matrix: (Units=1/GPa)
#
#
# Indices 1 2 3 4 5 6 
#
# 1 0.008222 -0.001819 -0.001995 0.000000 0.002195 0.000000
# 2 -0.001819 0.009322 0.000138 0.000000 -0.002034 0.000000
# 3 -0.001995 0.000138 0.007130 0.000000 0.002302 0.000000
# 4 0.000000 0.000000 0.000000 2.658642 0.000000 -0.849561
# 5 0.002195 -0.002034 0.002302 0.000000 0.018854 0.000000
# 6 0.000000 0.000000 0.000000 -0.849561 0.000000 0.307047
#
#
# Mechanical properties :
#
#
# Convention : Reuss Voigt Hill
#
# Bulk Modulus (GPa) = 57.72803 62.02871 59.87837
# Shear Modulus (GPa) = 1.65435 41.35334 21.50385
#
# Velocity S-wave (km/s) = 0.77320 3.86575 2.78764
# Velocity P-wave (km/s) = 4.65387 6.50699 5.65683
#
# Compressibility (1/GPa) = 0.01732261
#
# Stress axis : x y z
#
# Youngs Moduli (GPa) = 121.63105 107.27156 140.26143
#
# Poissons Ratio (x) = 0.19508 0.27979
# Poissons Ratio (y) = 0.22119 -0.01935
# Poissons Ratio (z) = 0.24263 -0.01480
#
# Static dielectric constant tensor:
#      x y z
#    x 2.183940 0.000000 0.034510 
#    y 0.000000 2.052880 0.000000 
#    z 0.034510 0.000000 2.330630 
# 
# From -- ./inp_files/186192.got.cif
#   From: 2010.05.17/outbox.cif.g08.bks.cpg/sg12_94_cif.got.tgz:186192.got - 2010.06.03 13:09:07.
