data_PCOD9173561
_publ_section_title
;
Structure prediction by ZEFSAII (Michael W. Deem and Ramdas Pophale) SiO2 
 PCOD9173561
Probable space group: C 2/M
;
_chemical_formula_sum "Si O2"
_cell_formula_units_Z 44
_cell_length_a 10.728663
_cell_length_b 20.975838
_cell_length_c 8.221466
_cell_angle_alpha 90.000000
_cell_angle_beta 71.585521
_cell_angle_gamma 90.000000
_cell_volume 1755.444618
_symmetry_space_group_name_H-M "C 2/M"
_symmetry_group_IT_number 12
_symmetry_cell_setting 'monoclinic'
loop_
_space_group_symop_operation_xyz
x,y,z
-x,y,-z
-x,-y,-z
x,-y,z
1/2+x,1/2+y,z
1/2-x,1/2+y,-z
1/2-x,1/2-y,-z
1/2+x,1/2-y,z
loop_
_atom_site_type_symbol
_atom_site_label
_atom_site_fract_x
_atom_site_fract_y
_atom_site_fract_z
Si Si1 0.737217 0.361396 0.583423
Si Si2 0.084156 0.362395 0.169990
Si Si3 0.606802 0.000000 0.152234
Si Si4 0.346840 0.500000 0.301900
Si Si5 0.773609 0.862834 0.774090
Si Si6 0.504010 0.720577 0.809495
Si Si7 0.143072 0.000000 0.185980
O O1 0.842702 0.360580 0.685717
O O2 0.666114 0.430439 0.614010
O O3 0.785655 0.352695 0.380211
O O4 0.633051 0.307193 0.673359
O O5 0.025311 0.434484 0.185087
O O6 0.009732 0.296202 0.184278
O O7 0.182397 0.361914 0.972830
O O8 0.709965 0.000000 0.257762
O O9 0.718764 0.000000 0.968307
O O10 0.495964 0.500000 0.171096
O O11 0.880635 0.808681 0.765807
O O12 0.845765 0.931331 0.736001
O O13 0.500000 0.698163 0.000000
#
# Coordination Sequence:
#
# PCOD9173561 Si02
#       7
#     8   8   4   4   8   8   4
#     4  11  23  39  62  92 124 161 199 243 300 364
#     4  10  23  44  61  88 122 158 201 255 298 355
#     4   8  19  36  63  82 113 157 201 245 305 348
#     4  10  18  32  57  93 124 149 191 245 299 365
#     4  11  22  38  59  90 126 161 198 239 302 360
#     4  12  24  40  59  87 127 161 200 250 296 356
#     4  10  18  30  57  91 124 153 191 243 298 368
#
# _framework density 25.064874
#
# number of rings (size 3 to 8) (size 9 to 14) (size 15 to 20)
#    0.000    1.455    3.636    1.909    0.000    1.455 
#    3.273    0.455    0.000    0.000    0.000    2.545 
#    0.000    0.000    0.000    0.000    0.000    0.000 
#
# Total GULP energy -122886.407686 kJ/mol
# GULP energy per Si atom -5585.745804 kJ/mol
# Density = 2.500783 g / cm^3
# Si number density = 25.064874 Si / 1000 Ang^3
#
#
#
# Elastic Constant Matrix: (Units=GPa)
#
#
# Indices 1 2 3 4 5 6 
#
# 1 53.0646 39.9276 44.7537 0.0000 15.3926 0.0000
# 2 39.9276 167.4538 23.2862 0.0000 -7.7983 0.0000
# 3 44.7537 23.2862 142.6306 0.0000 42.4525 0.0000
# 4 0.0000 0.0000 0.0000 -35.3244 0.0000 -2.2537
# 5 15.3926 -7.7983 42.4525 0.0000 36.5044 0.0000
# 6 0.0000 0.0000 0.0000 -2.2537 0.0000 48.0382
#
#
#
# Elastic Compliance Matrix: (Units=1/GPa)
#
#
# Indices 1 2 3 4 5 6 
#
# 1 0.031840 -0.006983 -0.006745 0.000000 -0.007074 0.000000
# 2 -0.006983 0.008001 -0.000765 0.000000 0.005544 0.000000
# 3 -0.006745 -0.000765 0.012930 0.000000 -0.012356 0.000000
# 4 0.000000 0.000000 0.000000 -0.028225 0.000000 -0.001324
# 5 -0.007074 0.005544 -0.012356 0.000000 0.045931 0.000000
# 6 0.000000 0.000000 0.000000 -0.001324 0.000000 0.020755
#
#
# Mechanical properties :
#
#
# Convention : Reuss Voigt Hill
#
# Bulk Modulus (GPa) = 42.04430 64.34266 53.19348
# Shear Modulus (GPa) = 39.01735 26.85572 32.93654
#
# Velocity S-wave (km/s) = 3.94973 3.27685 3.62892
# Velocity P-wave (km/s) = 6.13279 6.32797 6.23114
#
# Compressibility (1/GPa) = 0.02378444
#
# Stress axis : x y z
#
# Youngs Moduli (GPa) = 31.40706 124.97665 77.33805
#
# Poissons Ratio (x) = 0.87276 0.52165
# Poissons Ratio (y) = 0.21933 0.05918
# Poissons Ratio (z) = 0.21184 0.09564
#
# Static dielectric constant tensor:
#      x y z
#    x 1.949290 0.000000 0.096410 
#    y 0.000000 1.931780 0.000000 
#    z 0.096410 0.000000 1.705630 
# 
# From -- ./inp_files/49341.got.cif
#   From: 2010.05.17/outbox.cif.g08.bks.cpg/sg12_25_cif.got.tgz:49341.got - 2010.06.03 13:09:07.
