data_PCOD9173737
_publ_section_title
;
Structure prediction by ZEFSAII (Michael W. Deem and Ramdas Pophale) SiO2 
 PCOD9173737
Probable space group: C 2/M
;
_chemical_formula_sum "Si O2"
_cell_formula_units_Z 48
_cell_length_a 34.624725
_cell_length_b 14.373300
_cell_length_c 4.862431
_cell_angle_alpha 90.000000
_cell_angle_beta 86.334787
_cell_angle_gamma 90.000000
_cell_volume 2414.944006
_symmetry_space_group_name_H-M "C 2/M"
_symmetry_group_IT_number 12
_symmetry_cell_setting 'monoclinic'
loop_
_space_group_symop_operation_xyz
x,y,z
-x,y,-z
-x,-y,-z
x,-y,z
1/2+x,1/2+y,z
1/2-x,1/2+y,-z
1/2-x,1/2-y,-z
1/2+x,1/2-y,z
loop_
_atom_site_type_symbol
_atom_site_label
_atom_site_fract_x
_atom_site_fract_y
_atom_site_fract_z
Si Si1 0.273958 0.109567 0.979009
Si Si2 0.777250 0.890588 0.501100
Si Si3 0.613612 0.798063 0.852127
Si Si4 0.473868 0.197641 0.281593
Si Si5 0.899230 0.500000 0.896121
Si Si6 0.337521 0.245636 0.698368
Si Si7 0.554810 0.000000 0.631309
O O1 0.236230 0.124938 0.804362
O O2 0.307432 0.173882 0.849189
O O3 0.284356 0.000000 0.954867
O O4 0.260341 0.131727 0.292960
O O5 0.812584 0.829670 0.587013
O O6 0.784928 0.000000 0.536471
O O7 0.569347 0.772357 0.794579
O O8 0.638681 0.796885 0.565302
O O9 0.616566 0.901733 0.987117
O O10 0.632322 0.731233 0.072403
O O11 0.500000 0.249299 0.500000
O O12 0.463931 0.097788 0.422776
O O13 0.500000 0.188710 0.000000
O O14 0.905914 0.500000 0.568195
O O15 0.940256 0.500000 0.040825
#
# Coordination Sequence:
#
# PCOD9173737 Si02
#       7
#     8   8   8   8   4   8   4
#     4  10  21  35  57  80 108 145 184 211 261 325
#     4  10  21  39  58  81 105 140 183 226 266 321
#     4  11  24  34  51  78 108 143 182 222 269 321
#     4  11  20  34  51  70 102 142 188 227 265 310
#     4  10  20  35  46  68 110 140 178 222 260 310
#     4  12  22  36  56  79 114 140 178 225 276 316
#     4  10  18  31  50  68  90 140 192 224 252 294
#
# _framework density 19.876239000000002
#
# number of rings (size 3 to 8) (size 9 to 14) (size 15 to 20)
#    0.000    1.333    0.000    8.500    2.333    0.000 
#    0.000    0.000    0.000    0.000    0.000    0.000 
#    0.000   13.333    0.000    0.000    0.000    0.000 
#
# Total GULP energy -133991.281547 kJ/mol
# GULP energy per Si atom -5582.970064 kJ/mol
# Density = 1.983100 g / cm^3
# Si number density = 19.876239 Si / 1000 Ang^3
#
#
#
# Elastic Constant Matrix: (Units=GPa)
#
#
# Indices 1 2 3 4 5 6 
#
# 1 109.3399 26.0437 16.0489 0.0000 8.1166 0.0000
# 2 26.0437 22.6223 0.9173 0.0000 -3.5206 0.0000
# 3 16.0489 0.9173 91.9157 0.0000 -7.2253 0.0000
# 4 0.0000 0.0000 0.0000 49.7592 0.0000 25.0339
# 5 8.1166 -3.5206 -7.2253 0.0000 40.9012 0.0000
# 6 0.0000 0.0000 0.0000 25.0339 0.0000 35.0524
#
#
#
# Elastic Compliance Matrix: (Units=1/GPa)
#
#
# Indices 1 2 3 4 5 6 
#
# 1 0.013803 -0.016503 -0.002608 0.000000 -0.004620 0.000000
# 2 -0.016503 0.064539 0.002973 0.000000 0.009355 0.000000
# 3 -0.002608 0.002973 0.011526 0.000000 0.002810 0.000000
# 4 0.000000 0.000000 0.000000 0.031367 0.000000 -0.022402
# 5 -0.004620 0.009355 0.002810 0.000000 0.026668 0.000000
# 6 0.000000 0.000000 0.000000 -0.022402 0.000000 0.044528
#
#
# Mechanical properties :
#
#
# Convention : Reuss Voigt Hill
#
# Bulk Modulus (GPa) = 17.36427 34.43309 25.89868
# Shear Modulus (GPa) = 20.49981 37.20044 28.85012
#
# Velocity S-wave (km/s) = 3.21498 4.33090 3.81397
# Velocity P-wave (km/s) = 4.74728 6.50924 5.69679
#
# Compressibility (1/GPa) = 0.05758953
#
# Stress axis : x y z
#
# Youngs Moduli (GPa) = 72.45026 15.49459 86.75905
#
# Poissons Ratio (x) = 0.25571 0.22631
# Poissons Ratio (y) = 1.19567 -0.25792
# Poissons Ratio (z) = 0.18899 -0.04606
#
# Static dielectric constant tensor:
#      x y z
#    x 1.772530 0.000000 0.034330 
#    y 0.000000 1.695600 0.000000 
#    z 0.034330 0.000000 1.703470 
# 
# From -- ./inp_files/31256.got.cif
#   From: 2010.05.17/outbox.cif.g08.bks.cpg/sg12_16_cif.got.tgz:31256.got - 2010.06.03 13:09:07.
