data_PCOD9173052
_publ_section_title
;
Structure prediction by ZEFSAII (Michael W. Deem and Ramdas Pophale) SiO2 
 PCOD9173052
Probable space group: C 2/M
;
_chemical_formula_sum "Si O2"
_cell_formula_units_Z 56
_cell_length_a 18.263340
_cell_length_b 25.057192
_cell_length_c 7.462320
_cell_angle_alpha 90.000000
_cell_angle_beta 85.200762
_cell_angle_gamma 90.000000
_cell_volume 3402.993735
_symmetry_space_group_name_H-M "C 2/M"
_symmetry_group_IT_number 12
_symmetry_cell_setting 'monoclinic'
loop_
_space_group_symop_operation_xyz
x,y,z
-x,y,-z
-x,-y,-z
x,-y,z
1/2+x,1/2+y,z
1/2-x,1/2+y,-z
1/2-x,1/2-y,-z
1/2+x,1/2-y,z
loop_
_atom_site_type_symbol
_atom_site_label
_atom_site_fract_x
_atom_site_fract_y
_atom_site_fract_z
Si Si1 0.424388 0.439145 0.605917
Si Si2 0.321766 0.228179 0.285084
Si Si3 0.810622 0.940809 0.303491
Si Si4 0.225159 0.834253 0.547140
Si Si5 0.915465 0.782499 0.545784
Si Si6 0.915838 0.766411 0.963338
Si Si7 0.085802 0.891480 0.014114
O O1 0.500000 0.419794 0.500000
O O2 0.439416 0.500000 0.668392
O O3 0.363198 0.443227 0.466200
O O4 0.401134 0.405125 0.781856
O O5 0.275195 0.178482 0.364799
O O6 0.270817 0.281158 0.327859
O O7 0.388614 0.237118 0.412614
O O8 0.357672 0.230928 0.083715
O O9 0.760190 0.889405 0.356545
O O10 0.861815 0.924976 0.125516
O O11 0.778023 0.000000 0.284954
O O12 0.140228 0.829531 0.499629
O O13 0.905738 0.765669 0.752709
O O14 0.000000 0.795895 0.500000
O O15 0.904028 0.828355 0.024715
O O16 0.000000 0.753201 0.000000
O O17 0.000000 0.903828 0.000000
#
# Coordination Sequence:
#
# PCOD9173052 Si02
#       7
#     8   8   8   8   8   8   8
#     4  10  20  30  40  58  84 119 161 198 226 255
#     4   9  19  35  48  67  96 122 154 196 231 288
#     4  11  21  33  46  61  88 123 161 192 225 267
#     4   9  19  36  47  66  95 125 156 198 234 270
#     4  10  18  30  50  70  95 126 156 193 233 269
#     4  11  19  28  48  73  92 123 155 190 234 281
#     4  11  20  27  43  61  89 121 157 192 228 260
#
# _framework density 16.456098999999998
#
# number of rings (size 3 to 8) (size 9 to 14) (size 15 to 20)
#    0.857    1.000    4.286    1.286    2.000    2.286 
#    0.000    0.000    0.000    0.000    0.000    0.000 
#    0.000    1.143    0.000    0.000    0.000    0.286 
#
# Total GULP energy -156006.562769 kJ/mol
# GULP energy per Si atom -5571.662956 kJ/mol
# Density = 1.641864 g / cm^3
# Si number density = 16.456099 Si / 1000 Ang^3
#
#
#
# Elastic Constant Matrix: (Units=GPa)
#
#
# Indices 1 2 3 4 5 6 
#
# 1 26.5728 8.7670 2.7261 0.0000 -7.8273 0.0000
# 2 8.7670 67.9058 24.8857 0.0000 -21.2370 0.0000
# 3 2.7261 24.8857 99.8234 0.0000 -13.3229 0.0000
# 4 0.0000 0.0000 0.0000 22.5080 0.0000 -5.1551
# 5 -7.8273 -21.2370 -13.3229 0.0000 28.2259 0.0000
# 6 0.0000 0.0000 0.0000 -5.1551 0.0000 4.2199
#
#
#
# Elastic Compliance Matrix: (Units=1/GPa)
#
#
# Indices 1 2 3 4 5 6 
#
# 1 0.041311 -0.002527 0.000829 0.000000 0.009946 0.000000
# 2 -0.002527 0.020330 -0.003256 0.000000 0.013058 0.000000
# 3 0.000829 -0.003256 0.011217 0.000000 0.003075 0.000000
# 4 0.000000 0.000000 0.000000 0.061689 0.000000 0.075361
# 5 0.009946 0.013058 0.003075 0.000000 0.049463 0.000000
# 6 0.000000 0.000000 0.000000 0.075361 0.000000 0.329038
#
#
# Mechanical properties :
#
#
# Convention : Reuss Voigt Hill
#
# Bulk Modulus (GPa) = 15.88560 29.67328 22.77944
# Shear Modulus (GPa) = 9.19221 21.51897 15.35559
#
# Velocity S-wave (km/s) = 2.36601 3.62008 3.05802
# Velocity P-wave (km/s) = 4.13984 5.96190 5.13237
#
# Compressibility (1/GPa) = 0.06295008
#
# Stress axis : x y z
#
# Youngs Moduli (GPa) = 24.20670 49.18899 89.14899
#
# Poissons Ratio (x) = 0.12429 -0.07392
# Poissons Ratio (y) = 0.06116 0.29030
# Poissons Ratio (z) = -0.02007 0.16018
#
# Static dielectric constant tensor:
#      x y z
#    x 1.571590 0.000000 0.004280 
#    y 0.000000 1.624590 0.000000 
#    z 0.004280 0.000000 1.580710 
# 
# From -- ./inp_files/66488.got.cif
#   From: 2010.05.17/outbox.cif.g08.bks.cpg/sg12_34_cif.got.tgz:66488.got - 2010.06.03 13:09:07.
