data_PCOD9173360
_publ_section_title
;
Structure prediction by ZEFSAII (Michael W. Deem and Ramdas Pophale) SiO2 
 PCOD9173360
Probable space group: C 2/M
;
_chemical_formula_sum "Si O2"
_cell_formula_units_Z 64
_cell_length_a 9.527469
_cell_length_b 26.801052
_cell_length_c 22.001867
_cell_angle_alpha 90.000000
_cell_angle_beta 134.088710
_cell_angle_gamma 90.000000
_cell_volume 4035.270616
_symmetry_space_group_name_H-M "C 2/M"
_symmetry_group_IT_number 12
_symmetry_cell_setting 'monoclinic'
loop_
_space_group_symop_operation_xyz
x,y,z
-x,y,-z
-x,-y,-z
x,-y,z
1/2+x,1/2+y,z
1/2-x,1/2+y,-z
1/2-x,1/2-y,-z
1/2+x,1/2-y,z
loop_
_atom_site_type_symbol
_atom_site_label
_atom_site_fract_x
_atom_site_fract_y
_atom_site_fract_z
Si Si1 0.451647 0.807226 0.587101
Si Si2 0.401200 0.442196 0.778602
Si Si3 0.906567 0.440855 0.761213
Si Si4 0.048254 0.885977 0.709077
Si Si5 0.359347 0.560361 0.904382
Si Si6 0.548906 0.918057 0.364634
Si Si7 0.793760 0.557439 0.463266
Si Si8 0.318110 0.292316 0.609372
O O1 0.466610 0.859063 0.627265
O O2 0.390209 0.762748 0.613551
O O3 0.651520 0.794501 0.611191
O O4 0.287039 0.811420 0.484525
O O5 0.465077 0.500000 0.790947
O O6 0.507808 0.405542 0.764641
O O7 0.421538 0.425688 0.854784
O O8 0.169357 0.440068 0.694161
O O9 0.874282 0.500000 0.764138
O O10 0.757048 0.405551 0.750903
O O11 0.882494 0.431817 0.681840
O O12 0.131224 0.427642 0.844107
O O13 0.886955 0.914071 0.619075
O O14 0.994122 0.828384 0.682369
O O15 0.367846 0.500000 0.907327
O O16 0.500000 0.579151 0.000000
O O17 0.688063 0.939063 0.458984
O O18 0.781135 0.500000 0.440003
O O19 0.000000 0.578531 0.500000
#
# Coordination Sequence:
#
# PCOD9173360 Si02
#       8
#     8   8   8   8   8   8   8   8
#     4  10  20  36  51  67  89 130 185 228 259 294
#     4  10  18  30  52  76 101 133 167 205 249 302
#     4  10  22  34  48  75 110 136 164 213 258 295
#     4  12  21  33  47  72 106 138 170 217 260 291
#     4   8  16  34  56  75  99 136 172 198 242 314
#     4  11  19  33  49  67  97 136 180 212 251 293
#     4  11  19  28  46  66  94 138 182 210 235 296
#     4  10  21  35  51  67  92 132 179 225 265 291
#
# _framework density 15.860150000000001
#
# number of rings (size 3 to 8) (size 9 to 14) (size 15 to 20)
#    0.000    1.750    3.750    3.000    1.750    0.500 
#    0.000    1.875    0.000    3.000    0.000    0.000 
#    0.000   16.000    0.000    0.000    0.000    0.000 
#
# Total GULP energy -178553.247496 kJ/mol
# GULP energy per Si atom -5579.788984 kJ/mol
# Density = 1.582405 g / cm^3
# Si number density = 15.860150 Si / 1000 Ang^3
#
#
#
# Elastic Constant Matrix: (Units=GPa)
#
#
# Indices 1 2 3 4 5 6 
#
# 1 76.6780 23.8425 28.5142 0.0000 -1.6743 0.0000
# 2 23.8425 79.5511 13.7241 0.0000 0.0463 0.0000
# 3 28.5142 13.7241 85.5955 0.0000 -6.5356 0.0000
# 4 0.0000 0.0000 0.0000 7.3800 0.0000 -0.3850
# 5 -1.6743 0.0463 -6.5356 0.0000 10.5998 0.0000
# 6 0.0000 0.0000 0.0000 -0.3850 0.0000 23.1374
#
#
#
# Elastic Compliance Matrix: (Units=1/GPa)
#
#
# Indices 1 2 3 4 5 6 
#
# 1 0.016033 -0.003989 -0.004729 0.000000 -0.000366 0.000000
# 2 -0.003989 0.013941 -0.001006 0.000000 -0.001311 0.000000
# 3 -0.004729 -0.001006 0.014023 0.000000 0.007904 0.000000
# 4 0.000000 0.000000 0.000000 0.135618 0.000000 0.002257
# 5 -0.000366 -0.001311 0.007904 0.000000 0.099162 0.000000
# 6 0.000000 0.000000 0.000000 0.002257 0.000000 0.043258
#
#
# Mechanical properties :
#
#
# Convention : Reuss Voigt Hill
#
# Bulk Modulus (GPa) = 40.73868 41.55403 41.14636
# Shear Modulus (GPa) = 14.29934 19.93969 17.11952
#
# Velocity S-wave (km/s) = 3.00591 3.54958 3.28899
# Velocity P-wave (km/s) = 6.14730 6.56174 6.35790
#
# Compressibility (1/GPa) = 0.02454670
#
# Stress axis : x y z
#
# Youngs Moduli (GPa) = 62.37286 71.73333 71.31063
#
# Poissons Ratio (x) = 0.28615 0.33725
# Poissons Ratio (y) = 0.24881 0.07177
# Poissons Ratio (z) = 0.29498 0.07220
#
# Static dielectric constant tensor:
#      x y z
#    x 1.550560 0.000000 -0.011780 
#    y 0.000000 1.530360 0.000000 
#    z -0.011780 0.000000 1.521790 
# 
# From -- ./inp_files/302673.got.cif
#   From: 2010.05.17/outbox.cif.g08.bks.cpg/sg12_152_cif.got.tgz:302673.got - 2010.06.03 13:09:07.
