data_PCOD9173729
_publ_section_title
;
Structure prediction by ZEFSAII (Michael W. Deem and Ramdas Pophale) SiO2 
 PCOD9173729
Probable space group: C 2/M
;
_chemical_formula_sum "Si O2"
_cell_formula_units_Z 48
_cell_length_a 15.035086
_cell_length_b 16.895746
_cell_length_c 7.226110
_cell_angle_alpha 90.000000
_cell_angle_beta 84.684813
_cell_angle_gamma 90.000000
_cell_volume 1827.748526
_symmetry_space_group_name_H-M "C 2/M"
_symmetry_group_IT_number 12
_symmetry_cell_setting 'monoclinic'
loop_
_space_group_symop_operation_xyz
x,y,z
-x,y,-z
-x,-y,-z
x,-y,z
1/2+x,1/2+y,z
1/2-x,1/2+y,-z
1/2-x,1/2-y,-z
1/2+x,1/2-y,z
loop_
_atom_site_type_symbol
_atom_site_label
_atom_site_fract_x
_atom_site_fract_y
_atom_site_fract_z
Si Si1 0.120665 0.840616 0.678916
Si Si2 0.948593 0.000000 0.202934
Si Si3 0.911300 0.500000 0.395764
Si Si4 0.351493 0.000000 0.802959
Si Si5 0.827746 0.668598 0.746379
Si Si6 0.874972 0.330967 0.301285
Si Si7 0.183807 0.000000 0.045019
Si Si8 0.173480 0.161412 0.238908
O O1 0.050114 0.912555 0.713201
O O2 0.218787 0.844191 0.765087
O O3 0.080753 0.754653 0.741294
O O4 0.145804 0.843853 0.458101
O O5 0.844899 0.000000 0.162114
O O6 0.000000 0.000000 0.000000
O O7 0.834654 0.500000 0.574760
O O8 0.913064 0.419112 0.280832
O O9 0.000000 0.500000 0.500000
O O10 0.379619 0.907973 0.809604
O O11 0.288108 0.000000 0.997155
O O12 0.852417 0.675355 0.525315
O O13 0.854512 0.752513 0.829019
O O14 0.780885 0.333518 0.214878
O O15 0.149488 0.920749 0.147485
#
# Coordination Sequence:
#
# PCOD9173729 Si02
#       8
#     8   4   4   4   8   8   4   8
#     4   9  16  36  58  76 105 144 186 225 265 319
#     4  12  25  39  52  74 113 158 185 214 276 334
#     4  10  19  33  56  84 113 139 178 217 262 335
#     4  10  18  31  49  79 110 138 169 221 276 316
#     4   8  14  30  55  83 102 132 176 228 271 308
#     4   8  16  31  59  83 103 135 182 223 270 312
#     4  12  22  33  52  83 112 137 181 228 280 318
#     4   9  18  31  58  87 104 132 183 240 268 306
#
# _framework density 26.261818000000002
#
# number of rings (size 3 to 8) (size 9 to 14) (size 15 to 20)
#    0.000    2.667    1.667    3.000    0.000    2.000 
#    0.000    6.667    0.000    1.000    0.000    0.000 
#    0.000    0.000    0.000    0.000    0.000    0.000 
#
# Total GULP energy -133643.377894 kJ/mol
# GULP energy per Si atom -5568.474079 kJ/mol
# Density = 2.620205 g / cm^3
# Si number density = 26.261818 Si / 1000 Ang^3
#
#
#
# Elastic Constant Matrix: (Units=GPa)
#
#
# Indices 1 2 3 4 5 6 
#
# 1 61.9200 41.3869 15.5542 0.0000 -7.6645 0.0000
# 2 41.3869 281.1586 32.0173 0.0000 -17.2314 0.0000
# 3 15.5542 32.0173 60.7860 0.0000 -10.1898 0.0000
# 4 0.0000 0.0000 0.0000 17.3528 0.0000 12.9163
# 5 -7.6645 -17.2314 -10.1898 0.0000 26.8754 0.0000
# 6 0.0000 0.0000 0.0000 12.9163 0.0000 -13.0845
#
#
#
# Elastic Compliance Matrix: (Units=1/GPa)
#
#
# Indices 1 2 3 4 5 6 
#
# 1 0.018778 -0.002236 -0.003171 0.000000 0.002719 0.000000
# 2 -0.002236 0.004132 -0.001353 0.000000 0.001498 0.000000
# 3 -0.003171 -0.001353 0.018878 0.000000 0.005386 0.000000
# 4 0.000000 0.000000 0.000000 0.033219 0.000000 0.032792
# 5 0.002719 0.001498 0.005386 0.000000 0.040987 0.000000
# 6 0.000000 0.000000 0.000000 0.032792 0.000000 -0.044056
#
#
# Mechanical properties :
#
#
# Convention : Reuss Voigt Hill
#
# Bulk Modulus (GPa) = 35.37725 64.64238 50.00982
# Shear Modulus (GPa) = 52.69749 27.22249 39.95999
#
# Velocity S-wave (km/s) = 4.48439 3.22309 3.90500
# Velocity P-wave (km/s) = 6.34927 6.20638 6.27823
#
# Compressibility (1/GPa) = 0.02826675
#
# Stress axis : x y z
#
# Youngs Moduli (GPa) = 53.25443 242.02538 52.97155
#
# Poissons Ratio (x) = 0.54125 0.16798
# Poissons Ratio (y) = 0.11910 0.07166
# Poissons Ratio (z) = 0.16888 0.32743
#
# Static dielectric constant tensor:
#      x y z
#    x 2.212900 0.000000 -0.009560 
#    y 0.000000 2.198500 0.000000 
#    z -0.009560 0.000000 2.087900 
# 
# From -- ./inp_files/85760.got.cif
#   From: 2010.05.17/outbox.cif.g08.bks.cpg/sg12_43_cif.got.tgz:85760.got - 2010.06.03 13:09:07.
