data_PCOD9173505
_publ_section_title
;
Structure prediction by ZEFSAII (Michael W. Deem and Ramdas Pophale) SiO2 
 PCOD9173505
Probable space group: C 2/M
;
_chemical_formula_sum "Si O2"
_cell_formula_units_Z 64
_cell_length_a 11.851726
_cell_length_b 14.975253
_cell_length_c 26.243432
_cell_angle_alpha 90.000000
_cell_angle_beta 138.891601
_cell_angle_gamma 90.000000
_cell_volume 3062.405629
_symmetry_space_group_name_H-M "C 2/M"
_symmetry_group_IT_number 12
_symmetry_cell_setting 'monoclinic'
loop_
_space_group_symop_operation_xyz
x,y,z
-x,y,-z
-x,-y,-z
x,-y,z
1/2+x,1/2+y,z
1/2-x,1/2+y,-z
1/2-x,1/2-y,-z
1/2+x,1/2-y,z
loop_
_atom_site_type_symbol
_atom_site_label
_atom_site_fract_x
_atom_site_fract_y
_atom_site_fract_z
Si Si1 0.971368 0.390759 0.103000
Si Si2 0.685813 0.390368 0.083873
Si Si3 0.350758 0.196931 0.334297
Si Si4 0.870963 0.206619 0.643314
Si Si5 0.753514 0.606648 0.936683
Si Si6 0.132333 0.105883 0.176189
Si Si7 0.333245 0.606939 0.204978
Si Si8 0.380530 0.903736 0.508278
O O1 0.964015 0.500000 0.099902
O O2 0.836766 0.358786 0.098698
O O3 0.166371 0.365370 0.180882
O O4 0.903157 0.359925 0.024415
O O5 0.684413 0.500000 0.082942
O O6 0.718567 0.363388 0.153132
O O7 0.500000 0.362217 0.000000
O O8 0.257642 0.240411 0.353934
O O9 0.476918 0.242905 0.335457
O O10 0.201541 0.154905 0.249084
O O11 0.486126 0.126491 0.403730
O O12 0.756786 0.167681 0.558211
O O13 0.984556 0.133700 0.711529
O O14 0.786447 0.500000 0.941893
O O15 0.570883 0.616329 0.902288
O O16 0.715274 0.642448 0.867625
O O17 0.161577 0.000000 0.193431
O O18 0.333288 0.500000 0.201667
O O19 0.500000 0.913349 0.500000
O O20 0.300208 0.000000 0.493287
#
# Coordination Sequence:
#
# PCOD9173505 Si02
#       8
#     8   8   8   8   8   8   8   8
#     4   9  16  26  44  76 112 143 180 235 297 341
#     4   9  15  25  43  71 108 144 178 227 288 340
#     4  11  23  39  60  86 118 153 188 225 276 340
#     4  11  23  39  60  85 118 155 186 226 279 337
#     4   9  15  26  47  76 107 136 178 236 288 326
#     4  10  18  30  54  82 107 141 188 238 281 326
#     4  10  19  31  52  81 109 142 191 242 284 328
#     4   9  19  38  67  97 117 139 183 236 279 326
#
# _framework density 20.898603999999999
#
# number of rings (size 3 to 8) (size 9 to 14) (size 15 to 20)
#    0.000    2.250    2.500    1.500    0.000    3.500 
#    0.000    0.000    0.000    5.250    0.000    0.000 
#    0.000    0.000    0.000    0.000    0.000    0.000 
#
# Total GULP energy -178214.035256 kJ/mol
# GULP energy per Si atom -5569.188602 kJ/mol
# Density = 2.085104 g / cm^3
# Si number density = 20.898604 Si / 1000 Ang^3
#
#
#
# Elastic Constant Matrix: (Units=GPa)
#
#
# Indices 1 2 3 4 5 6 
#
# 1 95.1515 16.3538 -0.5688 0.0000 -2.4019 0.0000
# 2 16.3538 21.7879 6.8552 0.0000 -3.3923 0.0000
# 3 -0.5688 6.8552 76.7193 0.0000 -1.0529 0.0000
# 4 0.0000 0.0000 0.0000 -8.2727 0.0000 2.3944
# 5 -2.4019 -3.3923 -1.0529 0.0000 30.6795 0.0000
# 6 0.0000 0.0000 0.0000 2.3944 0.0000 17.6096
#
#
#
# Elastic Compliance Matrix: (Units=1/GPa)
#
#
# Indices 1 2 3 4 5 6 
#
# 1 0.012130 -0.009407 0.000930 0.000000 -0.000058 0.000000
# 2 -0.009407 0.055324 -0.004942 0.000000 0.005211 0.000000
# 3 0.000930 -0.004942 0.013483 0.000000 -0.000011 0.000000
# 4 0.000000 0.000000 0.000000 -0.116303 0.000000 0.015814
# 5 -0.000058 0.005211 -0.000011 0.000000 0.033166 0.000000
# 6 0.000000 0.000000 0.000000 0.015814 0.000000 0.054637
#
#
# Mechanical properties :
#
#
# Convention : Reuss Voigt Hill
#
# Bulk Modulus (GPa) = 18.48432 26.54878 22.51655
# Shear Modulus (GPa) = 51.38318 19.40451 35.39385
#
# Velocity S-wave (km/s) = 4.96390 3.05045 4.11980
# Velocity P-wave (km/s) = 6.45892 5.01380 5.78169
#
# Compressibility (1/GPa) = 0.05409990
#
# Stress axis : x y z
#
# Youngs Moduli (GPa) = 82.43786 18.07540 74.16837
#
# Poissons Ratio (x) = 0.17003 -0.06895
# Poissons Ratio (y) = 0.77546 0.36651
# Poissons Ratio (z) = -0.07664 0.08932
#
# Static dielectric constant tensor:
#      x y z
#    x 1.825410 0.000000 -0.019120 
#    y 0.000000 1.827180 0.000000 
#    z -0.019120 0.000000 1.789600 
# 
# From -- ./inp_files/358492.got.cif
#   From: 2010.05.17/outbox.cif.g08.bks.cpg/sg12_180_cif.got.tgz:358492.got - 2010.06.03 13:09:07.
