data_PCOD9173257
_publ_section_title
;
Structure prediction by ZEFSAII (Michael W. Deem and Ramdas Pophale) SiO2 
 PCOD9173257
Probable space group: C 2/M
;
_chemical_formula_sum "Si O2"
_cell_formula_units_Z 56
_cell_length_a 19.074800
_cell_length_b 26.467063
_cell_length_c 5.480501
_cell_angle_alpha 90.000000
_cell_angle_beta 56.584507
_cell_angle_gamma 90.000000
_cell_volume 2309.488950
_symmetry_space_group_name_H-M "C 2/M"
_symmetry_group_IT_number 12
_symmetry_cell_setting 'monoclinic'
loop_
_space_group_symop_operation_xyz
x,y,z
-x,y,-z
-x,-y,-z
x,-y,z
1/2+x,1/2+y,z
1/2-x,1/2+y,-z
1/2-x,1/2-y,-z
1/2+x,1/2-y,z
loop_
_atom_site_type_symbol
_atom_site_label
_atom_site_fract_x
_atom_site_fract_y
_atom_site_fract_z
Si Si1 0.409597 0.839907 0.619192
Si Si2 0.827610 0.838268 0.611959
Si Si3 0.367146 0.944646 0.529521
Si Si4 0.741054 0.943914 0.762973
Si Si5 0.006711 0.120429 0.237460
Si Si6 0.900744 0.304696 0.135642
Si Si7 0.339380 0.697106 0.091638
O O1 0.500000 0.815869 0.500000
O O2 0.422343 0.895539 0.477680
O O3 0.366264 0.810860 0.478630
O O4 0.372262 0.841301 0.965763
O O5 0.803346 0.896951 0.659582
O O6 0.929954 0.838807 0.397056
O O7 0.798422 0.808055 0.905608
O O8 0.792374 0.814141 0.433592
O O9 0.316843 0.938387 0.370599
O O10 0.409231 0.000000 0.439043
O O11 0.307616 0.944455 0.883754
O O12 0.779972 0.000000 0.663575
O O13 0.000000 0.090580 0.500000
O O14 0.092903 0.151348 0.059303
O O15 0.000000 0.090836 0.000000
O O16 0.883607 0.250004 0.055562
O O17 0.000000 0.312303 0.000000
#
# Coordination Sequence:
#
# PCOD9173257 Si02
#       7
#     8   8   8   8   8   8   8
#     4  10  21  35  56  84 110 135 164 211 269 316
#     4  10  18  30  51  76 103 136 183 224 253 301
#     4  10  21  39  60  79 102 135 174 216 265 321
#     4  10  21  37  58  79 100 136 183 225 264 308
#     4   8  15  25  42  69  99 128 166 211 251 287
#     4  10  19  32  52  81 114 142 172 208 255 314
#     4  10  18  30  51  78 107 142 179 216 255 303
#
# _framework density 24.247788
#
# number of rings (size 3 to 8) (size 9 to 14) (size 15 to 20)
#    0.000    2.286    0.000    3.857    0.000    4.286 
#    0.000    0.000    0.000   30.000    0.000    0.000 
#    0.000    0.000    0.000    0.000    0.000    0.000 
#
# Total GULP energy -156159.414805 kJ/mol
# GULP energy per Si atom -5577.121957 kJ/mol
# Density = 2.419260 g / cm^3
# Si number density = 24.247788 Si / 1000 Ang^3
#
#
#
# Elastic Constant Matrix: (Units=GPa)
#
#
# Indices 1 2 3 4 5 6 
#
# 1 107.7003 21.6115 55.2875 0.0000 38.7183 0.0000
# 2 21.6115 110.0633 26.0585 0.0000 22.7108 0.0000
# 3 55.2875 26.0585 183.8212 0.0000 75.7865 0.0000
# 4 0.0000 0.0000 0.0000 32.3130 0.0000 5.2754
# 5 38.7183 22.7108 75.7865 0.0000 56.2076 0.0000
# 6 0.0000 0.0000 0.0000 5.2754 0.0000 27.5221
#
#
#
# Elastic Compliance Matrix: (Units=1/GPa)
#
#
# Indices 1 2 3 4 5 6 
#
# 1 0.012416 -0.000758 -0.000511 0.000000 -0.007558 0.000000
# 2 -0.000758 0.009983 0.000587 0.000000 -0.004303 0.000000
# 3 -0.000511 0.000587 0.012302 0.000000 -0.016472 0.000000
# 4 0.000000 0.000000 0.000000 0.031947 0.000000 -0.006124
# 5 -0.007558 -0.004303 -0.016472 0.000000 0.046945 0.000000
# 6 0.000000 0.000000 0.000000 -0.006124 0.000000 0.037508
#
#
# Mechanical properties :
#
#
# Convention : Reuss Voigt Hill
#
# Bulk Modulus (GPa) = 29.99639 67.49999 48.74819
# Shear Modulus (GPa) = 30.56643 43.11704 36.84174
#
# Velocity S-wave (km/s) = 3.55433 4.22143 3.90216
# Velocity P-wave (km/s) = 5.40758 7.18739 6.36005
#
# Compressibility (1/GPa) = 0.03333735
#
# Stress axis : x y z
#
# Youngs Moduli (GPa) = 80.53847 100.16606 81.29023
#
# Poissons Ratio (x) = 0.07588 0.04155
# Poissons Ratio (y) = 0.06101 -0.04769
# Poissons Ratio (z) = 0.04117 -0.05876
#
# Static dielectric constant tensor:
#      x y z
#    x 1.973140 0.000000 0.046210 
#    y 0.000000 1.888360 0.000000 
#    z 0.046210 0.000000 2.101110 
# 
# From -- ./inp_files/26014.got.cif
#   From: 2010.05.17/outbox.cif.g08.bks.cpg/sg12_14_cif.got.tgz:26014.got - 2010.06.03 13:09:07.
