data_PCOD9173987
_publ_section_title
;
Structure prediction by ZEFSAII (Michael W. Deem and Ramdas Pophale) SiO2 
 PCOD9173987
Probable space group: C 2/M
;
_chemical_formula_sum "Si O2"
_cell_formula_units_Z 64
_cell_length_a 22.811718
_cell_length_b 21.513492
_cell_length_c 7.965743
_cell_angle_alpha 90.000000
_cell_angle_beta 109.568285
_cell_angle_gamma 90.000000
_cell_volume 3683.478251
_symmetry_space_group_name_H-M "C 2/M"
_symmetry_group_IT_number 12
_symmetry_cell_setting 'monoclinic'
loop_
_space_group_symop_operation_xyz
x,y,z
-x,y,-z
-x,-y,-z
x,-y,z
1/2+x,1/2+y,z
1/2-x,1/2+y,-z
1/2-x,1/2-y,-z
1/2+x,1/2-y,z
loop_
_atom_site_type_symbol
_atom_site_label
_atom_site_fract_x
_atom_site_fract_y
_atom_site_fract_z
Si Si1 0.297386 0.691735 0.041621
Si Si2 0.765296 0.432072 0.929142
Si Si3 0.894559 0.425900 0.651990
Si Si4 0.749869 0.571840 0.520041
Si Si5 0.415162 0.927941 0.044042
Si Si6 0.563726 0.849039 0.612143
Si Si7 0.330570 0.245740 0.390577
Si Si8 0.308821 0.310638 0.695836
O O1 0.260400 0.627089 0.999174
O O2 0.330315 0.699571 0.251833
O O3 0.250000 0.750000 0.000000
O O4 0.336788 0.694335 0.908898
O O5 0.747440 0.500000 0.980574
O O6 0.742288 0.427705 0.714433
O O7 0.840097 0.429981 0.994842
O O8 0.893644 0.500000 0.659098
O O9 0.821931 0.406922 0.566595
O O10 0.929042 0.402627 0.521301
O O11 0.923576 0.406408 0.859031
O O12 0.744088 0.500000 0.458103
O O13 0.704975 0.620215 0.385529
O O14 0.438202 0.880977 0.207943
O O15 0.437591 0.000000 0.085843
O O16 0.500000 0.815324 0.500000
O O17 0.622642 0.804997 0.638086
O O18 0.345074 0.272250 0.588862
O O19 0.260593 0.218850 0.346518
#
# Coordination Sequence:
#
# PCOD9173987 Si02
#       8
#     8   8   8   8   8   8   8   8
#     4  10  19  29  47  72  99 132 165 201 252 311
#     4   9  17  30  49  75 108 137 164 203 253 307
#     4   9  19  34  51  70  97 131 167 209 251 292
#     4   9  16  29  50  75 103 132 162 197 247 304
#     4   9  19  34  51  71  98 131 169 213 254 294
#     4  12  24  36  51  69  93 133 182 220 250 290
#     4  10  21  34  46  69  97 125 166 212 248 296
#     4  10  18  31  52  71  94 129 158 199 252 308
#
# _framework density 17.374881999999999
#
# number of rings (size 3 to 8) (size 9 to 14) (size 15 to 20)
#    0.000    2.250    2.500    3.375    0.000    3.000 
#    0.000    1.250    0.000    0.000    0.000    0.000 
#    0.000    2.000    0.000    2.250    0.000    0.000 
#
# Total GULP energy -178319.299945 kJ/mol
# GULP energy per Si atom -5572.478123 kJ/mol
# Density = 1.733534 g / cm^3
# Si number density = 17.374882 Si / 1000 Ang^3
#
#
#
# Elastic Constant Matrix: (Units=GPa)
#
#
# Indices 1 2 3 4 5 6 
#
# 1 22.6183 3.4239 11.0442 0.0000 -7.7417 0.0000
# 2 3.4239 57.8487 20.0636 0.0000 -6.3691 0.0000
# 3 11.0442 20.0636 58.7198 0.0000 -18.2445 0.0000
# 4 0.0000 0.0000 0.0000 19.0384 0.0000 -10.6894
# 5 -7.7417 -6.3691 -18.2445 0.0000 19.7805 0.0000
# 6 0.0000 0.0000 0.0000 -10.6894 0.0000 6.3097
#
#
#
# Elastic Compliance Matrix: (Units=1/GPa)
#
#
# Indices 1 2 3 4 5 6 
#
# 1 0.052025 0.000399 -0.004983 0.000000 0.015894 0.000000
# 2 0.000399 0.019614 -0.006681 0.000000 0.000310 0.000000
# 3 -0.004983 -0.006681 0.026598 0.000000 0.020431 0.000000
# 4 0.000000 0.000000 0.000000 1.076076 0.000000 1.822999
# 5 0.015894 0.000310 0.020431 0.000000 0.075720 0.000000
# 6 0.000000 0.000000 0.000000 1.822999 0.000000 3.246860
#
#
# Mechanical properties :
#
#
# Convention : Reuss Voigt Hill
#
# Bulk Modulus (GPa) = 13.20868 23.13891 18.17379
# Shear Modulus (GPa) = 1.10019 16.00274 8.55146
#
# Velocity S-wave (km/s) = 0.79661 3.03814 2.22091
# Velocity P-wave (km/s) = 2.90943 5.06492 4.13026
#
# Compressibility (1/GPa) = 0.07570779
#
# Stress axis : x y z
#
# Youngs Moduli (GPa) = 19.22157 50.98408 37.59683
#
# Poissons Ratio (x) = -0.02034 0.18734
# Poissons Ratio (y) = -0.00767 0.25117
# Poissons Ratio (z) = 0.09578 0.34060
#
# Static dielectric constant tensor:
#      x y z
#    x 1.597460 0.000000 -0.015080 
#    y 0.000000 1.623570 0.000000 
#    z -0.015080 0.000000 1.673220 
# 
# From -- ./inp_files/98892.got.cif
#   From: 2010.05.17/outbox.cif.g08.bks.cpg/sg12_50_cif.got.tgz:98892.got - 2010.06.03 13:09:07.
