data_PCOD9173246
_publ_section_title
;
Structure prediction by ZEFSAII (Michael W. Deem and Ramdas Pophale) SiO2 
 PCOD9173246
Probable space group: C 2/M
;
_chemical_formula_sum "Si O2"
_cell_formula_units_Z 56
_cell_length_a 16.171511
_cell_length_b 7.548605
_cell_length_c 17.278903
_cell_angle_alpha 90.000000
_cell_angle_beta 79.329966
_cell_angle_gamma 90.000000
_cell_volume 2072.806395
_symmetry_space_group_name_H-M "C 2/M"
_symmetry_group_IT_number 12
_symmetry_cell_setting 'monoclinic'
loop_
_space_group_symop_operation_xyz
x,y,z
-x,y,-z
-x,-y,-z
x,-y,z
1/2+x,1/2+y,z
1/2-x,1/2+y,-z
1/2-x,1/2-y,-z
1/2+x,1/2-y,z
loop_
_atom_site_type_symbol
_atom_site_label
_atom_site_fract_x
_atom_site_fract_y
_atom_site_fract_z
Si Si1 0.824786 0.794139 0.268854
Si Si2 0.744526 0.205324 0.875209
Si Si3 0.566387 0.294988 0.313410
Si Si4 0.381427 0.714940 0.977065
Si Si5 0.071393 0.286433 0.550467
Si Si6 0.004058 0.217086 0.831855
Si Si7 0.204263 0.295832 0.413298
O O1 0.760217 0.789699 0.207970
O O2 0.907776 0.713668 0.215855
O O3 0.782096 0.712440 0.352687
O O4 0.840961 0.000000 0.283544
O O5 0.811670 0.274145 0.925694
O O6 0.764041 0.000000 0.860015
O O7 0.655089 0.223377 0.935142
O O8 0.590747 0.500000 0.311027
O O9 0.470768 0.279763 0.363572
O O10 0.561205 0.237199 0.225617
O O11 0.629282 0.201797 0.361551
O O12 0.382558 0.500000 0.981537
O O13 0.468145 0.771139 0.921225
O O14 0.074688 0.500000 0.553132
O O15 0.158850 0.220229 0.497793
O O16 0.000000 0.235363 0.500000
O O17 0.009470 0.000000 0.833502
O O18 0.222942 0.500000 0.426174
#
# Coordination Sequence:
#
# PCOD9173246 Si02
#       7
#     8   8   8   8   8   8   8
#     4  10  20  35  53  71  96 133 170 198 235 292
#     4  10  20  34  53  78 103 124 156 205 249 284
#     4  10  18  30  51  76 100 126 161 206 248 285
#     4   9  18  35  56  74  96 129 164 197 239 292
#     4   8  15  29  47  70  99 128 161 200 242 289
#     4   9  19  34  51  72  98 130 167 202 237 285
#     4   9  18  32  51  73  97 128 165 203 242 288
#
# _framework density 27.016513
#
# number of rings (size 3 to 8) (size 9 to 14) (size 15 to 20)
#    0.000    2.714    0.000    2.571    0.000    5.429 
#    0.000    7.143    0.000    0.000    0.000    0.000 
#    0.000    0.000    0.000    0.000    0.000    0.000 
#
# Total GULP energy -156598.466501 kJ/mol
# GULP energy per Si atom -5592.802375 kJ/mol
# Density = 2.695502 g / cm^3
# Si number density = 27.016513 Si / 1000 Ang^3
#
#
#
# Elastic Constant Matrix: (Units=GPa)
#
#
# Indices 1 2 3 4 5 6 
#
# 1 84.7389 7.3807 36.2711 0.0000 -17.7075 0.0000
# 2 7.3807 77.1493 4.8763 0.0000 2.0948 0.0000
# 3 36.2711 4.8763 229.2826 0.0000 -18.3655 0.0000
# 4 0.0000 0.0000 0.0000 15.7299 0.0000 4.7336
# 5 -17.7075 2.0948 -18.3655 0.0000 56.9484 0.0000
# 6 0.0000 0.0000 0.0000 4.7336 0.0000 15.2028
#
#
#
# Elastic Compliance Matrix: (Units=1/GPa)
#
#
# Indices 1 2 3 4 5 6 
#
# 1 0.013447 -0.001271 -0.001808 0.000000 0.003645 0.000000
# 2 -0.001271 0.013118 -0.000152 0.000000 -0.000927 0.000000
# 3 -0.001808 -0.000152 0.004728 0.000000 0.000968 0.000000
# 4 0.000000 0.000000 0.000000 0.070146 0.000000 -0.021841
# 5 0.003645 -0.000927 0.000968 0.000000 0.019039 0.000000
# 6 0.000000 0.000000 0.000000 -0.021841 0.000000 0.072578
#
#
# Mechanical properties :
#
#
# Convention : Reuss Voigt Hill
#
# Bulk Modulus (GPa) = 40.27275 54.24747 47.26011
# Shear Modulus (GPa) = 24.06198 40.41906 32.24052
#
# Velocity S-wave (km/s) = 2.98760 3.87213 3.45826
# Velocity P-wave (km/s) = 5.18074 6.33357 5.78594
#
# Compressibility (1/GPa) = 0.02483068
#
# Stress axis : x y z
#
# Youngs Moduli (GPa) = 74.36412 76.22956 211.49355
#
# Poissons Ratio (x) = 0.09690 0.38244
# Poissons Ratio (y) = 0.09453 0.03218
# Poissons Ratio (z) = 0.13447 0.01160
#
# Static dielectric constant tensor:
#      x y z
#    x 2.231120 0.000000 -0.058930 
#    y 0.000000 1.972310 0.000000 
#    z -0.058930 0.000000 2.090770 
# 
# From -- ./inp_files/313666.got.cif
#   From: 2010.05.17/outbox.cif.g08.bks.cpg/sg12_157_cif.got.tgz:313666.got - 2010.06.03 13:09:07.
