data_PCOD9173348
_publ_section_title
;
Structure prediction by ZEFSAII (Michael W. Deem and Ramdas Pophale) SiO2 
 PCOD9173348
Probable space group: C 2/M
;
_chemical_formula_sum "Si O2"
_cell_formula_units_Z 56
_cell_length_a 19.347167
_cell_length_b 18.328677
_cell_length_c 9.647563
_cell_angle_alpha 90.000000
_cell_angle_beta 66.014143
_cell_angle_gamma 90.000000
_cell_volume 3125.676285
_symmetry_space_group_name_H-M "C 2/M"
_symmetry_group_IT_number 12
_symmetry_cell_setting 'monoclinic'
loop_
_space_group_symop_operation_xyz
x,y,z
-x,y,-z
-x,-y,-z
x,-y,z
1/2+x,1/2+y,z
1/2-x,1/2+y,-z
1/2-x,1/2-y,-z
1/2+x,1/2-y,z
loop_
_atom_site_type_symbol
_atom_site_label
_atom_site_fract_x
_atom_site_fract_y
_atom_site_fract_z
Si Si1 0.816826 0.414815 0.492765
Si Si2 0.604197 0.913194 0.022295
Si Si3 0.135339 0.785168 0.698508
Si Si4 0.690102 0.586376 0.816447
Si Si5 0.278178 0.317015 0.633909
Si Si6 0.949511 0.645695 0.230453
Si Si7 0.762423 0.165400 0.951402
O O1 0.827234 0.500000 0.463170
O O2 0.772046 0.404093 0.672926
O O3 0.761859 0.381948 0.419196
O O4 0.897129 0.376652 0.402544
O O5 0.535596 0.878924 0.166611
O O6 0.681884 0.874165 0.996418
O O7 0.608166 0.000000 0.038190
O O8 0.584067 0.895470 0.878115
O O9 0.133808 0.863819 0.770835
O O10 0.211208 0.743900 0.694935
O O11 0.154555 0.791176 0.520078
O O12 0.065861 0.731313 0.781387
O O13 0.673832 0.500000 0.830791
O O14 0.694742 0.622058 0.963413
O O15 0.301066 0.336973 0.769250
O O16 0.750000 0.250000 0.000000
#
# Coordination Sequence:
#
# PCOD9173348 Si02
#       7
#     8   8   8   8   8   8   8
#     4   9  16  29  48  71  99 135 169 208 255 297
#     4  11  21  32  48  79 108 136 171 207 250 306
#     4   9  16  33  50  73  93 133 175 219 252 298
#     4  10  20  31  48  75 106 131 163 213 266 305
#     4   9  17  28  51  69  94 130 183 215 249 291
#     4  10  18  30  52  72 102 137 172 212 248 302
#     4  12  21  33  49  71 101 138 169 213 256 305
#
# _framework density 17.916124
#
# number of rings (size 3 to 8) (size 9 to 14) (size 15 to 20)
#    0.000    2.000    4.286    3.000    0.000    0.571 
#    0.000    0.714    0.000    2.571    0.000    9.000 
#    0.000    0.000    0.000   28.857    0.000    0.000 
#
# Total GULP energy -156106.831077 kJ/mol
# GULP energy per Si atom -5575.243967 kJ/mol
# Density = 1.787535 g / cm^3
# Si number density = 17.916124 Si / 1000 Ang^3
#
#
#
# Elastic Constant Matrix: (Units=GPa)
#
#
# Indices 1 2 3 4 5 6 
#
# 1 21.6869 30.5697 11.8535 0.0000 -4.8087 0.0000
# 2 30.5697 138.8267 41.6320 0.0000 -3.3305 0.0000
# 3 11.8535 41.6320 92.2851 0.0000 14.7894 0.0000
# 4 0.0000 0.0000 0.0000 29.4741 0.0000 -1.5912
# 5 -4.8087 -3.3305 14.7894 0.0000 19.1833 0.0000
# 6 0.0000 0.0000 0.0000 -1.5912 0.0000 15.4353
#
#
#
# Elastic Compliance Matrix: (Units=1/GPa)
#
#
# Indices 1 2 3 4 5 6 
#
# 1 0.073872 -0.013746 -0.006700 0.000000 0.021297 0.000000
# 2 -0.013746 0.011323 -0.003543 0.000000 0.001251 0.000000
# 3 -0.006700 -0.003543 0.015589 0.000000 -0.014313 0.000000
# 4 0.000000 0.000000 0.000000 0.034118 0.000000 0.003517
# 5 0.021297 0.001251 -0.014313 0.000000 0.068719 0.000000
# 6 0.000000 0.000000 0.000000 0.003517 0.000000 0.065149
#
#
# Mechanical properties :
#
#
# Convention : Reuss Voigt Hill
#
# Bulk Modulus (GPa) = 18.93773 46.76768 32.85271
# Shear Modulus (GPa) = 14.95443 24.06811 19.51127
#
# Velocity S-wave (km/s) = 2.89224 3.66919 3.30363
# Velocity P-wave (km/s) = 4.66332 6.64161 5.73836
#
# Compressibility (1/GPa) = 0.05280463
#
# Stress axis : x y z
#
# Youngs Moduli (GPa) = 13.53693 88.31861 64.14982
#
# Poissons Ratio (x) = 1.21407 0.42980
# Poissons Ratio (y) = 0.18609 0.22727
# Poissons Ratio (z) = 0.09070 0.31289
#
# Static dielectric constant tensor:
#      x y z
#    x 1.595780 0.000000 -0.003240 
#    y 0.000000 1.634610 0.000000 
#    z -0.003240 0.000000 1.667720 
# 
# From -- ./inp_files/97648.got.cif
#   From: 2010.05.17/outbox.cif.g08.bks.cpg/sg12_49_cif.got.tgz:97648.got - 2010.06.03 13:09:07.
