data_PCOD9173824
_publ_section_title
;
Structure prediction by ZEFSAII (Michael W. Deem and Ramdas Pophale) SiO2 
 PCOD9173824
Probable space group: C 2/M
;
_chemical_formula_sum "Si O2"
_cell_formula_units_Z 64
_cell_length_a 19.053557
_cell_length_b 18.506914
_cell_length_c 11.857347
_cell_angle_alpha 90.000000
_cell_angle_beta 117.097011
_cell_angle_gamma 90.000000
_cell_volume 3722.228497
_symmetry_space_group_name_H-M "C 2/M"
_symmetry_group_IT_number 12
_symmetry_cell_setting 'monoclinic'
loop_
_space_group_symop_operation_xyz
x,y,z
-x,y,-z
-x,-y,-z
x,-y,z
1/2+x,1/2+y,z
1/2-x,1/2+y,-z
1/2-x,1/2-y,-z
1/2+x,1/2-y,z
loop_
_atom_site_type_symbol
_atom_site_label
_atom_site_fract_x
_atom_site_fract_y
_atom_site_fract_z
Si Si1 0.586240 0.702827 0.098176
Si Si2 0.396088 0.416506 0.263257
Si Si3 0.565637 0.583990 0.272466
Si Si4 0.798020 0.174855 0.021557
Si Si5 0.182106 0.084139 0.558914
Si Si6 0.008481 0.583237 0.142963
Si Si7 0.338188 0.913472 0.018989
Si Si8 0.666500 0.155846 0.234584
O O1 0.568369 0.636947 0.168597
O O2 0.635714 0.680035 0.025048
O O3 0.642321 0.761639 0.198252
O O4 0.500000 0.734248 0.000000
O O5 0.371946 0.500000 0.215298
O O6 0.484939 0.407383 0.284705
O O7 0.381105 0.410085 0.385412
O O8 0.342850 0.356381 0.163650
O O9 0.569187 0.500000 0.239657
O O10 0.638023 0.598611 0.409990
O O11 0.730169 0.115536 0.951330
O O12 0.750000 0.250000 0.000000
O O13 0.255322 0.135613 0.640796
O O14 0.209476 0.000000 0.579869
O O15 0.015340 0.500000 0.181050
O O16 0.088261 0.622264 0.233120
O O17 0.924443 0.612148 0.122802
O O18 0.000000 0.585160 0.000000
O O19 0.339026 0.000000 0.009951
O O20 0.325420 0.880513 0.884317
#
# Coordination Sequence:
#
# PCOD9173824 Si02
#       8
#     8   8   8   8   8   8   8   8
#     4  12  24  38  54  77 115 155 183 219 276 337
#     4  10  19  35  58  81 108 143 186 236 280 322
#     4  10  23  39  56  79 109 149 194 231 272 332
#     4  12  22  34  52  80 112 147 183 223 274 335
#     4  10  19  35  59  86 111 139 183 238 284 323
#     4   8  15  26  45  73 105 132 163 214 275 325
#     4  10  18  31  50  76 106 138 179 226 273 324
#     4  11  19  31  53  80 108 140 175 225 282 336
#
# _framework density 17.194001
#
# number of rings (size 3 to 8) (size 9 to 14) (size 15 to 20)
#    0.000    1.625    3.750    3.750    0.000    3.250 
#    0.000    0.000    0.000    0.000    0.000    0.875 
#    0.000    4.000    0.000    0.000    0.000    0.000 
#
# Total GULP energy -178400.330793 kJ/mol
# GULP energy per Si atom -5575.010337 kJ/mol
# Density = 1.715487 g / cm^3
# Si number density = 17.194001 Si / 1000 Ang^3
#
#
#
# Elastic Constant Matrix: (Units=GPa)
#
#
# Indices 1 2 3 4 5 6 
#
# 1 91.4163 16.6963 10.9256 0.0000 12.2546 0.0000
# 2 16.6963 62.4662 24.8991 0.0000 8.2074 0.0000
# 3 10.9256 24.8991 40.0550 0.0000 9.0364 0.0000
# 4 0.0000 0.0000 0.0000 -6.6229 0.0000 -7.2432
# 5 12.2546 8.2074 9.0364 0.0000 20.1167 0.0000
# 6 0.0000 0.0000 0.0000 -7.2432 0.0000 21.4446
#
#
#
# Elastic Compliance Matrix: (Units=1/GPa)
#
#
# Indices 1 2 3 4 5 6 
#
# 1 0.012257 -0.002235 -0.000529 0.000000 -0.006317 0.000000
# 2 -0.002235 0.021859 -0.012545 0.000000 -0.001921 0.000000
# 3 -0.000529 -0.012545 0.035253 0.000000 -0.010396 0.000000
# 4 0.000000 0.000000 0.000000 -0.110261 0.000000 -0.037242
# 5 -0.006317 -0.001921 -0.010396 0.000000 0.059012 0.000000
# 6 0.000000 0.000000 0.000000 -0.037242 0.000000 0.034053
#
#
# Mechanical properties :
#
#
# Convention : Reuss Voigt Hill
#
# Bulk Modulus (GPa) = 25.80523 33.21994 29.51258
# Shear Modulus (GPa) = 52.24208 16.41544 34.32876
#
# Velocity S-wave (km/s) = 5.51814 3.09320 4.47313
# Velocity P-wave (km/s) = 7.45927 5.66744 6.62422
#
# Compressibility (1/GPa) = 0.03875183
#
# Stress axis : x y z
#
# Youngs Moduli (GPa) = 81.58412 45.74773 28.36615
#
# Poissons Ratio (x) = 0.10227 0.01499
# Poissons Ratio (y) = 0.18238 0.35585
# Poissons Ratio (z) = 0.04312 0.57390
#
# Static dielectric constant tensor:
#      x y z
#    x 1.620700 0.000000 0.017690 
#    y 0.000000 1.601140 0.000000 
#    z 0.017690 0.000000 1.562290 
# 
# From -- ./inp_files/168495.got.cif
#   From: 2010.05.17/outbox.cif.g08.bks.cpg/sg12_85_cif.got.tgz:168495.got - 2010.06.03 13:09:07.
