data_PCOD9173287
_publ_section_title
;
Structure prediction by ZEFSAII (Michael W. Deem and Ramdas Pophale) SiO2 
 PCOD9173287
Probable space group: C 2/M
;
_chemical_formula_sum "Si O2"
_cell_formula_units_Z 40
_cell_length_a 14.517939
_cell_length_b 14.914373
_cell_length_c 16.192817
_cell_angle_alpha 90.000000
_cell_angle_beta 139.085382
_cell_angle_gamma 90.000000
_cell_volume 2296.305522
_symmetry_space_group_name_H-M "C 2/M"
_symmetry_group_IT_number 12
_symmetry_cell_setting 'monoclinic'
loop_
_space_group_symop_operation_xyz
x,y,z
-x,y,-z
-x,-y,-z
x,-y,z
1/2+x,1/2+y,z
1/2-x,1/2+y,-z
1/2-x,1/2-y,-z
1/2+x,1/2-y,z
loop_
_atom_site_type_symbol
_atom_site_label
_atom_site_fract_x
_atom_site_fract_y
_atom_site_fract_z
Si Si1 0.469640 0.103950 0.176557
Si Si2 0.772112 0.603687 0.763581
Si Si3 0.368291 0.258552 0.455507
Si Si4 0.575518 0.282830 0.320549
Si Si5 0.691990 0.607080 0.895067
O O1 0.568351 0.109232 0.161867
O O2 0.533460 0.178090 0.280497
O O3 0.476127 0.000000 0.209227
O O4 0.310932 0.127427 0.043285
O O5 0.728597 0.500000 0.726323
O O6 0.680818 0.664957 0.641326
O O7 0.753456 0.629985 0.845945
O O8 0.500000 0.211725 0.500000
O O9 0.413294 0.299756 0.574226
O O10 0.227677 0.203125 0.382035
O O11 0.453711 0.340713 0.196320
O O12 0.669476 0.500000 0.881927
#
# Coordination Sequence:
#
# PCOD9173287 Si02
#       5
#     8   8   8   8   8
#     4   9  18  32  50  74 103 131 164 202 246 298
#     4   9  17  29  49  77 104 128 154 199 263 311
#     4  10  19  33  48  70 102 133 166 205 240 292
#     4  10  20  32  51  74 100 136 167 199 248 294
#     4  10  18  30  51  78 104 127 158 204 254 305
#
# _framework density 17.419284999999999
#
# number of rings (size 3 to 8) (size 9 to 14) (size 15 to 20)
#    0.000    2.400    2.000    1.200    0.000    3.600 
#    0.000    3.000    0.000    2.400    0.000    2.800 
#    0.000    0.000    0.000    0.000    0.000    0.000 
#
# Total GULP energy -111416.207537 kJ/mol
# GULP energy per Si atom -5570.810377 kJ/mol
# Density = 1.737964 g / cm^3
# Si number density = 17.419285 Si / 1000 Ang^3
#
#
#
# Elastic Constant Matrix: (Units=GPa)
#
#
# Indices 1 2 3 4 5 6 
#
# 1 80.0006 5.9334 23.1543 0.0000 21.2379 0.0000
# 2 5.9334 18.1122 19.4218 0.0000 7.7477 0.0000
# 3 23.1543 19.4218 66.8349 0.0000 17.9265 0.0000
# 4 0.0000 0.0000 0.0000 16.0722 0.0000 -2.5169
# 5 21.2379 7.7477 17.9265 0.0000 30.7965 0.0000
# 6 0.0000 0.0000 0.0000 -2.5169 0.0000 12.5328
#
#
#
# Elastic Compliance Matrix: (Units=1/GPa)
#
#
# Indices 1 2 3 4 5 6 
#
# 1 0.015906 0.002945 -0.003822 0.000000 -0.009485 0.000000
# 2 0.002945 0.082375 -0.022343 0.000000 -0.009749 0.000000
# 3 -0.003822 -0.022343 0.024369 0.000000 -0.005928 0.000000
# 4 0.000000 0.000000 0.000000 0.064239 0.000000 0.012901
# 5 -0.009485 -0.009749 -0.005928 0.000000 0.044916 0.000000
# 6 0.000000 0.000000 0.000000 0.012901 0.000000 0.082381
#
#
# Mechanical properties :
#
#
# Convention : Reuss Voigt Hill
#
# Bulk Modulus (GPa) = 13.12160 29.10741 21.11451
# Shear Modulus (GPa) = 12.95235 19.64285 16.29760
#
# Velocity S-wave (km/s) = 2.72979 3.36169 3.06209
# Velocity P-wave (km/s) = 4.18149 5.64040 4.96483
#
# Compressibility (1/GPa) = 0.07621020
#
# Stress axis : x y z
#
# Youngs Moduli (GPa) = 62.87053 12.13954 41.03524
#
# Poissons Ratio (x) = -0.03575 0.15685
# Poissons Ratio (y) = -0.18517 0.91686
# Poissons Ratio (z) = 0.24030 0.27124
#
# Static dielectric constant tensor:
#      x y z
#    x 1.613930 0.000000 0.030750 
#    y 0.000000 1.578660 0.000000 
#    z 0.030750 0.000000 1.606810 
# 
# From -- ./inp_files/58931.got.cif
#   From: 2010.05.17/outbox.cif.g08.bks.cpg/sg12_30_cif.got.tgz:58931.got - 2010.06.03 13:09:07.
