data_PCOD9173871
_publ_section_title
;
Structure prediction by ZEFSAII (Michael W. Deem and Ramdas Pophale) SiO2 
 PCOD9173871
Probable space group: C 2/M
;
_chemical_formula_sum "Si O2"
_cell_formula_units_Z 64
_cell_length_a 21.120557
_cell_length_b 7.461112
_cell_length_c 25.494562
_cell_angle_alpha 90.000000
_cell_angle_beta 52.413778
_cell_angle_gamma 90.000000
_cell_volume 3183.617380
_symmetry_space_group_name_H-M "C 2/M"
_symmetry_group_IT_number 12
_symmetry_cell_setting 'monoclinic'
loop_
_space_group_symop_operation_xyz
x,y,z
-x,y,-z
-x,-y,-z
x,-y,z
1/2+x,1/2+y,z
1/2-x,1/2+y,-z
1/2-x,1/2-y,-z
1/2+x,1/2-y,z
loop_
_atom_site_type_symbol
_atom_site_label
_atom_site_fract_x
_atom_site_fract_y
_atom_site_fract_z
Si Si1 0.526894 0.780984 0.292950
Si Si2 0.265581 0.714599 0.075116
Si Si3 0.789346 0.719518 0.785521
Si Si4 0.758670 0.281731 0.577892
Si Si5 0.466563 0.216968 0.208230
Si Si6 0.282151 0.709182 0.286987
Si Si7 0.117676 0.290118 0.567895
Si Si8 0.877558 0.713732 0.927498
O O1 0.618182 0.727470 0.255081
O O2 0.493996 0.726367 0.252598
O O3 0.465771 0.716654 0.368576
O O4 0.525703 0.000000 0.293666
O O5 0.257734 0.500000 0.080641
O O6 0.257841 0.778794 0.138492
O O7 0.190842 0.783608 0.077892
O O8 0.345371 0.752973 0.002056
O O9 0.787149 0.500000 0.786378
O O10 0.752403 0.784181 0.749608
O O11 0.758804 0.500000 0.577563
O O12 0.750658 0.216425 0.641364
O O13 0.836134 0.217586 0.506328
O O14 0.681271 0.226182 0.583302
O O15 0.377867 0.279021 0.240174
O O16 0.535238 0.278739 0.133249
O O17 0.464133 0.000000 0.209302
O O18 0.259484 0.500000 0.298891
O O19 0.104408 0.500000 0.564142
O O20 0.879427 0.500000 0.919359
#
# Coordination Sequence:
#
# PCOD9173871 Si02
#       8
#     8   8   8   8   8   8   8   8
#     4   9  15  27  49  72  90 118 163 199 222 266
#     4   9  16  29  49  70  92 120 155 190 230 281
#     4   9  17  31  49  69  95 128 159 189 231 283
#     4   9  17  28  42  68 100 123 148 190 240 276
#     4  10  18  31  51  72  93 121 161 198 228 273
#     4  10  20  32  47  69 100 129 153 190 239 282
#     4   9  16  27  47  70  91 120 159 195 227 272
#     4   9  17  29  48  73  95 115 149 199 241 269
#
# _framework density 20.102920000000001
#
# number of rings (size 3 to 8) (size 9 to 14) (size 15 to 20)
#    0.000    2.750    2.500    0.000    0.000    0.500 
#    0.000    1.875    0.000    9.750    0.000    0.000 
#    0.000    5.000    0.000    0.000    0.000    0.000 
#
# Total GULP energy -178494.736578 kJ/mol
# GULP energy per Si atom -5577.960518 kJ/mol
# Density = 2.005716 g / cm^3
# Si number density = 20.102920 Si / 1000 Ang^3
#
#
#
# Elastic Constant Matrix: (Units=GPa)
#
#
# Indices 1 2 3 4 5 6 
#
# 1 94.1304 -10.0242 66.0661 0.0016 10.1799 -0.0001
# 2 -10.0242 55.7154 -6.1980 -0.0161 1.5932 -0.0034
# 3 66.0661 -6.1980 198.4326 0.0013 10.3912 0.0000
# 4 0.0016 -0.0161 0.0013 7.6923 0.0002 -3.0880
# 5 10.1799 1.5932 10.3912 0.0002 23.8549 -0.0005
# 6 -0.0001 -0.0034 0.0000 -3.0880 -0.0005 11.4337
#
#
#
# Elastic Compliance Matrix: (Units=1/GPa)
#
#
# Indices 1 2 3 4 5 6 
#
# 1 0.014516 0.002232 -0.004535 0.000003 -0.004369 0.000001
# 2 0.002232 0.018406 -0.000055 0.000045 -0.002158 0.000017
# 3 -0.004535 -0.000055 0.006596 0.000000 -0.000935 0.000000
# 4 0.000003 0.000045 0.000000 0.145808 -0.000005 0.039379
# 5 -0.004369 -0.002158 -0.000935 -0.000005 0.044336 0.000000
# 6 0.000001 0.000017 0.000000 0.039379 0.000000 0.098096
#
#
# Mechanical properties :
#
#
# Convention : Reuss Voigt Hill
#
# Bulk Modulus (GPa) = 28.73313 49.77402 39.25358
# Shear Modulus (GPa) = 14.53174 28.49182 21.51178
#
# Velocity S-wave (km/s) = 2.69154 3.76879 3.27476
# Velocity P-wave (km/s) = 4.89726 6.61451 5.81957
#
# Compressibility (1/GPa) = 0.03480303
#
# Stress axis : x y z
#
# Youngs Moduli (GPa) = 68.88781 54.33145 151.59664
#
# Poissons Ratio (x) = -0.12128 0.68743
# Poissons Ratio (y) = -0.15377 0.00839
# Poissons Ratio (z) = 0.31238 0.00301
#
# Static dielectric constant tensor:
#      x y z
#    x 1.658100 0.000000 0.009320 
#    y 0.000000 1.779100 0.000000 
#    z 0.009320 0.000000 1.739410 
# 
# From -- ./inp_files/343069.got.cif
#   From: 2010.05.17/outbox.cif.g08.bks.cpg/sg12_172_cif.got.tgz:343069.got - 2010.06.03 13:09:07.
