data_PCOD9173422
_publ_section_title
;
Structure prediction by ZEFSAII (Michael W. Deem and Ramdas Pophale) SiO2 
 PCOD9173422
Probable space group: C 2/M
;
_chemical_formula_sum "Si O2"
_cell_formula_units_Z 52
_cell_length_a 32.109743
_cell_length_b 9.023116
_cell_length_c 14.352557
_cell_angle_alpha 90.000000
_cell_angle_beta 137.275599
_cell_angle_gamma 90.000000
_cell_volume 2821.336965
_symmetry_space_group_name_H-M "C 2/M"
_symmetry_group_IT_number 12
_symmetry_cell_setting 'monoclinic'
loop_
_space_group_symop_operation_xyz
x,y,z
-x,y,-z
-x,-y,-z
x,-y,z
1/2+x,1/2+y,z
1/2-x,1/2+y,-z
1/2-x,1/2-y,-z
1/2+x,1/2-y,z
loop_
_atom_site_type_symbol
_atom_site_label
_atom_site_fract_x
_atom_site_fract_y
_atom_site_fract_z
Si Si1 0.302366 0.821644 0.739416
Si Si2 0.411219 0.668368 0.019544
Si Si3 0.620117 0.827355 0.305260
Si Si4 0.963439 0.179468 0.302345
Si Si5 0.594110 0.320941 0.601870
Si Si6 0.826258 0.321790 0.417271
Si Si7 0.000000 0.237569 0.000000
O O1 0.329362 0.766252 0.684068
O O2 0.240075 0.740442 0.663949
O O3 0.294717 0.000000 0.725503
O O4 0.356174 0.774727 0.898815
O O5 0.388387 0.500000 0.997610
O O6 0.443382 0.724748 0.166581
O O7 0.459960 0.661256 0.014944
O O8 0.628700 0.769405 0.423810
O O9 0.634423 0.000000 0.335691
O O10 0.553505 0.815652 0.148335
O O11 0.916654 0.221919 0.308088
O O12 0.031363 0.225807 0.445533
O O13 0.965223 0.000000 0.305019
O O14 0.598997 0.500000 0.605353
O O15 0.649688 0.246823 0.639099
O O16 0.825725 0.500000 0.409627
#
# Coordination Sequence:
#
# PCOD9173422 Si02
#       7
#     8   8   8   8   8   8   4
#     4  10  21  37  53  72  99 138 178 210 248 304
#     4  10  19  33  52  78 108 136 166 209 255 298
#     4   9  19  33  51  75 106 138 169 205 251 301
#     4   8  16  32  55  78 104 136 169 204 251 301
#     4   9  17  33  55  78 102 134 172 208 246 303
#     4  11  21  34  52  77 104 133 169 215 259 296
#     4  10  18  30  52  82 109 136 165 200 247 308
#
# _framework density 18.430976999999999
#
# number of rings (size 3 to 8) (size 9 to 14) (size 15 to 20)
#    0.000    2.462    0.000    3.692    0.000    0.615 
#    0.000   11.538    0.000    0.000    0.000    0.000 
#    0.000    0.000    0.000    0.000    0.000    0.000 
#
# Total GULP energy -144797.603472 kJ/mol
# GULP energy per Si atom -5569.138595 kJ/mol
# Density = 1.838903 g / cm^3
# Si number density = 18.430977 Si / 1000 Ang^3
#
#
#
# Elastic Constant Matrix: (Units=GPa)
#
#
# Indices 1 2 3 4 5 6 
#
# 1 107.7214 23.4734 39.1062 0.0000 0.3674 0.0000
# 2 23.4734 36.5175 6.8943 0.0000 -0.4087 0.0000
# 3 39.1062 6.8943 64.5037 0.0000 -12.9852 0.0000
# 4 0.0000 0.0000 0.0000 22.3309 0.0000 -2.2766
# 5 0.3674 -0.4087 -12.9852 0.0000 32.5818 0.0000
# 6 0.0000 0.0000 0.0000 -2.2766 0.0000 20.5729
#
#
#
# Elastic Compliance Matrix: (Units=1/GPa)
#
#
# Indices 1 2 3 4 5 6 
#
# 1 0.013962 -0.007430 -0.008394 0.000000 -0.003596 0.000000
# 2 -0.007430 0.031927 0.001294 0.000000 0.001000 0.000000
# 3 -0.008394 0.001294 0.022262 0.000000 0.008983 0.000000
# 4 0.000000 0.000000 0.000000 0.045292 0.000000 0.005012
# 5 -0.003596 0.001000 0.008983 0.000000 0.034325 0.000000
# 6 0.000000 0.000000 0.000000 0.005012 0.000000 0.049162
#
#
# Mechanical properties :
#
#
# Convention : Reuss Voigt Hill
#
# Bulk Modulus (GPa) = 25.58238 38.63225 32.10732
# Shear Modulus (GPa) = 20.91845 24.38169 22.65007
#
# Velocity S-wave (km/s) = 3.37257 3.64107 3.50939
# Velocity P-wave (km/s) = 5.39221 6.21953 5.82058
#
# Compressibility (1/GPa) = 0.03908940
#
# Stress axis : x y z
#
# Youngs Moduli (GPa) = 71.62281 31.32118 44.91870
#
# Poissons Ratio (x) = 0.23272 0.37707
# Poissons Ratio (y) = 0.53217 -0.05810
# Poissons Ratio (z) = 0.60124 -0.04051
#
# Static dielectric constant tensor:
#      x y z
#    x 1.640890 0.000000 -0.021760 
#    y 0.000000 1.631350 0.000000 
#    z -0.021760 0.000000 1.644190 
# 
# From -- ./inp_files/249594.got.cif
#   From: 2010.05.17/outbox.cif.g08.bks.cpg/sg12_125_cif.got.tgz:249594.got - 2010.06.03 13:09:07.
