data_PCOD9173574
_publ_section_title
;
Structure prediction by ZEFSAII (Michael W. Deem and Ramdas Pophale) SiO2 
 PCOD9173574
Probable space group: C 2/M
;
_chemical_formula_sum "Si O2"
_cell_formula_units_Z 64
_cell_length_a 11.262224
_cell_length_b 27.686458
_cell_length_c 26.653809
_cell_angle_alpha 90.000000
_cell_angle_beta 152.406684
_cell_angle_gamma 90.000000
_cell_volume 3849.572471
_symmetry_space_group_name_H-M "C 2/M"
_symmetry_group_IT_number 12
_symmetry_cell_setting 'monoclinic'
loop_
_space_group_symop_operation_xyz
x,y,z
-x,y,-z
-x,-y,-z
x,-y,z
1/2+x,1/2+y,z
1/2-x,1/2+y,-z
1/2-x,1/2-y,-z
1/2+x,1/2-y,z
loop_
_atom_site_type_symbol
_atom_site_label
_atom_site_fract_x
_atom_site_fract_y
_atom_site_fract_z
Si Si1 0.704558 0.315791 0.392643
Si Si2 0.848425 0.802125 0.518523
Si Si3 0.304630 0.814969 0.120127
Si Si4 0.285521 0.710230 0.082611
Si Si5 0.455978 0.629526 0.217806
Si Si6 0.901583 0.290686 0.674197
Si Si7 0.898673 0.364802 0.061272
Si Si8 0.780199 0.944900 0.077809
O O1 0.644639 0.331105 0.427028
O O2 0.657591 0.358413 0.335918
O O3 0.553113 0.266663 0.319759
O O4 0.000000 0.301018 0.500000
O O5 0.750000 0.750000 0.500000
O O6 0.654531 0.815405 0.400724
O O7 0.132416 0.796655 0.602865
O O8 0.392739 0.763759 0.128660
O O9 0.387981 0.812048 0.209369
O O10 0.415167 0.857507 0.126820
O O11 0.000000 0.818384 0.000000
O O12 0.454962 0.674013 0.178715
O O13 0.240938 0.683228 0.013421
O O14 0.000000 0.711757 0.000000
O O15 0.461505 0.581658 0.186254
O O16 0.180252 0.632100 0.142477
O O17 0.749643 0.410642 0.982095
O O18 0.849413 0.000000 0.092779
O O19 0.500000 0.944828 0.000000
#
# Coordination Sequence:
#
# PCOD9173574 Si02
#       8
#     8   8   8   8   8   8   8   8
#     4  11  18  29  42  63  87 115 159 194 225 262
#     4   9  17  31  44  57  78 119 168 201 218 247
#     4  11  20  29  38  62  96 127 156 184 220 261
#     4   8  15  26  37  56  85 119 144 167 209 258
#     4   9  16  28  45  65  89 112 146 187 227 271
#     4  10  18  31  43  57  85 128 167 196 216 251
#     4   9  17  29  43  63  89 118 149 181 216 271
#     4   8  15  30  51  71  89 109 139 180 230 285
#
# _framework density 16.625222999999998
#
# number of rings (size 3 to 8) (size 9 to 14) (size 15 to 20)
#    0.000    2.625    3.750    2.625    0.000    0.000 
#    9.000    0.000    0.000    0.750    0.000    0.000 
#    0.000    0.000    0.000    9.250    0.000    0.000 
#
# Total GULP energy -178146.958107 kJ/mol
# GULP energy per Si atom -5567.092441 kJ/mol
# Density = 1.658738 g / cm^3
# Si number density = 16.625223 Si / 1000 Ang^3
#
#
#
# Elastic Constant Matrix: (Units=GPa)
#
#
# Indices 1 2 3 4 5 6 
#
# 1 53.1443 13.7326 24.5088 -0.0017 -23.3698 -0.0008
# 2 13.7326 60.2989 13.8362 -0.0018 -16.9352 -0.0020
# 3 24.5088 13.8362 84.4077 0.0090 -29.6691 -0.0011
# 4 -0.0017 -0.0018 0.0090 8.9035 0.0005 -2.6327
# 5 -23.3698 -16.9352 -29.6691 0.0005 29.8278 -0.0019
# 6 -0.0008 -0.0020 -0.0011 -2.6327 -0.0019 9.2027
#
#
#
# Elastic Compliance Matrix: (Units=1/GPa)
#
#
# Indices 1 2 3 4 5 6 
#
# 1 0.028736 -0.000303 -0.000678 0.000008 0.021668 0.000009
# 2 -0.000303 0.019798 0.001092 0.000005 0.012089 0.000008
# 3 -0.000678 0.001092 0.018292 -0.000019 0.018283 0.000001
# 4 0.000008 0.000005 -0.000019 0.122693 -0.000010 0.035100
# 5 0.021668 0.012089 0.018283 -0.000010 0.075552 0.000019
# 6 0.000009 0.000008 0.000001 0.035100 0.000019 0.118705
#
#
# Mechanical properties :
#
#
# Convention : Reuss Voigt Hill
#
# Bulk Modulus (GPa) = 14.91498 33.55625 24.23561
# Shear Modulus (GPa) = 12.31824 19.30505 15.81164
#
# Velocity S-wave (km/s) = 2.72497 3.41132 3.08728
# Velocity P-wave (km/s) = 4.34642 5.97862 5.22663
#
# Compressibility (1/GPa) = 0.06704668
#
# Stress axis : x y z
#
# Youngs Moduli (GPa) = 34.79969 50.51067 54.67012
#
# Poissons Ratio (x) = 0.01532 0.03706
# Poissons Ratio (y) = 0.01056 -0.05970
# Poissons Ratio (z) = 0.02359 -0.05516
#
# Static dielectric constant tensor:
#      x y z
#    x 1.615580 0.000000 -0.028280 
#    y 0.000000 1.545110 0.000000 
#    z -0.028280 0.000000 1.622840 
# 
# From -- ./inp_files/359204.got.cif
#   From: 2010.05.17/outbox.cif.g08.bks.cpg/sg12_180_cif.got.tgz:359204.got - 2010.06.03 13:09:07.
