data_PCOD9173838
_publ_section_title
;
Structure prediction by ZEFSAII (Michael W. Deem and Ramdas Pophale) SiO2 
 PCOD9173838
Probable space group: C 2/M
;
_chemical_formula_sum "Si O2"
_cell_formula_units_Z 42
_cell_length_a 17.583693
_cell_length_b 13.349807
_cell_length_c 18.838848
_cell_angle_alpha 90.000000
_cell_angle_beta 31.405820
_cell_angle_gamma 90.000000
_cell_volume 2304.397723
_symmetry_space_group_name_H-M "C 2/M"
_symmetry_group_IT_number 12
_symmetry_cell_setting 'monoclinic'
loop_
_space_group_symop_operation_xyz
x,y,z
-x,y,-z
-x,-y,-z
x,-y,z
1/2+x,1/2+y,z
1/2-x,1/2+y,-z
1/2-x,1/2-y,-z
1/2+x,1/2-y,z
loop_
_atom_site_type_symbol
_atom_site_label
_atom_site_fract_x
_atom_site_fract_y
_atom_site_fract_z
Si Si1 0.597945 0.615960 0.629083
Si Si2 0.356500 0.113807 0.871162
Si Si3 0.736182 0.317254 0.116883
Si Si4 0.000000 0.000000 0.500000
Si Si5 0.290833 0.889766 0.225931
Si Si6 0.834963 0.307122 0.339019
O O1 0.615460 0.500000 0.633174
O O2 0.428831 0.640217 0.751449
O O3 0.690113 0.640748 0.485023
O O4 0.656644 0.692790 0.641638
O O5 0.275508 0.198679 0.889757
O O6 0.528740 0.137495 0.732273
O O7 0.325576 0.000000 0.875463
O O8 0.311225 0.132982 0.988886
O O9 0.807126 0.344527 0.135091
O O10 0.880067 0.914806 0.622485
O O11 0.344804 0.821657 0.247373
O O12 0.363383 0.000000 0.173225
#
# Coordination Sequence:
#
# PCOD9173838 Si02
#       6
#     8   8   8   2   8   8
#     4  10  19  34  53  73 100 139 173 212 251 313
#     4  10  20  36  51  74 106 140 168 216 259 308
#     4  10  21  33  54  77 100 136 183 206 254 317
#     4   8  20  28  52  74 106 128 164 206 276 288
#     4  10  18  31  50  78 101 131 164 219 257 301
#     4  10  21  32  51  78 105 129 171 216 266 304
#
# _framework density 18.226019999999998
#
# number of rings (size 3 to 8) (size 9 to 14) (size 15 to 20)
#    0.571    1.524    0.000    4.571    2.667    0.762 
#    0.000    2.857    0.000    0.000    0.000   17.333 
#    0.000    0.000    0.000    0.000    0.000    0.000 
#
# Total GULP energy -116910.763302 kJ/mol
# GULP energy per Si atom -5567.179205 kJ/mol
# Density = 1.818454 g / cm^3
# Si number density = 18.226020 Si / 1000 Ang^3
#
#
#
# Elastic Constant Matrix: (Units=GPa)
#
#
# Indices 1 2 3 4 5 6 
#
# 1 63.6843 36.5051 7.0808 0.0000 33.4054 0.0000
# 2 36.5051 154.1663 15.6081 0.0001 21.3462 0.0000
# 3 7.0808 15.6081 58.1607 0.0002 2.6362 0.0000
# 4 0.0000 0.0001 0.0002 14.3934 -0.0001 -1.7222
# 5 33.4054 21.3462 2.6362 -0.0001 30.9985 0.0000
# 6 0.0000 0.0000 0.0000 -1.7222 0.0000 -0.1874
#
#
#
# Elastic Compliance Matrix: (Units=1/GPa)
#
#
# Indices 1 2 3 4 5 6 
#
# 1 0.038126 -0.003497 -0.001958 0.000000 -0.038512 0.000001
# 2 -0.003497 0.007664 -0.001569 0.000000 -0.001375 0.000000
# 3 -0.001958 -0.001569 0.017777 0.000000 0.001678 -0.000001
# 4 0.000000 0.000000 0.000000 0.033091 0.000000 -0.304099
# 5 -0.038512 -0.001375 0.001678 0.000000 0.074566 -0.000001
# 6 0.000001 0.000000 -0.000001 -0.304099 -0.000001 -2.541592
#
#
# Mechanical properties :
#
#
# Convention : Reuss Voigt Hill
#
# Bulk Modulus (GPa) = 20.19390 43.82214 32.00802
# Shear Modulus (GPa) = -2.13692 23.49538 10.67923
#
# Velocity S-wave (km/s) = -1.08397 3.59432 2.42323
# Velocity P-wave (km/s) = 3.08822 6.42817 5.04274
#
# Compressibility (1/GPa) = 0.04951991
#
# Stress axis : x y z
#
# Youngs Moduli (GPa) = 26.22881 130.48265 56.25256
#
# Poissons Ratio (x) = 0.45634 0.11012
# Poissons Ratio (y) = 0.09173 0.08824
# Poissons Ratio (z) = 0.05135 0.20467
#
# Static dielectric constant tensor:
#      x y z
#    x 1.620430 0.000000 -0.016390 
#    y 0.000000 1.617090 0.000000 
#    z -0.016390 0.000000 1.667140 
# 
# From -- ./inp_files/320857.got.cif
#   From: 2010.05.17/outbox.cif.g08.bks.cpg/sg12_161_cif.got.tgz:320857.got - 2010.06.03 13:09:07.
