data_PCOD9173977
_publ_section_title
;
Structure prediction by ZEFSAII (Michael W. Deem and Ramdas Pophale) SiO2 
 PCOD9173977
Probable space group: C 2/M
;
_chemical_formula_sum "Si O2"
_cell_formula_units_Z 64
_cell_length_a 12.753108
_cell_length_b 13.356298
_cell_length_c 27.509035
_cell_angle_alpha 90.000000
_cell_angle_beta 37.479818
_cell_angle_gamma 90.000000
_cell_volume 2851.183607
_symmetry_space_group_name_H-M "C 2/M"
_symmetry_group_IT_number 12
_symmetry_cell_setting 'monoclinic'
loop_
_space_group_symop_operation_xyz
x,y,z
-x,y,-z
-x,-y,-z
x,-y,z
1/2+x,1/2+y,z
1/2-x,1/2+y,-z
1/2-x,1/2-y,-z
1/2+x,1/2-y,z
loop_
_atom_site_type_symbol
_atom_site_label
_atom_site_fract_x
_atom_site_fract_y
_atom_site_fract_z
Si Si1 0.759054 0.883455 0.082005
Si Si2 0.495546 0.286730 0.926479
Si Si3 0.218327 0.118339 0.770825
Si Si4 0.140947 0.615022 0.742037
Si Si5 0.022458 0.259002 0.703994
Si Si6 0.735194 0.117105 0.817942
Si Si7 0.738692 0.382976 0.565665
Si Si8 0.918424 0.385662 0.604907
O O1 0.876279 0.847623 0.083824
O O2 0.560499 0.876112 0.169185
O O3 0.794009 0.000000 0.057768
O O4 0.812712 0.814544 0.016622
O O5 0.547865 0.329848 0.854771
O O6 0.567512 0.173856 0.900357
O O7 0.383129 0.156949 0.740637
O O8 0.279012 0.149326 0.695012
O O9 0.196100 0.000000 0.782985
O O10 0.177598 0.500000 0.714875
O O11 0.158874 0.685110 0.688326
O O12 0.234180 0.632590 0.759477
O O13 0.099568 0.202096 0.628673
O O14 0.906519 0.173578 0.772987
O O15 0.735514 0.000000 0.827748
O O16 0.683382 0.500000 0.575359
O O17 0.888109 0.346136 0.474090
O O18 0.829867 0.388758 0.585032
O O19 0.951909 0.500000 0.608139
#
# Coordination Sequence:
#
# PCOD9173977 Si02
#       8
#     8   8   8   8   8   8   8   8
#     4  10  18  34  58  84 113 146 186 237 287 329
#     4  10  19  31  56  85 107 144 187 238 274 333
#     4  10  18  31  51  82 110 133 177 237 280 313
#     4  10  21  38  59  82 113 153 187 228 290 339
#     4  11  21  32  59  82 109 145 192 232 263 337
#     4  10  22  38  54  79 117 154 187 225 278 342
#     4   9  18  34  53  78 109 146 179 218 281 336
#     4   8  17  33  54  77 109 140 174 229 282 326
#
# _framework density 22.446818
#
# number of rings (size 3 to 8) (size 9 to 14) (size 15 to 20)
#    0.000    2.250    2.500    3.000    3.500    1.000 
#    0.000    1.250    0.000    0.000    0.000    4.375 
#    0.000    0.000    0.000    0.000    0.000    0.000 
#
# Total GULP energy -178441.624011 kJ/mol
# GULP energy per Si atom -5576.300750 kJ/mol
# Density = 2.239573 g / cm^3
# Si number density = 22.446818 Si / 1000 Ang^3
#
#
#
# Elastic Constant Matrix: (Units=GPa)
#
#
# Indices 1 2 3 4 5 6 
#
# 1 32.3892 14.6904 -6.0103 0.0000 4.0763 0.0000
# 2 14.6904 114.0556 8.6759 0.0001 13.5191 0.0000
# 3 -6.0103 8.6759 93.5840 -0.0002 12.1045 0.0000
# 4 0.0000 0.0001 -0.0002 29.1414 0.0000 -0.9328
# 5 4.0763 13.5191 12.1045 0.0000 22.8169 0.0000
# 6 0.0000 0.0000 0.0000 -0.9328 0.0000 23.8933
#
#
#
# Elastic Compliance Matrix: (Units=1/GPa)
#
#
# Indices 1 2 3 4 5 6 
#
# 1 0.033967 -0.003978 0.003254 0.000000 -0.005437 0.000000
# 2 -0.003978 0.009898 -0.000544 0.000000 -0.004866 0.000000
# 3 0.003254 -0.000544 0.011787 0.000000 -0.006512 0.000000
# 4 0.000000 0.000000 0.000000 0.034358 0.000000 0.001341
# 5 -0.005437 -0.004866 -0.006512 0.000000 0.051136 0.000000
# 6 0.000000 0.000000 0.000000 0.001341 0.000000 0.041905
#
#
# Mechanical properties :
#
#
# Convention : Reuss Voigt Hill
#
# Bulk Modulus (GPa) = 18.82683 30.52675 24.67679
# Shear Modulus (GPa) = 24.59499 30.01516 27.30507
#
# Velocity S-wave (km/s) = 3.31373 3.66070 3.49153
# Velocity P-wave (km/s) = 4.80068 5.61219 5.22223
#
# Compressibility (1/GPa) = 0.05311570
#
# Stress axis : x y z
#
# Youngs Moduli (GPa) = 29.44058 101.02952 84.83727
#
# Poissons Ratio (x) = 0.40189 -0.27602
# Poissons Ratio (y) = 0.11711 0.04613
# Poissons Ratio (z) = -0.09578 0.05494
#
# Static dielectric constant tensor:
#      x y z
#    x 1.908020 0.000000 0.003400 
#    y 0.000000 1.862390 0.000000 
#    z 0.003400 0.000000 1.911340 
# 
# From -- ./inp_files/361238.got.cif
#   From: 2010.05.17/outbox.cif.g08.bks.cpg/sg12_181_cif.got.tgz:361238.got - 2010.06.03 13:09:07.
