data_PCOD9173270
_publ_section_title
;
Structure prediction by ZEFSAII (Michael W. Deem and Ramdas Pophale) SiO2 
 PCOD9173270
Probable space group: C 2/M
;
_chemical_formula_sum "Si O2"
_cell_formula_units_Z 64
_cell_length_a 19.270074
_cell_length_b 8.838624
_cell_length_c 34.911026
_cell_angle_alpha 90.000000
_cell_angle_beta 37.716939
_cell_angle_gamma 90.000000
_cell_volume 3637.578655
_symmetry_space_group_name_H-M "C 2/M"
_symmetry_group_IT_number 12
_symmetry_cell_setting 'monoclinic'
loop_
_space_group_symop_operation_xyz
x,y,z
-x,y,-z
-x,-y,-z
x,-y,z
1/2+x,1/2+y,z
1/2-x,1/2+y,-z
1/2-x,1/2-y,-z
1/2+x,1/2-y,z
loop_
_atom_site_type_symbol
_atom_site_label
_atom_site_fract_x
_atom_site_fract_y
_atom_site_fract_z
Si Si1 0.862864 0.325262 0.564209
Si Si2 0.287115 0.318349 0.895476
Si Si3 0.009691 0.319242 0.154424
Si Si4 0.416254 0.182867 0.962508
Si Si5 0.099382 0.819449 0.372320
Si Si6 0.168001 0.818442 0.503211
Si Si7 0.227576 0.179821 0.760747
Si Si8 0.168572 0.681097 0.867000
O O1 0.826649 0.500000 0.582256
O O2 0.845762 0.241301 0.612008
O O3 0.812166 0.247749 0.548273
O O4 0.000000 0.322576 0.500000
O O5 0.300709 0.500000 0.894051
O O6 0.405884 0.237602 0.850117
O O7 0.236036 0.289626 0.876095
O O8 0.193914 0.261691 0.967098
O O9 0.997362 0.500000 0.159686
O O10 0.069002 0.272450 0.088135
O O11 0.886775 0.244145 0.208871
O O12 0.536208 0.225015 0.929367
O O13 0.409611 0.000000 0.966623
O O14 0.165180 0.746189 0.308329
O O15 0.964832 0.782665 0.430173
O O16 0.109949 0.000000 0.366733
O O17 0.250000 0.750000 0.500000
O O18 0.180166 0.000000 0.497144
O O19 0.219434 0.236732 0.807979
O O20 0.228196 0.000000 0.758986
O O21 0.169776 0.500000 0.858941
#
# Coordination Sequence:
#
# PCOD9173270 Si02
#       8
#     8   8   8   8   8   8   8   8
#     4   9  17  31  53  81 111 141 174 210 248 295
#     4  10  18  30  51  77 103 131 168 213 262 316
#     4  10  20  34  51  72 102 135 169 213 263 312
#     4   8  15  29  50  74  99 132 170 208 257 317
#     4  10  20  36  58  81 106 139 177 214 255 305
#     4  10  20  34  55  84 117 147 174 211 259 305
#     4  11  22  37  56  75  98 133 178 220 258 307
#     4   9  18  33  52  74 103 137 170 210 261 315
#
# _framework density 17.594121000000001
#
# number of rings (size 3 to 8) (size 9 to 14) (size 15 to 20)
#    0.000    2.375    0.000    4.125    0.000    5.000 
#    0.000    3.750    0.000    8.250    0.000    0.000 
#    0.000    0.000    0.000    0.000    0.000    0.000 
#
# Total GULP energy -178497.779157 kJ/mol
# GULP energy per Si atom -5578.055599 kJ/mol
# Density = 1.755408 g / cm^3
# Si number density = 17.594121 Si / 1000 Ang^3
#
#
#
# Elastic Constant Matrix: (Units=GPa)
#
#
# Indices 1 2 3 4 5 6 
#
# 1 101.1968 46.2192 15.0253 -0.0018 -7.9976 0.0041
# 2 46.2192 58.5783 29.0488 -0.0226 -5.9893 -0.0146
# 3 15.0253 29.0488 60.1479 -0.0013 -9.3261 0.0056
# 4 -0.0018 -0.0226 -0.0013 16.9731 0.0004 1.5291
# 5 -7.9976 -5.9893 -9.3261 0.0004 7.3638 0.0028
# 6 0.0041 -0.0146 0.0056 1.5291 0.0028 30.9503
#
#
#
# Elastic Compliance Matrix: (Units=1/GPa)
#
#
# Indices 1 2 3 4 5 6 
#
# 1 0.016635 -0.014136 0.004592 -0.000016 0.012385 -0.000010
# 2 -0.014136 0.034649 -0.013954 0.000042 -0.004843 0.000019
# 3 0.004592 -0.013954 0.026419 -0.000015 0.027097 -0.000014
# 4 -0.000016 0.000042 -0.000015 0.059180 -0.000005 -0.002924
# 5 0.012385 -0.004843 0.027097 -0.000005 0.179628 -0.000025
# 6 -0.000010 0.000019 -0.000014 -0.002924 -0.000025 0.032454
#
#
# Mechanical properties :
#
#
# Convention : Reuss Voigt Hill
#
# Bulk Modulus (GPa) = 32.56540 44.50106 38.53323
# Shear Modulus (GPa) = 12.30929 19.69943 16.00436
#
# Velocity S-wave (km/s) = 2.64791 3.34976 3.01930
# Velocity P-wave (km/s) = 5.28186 6.34896 5.83983
#
# Compressibility (1/GPa) = 0.03070744
#
# Stress axis : x y z
#
# Youngs Moduli (GPa) = 60.11397 28.86062 37.85152
#
# Poissons Ratio (x) = 0.40798 -0.17381
# Poissons Ratio (y) = 0.84978 0.52817
# Poissons Ratio (z) = -0.27604 0.40271
#
# Static dielectric constant tensor:
#      x y z
#    x 1.593510 0.000000 0.004470 
#    y 0.000000 1.595590 0.000000 
#    z 0.004470 0.000000 1.594120 
# 
# From -- ./inp_files/377998.got.cif
#   From: 2010.05.17/outbox.cif.g08.bks.cpg/sg12_189_cif.got.tgz:377998.got - 2010.06.03 13:09:07.
