data_PCOD9173810
_publ_section_title
;
Structure prediction by ZEFSAII (Michael W. Deem and Ramdas Pophale) SiO2 
 PCOD9173810
Probable space group: C 2/M
;
_chemical_formula_sum "Si O2"
_cell_formula_units_Z 56
_cell_length_a 11.090797
_cell_length_b 18.277160
_cell_length_c 14.249993
_cell_angle_alpha 90.000000
_cell_angle_beta 108.108612
_cell_angle_gamma 90.000000
_cell_volume 2745.516693
_symmetry_space_group_name_H-M "C 2/M"
_symmetry_group_IT_number 12
_symmetry_cell_setting 'monoclinic'
loop_
_space_group_symop_operation_xyz
x,y,z
-x,y,-z
-x,-y,-z
x,-y,z
1/2+x,1/2+y,z
1/2-x,1/2+y,-z
1/2-x,1/2-y,-z
1/2+x,1/2-y,z
loop_
_atom_site_type_symbol
_atom_site_label
_atom_site_fract_x
_atom_site_fract_y
_atom_site_fract_z
Si Si1 0.131102 0.307229 0.475906
Si Si2 0.519597 0.668378 0.224440
Si Si3 0.628452 0.756028 0.086162
Si Si4 0.044797 0.321524 0.734491
Si Si5 0.801942 0.133574 0.046267
Si Si6 0.739450 0.911814 0.652366
Si Si7 0.563848 0.923237 0.913224
O O1 0.250000 0.250000 0.500000
O O2 0.180842 0.378639 0.542792
O O3 0.000000 0.282111 0.500000
O O4 0.079970 0.327277 0.360479
O O5 0.606101 0.720228 0.180022
O O6 0.437882 0.732817 0.255479
O O7 0.433400 0.621421 0.131243
O O8 0.615368 0.617389 0.304416
O O9 0.716046 0.826036 0.103023
O O10 0.500000 0.773198 0.000000
O O11 0.681919 0.692576 0.032203
O O12 0.155323 0.368836 0.710714
O O13 0.034555 0.357362 0.835142
O O14 0.713024 0.076032 0.974791
O O15 0.731620 0.000000 0.658279
O O16 0.526635 0.000000 0.857614
O O17 0.500000 0.921655 0.000000
#
# Coordination Sequence:
#
# PCOD9173810 Si02
#       7
#     8   8   8   8   8   8   8
#     4  10  22  44  71 103 132 171 225 285 348 409
#     4  11  20  33  58  87 120 162 210 262 325 387
#     4   9  17  29  49  78 109 147 208 265 304 361
#     4  11  22  38  66  91 124 170 222 277 328 400
#     4  10  18  31  50  74 115 161 207 256 315 371
#     4  11  24  41  64  98 134 166 215 281 344 404
#     4  11  23  37  53  82 125 172 222 273 325 392
#
# _framework density 20.396889000000002
#
# number of rings (size 3 to 8) (size 9 to 14) (size 15 to 20)
#    0.000    1.571    1.429    6.000    0.000    3.714 
#    0.000    0.000    0.000    4.714    0.000    0.000 
#    0.000    0.000    0.000    0.000    0.000    0.000 
#
# Total GULP energy -155903.347222 kJ/mol
# GULP energy per Si atom -5567.976687 kJ/mol
# Density = 2.035046 g / cm^3
# Si number density = 20.396889 Si / 1000 Ang^3
#
#
#
# Elastic Constant Matrix: (Units=GPa)
#
#
# Indices 1 2 3 4 5 6 
#
# 1 65.9082 52.2677 19.6691 0.0000 11.1493 0.0000
# 2 52.2677 122.0075 47.2492 0.0000 21.5216 0.0000
# 3 19.6691 47.2492 109.5847 0.0000 12.5280 0.0000
# 4 0.0000 0.0000 0.0000 22.2317 0.0000 15.5350
# 5 11.1493 21.5216 12.5280 0.0000 24.2460 0.0000
# 6 0.0000 0.0000 0.0000 15.5350 0.0000 43.2945
#
#
#
# Elastic Compliance Matrix: (Units=1/GPa)
#
#
# Indices 1 2 3 4 5 6 
#
# 1 0.023082 -0.009591 0.000247 0.000000 -0.002228 0.000000
# 2 -0.009591 0.015066 -0.003985 0.000000 -0.006904 0.000000
# 3 0.000247 -0.003985 0.011061 0.000000 -0.002292 0.000000
# 4 0.000000 0.000000 0.000000 0.060034 0.000000 -0.021541
# 5 -0.002228 -0.006904 -0.002292 0.000000 0.049581 0.000000
# 6 0.000000 0.000000 0.000000 -0.021541 0.000000 0.030827
#
#
# Mechanical properties :
#
#
# Convention : Reuss Voigt Hill
#
# Bulk Modulus (GPa) = 44.34372 59.54141 51.94257
# Shear Modulus (GPa) = 22.33887 29.84207 26.09047
#
# Velocity S-wave (km/s) = 3.31299 3.82916 3.58039
# Velocity P-wave (km/s) = 6.03507 6.98604 6.52790
#
# Compressibility (1/GPa) = 0.02255111
#
# Stress axis : x y z
#
# Youngs Moduli (GPa) = 43.32448 66.37466 90.40521
#
# Poissons Ratio (x) = 0.63658 -0.02234
# Poissons Ratio (y) = 0.41551 0.36029
# Poissons Ratio (z) = -0.01070 0.26452
#
# Static dielectric constant tensor:
#      x y z
#    x 1.866650 0.000000 -0.020370 
#    y 0.000000 1.778870 0.000000 
#    z -0.020370 0.000000 1.736010 
# 
# From -- ./inp_files/206244.got.cif
#   From: 2010.05.17/outbox.cif.g08.bks.cpg/sg12_104_cif.got.tgz:206244.got - 2010.06.03 13:09:07.
