data_PCOD9173914
_publ_section_title
;
Structure prediction by ZEFSAII (Michael W. Deem and Ramdas Pophale) SiO2 
 PCOD9173914
Probable space group: C 2/M
;
_chemical_formula_sum "Si O2"
_cell_formula_units_Z 56
_cell_length_a 32.180883
_cell_length_b 7.696135
_cell_length_c 15.267832
_cell_angle_alpha 90.000000
_cell_angle_beta 134.110805
_cell_angle_gamma 90.000000
_cell_volume 2714.997630
_symmetry_space_group_name_H-M "C 2/M"
_symmetry_group_IT_number 12
_symmetry_cell_setting 'monoclinic'
loop_
_space_group_symop_operation_xyz
x,y,z
-x,y,-z
-x,-y,-z
x,-y,z
1/2+x,1/2+y,z
1/2-x,1/2+y,-z
1/2-x,1/2-y,-z
1/2+x,1/2-y,z
loop_
_atom_site_type_symbol
_atom_site_label
_atom_site_fract_x
_atom_site_fract_y
_atom_site_fract_z
Si Si1 0.927967 0.705345 0.054992
Si Si2 0.690370 0.710193 0.808164
Si Si3 0.678041 0.206594 0.986952
Si Si4 0.235989 0.707992 0.378969
Si Si5 0.604411 0.788843 0.178883
Si Si6 0.553068 0.702409 0.292007
Si Si7 0.152677 0.213381 0.565829
O O1 0.917454 0.500000 0.030789
O O2 0.873440 0.778533 0.028717
O O3 0.988573 0.725218 0.192575
O O4 0.930129 0.770399 0.958021
O O5 0.691836 0.500000 0.810675
O O6 0.666553 0.766283 0.867197
O O7 0.655397 0.765568 0.671094
O O8 0.757114 0.774118 0.899550
O O9 0.680990 0.000000 0.007163
O O10 0.234945 0.500000 0.367320
O O11 0.250000 0.750000 0.500000
O O12 0.171070 0.767409 0.263384
O O13 0.288001 0.772126 0.394343
O O14 0.581038 0.723159 0.236898
O O15 0.602093 0.000000 0.181731
O O16 0.546928 0.500000 0.302186
O O17 0.597912 0.775427 0.429225
O O18 0.152583 0.000000 0.562671
#
# Coordination Sequence:
#
# PCOD9173914 Si02
#       7
#     8   8   8   8   8   8   8
#     4  10  21  37  54  73 101 139 178 212 252 307
#     4   9  17  33  58  81 102 131 164 205 259 314
#     4   9  18  34  56  81 104 127 164 214 260 301
#     4  10  18  31  51  75 103 133 167 208 252 299
#     4  10  20  34  54  76 100 137 179 212 253 309
#     4  11  22  35  51  74 105 139 175 216 255 297
#     4   9  18  33  52  75 105 138 169 203 254 311
#
# _framework density 20.626169000000001
#
# number of rings (size 3 to 8) (size 9 to 14) (size 15 to 20)
#    0.000    2.286    1.429    1.714    0.000    6.286 
#    0.000    2.857    0.000    7.714    0.000    0.000 
#    0.000    0.000    0.000    0.000    0.000    0.000 
#
# Total GULP energy -156309.546934 kJ/mol
# GULP energy per Si atom -5582.483819 kJ/mol
# Density = 2.057922 g / cm^3
# Si number density = 20.626169 Si / 1000 Ang^3
#
#
#
# Elastic Constant Matrix: (Units=GPa)
#
#
# Indices 1 2 3 4 5 6 
#
# 1 52.3644 -6.8239 41.8507 0.0000 -7.6514 0.0000
# 2 -6.8239 27.0517 -7.0099 0.0000 0.3693 0.0000
# 3 41.8507 -7.0099 110.4766 0.0000 -14.4815 0.0000
# 4 0.0000 0.0000 0.0000 19.5368 0.0000 -2.7619
# 5 -7.6514 0.3693 -14.4815 0.0000 24.3252 0.0000
# 6 0.0000 0.0000 0.0000 -2.7619 0.0000 18.7454
#
#
#
# Elastic Compliance Matrix: (Units=1/GPa)
#
#
# Indices 1 2 3 4 5 6 
#
# 1 0.028065 0.004455 -0.009979 0.000000 0.002819 0.000000
# 2 0.004455 0.038310 0.000923 0.000000 0.001369 0.000000
# 3 -0.009979 0.000923 0.013533 0.000000 0.004904 0.000000
# 4 0.000000 0.000000 0.000000 0.052274 0.000000 0.007702
# 5 0.002819 0.001369 0.004904 0.000000 0.044895 0.000000
# 6 0.000000 0.000000 0.000000 0.007702 0.000000 0.054481
#
#
# Mechanical properties :
#
#
# Convention : Reuss Voigt Hill
#
# Bulk Modulus (GPa) = 14.14314 27.32517 20.73416
# Shear Modulus (GPa) = 18.91565 23.31321 21.11443
#
# Velocity S-wave (km/s) = 3.03160 3.36560 3.20296
# Velocity P-wave (km/s) = 4.37332 5.32725 4.87368
#
# Compressibility (1/GPa) = 0.07070565
#
# Stress axis : x y z
#
# Youngs Moduli (GPa) = 35.63132 26.10252 73.89098
#
# Poissons Ratio (x) = -0.11629 0.73739
# Poissons Ratio (y) = -0.15874 -0.06817
# Poissons Ratio (z) = 0.35558 -0.02408
#
# Static dielectric constant tensor:
#      x y z
#    x 1.710950 0.000000 0.005430 
#    y 0.000000 1.781810 0.000000 
#    z 0.005430 0.000000 1.739250 
# 
# From -- ./inp_files/237895.got.cif
#   From: 2010.05.17/outbox.cif.g08.bks.cpg/sg12_119_cif.got.tgz:237895.got - 2010.06.03 13:09:07.
