data_PCOD9173107
_publ_section_title
;
Structure prediction by ZEFSAII (Michael W. Deem and Ramdas Pophale) SiO2 
 PCOD9173107
Probable space group: C 2/M
;
_chemical_formula_sum "Si O2"
_cell_formula_units_Z 64
_cell_length_a 26.058874
_cell_length_b 18.257347
_cell_length_c 18.814816
_cell_angle_alpha 90.000000
_cell_angle_beta 24.489546
_cell_angle_gamma 90.000000
_cell_volume 3710.618724
_symmetry_space_group_name_H-M "C 2/M"
_symmetry_group_IT_number 12
_symmetry_cell_setting 'monoclinic'
loop_
_space_group_symop_operation_xyz
x,y,z
-x,y,-z
-x,-y,-z
x,-y,z
1/2+x,1/2+y,z
1/2-x,1/2+y,-z
1/2-x,1/2-y,-z
1/2+x,1/2-y,z
loop_
_atom_site_type_symbol
_atom_site_label
_atom_site_fract_x
_atom_site_fract_y
_atom_site_fract_z
Si Si1 0.993343 0.196971 0.329882
Si Si2 0.796451 0.914196 0.561398
Si Si3 0.549382 0.856752 0.227571
Si Si4 0.085666 0.581306 0.461808
Si Si5 0.728985 0.874509 0.807759
Si Si6 0.630170 0.766718 0.379790
Si Si7 0.459742 0.087500 0.195037
Si Si8 0.685634 0.417835 0.150784
O O1 0.059545 0.268112 0.213301
O O2 0.088088 0.142852 0.249669
O O3 0.902789 0.141994 0.401900
O O4 0.906317 0.236657 0.497170
O O5 0.775382 0.901722 0.672668
O O6 0.666936 0.896999 0.686164
O O7 0.826209 0.000000 0.512148
O O8 0.493187 0.889353 0.371380
O O9 0.464636 0.879529 0.267779
O O10 0.681893 0.894190 0.047893
O O11 0.136041 0.500000 0.412988
O O12 0.173717 0.649604 0.331360
O O13 0.000000 0.575384 0.500000
O O14 0.768902 0.790719 0.773350
O O15 0.795334 0.917004 0.788329
O O16 0.582151 0.884737 0.999994
O O17 0.500000 0.763975 0.500000
O O18 0.472752 0.000000 0.184360
O O19 0.651296 0.500000 0.171284
#
# Coordination Sequence:
#
# PCOD9173107 Si02
#       8
#     8   8   8   8   8   8   8   8
#     4  10  20  32  47  71 101 136 163 201 249 291
#     4  10  20  33  50  73 102 134 172 207 239 284
#     4  10  20  34  51  72  99 131 166 205 249 299
#     4   9  17  30  50  71  95 125 160 205 249 293
#     4  10  18  30  50  74 105 137 164 197 242 290
#     4   9  16  29  44  68 102 130 158 193 238 291
#     4  10  20  34  52  73  99 132 170 210 243 286
#     4  11  20  31  50  75 105 135 164 196 244 306
#
# _framework density 17.247796999999998
#
# number of rings (size 3 to 8) (size 9 to 14) (size 15 to 20)
#    0.000    2.125    1.250    4.125    0.000    1.500 
#    0.000    1.875    0.000    0.000    0.000    0.000 
#    0.000   19.000    0.000    0.500    0.000    0.000 
#
# Total GULP energy -178187.280830 kJ/mol
# GULP energy per Si atom -5568.352526 kJ/mol
# Density = 1.720854 g / cm^3
# Si number density = 17.247797 Si / 1000 Ang^3
#
#
#
# Elastic Constant Matrix: (Units=GPa)
#
#
# Indices 1 2 3 4 5 6 
#
# 1 44.4164 25.7057 17.6368 0.0003 -7.3416 -0.0002
# 2 25.7057 151.2756 20.5348 0.0001 -13.6321 -0.0001
# 3 17.6368 20.5348 11.3834 0.0004 -2.6111 -0.0003
# 4 0.0003 0.0001 0.0004 -51.5111 -0.0003 29.8660
# 5 -7.3416 -13.6321 -2.6111 -0.0003 24.5367 0.0002
# 6 -0.0002 -0.0001 -0.0003 29.8660 0.0002 0.2878
#
#
#
# Elastic Compliance Matrix: (Units=1/GPa)
#
#
# Indices 1 2 3 4 5 6 
#
# 1 0.061913 0.004097 -0.101009 -0.000001 0.010052 0.000000
# 2 0.004097 0.009288 -0.022178 0.000000 0.004026 0.000000
# 3 -0.101009 -0.022178 0.281464 0.000002 -0.012592 0.000000
# 4 -0.000001 0.000000 0.000002 -0.000317 0.000000 0.032936
# 5 0.010052 0.004026 -0.012592 0.000000 0.044659 0.000000
# 6 0.000000 0.000000 0.000000 0.032936 0.000000 0.056805
#
#
# Mechanical properties :
#
#
# Convention : Reuss Voigt Hill
#
# Bulk Modulus (GPa) = 8.73483 37.20330 22.96907
# Shear Modulus (GPa) = 6.84787 4.20922 5.52854
#
# Velocity S-wave (km/s) = 1.99472 1.56388 1.79230
# Velocity P-wave (km/s) = 3.22188 4.98775 4.19870
#
# Compressibility (1/GPa) = 0.11448414
#
# Stress axis : x y z
#
# Youngs Moduli (GPa) = 16.15161 107.67049 3.55286
#
# Poissons Ratio (x) = -0.44107 0.35887
# Poissons Ratio (y) = -0.06617 0.07879
# Poissons Ratio (z) = 1.63146 2.38788
#
# Static dielectric constant tensor:
#      x y z
#    x 1.595920 0.000000 0.016960 
#    y 0.000000 1.647560 0.000000 
#    z 0.016960 0.000000 1.584980 
# 
# From -- ./inp_files/290450.got.cif
#   From: 2010.05.17/outbox.cif.g08.bks.cpg/sg12_146_cif.got.tgz:290450.got - 2010.06.03 13:09:07.
