data_PCOD9173460
_publ_section_title
;
Structure prediction by ZEFSAII (Michael W. Deem and Ramdas Pophale) SiO2 
 PCOD9173460
Probable space group: C 2/M
;
_chemical_formula_sum "Si O2"
_cell_formula_units_Z 44
_cell_length_a 21.054547
_cell_length_b 18.256879
_cell_length_c 21.093117
_cell_angle_alpha 90.000000
_cell_angle_beta 160.966290
_cell_angle_gamma 90.000000
_cell_volume 2644.213306
_symmetry_space_group_name_H-M "C 2/M"
_symmetry_group_IT_number 12
_symmetry_cell_setting 'monoclinic'
loop_
_space_group_symop_operation_xyz
x,y,z
-x,y,-z
-x,-y,-z
x,-y,z
1/2+x,1/2+y,z
1/2-x,1/2+y,-z
1/2-x,1/2-y,-z
1/2+x,1/2-y,z
loop_
_atom_site_type_symbol
_atom_site_label
_atom_site_fract_x
_atom_site_fract_y
_atom_site_fract_z
Si Si1 0.221345 0.414925 0.938679
Si Si2 0.031139 0.197814 0.747201
Si Si3 0.897370 0.337335 0.699511
Si Si4 0.410595 0.201307 0.852046
Si Si5 0.500000 0.231361 0.500000
Si Si6 0.740205 0.195572 0.845501
O O1 0.267529 0.500000 0.981522
O O2 0.246318 0.376433 0.894139
O O3 0.003846 0.399161 0.759165
O O4 0.351512 0.367505 0.109972
O O5 0.145383 0.240577 0.799864
O O6 0.986024 0.259905 0.757675
O O7 0.829233 0.168383 0.529593
O O8 0.930632 0.342960 0.805809
O O9 0.184354 0.221785 0.648509
O O10 0.500000 0.165588 0.000000
O O11 0.546918 0.273864 0.972252
O O12 0.599511 0.187860 0.651953
#
# Coordination Sequence:
#
# PCOD9173460 Si02
#       6
#     8   8   8   8   4   8
#     4  11  22  34  52  79 112 146 175 208 262 323
#     4  10  18  32  56  77 104 133 175 227 273 300
#     4  10  18  33  55  79 103 133 175 227 267 307
#     4  10  18  30  53  82 104 129 170 220 269 308
#     4  10  20  30  53  86 103 130 176 230 266 300
#     4  10  18  34  54  80 106 135 175 224 262 309
#
# _framework density 16.64011
#
# number of rings (size 3 to 8) (size 9 to 14) (size 15 to 20)
#    0.000    1.818    5.455    1.091    0.000    0.727 
#    0.000    0.455    0.000    5.455    0.000    2.545 
#    0.000    0.000    0.000    0.000    0.000    0.000 
#
# Total GULP energy -122615.559204 kJ/mol
# GULP energy per Si atom -5573.434509 kJ/mol
# Density = 1.660224 g / cm^3
# Si number density = 16.640110 Si / 1000 Ang^3
#
#
#
# Elastic Constant Matrix: (Units=GPa)
#
#
# Indices 1 2 3 4 5 6 
#
# 1 77.6883 2.9534 24.9530 -0.0054 -10.0917 -0.0026
# 2 2.9534 62.6905 20.5646 -0.0117 -6.0438 -0.0085
# 3 24.9530 20.5646 92.1143 -0.0043 4.5270 0.0044
# 4 -0.0054 -0.0117 -0.0043 8.1553 0.0020 0.7820
# 5 -10.0917 -6.0438 4.5270 0.0020 40.1411 0.0011
# 6 -0.0026 -0.0085 0.0044 0.7820 0.0011 6.8984
#
#
#
# Elastic Compliance Matrix: (Units=1/GPa)
#
#
# Indices 1 2 3 4 5 6 
#
# 1 0.014849 0.001206 -0.004509 0.000007 0.004423 0.000008
# 2 0.001206 0.017687 -0.004446 0.000021 0.003468 0.000022
# 3 -0.004509 -0.004446 0.013232 0.000000 -0.003295 -0.000015
# 4 0.000007 0.000021 0.000000 0.123967 -0.000001 -0.014053
# 5 0.004423 0.003468 -0.003295 -0.000001 0.026918 0.000004
# 6 0.000008 0.000022 -0.000015 -0.014053 0.000004 0.146555
#
#
# Mechanical properties :
#
#
# Convention : Reuss Voigt Hill
#
# Bulk Modulus (GPa) = 33.03550 36.60390 34.81970
# Shear Modulus (GPa) = 13.55764 23.30710 18.43237
#
# Velocity S-wave (km/s) = 2.85749 3.74660 3.33183
# Velocity P-wave (km/s) = 5.54825 6.38444 5.98098
#
# Compressibility (1/GPa) = 0.03027047
#
# Stress axis : x y z
#
# Youngs Moduli (GPa) = 67.34475 56.53796 75.57421
#
# Poissons Ratio (x) = -0.06818 0.34077
# Poissons Ratio (y) = -0.08122 0.33599
# Poissons Ratio (z) = 0.30366 0.25136
#
# Static dielectric constant tensor:
#      x y z
#    x 1.603730 0.000000 0.003630 
#    y 0.000000 1.508930 0.000000 
#    z 0.003630 0.000000 1.592310 
# 
# From -- ./inp_files/322496.got.cif
#   From: 2010.05.17/outbox.cif.g08.bks.cpg/sg12_162_cif.got.tgz:322496.got - 2010.06.03 13:09:07.
