data_PCOD9173119
_publ_section_title
;
Structure prediction by ZEFSAII (Michael W. Deem and Ramdas Pophale) SiO2 
 PCOD9173119
Probable space group: C 2/M
;
_chemical_formula_sum "Si O2"
_cell_formula_units_Z 48
_cell_length_a 28.970862
_cell_length_b 8.631321
_cell_length_c 16.525172
_cell_angle_alpha 90.000000
_cell_angle_beta 136.416586
_cell_angle_gamma 90.000000
_cell_volume 2848.801427
_symmetry_space_group_name_H-M "C 2/M"
_symmetry_group_IT_number 12
_symmetry_cell_setting 'monoclinic'
loop_
_space_group_symop_operation_xyz
x,y,z
-x,y,-z
-x,-y,-z
x,-y,z
1/2+x,1/2+y,z
1/2-x,1/2+y,-z
1/2-x,1/2-y,-z
1/2+x,1/2-y,z
loop_
_atom_site_type_symbol
_atom_site_label
_atom_site_fract_x
_atom_site_fract_y
_atom_site_fract_z
Si Si1 0.775890 0.685524 0.407122
Si Si2 0.354303 0.314455 0.656180
Si Si3 0.124290 0.688152 0.966701
Si Si4 0.230836 0.814394 0.779687
Si Si5 0.493734 0.187605 0.898205
Si Si6 0.319053 0.814094 0.125377
O O1 0.778943 0.500000 0.408477
O O2 0.703480 0.731545 0.352608
O O3 0.830235 0.748041 0.539665
O O4 0.783823 0.752697 0.327914
O O5 0.355559 0.500000 0.653813
O O6 0.425556 0.251043 0.774099
O O7 0.124491 0.500000 0.969893
O O8 0.058913 0.741679 0.931191
O O9 0.127204 0.730933 0.875287
O O10 0.193929 0.737641 0.097736
O O11 0.179672 0.753588 0.783077
O O12 0.230207 0.000000 0.779597
O O13 0.491903 0.000000 0.893025
O O14 0.500000 0.233740 0.000000
O O15 0.316518 0.000000 0.126385
O O16 0.250000 0.750000 0.000000
#
# Coordination Sequence:
#
# PCOD9173119 Si02
#       6
#     8   8   8   8   8   8
#     4  10  20  34  52  72  96 128 163 199 242 292
#     4  10  21  35  50  72 100 128 161 201 243 285
#     4   8  16  29  46  70 100 133 164 195 235 287
#     4  10  18  30  50  75 100 126 162 205 247 289
#     4  10  19  32  51  73  99 133 167 195 232 286
#     4   9  16  28  45  68  99 131 165 203 243 286
#
# _framework density 16.849191999999999
#
# number of rings (size 3 to 8) (size 9 to 14) (size 15 to 20)
#    0.000    2.500    0.000    4.000    0.000    3.667 
#    0.000    5.000    0.000    1.000    0.000    7.000 
#    0.000    0.000    0.000    0.000    0.000    0.000 
#
# Total GULP energy -133800.942495 kJ/mol
# GULP energy per Si atom -5575.039271 kJ/mol
# Density = 1.681084 g / cm^3
# Si number density = 16.849192 Si / 1000 Ang^3
#
#
#
# Elastic Constant Matrix: (Units=GPa)
#
#
# Indices 1 2 3 4 5 6 
#
# 1 157.9189 38.2856 88.4860 0.0000 -27.6784 0.0000
# 2 38.2856 37.5315 31.1212 0.0000 -10.1586 0.0000
# 3 88.4860 31.1212 108.7527 0.0000 -20.9353 0.0000
# 4 0.0000 0.0000 0.0000 28.2104 0.0000 -1.7836
# 5 -27.6784 -10.1586 -20.9353 0.0000 35.2329 0.0000
# 6 0.0000 0.0000 0.0000 -1.7836 0.0000 20.3720
#
#
#
# Elastic Compliance Matrix: (Units=1/GPa)
#
#
# Indices 1 2 3 4 5 6 
#
# 1 0.012896 -0.005303 -0.008264 0.000000 0.003691 0.000000
# 2 -0.005303 0.037807 -0.005881 0.000000 0.003241 0.000000
# 3 -0.008264 -0.005881 0.018096 0.000000 0.002565 0.000000
# 4 0.000000 0.000000 0.000000 0.035645 0.000000 0.003121
# 5 0.003691 0.003241 0.002565 0.000000 0.033740 0.000000
# 6 0.000000 0.000000 0.000000 0.003121 0.000000 0.049360
#
#
# Mechanical properties :
#
#
# Convention : Reuss Voigt Hill
#
# Bulk Modulus (GPa) = 33.44151 68.88764 51.16458
# Shear Modulus (GPa) = 21.14988 26.51710 23.83349
#
# Velocity S-wave (km/s) = 3.54679 3.97141 3.76509
# Velocity P-wave (km/s) = 6.05505 7.87420 7.02377
#
# Compressibility (1/GPa) = 0.02990295
#
# Stress axis : x y z
#
# Youngs Moduli (GPa) = 77.54520 26.45010 55.26069
#
# Poissons Ratio (x) = 0.14026 0.45670
# Poissons Ratio (y) = 0.41121 0.32496
# Poissons Ratio (z) = 0.64087 0.15554
#
# Static dielectric constant tensor:
#      x y z
#    x 1.591640 0.000000 -0.009630 
#    y 0.000000 1.567200 0.000000 
#    z -0.009630 0.000000 1.495330 
# 
# From -- ./inp_files/229956.got.cif
#   From: 2010.05.17/outbox.cif.g08.bks.cpg/sg12_115_cif.got.tgz:229956.got - 2010.06.03 13:09:07.
