data_PCOD9173251
_publ_section_title
;
Structure prediction by ZEFSAII (Michael W. Deem and Ramdas Pophale) SiO2 
 PCOD9173251
Probable space group: C 2/M
;
_chemical_formula_sum "Si O2"
_cell_formula_units_Z 40
_cell_length_a 18.809141
_cell_length_b 13.650613
_cell_length_c 10.083984
_cell_angle_alpha 90.000000
_cell_angle_beta 128.411503
_cell_angle_gamma 90.000000
_cell_volume 2028.758556
_symmetry_space_group_name_H-M "C 2/M"
_symmetry_group_IT_number 12
_symmetry_cell_setting 'monoclinic'
loop_
_space_group_symop_operation_xyz
x,y,z
-x,y,-z
-x,-y,-z
x,-y,z
1/2+x,1/2+y,z
1/2-x,1/2+y,-z
1/2-x,1/2-y,-z
1/2+x,1/2-y,z
loop_
_atom_site_type_symbol
_atom_site_label
_atom_site_fract_x
_atom_site_fract_y
_atom_site_fract_z
Si Si1 0.226563 0.716537 0.823450
Si Si2 0.113227 0.299390 0.341493
Si Si3 0.436199 0.886909 0.248132
Si Si4 0.699591 0.384664 0.322863
Si Si5 0.824678 0.390947 0.843455
O O1 0.130291 0.663480 0.723006
O O2 0.296519 0.643692 0.829582
O O3 0.240782 0.815769 0.755984
O O4 0.250000 0.750000 0.000000
O O5 0.201703 0.347743 0.512187
O O6 0.130991 0.186422 0.322396
O O7 0.109512 0.355447 0.196390
O O8 0.024878 0.323602 0.322631
O O9 0.457458 0.000000 0.305735
O O10 0.378991 0.889309 0.044249
O O11 0.687106 0.500000 0.327222
O O12 0.792715 0.500000 0.779046
#
# Coordination Sequence:
#
# PCOD9173251 Si02
#       5
#     8   8   8   8   8
#     4   9  19  33  49  71 100 131 167 207 251 303
#     4  10  20  32  51  78 103 131 169 211 251 301
#     4  10  18  30  51  76 102 132 169 215 257 294
#     4  10  20  35  53  73 103 139 170 207 256 305
#     4   9  17  31  51  72  98 134 170 207 252 301
#
# _framework density 19.71649
#
# number of rings (size 3 to 8) (size 9 to 14) (size 15 to 20)
#    0.000    2.400    0.000    3.000    0.000    3.200 
#    0.000    3.000    0.000   16.800    0.000    8.400 
#    0.000    0.000    0.000    0.000    0.000    0.000 
#
# Total GULP energy -111506.055022 kJ/mol
# GULP energy per Si atom -5575.302751 kJ/mol
# Density = 1.967161 g / cm^3
# Si number density = 19.716490 Si / 1000 Ang^3
#
#
#
# Elastic Constant Matrix: (Units=GPa)
#
#
# Indices 1 2 3 4 5 6 
#
# 1 112.8840 68.0774 11.7308 0.0000 15.4621 0.0000
# 2 68.0774 196.7494 17.4842 0.0000 13.6677 0.0000
# 3 11.7308 17.4842 46.1555 0.0000 -18.0429 0.0000
# 4 0.0000 0.0000 0.0000 14.6674 0.0000 3.2070
# 5 15.4621 13.6677 -18.0429 0.0000 22.5322 0.0000
# 6 0.0000 0.0000 0.0000 3.2070 0.0000 15.6957
#
#
#
# Elastic Compliance Matrix: (Units=1/GPa)
#
#
# Indices 1 2 3 4 5 6 
#
# 1 0.013245 -0.003014 -0.007370 0.000000 -0.013163 0.000000
# 2 -0.003014 0.006822 -0.003825 0.000000 -0.005133 0.000000
# 3 -0.007370 -0.003825 0.040572 0.000000 0.039866 0.000000
# 4 0.000000 0.000000 0.000000 0.071367 0.000000 -0.014582
# 5 -0.013163 -0.005133 0.039866 0.000000 0.088450 0.000000
# 6 0.000000 0.000000 0.000000 -0.014582 0.000000 0.066691
#
#
# Mechanical properties :
#
#
# Convention : Reuss Voigt Hill
#
# Bulk Modulus (GPa) = 31.03474 61.15262 46.09368
# Shear Modulus (GPa) = 15.32312 27.81215 21.56764
#
# Velocity S-wave (km/s) = 2.79081 3.75987 3.31099
# Velocity P-wave (km/s) = 5.11463 7.06627 6.16813
#
# Compressibility (1/GPa) = 0.03222195
#
# Stress axis : x y z
#
# Youngs Moduli (GPa) = 75.50081 146.58977 24.64741
#
# Poissons Ratio (x) = 0.44175 0.18166
# Poissons Ratio (y) = 0.22752 0.09427
# Poissons Ratio (z) = 0.55646 0.56066
#
# Static dielectric constant tensor:
#      x y z
#    x 1.687410 0.000000 -0.044600 
#    y 0.000000 1.694260 0.000000 
#    z -0.044600 0.000000 1.791500 
# 
# From -- ./inp_files/153286.got.cif
#   From: 2010.05.17/outbox.cif.g08.bks.cpg/sg12_77_cif.got.tgz:153286.got - 2010.06.03 13:09:07.
