data_PCOD9173696
_publ_section_title
;
Structure prediction by ZEFSAII (Michael W. Deem and Ramdas Pophale) SiO2 
 PCOD9173696
Probable space group: C 2/M
;
_chemical_formula_sum "Si O2"
_cell_formula_units_Z 48
_cell_length_a 33.989380
_cell_length_b 9.040194
_cell_length_c 15.747441
_cell_angle_alpha 90.000000
_cell_angle_beta 35.748741
_cell_angle_gamma 90.000000
_cell_volume 2826.937449
_symmetry_space_group_name_H-M "C 2/M"
_symmetry_group_IT_number 12
_symmetry_cell_setting 'monoclinic'
loop_
_space_group_symop_operation_xyz
x,y,z
-x,y,-z
-x,-y,-z
x,-y,z
1/2+x,1/2+y,z
1/2-x,1/2+y,-z
1/2-x,1/2-y,-z
1/2+x,1/2-y,z
loop_
_atom_site_type_symbol
_atom_site_label
_atom_site_fract_x
_atom_site_fract_y
_atom_site_fract_z
Si Si1 0.570194 0.827001 0.770136
Si Si2 0.546701 0.323067 0.641120
Si Si3 0.923494 0.174357 0.600656
Si Si4 0.180794 0.676438 0.091490
Si Si5 0.888824 0.176892 0.944453
Si Si6 0.091539 0.325758 0.917749
O O1 0.582657 0.744144 0.660458
O O2 0.603882 0.774496 0.799224
O O3 0.585937 0.000000 0.733096
O O4 0.489442 0.816002 0.926875
O O5 0.549969 0.500000 0.640455
O O6 0.576354 0.279123 0.498189
O O7 0.466902 0.284932 0.784576
O O8 0.875772 0.271720 0.742486
O O9 0.000000 0.184108 0.500000
O O10 0.904065 0.000000 0.641059
O O11 0.186134 0.500000 0.078792
O O12 0.158259 0.741366 0.040125
O O13 0.250000 0.750000 0.000000
O O14 0.881673 0.000000 0.950419
O O15 0.877051 0.232529 0.061049
O O16 0.108936 0.500000 0.894198
#
# Coordination Sequence:
#
# PCOD9173696 Si02
#       6
#     8   8   8   8   8   8
#     4   8  14  24  39  62  98 133 165 207 251 296
#     4   9  17  28  47  72 101 135 168 206 255 304
#     4  10  19  36  56  76 106 139 172 214 262 309
#     4  12  25  39  55  76 103 137 177 219 261 311
#     4  10  18  31  49  72 100 134 171 211 258 306
#     4   8  14  25  40  63  95 133 168 205 253 299
#
# _framework density 16.979505
#
# number of rings (size 3 to 8) (size 9 to 14) (size 15 to 20)
#    0.000    2.500    1.667    3.000    0.000    2.333 
#    0.000    3.333    0.000    0.000    0.000    1.167 
#    0.000    0.000    0.000    0.000    0.000    0.000 
#
# Total GULP energy -133755.147865 kJ/mol
# GULP energy per Si atom -5573.131161 kJ/mol
# Density = 1.694086 g / cm^3
# Si number density = 16.979505 Si / 1000 Ang^3
#
#
#
# Elastic Constant Matrix: (Units=GPa)
#
#
# Indices 1 2 3 4 5 6 
#
# 1 154.6993 70.7994 50.2480 0.0000 36.0458 0.0000
# 2 70.7994 75.0953 28.9162 0.0002 7.8585 0.0000
# 3 50.2480 28.9162 29.9324 0.0001 12.1425 0.0000
# 4 0.0000 0.0002 0.0001 20.3710 0.0000 7.8057
# 5 36.0458 7.8585 12.1425 0.0000 28.9052 0.0000
# 6 0.0000 0.0000 0.0000 7.8057 0.0000 31.6483
#
#
#
# Elastic Compliance Matrix: (Units=1/GPa)
#
#
# Indices 1 2 3 4 5 6 
#
# 1 0.021315 -0.011353 -0.018423 0.000000 -0.015755 0.000000
# 2 -0.011353 0.027536 -0.012354 0.000000 0.011861 0.000000
# 3 -0.018423 -0.012354 0.079061 0.000000 -0.006879 0.000000
# 4 0.000000 0.000000 0.000000 0.054213 0.000000 -0.013371
# 5 -0.015755 0.011861 -0.006879 0.000000 0.053907 0.000000
# 6 0.000000 0.000000 0.000000 -0.013371 0.000000 0.034895
#
#
# Mechanical properties :
#
#
# Convention : Reuss Voigt Hill
#
# Bulk Modulus (GPa) = 22.90886 62.18382 42.54634
# Shear Modulus (GPa) = 13.52311 23.50245 18.51278
#
# Velocity S-wave (km/s) = 2.82518 3.72447 3.30555
# Velocity P-wave (km/s) = 4.91565 7.42953 6.29927
#
# Compressibility (1/GPa) = 0.04365123
#
# Stress axis : x y z
#
# Youngs Moduli (GPa) = 46.91590 36.31645 12.64846
#
# Poissons Ratio (x) = 0.41229 0.23302
# Poissons Ratio (y) = 0.53263 0.15626
# Poissons Ratio (z) = 0.86433 0.44867
#
# Static dielectric constant tensor:
#      x y z
#    x 1.591280 0.000000 0.021620 
#    y 0.000000 1.564750 0.000000 
#    z 0.021620 0.000000 1.566790 
# 
# From -- ./inp_files/236843.got.cif
#   From: 2010.05.17/outbox.cif.g08.bks.cpg/sg12_119_cif.got.tgz:236843.got - 2010.06.03 13:09:07.
