data_PCOD9173229
_publ_section_title
;
Structure prediction by ZEFSAII (Michael W. Deem and Ramdas Pophale) SiO2 
 PCOD9173229
Probable space group: C 2/M
;
_chemical_formula_sum "Si O2"
_cell_formula_units_Z 56
_cell_length_a 19.393401
_cell_length_b 7.593386
_cell_length_c 19.786612
_cell_angle_alpha 90.000000
_cell_angle_beta 119.835372
_cell_angle_gamma 90.000000
_cell_volume 2527.607224
_symmetry_space_group_name_H-M "C 2/M"
_symmetry_group_IT_number 12
_symmetry_cell_setting 'monoclinic'
loop_
_space_group_symop_operation_xyz
x,y,z
-x,y,-z
-x,-y,-z
x,-y,z
1/2+x,1/2+y,z
1/2-x,1/2+y,-z
1/2-x,1/2-y,-z
1/2+x,1/2-y,z
loop_
_atom_site_type_symbol
_atom_site_label
_atom_site_fract_x
_atom_site_fract_y
_atom_site_fract_z
Si Si1 0.994486 0.199987 0.662183
Si Si2 0.492048 0.795028 0.814799
Si Si3 0.684305 0.710919 0.264189
Si Si4 0.255418 0.789140 0.923708
Si Si5 0.164310 0.210157 0.753979
Si Si6 0.322147 0.288604 0.584606
Si Si7 0.070942 0.715522 0.987052
O O1 0.994364 0.198077 0.744402
O O2 0.908657 0.281463 0.603172
O O3 0.079973 0.282429 0.686487
O O4 0.993488 0.000000 0.634903
O O5 0.402151 0.781047 0.800024
O O6 0.552150 0.728434 0.901178
O O7 0.508232 0.000000 0.809197
O O8 0.679386 0.500000 0.260879
O O9 0.759644 0.763531 0.256435
O O10 0.694305 0.772714 0.346866
O O11 0.189132 0.719292 0.840162
O O12 0.254243 0.000000 0.916147
O O13 0.250000 0.750000 0.000000
O O14 0.343252 0.725988 0.945842
O O15 0.151596 0.000000 0.753824
O O16 0.330389 0.500000 0.592586
O O17 0.250000 0.250000 0.500000
O O18 0.070218 0.500000 0.985904
O O19 0.000000 0.774905 0.000000
#
# Coordination Sequence:
#
# PCOD9173229 Si02
#       7
#     8   8   8   8   8   8   8
#     4   9  19  35  53  76 106 134 165 210 256 299
#     4  10  18  30  51  74  97 134 180 215 253 310
#     4  10  21  36  54  78 108 137 169 216 265 305
#     4  10  20  33  50  73 102 137 176 218 262 306
#     4  10  20  35  55  77 104 141 181 216 256 311
#     4   9  19  36  57  80 105 133 165 205 254 308
#     4   9  17  29  45  67  96 128 167 216 258 293
#
# _framework density 22.155341
#
# number of rings (size 3 to 8) (size 9 to 14) (size 15 to 20)
#    0.000    2.429    0.000    3.429    0.000    6.286 
#    0.000    1.429    0.000    7.286    0.000    0.000 
#    0.000    0.000    0.000    0.000    0.000    0.000 
#
# Total GULP energy -156327.631889 kJ/mol
# GULP energy per Si atom -5583.129710 kJ/mol
# Density = 2.210491 g / cm^3
# Si number density = 22.155341 Si / 1000 Ang^3
#
#
#
# Elastic Constant Matrix: (Units=GPa)
#
#
# Indices 1 2 3 4 5 6 
#
# 1 105.7041 -3.0523 16.5608 0.0000 26.5245 0.0000
# 2 -3.0523 56.5593 2.9892 0.0000 5.5164 0.0000
# 3 16.5608 2.9892 90.9205 0.0000 32.8132 0.0000
# 4 0.0000 0.0000 0.0000 15.8003 0.0000 -5.9098
# 5 26.5245 5.5164 32.8132 0.0000 35.5369 0.0000
# 6 0.0000 0.0000 0.0000 -5.9098 0.0000 14.7094
#
#
#
# Elastic Compliance Matrix: (Units=1/GPa)
#
#
# Indices 1 2 3 4 5 6 
#
# 1 0.011923 0.001596 0.001615 0.000000 -0.010638 0.000000
# 2 0.001596 0.018190 0.000840 0.000000 -0.004790 0.000000
# 3 0.001615 0.000840 0.016736 0.000000 -0.016789 0.000000
# 4 0.000000 0.000000 0.000000 0.074483 0.000000 0.029925
# 5 -0.010638 -0.004790 -0.016789 0.000000 0.052326 0.000000
# 6 0.000000 0.000000 0.000000 0.029925 0.000000 0.080007
#
#
# Mechanical properties :
#
#
# Convention : Reuss Voigt Hill
#
# Bulk Modulus (GPa) = 18.19822 31.79769 24.99795
# Shear Modulus (GPa) = 18.94806 28.98840 23.96823
#
# Velocity S-wave (km/s) = 2.92762 3.62113 3.29268
# Velocity P-wave (km/s) = 4.43392 5.64506 5.07575
#
# Compressibility (1/GPa) = 0.05495044
#
# Stress axis : x y z
#
# Youngs Moduli (GPa) = 83.87258 54.97676 59.75117
#
# Poissons Ratio (x) = -0.08772 -0.09651
# Poissons Ratio (y) = -0.13383 -0.05020
# Poissons Ratio (z) = -0.13547 -0.04619
#
# Static dielectric constant tensor:
#      x y z
#    x 1.864820 0.000000 0.039660 
#    y 0.000000 1.832930 0.000000 
#    z 0.039660 0.000000 1.812230 
# 
# From -- ./inp_files/314452.got.cif
#   From: 2010.05.17/outbox.cif.g08.bks.cpg/sg12_158_cif.got.tgz:314452.got - 2010.06.03 13:09:07.
