data_PCOD9173359
_publ_section_title
;
Structure prediction by ZEFSAII (Michael W. Deem and Ramdas Pophale) SiO2 
 PCOD9173359
Probable space group: C 2/M
;
_chemical_formula_sum "Si O2"
_cell_formula_units_Z 40
_cell_length_a 20.931604
_cell_length_b 14.688763
_cell_length_c 20.378091
_cell_angle_alpha 90.000000
_cell_angle_beta 22.187378
_cell_angle_gamma 90.000000
_cell_volume 2366.058913
_symmetry_space_group_name_H-M "C 2/M"
_symmetry_group_IT_number 12
_symmetry_cell_setting 'monoclinic'
loop_
_space_group_symop_operation_xyz
x,y,z
-x,y,-z
-x,-y,-z
x,-y,z
1/2+x,1/2+y,z
1/2-x,1/2+y,-z
1/2-x,1/2-y,-z
1/2+x,1/2-y,z
loop_
_atom_site_type_symbol
_atom_site_label
_atom_site_fract_x
_atom_site_fract_y
_atom_site_fract_z
Si Si1 0.107693 0.762576 0.732146
Si Si2 0.856476 0.898460 0.810176
Si Si3 0.699816 0.395119 0.979763
Si Si4 0.997060 0.396410 0.080772
Si Si5 0.535596 0.213678 0.650337
O O1 0.110222 0.680943 0.781450
O O2 0.288433 0.810812 0.551290
O O3 0.066228 0.720026 0.699738
O O4 0.957378 0.832393 0.891881
O O5 0.983039 0.815558 0.678400
O O6 0.927038 0.000000 0.731880
O O7 0.804350 0.892418 0.936503
O O8 0.687132 0.887896 0.928749
O O9 0.682985 0.500000 0.975730
O O10 0.876810 0.351510 0.789359
O O11 0.939851 0.500000 0.149886
O O12 0.000000 0.384790 0.000000
#
# Coordination Sequence:
#
# PCOD9173359 Si02
#       5
#     8   8   8   8   8
#     4  10  19  32  50  76 103 131 171 209 254 305
#     4   9  16  30  49  72 104 134 164 203 251 306
#     4  10  18  31  51  74 103 132 163 211 262 300
#     4  10  19  32  52  75 104 142 173 199 242 303
#     4  10  18  30  52  76 101 132 165 211 264 300
#
# _framework density 16.905750000000001
#
# number of rings (size 3 to 8) (size 9 to 14) (size 15 to 20)
#    0.000    2.200    4.000    1.200    0.000    1.600 
#    0.000    5.000    0.000    4.200    0.000    1.400 
#    0.000    0.000    0.000    0.000    0.000    0.000 
#
# Total GULP energy -111483.605990 kJ/mol
# GULP energy per Si atom -5574.180299 kJ/mol
# Density = 1.686727 g / cm^3
# Si number density = 16.905750 Si / 1000 Ang^3
#
#
#
# Elastic Constant Matrix: (Units=GPa)
#
#
# Indices 1 2 3 4 5 6 
#
# 1 27.9027 28.6071 7.2578 -0.0005 3.7652 -0.0002
# 2 28.6071 100.7266 58.3863 -0.0030 3.2256 -0.0001
# 3 7.2578 58.3863 113.1588 -0.0017 -8.4098 -0.0004
# 4 -0.0005 -0.0030 -0.0017 7.1882 -0.0004 0.4544
# 5 3.7652 3.2256 -8.4098 -0.0004 6.6389 0.0007
# 6 -0.0002 -0.0001 -0.0004 0.4544 0.0007 21.1967
#
#
#
# Elastic Compliance Matrix: (Units=1/GPa)
#
#
# Indices 1 2 3 4 5 6 
#
# 1 0.055052 -0.017527 0.004222 -0.000003 -0.017358 0.000001
# 2 -0.017527 0.021950 -0.011321 0.000004 -0.015066 0.000000
# 3 0.004222 -0.011321 0.016160 0.000001 0.023576 0.000000
# 4 -0.000003 0.000004 0.000001 0.139305 0.000009 -0.002986
# 5 -0.017358 -0.015066 0.023576 0.000009 0.197656 -0.000006
# 6 0.000001 0.000000 0.000000 -0.002986 -0.000006 0.047241
#
#
# Mechanical properties :
#
#
# Convention : Reuss Voigt Hill
#
# Bulk Modulus (GPa) = 22.77334 47.81005 35.29169
# Shear Modulus (GPa) = 9.23782 16.84058 13.03920
#
# Velocity S-wave (km/s) = 2.34012 3.15960 2.78022
# Velocity P-wave (km/s) = 4.56087 6.45388 5.58812
#
# Compressibility (1/GPa) = 0.04391099
#
# Stress axis : x y z
#
# Youngs Moduli (GPa) = 18.16458 45.55723 61.88161
#
# Poissons Ratio (x) = 0.79847 -0.26128
# Poissons Ratio (y) = 0.31837 0.70058
# Poissons Ratio (z) = -0.07670 0.51576
#
# Static dielectric constant tensor:
#      x y z
#    x 1.545990 0.000000 -0.010770 
#    y 0.000000 1.582750 0.000000 
#    z -0.010770 0.000000 1.580380 
# 
# From -- ./inp_files/58934.got.cif
#   From: 2010.05.17/outbox.cif.g08.bks.cpg/sg12_30_cif.got.tgz:58934.got - 2010.06.03 13:09:07.
