data_PCOD9173430
_publ_section_title
;
Structure prediction by ZEFSAII (Michael W. Deem and Ramdas Pophale) SiO2 
 PCOD9173430
Probable space group: C 2/M
;
_chemical_formula_sum "Si O2"
_cell_formula_units_Z 56
_cell_length_a 17.517447
_cell_length_b 12.956666
_cell_length_c 11.461540
_cell_angle_alpha 90.000000
_cell_angle_beta 68.907178
_cell_angle_gamma 90.000000
_cell_volume 2427.102151
_symmetry_space_group_name_H-M "C 2/M"
_symmetry_group_IT_number 12
_symmetry_cell_setting 'monoclinic'
loop_
_space_group_symop_operation_xyz
x,y,z
-x,y,-z
-x,-y,-z
x,-y,z
1/2+x,1/2+y,z
1/2-x,1/2+y,-z
1/2-x,1/2-y,-z
1/2+x,1/2-y,z
loop_
_atom_site_type_symbol
_atom_site_label
_atom_site_fract_x
_atom_site_fract_y
_atom_site_fract_z
Si Si1 0.378814 0.617332 0.003859
Si Si2 0.685600 0.111963 0.089301
Si Si3 0.546056 0.114540 0.685261
Si Si4 0.371437 0.831800 0.127373
Si Si5 0.706475 0.670782 0.354813
Si Si6 0.281084 0.110545 0.544554
Si Si7 0.419210 0.711426 0.747049
O O1 0.395467 0.500000 0.033985
O O2 0.429655 0.645044 0.858863
O O3 0.282837 0.622379 0.018826
O O4 0.387293 0.709939 0.092586
O O5 0.651910 0.206309 0.180894
O O6 0.671656 0.000000 0.150261
O O7 0.635478 0.119193 0.996228
O O8 0.564228 0.128237 0.813269
O O9 0.631793 0.116391 0.569670
O O10 0.493786 0.213291 0.676271
O O11 0.510297 0.000000 0.684062
O O12 0.283484 0.858792 0.232731
O O13 0.722161 0.791781 0.371822
O O14 0.715226 0.620648 0.477090
O O15 0.621272 0.650975 0.337463
O O16 0.272712 0.000000 0.608273
#
# Coordination Sequence:
#
# PCOD9173430 Si02
#       7
#     8   8   8   8   8   8   8
#     4  10  20  33  52  81 107 144 189 224 259 310
#     4  10  18  30  52  83 112 139 181 225 262 317
#     4  10  22  37  55  81 112 145 175 221 280 327
#     4  10  18  36  54  79 112 147 181 220 265 313
#     4  10  19  35  58  79 107 141 180 221 270 315
#     4   9  21  38  57  83 107 134 182 227 271 324
#     4  11  20  35  53  82 114 145 178 218 273 324
#
# _framework density 23.072782
#
# number of rings (size 3 to 8) (size 9 to 14) (size 15 to 20)
#    0.000    2.000    2.857    1.714    0.000    5.714 
#    0.000    6.429    0.000    3.429    0.000   10.000 
#    0.000    0.000    0.000    0.000    0.000    0.000 
#
# Total GULP energy -156436.208740 kJ/mol
# GULP energy per Si atom -5587.007455 kJ/mol
# Density = 2.302027 g / cm^3
# Si number density = 23.072782 Si / 1000 Ang^3
#
#
#
# Elastic Constant Matrix: (Units=GPa)
#
#
# Indices 1 2 3 4 5 6 
#
# 1 59.0810 -17.9497 11.1390 0.0000 -2.2282 0.0000
# 2 -17.9497 90.5608 -13.3371 0.0000 -7.5156 0.0000
# 3 11.1390 -13.3371 25.3710 0.0000 16.7120 0.0000
# 4 0.0000 0.0000 0.0000 -11.4230 0.0000 -9.7025
# 5 -2.2282 -7.5156 16.7120 0.0000 20.3666 0.0000
# 6 0.0000 0.0000 0.0000 -9.7025 0.0000 12.9276
#
#
#
# Elastic Compliance Matrix: (Units=1/GPa)
#
#
# Indices 1 2 3 4 5 6 
#
# 1 0.023248 0.003010 -0.024007 0.000000 0.023354 0.000000
# 2 0.003010 0.012383 0.004268 0.000000 0.001397 0.000000
# 3 -0.024007 0.004268 0.115108 0.000000 -0.095504 0.000000
# 4 0.000000 0.000000 0.000000 -0.053461 0.000000 -0.040124
# 5 0.023354 0.001397 -0.095504 0.000000 0.130538 0.000000
# 6 0.000000 0.000000 0.000000 -0.040124 0.000000 0.047239
#
#
# Mechanical properties :
#
#
# Convention : Reuss Voigt Hill
#
# Bulk Modulus (GPa) = 8.52656 14.96858 11.74757
# Shear Modulus (GPa) = 14.38409 17.38494 15.88451
#
# Velocity S-wave (km/s) = 2.49955 2.74794 2.62668
# Velocity P-wave (km/s) = 3.46899 4.07061 3.78178
#
# Compressibility (1/GPa) = 0.11728063
#
# Stress axis : x y z
#
# Youngs Moduli (GPa) = 43.01532 80.75300 8.68750
#
# Poissons Ratio (x) = -0.24309 0.20856
# Poissons Ratio (y) = -0.12949 -0.03708
# Poissons Ratio (z) = 1.03268 -0.34464
#
# Static dielectric constant tensor:
#      x y z
#    x 1.896750 0.000000 -0.010780 
#    y 0.000000 1.936500 0.000000 
#    z -0.010780 0.000000 1.839190 
# 
# From -- ./inp_files/156511.got.cif
#   From: 2010.05.17/outbox.cif.g08.bks.cpg/sg12_79_cif.got.tgz:156511.got - 2010.06.03 13:09:07.
