data_PCOD9173921
_publ_section_title
;
Structure prediction by ZEFSAII (Michael W. Deem and Ramdas Pophale) SiO2 
 PCOD9173921
Probable space group: C 2/M
;
_chemical_formula_sum "Si O2"
_cell_formula_units_Z 56
_cell_length_a 18.691443
_cell_length_b 23.763202
_cell_length_c 7.790899
_cell_angle_alpha 90.000000
_cell_angle_beta 48.516489
_cell_angle_gamma 90.000000
_cell_volume 2592.400234
_symmetry_space_group_name_H-M "C 2/M"
_symmetry_group_IT_number 12
_symmetry_cell_setting 'monoclinic'
loop_
_space_group_symop_operation_xyz
x,y,z
-x,y,-z
-x,-y,-z
x,-y,z
1/2+x,1/2+y,z
1/2-x,1/2+y,-z
1/2-x,1/2-y,-z
1/2+x,1/2-y,z
loop_
_atom_site_type_symbol
_atom_site_label
_atom_site_fract_x
_atom_site_fract_y
_atom_site_fract_z
Si Si1 0.863355 0.228856 0.446901
Si Si2 0.958399 0.156405 0.730984
Si Si3 0.926261 0.564784 0.259348
Si Si4 0.756099 0.167804 0.898404
Si Si5 0.773282 0.935836 0.633134
Si Si6 0.652179 0.848639 0.387914
Si Si7 0.355894 0.632329 0.207517
O O1 0.773218 0.206821 0.704629
O O2 0.864687 0.295270 0.462325
O O3 0.857932 0.196562 0.274969
O O4 0.962603 0.204184 0.364223
O O5 0.853930 0.179510 0.847582
O O6 0.000000 0.123539 0.500000
O O7 0.938733 0.123966 0.938081
O O8 0.950207 0.500000 0.263640
O O9 0.825206 0.564898 0.319023
O O10 0.920745 0.603578 0.436169
O O11 0.000000 0.586397 0.000000
O O12 0.760764 0.104644 0.816001
O O13 0.666554 0.172325 0.169134
O O14 0.849777 0.906772 0.384504
O O15 0.796131 0.000000 0.639909
O O16 0.755692 0.874711 0.268449
#
# Coordination Sequence:
#
# PCOD9173921 Si02
#       7
#     8   8   8   8   8   8   8
#     4  10  18  31  51  75 106 141 174 214 261 309
#     4   9  18  32  50  72 105 143 170 207 267 307
#     4   9  19  36  54  76 107 134 165 215 263 302
#     4   9  19  34  51  75 110 138 168 217 260 302
#     4   9  18  35  59  79  99 138 179 210 256 317
#     4  10  19  32  52  79 102 136 179 211 253 315
#     4   9  18  32  52  76 104 136 175 221 260 304
#
# _framework density 21.601600999999999
#
# number of rings (size 3 to 8) (size 9 to 14) (size 15 to 20)
#    0.000    2.714    0.000    1.286    0.000    1.714 
#    0.000   10.000    0.000   29.143    0.000    0.000 
#    0.000    0.000    0.000    0.000    0.000    0.000 
#
# Total GULP energy -156025.360538 kJ/mol
# GULP energy per Si atom -5572.334305 kJ/mol
# Density = 2.155243 g / cm^3
# Si number density = 21.601601 Si / 1000 Ang^3
#
#
#
# Elastic Constant Matrix: (Units=GPa)
#
#
# Indices 1 2 3 4 5 6 
#
# 1 28.2975 -5.6581 1.5587 0.0000 4.4389 0.0000
# 2 -5.6581 86.2355 32.2638 0.0000 0.0777 0.0000
# 3 1.5587 32.2638 150.9179 0.0000 9.9518 0.0000
# 4 0.0000 0.0000 0.0000 10.0078 0.0000 1.0405
# 5 4.4389 0.0777 9.9518 0.0000 22.3644 0.0000
# 6 0.0000 0.0000 0.0000 1.0405 0.0000 15.4549
#
#
#
# Elastic Compliance Matrix: (Units=1/GPa)
#
#
# Indices 1 2 3 4 5 6 
#
# 1 0.037007 0.002610 -0.000469 0.000000 -0.007146 0.000000
# 2 0.002610 0.012819 -0.002813 0.000000 0.000689 0.000000
# 3 -0.000469 -0.002813 0.007444 0.000000 -0.003210 0.000000
# 4 0.000000 0.000000 0.000000 0.100626 0.000000 -0.006775
# 5 -0.007146 0.000689 -0.003210 0.000000 0.047558 0.000000
# 6 0.000000 0.000000 0.000000 -0.006775 0.000000 0.065160
#
#
# Mechanical properties :
#
#
# Convention : Reuss Voigt Hill
#
# Bulk Modulus (GPa) = 17.88054 35.75330 26.81692
# Shear Modulus (GPa) = 17.20571 25.38453 21.29512
#
# Velocity S-wave (km/s) = 2.82530 3.43173 3.14317
# Velocity P-wave (km/s) = 4.35183 5.68238 5.06102
#
# Compressibility (1/GPa) = 0.05592671
#
# Stress axis : x y z
#
# Youngs Moduli (GPa) = 27.02165 78.00795 134.33689
#
# Poissons Ratio (x) = -0.20360 0.06300
# Poissons Ratio (y) = -0.07053 0.37788
# Poissons Ratio (z) = 0.01267 0.21943
#
# Static dielectric constant tensor:
#      x y z
#    x 1.878510 0.000000 0.027840 
#    y 0.000000 1.772420 0.000000 
#    z 0.027840 0.000000 1.845520 
# 
# From -- ./inp_files/99603.got.cif
#   From: 2010.05.17/outbox.cif.g08.bks.cpg/sg12_50_cif.got.tgz:99603.got - 2010.06.03 13:09:07.
