data_PCOD9173120
_publ_section_title
;
Structure prediction by ZEFSAII (Michael W. Deem and Ramdas Pophale) SiO2 
 PCOD9173120
Probable space group: C 2/M
;
_chemical_formula_sum "Si O2"
_cell_formula_units_Z 56
_cell_length_a 18.604951
_cell_length_b 13.943803
_cell_length_c 14.720085
_cell_angle_alpha 90.000000
_cell_angle_beta 61.601000
_cell_angle_gamma 90.000000
_cell_volume 3359.180863
_symmetry_space_group_name_H-M "C 2/M"
_symmetry_group_IT_number 12
_symmetry_cell_setting 'monoclinic'
loop_
_space_group_symop_operation_xyz
x,y,z
-x,y,-z
-x,-y,-z
x,-y,z
1/2+x,1/2+y,z
1/2-x,1/2+y,-z
1/2-x,1/2-y,-z
1/2+x,1/2-y,z
loop_
_atom_site_type_symbol
_atom_site_label
_atom_site_fract_x
_atom_site_fract_y
_atom_site_fract_z
Si Si1 0.289262 0.388587 0.277845
Si Si2 0.953503 0.112572 0.668132
Si Si3 0.812831 0.205810 0.647647
Si Si4 0.802581 0.612145 0.136526
Si Si5 0.903146 0.205280 0.058871
Si Si6 0.344834 0.387538 0.909720
Si Si7 0.146446 0.888372 0.555720
O O1 0.268660 0.500000 0.274625
O O2 0.214483 0.314070 0.315003
O O3 0.358358 0.354551 0.165292
O O4 0.322746 0.377986 0.360154
O O5 0.902237 0.177888 0.630539
O O6 0.913958 0.127169 0.791194
O O7 0.049435 0.130441 0.611590
O O8 0.939994 0.000000 0.652149
O O9 0.750688 0.139367 0.742695
O O10 0.810225 0.178893 0.543650
O O11 0.822597 0.500000 0.124093
O O12 0.878365 0.683874 0.087681
O O13 0.740970 0.632544 0.089142
O O14 0.864619 0.172112 0.986660
O O15 0.000000 0.190255 0.000000
O O16 0.345315 0.500000 0.933777
O O17 0.158819 0.000000 0.521430
#
# Coordination Sequence:
#
# PCOD9173120 Si02
#       7
#     8   8   8   8   8   8   8
#     4  10  22  35  47  69  98 128 161 193 230 283
#     4   9  17  29  50  79 100 118 153 200 242 276
#     4  10  18  31  51  73  96 125 158 193 237 281
#     4   9  19  34  50  71  96 123 159 196 232 280
#     4  11  21  32  50  72  95 126 158 193 239 283
#     4   9  17  31  50  70  96 127 157 194 235 275
#     4  10  18  30  50  75 101 124 152 195 241 280
#
# _framework density 16.670731
#
# number of rings (size 3 to 8) (size 9 to 14) (size 15 to 20)
#    0.000    2.286    0.000    4.714    0.000    3.714 
#    0.000    0.000    0.000    1.714    0.000    0.000 
#    0.000    0.000    0.000    0.000    0.000    0.000 
#
# Total GULP energy -156194.744139 kJ/mol
# GULP energy per Si atom -5578.383719 kJ/mol
# Density = 1.663279 g / cm^3
# Si number density = 16.670731 Si / 1000 Ang^3
#
#
#
# Elastic Constant Matrix: (Units=GPa)
#
#
# Indices 1 2 3 4 5 6 
#
# 1 38.6974 30.0632 22.1088 0.0000 4.5735 0.0000
# 2 30.0632 90.2086 36.4378 0.0000 6.3402 0.0000
# 3 22.1088 36.4378 60.7783 0.0000 12.7044 0.0000
# 4 0.0000 0.0000 0.0000 19.4975 0.0000 3.8663
# 5 4.5735 6.3402 12.7044 0.0000 18.4232 0.0000
# 6 0.0000 0.0000 0.0000 3.8663 0.0000 19.2201
#
#
#
# Elastic Compliance Matrix: (Units=1/GPa)
#
#
# Indices 1 2 3 4 5 6 
#
# 1 0.037710 -0.009284 -0.008019 0.000000 -0.000637 0.000000
# 2 -0.009284 0.016935 -0.007057 0.000000 0.001343 0.000000
# 3 -0.008019 -0.007057 0.026496 0.000000 -0.013852 0.000000
# 4 0.000000 0.000000 0.000000 0.053419 0.000000 -0.010746
# 5 -0.000637 0.001343 -0.013852 0.000000 0.063528 0.000000
# 6 0.000000 0.000000 0.000000 -0.010746 0.000000 0.054190
#
#
# Mechanical properties :
#
#
# Convention : Reuss Voigt Hill
#
# Bulk Modulus (GPa) = 30.84137 40.76708 35.80422
# Shear Modulus (GPa) = 16.03561 18.16646 17.10104
#
# Velocity S-wave (km/s) = 3.10482 3.30468 3.20630
# Velocity P-wave (km/s) = 5.60301 6.25048 5.93558
#
# Compressibility (1/GPa) = 0.03242399
#
# Stress axis : x y z
#
# Youngs Moduli (GPa) = 26.51784 59.04794 37.74110
#
# Poissons Ratio (x) = 0.54819 0.30263
# Poissons Ratio (y) = 0.24619 0.26633
# Poissons Ratio (z) = 0.21264 0.41668
#
# Static dielectric constant tensor:
#      x y z
#    x 1.549800 0.000000 0.013040 
#    y 0.000000 1.554960 0.000000 
#    z 0.013040 0.000000 1.563050 
# 
# From -- ./inp_files/223738.got.cif
#   From: 2010.05.17/outbox.cif.g08.bks.cpg/sg12_112_cif.got.tgz:223738.got - 2010.06.03 13:09:07.
