data_PCOD9173771
_publ_section_title
;
Structure prediction by ZEFSAII (Michael W. Deem and Ramdas Pophale) SiO2 
 PCOD9173771
Probable space group: C 2/M
;
_chemical_formula_sum "Si O2"
_cell_formula_units_Z 64
_cell_length_a 25.505162
_cell_length_b 8.464997
_cell_length_c 18.163592
_cell_angle_alpha 90.000000
_cell_angle_beta 102.387767
_cell_angle_gamma 90.000000
_cell_volume 3830.238967
_symmetry_space_group_name_H-M "C 2/M"
_symmetry_group_IT_number 12
_symmetry_cell_setting 'monoclinic'
loop_
_space_group_symop_operation_xyz
x,y,z
-x,y,-z
-x,-y,-z
x,-y,z
1/2+x,1/2+y,z
1/2-x,1/2+y,-z
1/2-x,1/2-y,-z
1/2+x,1/2-y,z
loop_
_atom_site_type_symbol
_atom_site_label
_atom_site_fract_x
_atom_site_fract_y
_atom_site_fract_z
Si Si1 0.134722 0.315856 0.433436
Si Si2 0.283049 0.811069 0.833997
Si Si3 0.191114 0.810182 0.006176
Si Si4 0.338598 0.692116 0.158623
Si Si5 0.906813 0.192459 0.315199
Si Si6 0.184365 0.812907 0.594696
Si Si7 0.298828 0.314904 0.677940
Si Si8 0.983814 0.190454 0.579595
O O1 0.141116 0.500000 0.451837
O O2 0.166259 0.220360 0.506214
O O3 0.160414 0.276391 0.362683
O O4 0.072530 0.268226 0.418207
O O5 0.317331 0.760042 0.915592
O O6 0.220892 0.760573 0.830740
O O7 0.302181 0.737243 0.763699
O O8 0.282957 0.000000 0.827962
O O9 0.191372 0.000000 0.010963
O O10 0.250000 0.750000 0.000000
O O11 0.155130 0.761528 0.925013
O O12 0.338611 0.500000 0.159818
O O13 0.383004 0.746711 0.230013
O O14 0.864212 0.236405 0.365876
O O15 0.966412 0.243657 0.354838
O O16 0.907911 0.000000 0.315081
O O17 0.238748 0.725209 0.632364
O O18 0.193349 0.000000 0.608202
O O19 0.308929 0.500000 0.674025
O O20 0.000000 0.223909 0.500000
O O21 0.977873 0.000000 0.583819
#
# Coordination Sequence:
#
# PCOD9173771 Si02
#       8
#     8   8   8   8   8   8   8   8
#     4  12  25  39  53  73 103 139 178 220 263 307
#     4  10  18  31  50  72 103 139 173 207 256 312
#     4   9  16  26  43  69 103 138 174 210 252 305
#     4   8  14  26  46  73 102 135 170 206 248 303
#     4   9  16  29  53  78 102 135 173 211 257 307
#     4  11  20  36  57  77 104 138 175 213 259 311
#     4  12  24  37  53  77 105 136 176 217 260 313
#     4  10  19  35  57  78  99 133 177 220 264 310
#
# _framework density 16.709139
#
# number of rings (size 3 to 8) (size 9 to 14) (size 15 to 20)
#    0.000    1.875    2.500    4.500    0.000    0.250 
#    0.000    0.000    0.000    0.000    0.000    0.875 
#    0.000    7.000    0.000    0.000    0.000    0.000 
#
# Total GULP energy -178547.141701 kJ/mol
# GULP energy per Si atom -5579.598178 kJ/mol
# Density = 1.667111 g / cm^3
# Si number density = 16.709139 Si / 1000 Ang^3
#
#
#
# Elastic Constant Matrix: (Units=GPa)
#
#
# Indices 1 2 3 4 5 6 
#
# 1 42.7534 1.0393 24.4892 0.0000 -8.8391 0.0000
# 2 1.0393 18.5024 -9.3072 0.0000 4.2828 0.0000
# 3 24.4892 -9.3072 115.0121 0.0000 6.2761 0.0000
# 4 0.0000 0.0000 0.0000 22.3469 0.0000 -1.2346
# 5 -8.8391 4.2828 6.2761 0.0000 14.7337 0.0000
# 6 0.0000 0.0000 0.0000 -1.2346 0.0000 21.3190
#
#
#
# Elastic Compliance Matrix: (Units=1/GPa)
#
#
# Indices 1 2 3 4 5 6 
#
# 1 0.035968 -0.014269 -0.010460 0.000000 0.030182 0.000000
# 2 -0.014269 0.067563 0.010283 0.000000 -0.032580 0.000000
# 3 -0.010460 0.010283 0.012552 0.000000 -0.014611 0.000000
# 4 0.000000 0.000000 0.000000 0.044892 0.000000 0.002600
# 5 0.030182 -0.032580 -0.014611 0.000000 0.101673 0.000000
# 6 0.000000 0.000000 0.000000 0.002600 0.000000 0.047057
#
#
# Mechanical properties :
#
#
# Convention : Reuss Voigt Hill
#
# Bulk Modulus (GPa) = 11.46895 23.19006 17.32951
# Shear Modulus (GPa) = 13.59951 22.34970 17.97460
#
# Velocity S-wave (km/s) = 2.85598 3.66125 3.28340
# Velocity P-wave (km/s) = 4.21358 5.63754 4.97675
#
# Compressibility (1/GPa) = 0.08719193
#
# Stress axis : x y z
#
# Youngs Moduli (GPa) = 27.80212 14.80105 79.67158
#
# Poissons Ratio (x) = 0.21119 0.83339
# Poissons Ratio (y) = 0.39670 -0.81930
# Poissons Ratio (z) = 0.29082 -0.15221
#
# Static dielectric constant tensor:
#      x y z
#    x 1.527310 0.000000 0.010040 
#    y 0.000000 1.569530 0.000000 
#    z 0.010040 0.000000 1.589550 
# 
# From -- ./inp_files/281379.got.cif
#   From: 2010.05.17/outbox.cif.g08.bks.cpg/sg12_141_cif.got.tgz:281379.got - 2010.06.03 13:09:07.
