data_PCOD9173223
_publ_section_title
;
Structure prediction by ZEFSAII (Michael W. Deem and Ramdas Pophale) SiO2 
 PCOD9173223
Probable space group: C 2/M
;
_chemical_formula_sum "Si O2"
_cell_formula_units_Z 56
_cell_length_a 15.492302
_cell_length_b 17.459110
_cell_length_c 11.582205
_cell_angle_alpha 90.000000
_cell_angle_beta 81.251706
_cell_angle_gamma 90.000000
_cell_volume 3096.329123
_symmetry_space_group_name_H-M "C 2/M"
_symmetry_group_IT_number 12
_symmetry_cell_setting 'monoclinic'
loop_
_space_group_symop_operation_xyz
x,y,z
-x,y,-z
-x,-y,-z
x,-y,z
1/2+x,1/2+y,z
1/2-x,1/2+y,-z
1/2-x,1/2-y,-z
1/2+x,1/2-y,z
loop_
_atom_site_type_symbol
_atom_site_label
_atom_site_fract_x
_atom_site_fract_y
_atom_site_fract_z
Si Si1 0.345767 0.640317 0.277225
Si Si2 0.229589 0.697155 0.641404
Si Si3 0.916939 0.275640 0.600681
Si Si4 0.521704 0.373112 0.358712
Si Si5 0.809311 0.085190 0.796423
Si Si6 0.102505 0.091887 0.976179
Si Si7 0.820905 0.412483 0.560080
O O1 0.328763 0.728253 0.320496
O O2 0.436110 0.606781 0.306650
O O3 0.349385 0.632694 0.139397
O O4 0.269214 0.592429 0.352252
O O5 0.325845 0.731069 0.583678
O O6 0.246981 0.648466 0.753490
O O7 0.192596 0.637604 0.554334
O O8 0.954062 0.214572 0.683471
O O9 0.887248 0.362179 0.624351
O O10 0.000000 0.281238 0.500000
O O11 0.500000 0.377109 0.500000
O O12 0.607614 0.418281 0.307316
O O13 0.770093 0.000000 0.810719
O O14 0.849839 0.106074 0.911993
O O15 0.105162 0.000000 0.955853
O O16 0.000000 0.113842 0.000000
O O17 0.845774 0.500000 0.533123
#
# Coordination Sequence:
#
# PCOD9173223 Si02
#       7
#     8   8   8   8   8   8   8
#     4  11  20  34  54  74 102 136 170 206 248 300
#     4  10  20  33  51  76 104 132 164 210 253 297
#     4   9  17  32  48  67  98 133 166 198 241 291
#     4  10  18  30  51  73  99 134 166 204 251 298
#     4  10  20  33  49  73 102 132 167 207 251 298
#     4  10  20  35  52  74 104 133 166 207 251 298
#     4  11  21  32  50  77 106 135 166 204 254 301
#
# _framework density 18.085934000000002
#
# number of rings (size 3 to 8) (size 9 to 14) (size 15 to 20)
#    0.000    1.857    1.429    6.857    0.000    1.714 
#    0.000    0.000    0.000    0.429    0.000    0.000 
#    0.000    1.143    0.000    0.429    0.000    0.000 
#
# Total GULP energy -155878.688341 kJ/mol
# GULP energy per Si atom -5567.096012 kJ/mol
# Density = 1.804477 g / cm^3
# Si number density = 18.085934 Si / 1000 Ang^3
#
#
#
# Elastic Constant Matrix: (Units=GPa)
#
#
# Indices 1 2 3 4 5 6 
#
# 1 12.6935 -2.9867 -11.5184 0.0000 -0.0159 0.0000
# 2 -2.9867 99.1442 18.7910 0.0000 7.3714 0.0000
# 3 -11.5184 18.7910 80.5798 0.0000 15.5650 0.0000
# 4 0.0000 0.0000 0.0000 19.4465 0.0000 -1.9465
# 5 -0.0159 7.3714 15.5650 0.0000 22.3941 0.0000
# 6 0.0000 0.0000 0.0000 -1.9465 0.0000 -1.3794
#
#
#
# Elastic Compliance Matrix: (Units=1/GPa)
#
#
# Indices 1 2 3 4 5 6 
#
# 1 0.092681 0.000716 0.015148 0.000000 -0.010698 0.000000
# 2 0.000716 0.010639 -0.001966 0.000000 -0.002135 0.000000
# 3 0.015148 -0.001966 0.017218 0.000000 -0.011310 0.000000
# 4 0.000000 0.000000 0.000000 0.045059 0.000000 -0.063583
# 5 -0.010698 -0.002135 -0.011310 0.000000 0.053211 0.000000
# 6 0.000000 0.000000 0.000000 -0.063583 0.000000 -0.635224
#
#
# Mechanical properties :
#
#
# Convention : Reuss Voigt Hill
#
# Bulk Modulus (GPa) = 6.74151 22.33213 14.53682
# Shear Modulus (GPa) = -12.66572 20.63434 3.98431
#
# Velocity S-wave (km/s) = -2.64920 3.38139 1.48586
# Velocity P-wave (km/s) = 2.37110 5.25544 3.31644
#
# Compressibility (1/GPa) = 0.14833461
#
# Stress axis : x y z
#
# Youngs Moduli (GPa) = 10.78969 93.99112 58.07710
#
# Poissons Ratio (x) = -0.06734 -0.87974
# Poissons Ratio (y) = -0.00773 0.11419
# Poissons Ratio (z) = -0.16344 0.18481
#
# Static dielectric constant tensor:
#      x y z
#    x 1.642510 0.000000 0.009300 
#    y 0.000000 1.675140 0.000000 
#    z 0.009300 0.000000 1.624940 
# 
# From -- ./inp_files/145482.got.cif
#   From: 2010.05.17/outbox.cif.g08.bks.cpg/sg12_73_cif.got.tgz:145482.got - 2010.06.03 13:09:07.
