data_PCOD9173858
_publ_section_title
;
Structure prediction by ZEFSAII (Michael W. Deem and Ramdas Pophale) SiO2 
 PCOD9173858
Probable space group: C 2/M
;
_chemical_formula_sum "Si O2"
_cell_formula_units_Z 64
_cell_length_a 29.846943
_cell_length_b 7.745350
_cell_length_c 16.495227
_cell_angle_alpha 90.000000
_cell_angle_beta 118.590835
_cell_angle_gamma 90.000000
_cell_volume 3348.290756
_symmetry_space_group_name_H-M "C 2/M"
_symmetry_group_IT_number 12
_symmetry_cell_setting 'monoclinic'
loop_
_space_group_symop_operation_xyz
x,y,z
-x,y,-z
-x,-y,-z
x,-y,z
1/2+x,1/2+y,z
1/2-x,1/2+y,-z
1/2-x,1/2-y,-z
1/2+x,1/2-y,z
loop_
_atom_site_type_symbol
_atom_site_label
_atom_site_fract_x
_atom_site_fract_y
_atom_site_fract_z
Si Si1 0.543810 0.796276 0.873107
Si Si2 0.928757 0.791304 0.772913
Si Si3 0.201911 0.699306 0.065215
Si Si4 0.300957 0.801410 0.241764
Si Si5 0.827802 0.790518 0.597835
Si Si6 0.859537 0.711587 0.143213
Si Si7 0.269204 0.204866 0.386854
Si Si8 0.396417 0.700296 0.922508
O O1 0.485552 0.765010 0.800383
O O2 0.585167 0.735959 0.842485
O O3 0.552085 0.000000 0.891216
O O4 0.558981 0.712462 0.972042
O O5 0.883665 0.734318 0.674112
O O6 0.914598 0.731742 0.851653
O O7 0.928815 0.000000 0.774227
O O8 0.217254 0.500000 0.069679
O O9 0.248655 0.798366 0.145165
O O10 0.152838 0.709123 0.081798
O O11 0.181406 0.765361 0.960937
O O12 0.342934 0.725089 0.217097
O O13 0.288367 0.720881 0.318134
O O14 0.316403 0.000000 0.270137
O O15 0.784776 0.728643 0.624883
O O16 0.809527 0.731134 0.493878
O O17 0.826591 0.000000 0.596700
O O18 0.858163 0.500000 0.143107
O O19 0.261445 0.000000 0.367532
O O20 0.381951 0.500000 0.899381
#
# Coordination Sequence:
#
# PCOD9173858 Si02
#       8
#     8   8   8   8   8   8   8   8
#     4  10  20  33  48  70  99 127 160 200 239 275
#     4  10  20  33  50  71  94 126 165 196 231 284
#     4  10  19  30  45  71 103 128 158 197 236 278
#     4  10  18  31  51  70  93 127 163 195 233 284
#     4   9  18  33  50  70  98 123 147 188 238 285
#     4   8  17  32  47  66  95 129 161 197 235 273
#     4   9  18  32  51  74  95 119 153 190 232 284
#     4  10  19  32  49  69  97 131 164 194 230 281
#
# _framework density 19.114229000000002
#
# number of rings (size 3 to 8) (size 9 to 14) (size 15 to 20)
#    0.000    2.500    0.000    3.375    0.000    5.500 
#    0.000    5.625    0.000    0.750    0.000    5.250 
#    0.000    0.000    0.000    0.000    0.000    0.000 
#
# Total GULP energy -178576.875826 kJ/mol
# GULP energy per Si atom -5580.527370 kJ/mol
# Density = 1.907072 g / cm^3
# Si number density = 19.114229 Si / 1000 Ang^3
#
#
#
# Elastic Constant Matrix: (Units=GPa)
#
#
# Indices 1 2 3 4 5 6 
#
# 1 97.9861 -8.5707 65.2468 0.0000 -13.0367 0.0000
# 2 -8.5707 32.3243 -11.1886 0.0000 -5.9327 0.0000
# 3 65.2468 -11.1886 68.1412 0.0000 -14.7610 0.0000
# 4 0.0000 0.0000 0.0000 16.3795 0.0000 6.3890
# 5 -13.0367 -5.9327 -14.7610 0.0000 35.1333 0.0000
# 6 0.0000 0.0000 0.0000 6.3890 0.0000 12.1748
#
#
#
# Elastic Compliance Matrix: (Units=1/GPa)
#
#
# Indices 1 2 3 4 5 6 
#
# 1 0.028357 -0.002435 -0.027901 0.000000 -0.001611 0.000000
# 2 -0.002435 0.035544 0.010200 0.000000 0.009384 0.000000
# 3 -0.027901 0.010200 0.045322 0.000000 0.010411 0.000000
# 4 0.000000 0.000000 0.000000 0.076765 0.000000 -0.040284
# 5 -0.001611 0.009384 0.010411 0.000000 0.033824 0.000000
# 6 0.000000 0.000000 0.000000 -0.040284 0.000000 0.103277
#
#
# Mechanical properties :
#
#
# Convention : Reuss Voigt Hill
#
# Bulk Modulus (GPa) = 14.50301 32.15852 23.33076
# Shear Modulus (GPa) = 12.94184 22.93515 17.93849
#
# Velocity S-wave (km/s) = 2.60490 3.46771 3.06680
# Velocity P-wave (km/s) = 4.08060 5.73536 4.97723
#
# Compressibility (1/GPa) = 0.06895122
#
# Stress axis : x y z
#
# Youngs Moduli (GPa) = 35.26451 28.13417 22.06450
#
# Poissons Ratio (x) = 0.06850 0.61563
# Poissons Ratio (y) = 0.08585 -0.22506
# Poissons Ratio (z) = 0.98393 -0.28697
#
# Static dielectric constant tensor:
#      x y z
#    x 1.681670 0.000000 -0.023390 
#    y 0.000000 1.732020 0.000000 
#    z -0.023390 0.000000 1.645510 
# 
# From -- ./inp_files/249225.got.cif
#   From: 2010.05.17/outbox.cif.g08.bks.cpg/sg12_125_cif.got.tgz:249225.got - 2010.06.03 13:09:07.
