data_PCOD9173233
_publ_section_title
;
Structure prediction by ZEFSAII (Michael W. Deem and Ramdas Pophale) SiO2 
 PCOD9173233
Probable space group: C 2/M
;
_chemical_formula_sum "Si O2"
_cell_formula_units_Z 64
_cell_length_a 31.428932
_cell_length_b 9.095703
_cell_length_c 12.847010
_cell_angle_alpha 90.000000
_cell_angle_beta 56.766353
_cell_angle_gamma 90.000000
_cell_volume 3071.879008
_symmetry_space_group_name_H-M "C 2/M"
_symmetry_group_IT_number 12
_symmetry_cell_setting 'monoclinic'
loop_
_space_group_symop_operation_xyz
x,y,z
-x,y,-z
-x,-y,-z
x,-y,z
1/2+x,1/2+y,z
1/2-x,1/2+y,-z
1/2-x,1/2-y,-z
1/2+x,1/2-y,z
loop_
_atom_site_type_symbol
_atom_site_label
_atom_site_fract_x
_atom_site_fract_y
_atom_site_fract_z
Si Si1 0.336668 0.826540 0.745860
Si Si2 0.903578 0.677347 0.375807
Si Si3 0.606862 0.328991 0.968003
Si Si4 0.683365 0.832158 0.999785
Si Si5 0.005480 0.334993 0.116391
Si Si6 0.737027 0.667745 0.296996
Si Si7 0.830921 0.321115 0.299898
Si Si8 0.556407 0.178789 0.453619
O O1 0.306114 0.800756 0.893614
O O2 0.311738 0.754184 0.677929
O O3 0.395706 0.783624 0.684072
O O4 0.335656 0.000000 0.727373
O O5 0.898180 0.500000 0.391714
O O6 0.852891 0.727769 0.382350
O O7 0.922784 0.729975 0.462012
O O8 0.951624 0.707177 0.236664
O O9 0.607767 0.500000 0.941250
O O10 0.629480 0.237030 0.840135
O O11 0.644111 0.287588 0.011702
O O12 0.551215 0.275066 0.074424
O O13 0.661774 0.000000 0.025923
O O14 0.727719 0.832934 0.854690
O O15 0.018188 0.500000 0.138631
O O16 0.000000 0.342520 0.000000
O O17 0.723617 0.500000 0.340441
O O18 0.774758 0.727233 0.336591
O O19 0.831007 0.500000 0.295257
O O20 0.500000 0.232703 0.500000
O O21 0.552708 0.000000 0.461418
#
# Coordination Sequence:
#
# PCOD9173233 Si02
#       8
#     8   8   8   8   8   8   8   8
#     4  10  20  34  55  80 108 139 179 229 269 312
#     4   9  17  31  54  76 101 139 180 223 263 308
#     4  11  21  30  45  76 113 141 167 216 273 321
#     4   9  19  34  53  77 106 144 182 214 256 320
#     4  10  18  30  51  75 100 138 184 219 256 321
#     4   9  18  32  53  78 108 139 174 220 265 324
#     4   9  17  34  54  76 104 139 179 212 254 321
#     4   9  19  34  53  82 109 133 176 232 274 298
#
# _framework density 20.834154000000002
#
# number of rings (size 3 to 8) (size 9 to 14) (size 15 to 20)
#    0.000    2.500    1.250    2.250    1.750    2.750 
#    0.000    0.625    0.000    1.875    0.000    0.000 
#    0.000    0.000    0.000    0.000    0.000    0.000 
#
# Total GULP energy -178322.663851 kJ/mol
# GULP energy per Si atom -5572.583245 kJ/mol
# Density = 2.078673 g / cm^3
# Si number density = 20.834154 Si / 1000 Ang^3
#
#
#
# Elastic Constant Matrix: (Units=GPa)
#
#
# Indices 1 2 3 4 5 6 
#
# 1 137.2037 24.7316 20.1708 0.0000 -5.8647 0.0000
# 2 24.7316 16.8436 -5.1889 0.0000 -6.5065 0.0000
# 3 20.1708 -5.1889 47.6696 0.0000 4.7421 0.0000
# 4 0.0000 0.0000 0.0000 1.4402 0.0000 0.3535
# 5 -5.8647 -6.5065 4.7421 0.0000 24.5738 0.0000
# 6 0.0000 0.0000 0.0000 0.3535 0.0000 14.4518
#
#
#
# Elastic Compliance Matrix: (Units=1/GPa)
#
#
# Indices 1 2 3 4 5 6 
#
# 1 0.011914 -0.020115 -0.007120 0.000000 -0.001109 0.000000
# 2 -0.020115 0.101575 0.017710 0.000000 0.018676 0.000000
# 3 -0.007120 0.017710 0.026122 0.000000 -0.002051 0.000000
# 4 0.000000 0.000000 0.000000 0.698546 0.000000 -0.017087
# 5 -0.001109 0.018676 -0.002051 0.000000 0.045770 0.000000
# 6 0.000000 0.000000 0.000000 -0.017087 0.000000 0.069613
#
#
# Mechanical properties :
#
#
# Convention : Reuss Voigt Hill
#
# Bulk Modulus (GPa) = 8.29457 31.23821 19.76639
# Shear Modulus (GPa) = 4.93692 18.89339 11.91516
#
# Velocity S-wave (km/s) = 1.54103 3.01466 2.39405
# Velocity P-wave (km/s) = 2.67512 5.20997 4.14126
#
# Compressibility (1/GPa) = 0.12056073
#
# Stress axis : x y z
#
# Youngs Moduli (GPa) = 83.93773 9.84497 38.28135
#
# Poissons Ratio (x) = 0.19803 0.27258
# Poissons Ratio (y) = 1.68838 -0.67796
# Poissons Ratio (z) = 0.59766 -0.17435
#
# Static dielectric constant tensor:
#      x y z
#    x 1.785140 0.000000 -0.001760 
#    y 0.000000 1.718720 0.000000 
#    z -0.001760 0.000000 1.782160 
# 
# From -- ./inp_files/249018.got.cif
#   From: 2010.05.17/outbox.cif.g08.bks.cpg/sg12_125_cif.got.tgz:249018.got - 2010.06.03 13:09:07.
