data_PCOD9173711
_publ_section_title
;
Structure prediction by ZEFSAII (Michael W. Deem and Ramdas Pophale) SiO2 
 PCOD9173711
Probable space group: C 2/M
;
_chemical_formula_sum "Si O2"
_cell_formula_units_Z 56
_cell_length_a 26.979814
_cell_length_b 7.900304
_cell_length_c 13.812610
_cell_angle_alpha 90.000000
_cell_angle_beta 61.670673
_cell_angle_gamma 90.000000
_cell_volume 2591.534097
_symmetry_space_group_name_H-M "C 2/M"
_symmetry_group_IT_number 12
_symmetry_cell_setting 'monoclinic'
loop_
_space_group_symop_operation_xyz
x,y,z
-x,y,-z
-x,-y,-z
x,-y,z
1/2+x,1/2+y,z
1/2-x,1/2+y,-z
1/2-x,1/2-y,-z
1/2+x,1/2-y,z
loop_
_atom_site_type_symbol
_atom_site_label
_atom_site_fract_x
_atom_site_fract_y
_atom_site_fract_z
Si Si1 0.088826 0.706236 0.057576
Si Si2 0.284141 0.801815 0.062594
Si Si3 0.313857 0.202068 0.340193
Si Si4 0.118172 0.708107 0.530943
Si Si5 0.425156 0.301026 0.141857
Si Si6 0.787063 0.304416 0.686650
Si Si7 0.009579 0.695055 0.730832
O O1 0.087756 0.500000 0.060499
O O2 0.050932 0.768080 0.183035
O O3 0.152729 0.773268 0.997708
O O4 0.061120 0.760483 0.981552
O O5 0.246236 0.769816 0.192069
O O6 0.293695 0.000000 0.049675
O O7 0.250000 0.750000 0.000000
O O8 0.343604 0.257166 0.411888
O O9 0.359872 0.249216 0.216409
O O10 0.255707 0.287671 0.364533
O O11 0.305785 0.000000 0.349208
O O12 0.116900 0.500000 0.531670
O O13 0.152763 0.765691 0.404814
O O14 0.054706 0.768040 0.612559
O O15 0.432570 0.500000 0.153245
O O16 0.457228 0.201577 0.196934
O O17 0.795767 0.500000 0.701723
O O18 0.000658 0.500000 0.710451
#
# Coordination Sequence:
#
# PCOD9173711 Si02
#       7
#     8   8   8   8   8   8   8
#     4  10  20  35  56  76 102 140 180 221 271 323
#     4  11  24  41  60  82 105 135 179 231 280 330
#     4  10  18  31  49  73 108 149 187 220 258 313
#     4   8  17  31  50  77 110 144 181 216 255 312
#     4  11  20  29  46  76 112 146 181 220 264 315
#     4  11  20  33  54  80 108 140 175 222 274 322
#     4   9  18  34  53  75 107 147 182 215 256 314
#
# _framework density 21.608820999999999
#
# number of rings (size 3 to 8) (size 9 to 14) (size 15 to 20)
#    0.000    2.000    1.429    4.286    0.000    2.857 
#    0.000    6.429    0.000    0.857    0.000    6.000 
#    0.000    0.000    0.000    0.000    0.000    0.000 
#
# Total GULP energy -156201.408094 kJ/mol
# GULP energy per Si atom -5578.621718 kJ/mol
# Density = 2.155964 g / cm^3
# Si number density = 21.608821 Si / 1000 Ang^3
#
#
#
# Elastic Constant Matrix: (Units=GPa)
#
#
# Indices 1 2 3 4 5 6 
#
# 1 44.9623 -1.4417 47.4496 0.0000 -14.6831 0.0000
# 2 -1.4417 34.7218 0.4129 0.0000 1.2582 0.0000
# 3 47.4496 0.4129 148.1663 0.0000 -45.8588 0.0000
# 4 0.0000 0.0000 0.0000 13.6999 0.0000 1.5974
# 5 -14.6831 1.2582 -45.8588 0.0000 26.8453 0.0000
# 6 0.0000 0.0000 0.0000 1.5974 0.0000 14.1507
#
#
#
# Elastic Compliance Matrix: (Units=1/GPa)
#
#
# Indices 1 2 3 4 5 6 
#
# 1 0.033676 0.001534 -0.010843 0.000000 -0.000176 0.000000
# 2 0.001534 0.028998 -0.001555 0.000000 -0.003177 0.000000
# 3 -0.010843 -0.001555 0.017851 0.000000 0.024637 0.000000
# 4 0.000000 0.000000 0.000000 0.073967 0.000000 -0.008349
# 5 -0.000176 -0.003177 0.024637 0.000000 0.079389 0.000000
# 6 0.000000 0.000000 0.000000 -0.008349 0.000000 0.071610
#
#
# Mechanical properties :
#
#
# Convention : Reuss Voigt Hill
#
# Bulk Modulus (GPa) = 17.00831 35.63246 26.32039
# Shear Modulus (GPa) = 14.41675 23.03450 18.72563
#
# Velocity S-wave (km/s) = 2.58577 3.26847 2.94696
# Velocity P-wave (km/s) = 4.09915 5.54702 4.87711
#
# Compressibility (1/GPa) = 0.05879477
#
# Stress axis : x y z
#
# Youngs Moduli (GPa) = 29.69502 34.48561 56.01825
#
# Poissons Ratio (x) = -0.05288 0.60742
# Poissons Ratio (y) = -0.04554 0.08712
# Poissons Ratio (z) = 0.32199 0.05363
#
# Static dielectric constant tensor:
#      x y z
#    x 1.783670 0.000000 -0.088220 
#    y 0.000000 1.746420 0.000000 
#    z -0.088220 0.000000 1.923720 
# 
# From -- ./inp_files/243263.got.cif
#   From: 2010.05.17/outbox.cif.g08.bks.cpg/sg12_122_cif.got.tgz:243263.got - 2010.06.03 13:09:07.
