data_PCOD9173753
_publ_section_title
;
Structure prediction by ZEFSAII (Michael W. Deem and Ramdas Pophale) SiO2 
 PCOD9173753
Probable space group: C 2/M
;
_chemical_formula_sum "Si O2"
_cell_formula_units_Z 64
_cell_length_a 14.463717
_cell_length_b 29.899296
_cell_length_c 7.480866
_cell_angle_alpha 90.000000
_cell_angle_beta 88.448711
_cell_angle_gamma 90.000000
_cell_volume 3233.951871
_symmetry_space_group_name_H-M "C 2/M"
_symmetry_group_IT_number 12
_symmetry_cell_setting 'monoclinic'
loop_
_space_group_symop_operation_xyz
x,y,z
-x,y,-z
-x,-y,-z
x,-y,z
1/2+x,1/2+y,z
1/2-x,1/2+y,-z
1/2-x,1/2-y,-z
1/2+x,1/2-y,z
loop_
_atom_site_type_symbol
_atom_site_label
_atom_site_fract_x
_atom_site_fract_y
_atom_site_fract_z
Si Si1 0.354605 0.234038 0.530404
Si Si2 0.393468 0.775517 0.953888
Si Si3 0.608944 0.049413 0.462698
Si Si4 0.900469 0.171636 0.535917
Si Si5 0.606400 0.676239 0.039740
Si Si6 0.391664 0.950177 0.966062
Si Si7 0.791436 0.637153 0.952367
Si Si8 0.303061 0.860450 0.533431
O O1 0.250000 0.250000 0.500000
O O2 0.379467 0.228884 0.739533
O O3 0.407005 0.277800 0.454367
O O4 0.357482 0.183328 0.456879
O O5 0.368586 0.726304 0.029066
O O6 0.332584 0.816607 0.027486
O O7 0.500000 0.783570 0.000000
O O8 0.500000 0.055950 0.500000
O O9 0.621358 0.048090 0.247679
O O10 0.663532 0.091707 0.537465
O O11 0.634589 0.000000 0.530717
O O12 0.886528 0.176293 0.747661
O O13 0.806837 0.147970 0.477154
O O14 0.000000 0.149342 0.500000
O O15 0.500000 0.667164 0.000000
O O16 0.681213 0.641469 0.965317
O O17 0.332038 0.907966 0.033297
O O18 0.368394 0.000000 0.036617
O O19 0.500000 0.942322 0.000000
O O20 0.822124 0.638213 0.744432
#
# Coordination Sequence:
#
# PCOD9173753 Si02
#       8
#     8   8   8   8   8   8   8   8
#     4   8  16  30  45  65  94 128 163 194 232 282
#     4   9  17  29  46  71  98 127 162 199 239 283
#     4   9  18  32  50  72  98 126 155 191 234 280
#     4  10  19  32  48  67  95 128 161 197 237 281
#     4  10  20  32  47  70  96 126 164 201 238 281
#     4   9  18  32  50  73  99 126 156 191 236 287
#     4  10  18  31  50  70  97 128 160 199 240 283
#     4   9  18  32  49  70  95 127 162 195 235 283
#
# _framework density 19.790030000000002
#
# number of rings (size 3 to 8) (size 9 to 14) (size 15 to 20)
#    0.000    2.750    0.000    1.500    0.000    1.500 
#    0.000    7.500    0.000    0.750    0.000    0.000 
#    0.000    0.000    0.000    0.000    0.000    0.000 
#
# Total GULP energy -178342.264186 kJ/mol
# GULP energy per Si atom -5573.195756 kJ/mol
# Density = 1.974499 g / cm^3
# Si number density = 19.790030 Si / 1000 Ang^3
#
#
#
# Elastic Constant Matrix: (Units=GPa)
#
#
# Indices 1 2 3 4 5 6 
#
# 1 85.6903 76.2597 -8.6617 0.0000 22.3183 0.0000
# 2 76.2597 166.7917 7.1036 0.0000 11.0894 0.0000
# 3 -8.6617 7.1036 70.3166 0.0000 11.2598 0.0000
# 4 0.0000 0.0000 0.0000 1.5388 0.0000 9.6376
# 5 22.3183 11.0894 11.2598 0.0000 28.7917 0.0000
# 6 0.0000 0.0000 0.0000 9.6376 0.0000 35.1743
#
#
#
# Elastic Compliance Matrix: (Units=1/GPa)
#
#
# Indices 1 2 3 4 5 6 
#
# 1 0.028572 -0.012033 0.008043 0.000000 -0.020659 0.000000
# 2 -0.012033 0.011225 -0.003646 0.000000 0.006430 0.000000
# 3 0.008043 -0.003646 0.017447 0.000000 -0.011654 0.000000
# 4 0.000000 0.000000 0.000000 -0.907566 0.000000 0.248669
# 5 -0.020659 0.006430 -0.011654 0.000000 0.052827 0.000000
# 6 0.000000 0.000000 0.000000 0.248669 0.000000 -0.039705
#
#
# Mechanical properties :
#
#
# Convention : Reuss Voigt Hill
#
# Bulk Modulus (GPa) = 23.82472 52.46685 38.14579
# Shear Modulus (GPa) = -6.18859 29.64075 11.72608
#
# Velocity S-wave (km/s) = -1.77029 3.87429 2.43682
# Velocity P-wave (km/s) = 2.80826 6.82516 5.21868
#
# Compressibility (1/GPa) = 0.04197320
#
# Stress axis : x y z
#
# Youngs Moduli (GPa) = 34.99935 89.08885 57.31789
#
# Poissons Ratio (x) = 1.07197 -0.46102
# Poissons Ratio (y) = 0.42113 0.20896
# Poissons Ratio (z) = -0.28151 0.32479
#
# Static dielectric constant tensor:
#      x y z
#    x 1.681270 0.000000 -0.001280 
#    y 0.000000 1.750270 0.000000 
#    z -0.001280 0.000000 1.718420 
# 
# From -- ./inp_files/66972.got.cif
#   From: 2010.05.17/outbox.cif.g08.bks.cpg/sg12_34_cif.got.tgz:66972.got - 2010.06.03 13:09:07.
