data_PCOD9173637
_publ_section_title
;
Structure prediction by ZEFSAII (Michael W. Deem and Ramdas Pophale) SiO2 
 PCOD9173637
Probable space group: C 2/M
;
_chemical_formula_sum "Si O2"
_cell_formula_units_Z 56
_cell_length_a 24.153173
_cell_length_b 21.602219
_cell_length_c 8.425753
_cell_angle_alpha 90.000000
_cell_angle_beta 143.742702
_cell_angle_gamma 90.000000
_cell_volume 2599.990013
_symmetry_space_group_name_H-M "C 2/M"
_symmetry_group_IT_number 12
_symmetry_cell_setting 'monoclinic'
loop_
_space_group_symop_operation_xyz
x,y,z
-x,y,-z
-x,-y,-z
x,-y,z
1/2+x,1/2+y,z
1/2-x,1/2+y,-z
1/2-x,1/2-y,-z
1/2+x,1/2-y,z
loop_
_atom_site_type_symbol
_atom_site_label
_atom_site_fract_x
_atom_site_fract_y
_atom_site_fract_z
Si Si1 0.673180 0.427034 0.228603
Si Si2 0.061772 0.812826 0.490905
Si Si3 0.192008 0.343496 0.277043
Si Si4 0.268967 0.352117 0.919760
Si Si5 0.586932 0.568965 0.360052
Si Si6 0.351147 0.757069 0.563897
Si Si7 0.804056 0.570215 0.982922
O O1 0.680400 0.500000 0.218377
O O2 0.769436 0.398791 0.522697
O O3 0.663502 0.389726 0.043515
O O4 0.598354 0.417663 0.198208
O O5 0.041699 0.879306 0.365344
O O6 0.064640 0.766271 0.350102
O O7 0.000000 0.797174 0.500000
O O8 0.167156 0.817772 0.803624
O O9 0.284421 0.301785 0.450341
O O10 0.129208 0.295974 0.231722
O O11 0.151494 0.377983 0.029946
O O12 0.211452 0.302853 0.687105
O O13 0.203764 0.401108 0.860352
O O14 0.548319 0.500000 0.295265
O O15 0.695894 0.566700 0.670916
O O16 0.841262 0.500000 0.062482
#
# Coordination Sequence:
#
# PCOD9173637 Si02
#       7
#     8   8   8   8   8   8   8
#     4   9  15  27  47  69  93 121 158 198 231 260
#     4  11  21  33  46  65  94 127 163 196 232 276
#     4   9  16  27  49  67  90 123 155 191 233 278
#     4  10  19  29  47  71  95 125 152 197 237 271
#     4   8  15  29  45  60  88 128 165 188 219 265
#     4  10  18  31  48  69  90 123 161 188 236 280
#     4   9  15  26  44  71  97 117 147 192 235 267
#
# _framework density 21.538543000000001
#
# number of rings (size 3 to 8) (size 9 to 14) (size 15 to 20)
#    0.000    2.571    4.286    2.143    0.000    0.857 
#    0.000    0.714    0.000    1.714    0.000    0.000 
#    0.000   21.714    0.000    0.000    0.000    0.000 
#
# Total GULP energy -156201.930674 kJ/mol
# GULP energy per Si atom -5578.640381 kJ/mol
# Density = 2.148952 g / cm^3
# Si number density = 21.538543 Si / 1000 Ang^3
#
#
#
# Elastic Constant Matrix: (Units=GPa)
#
#
# Indices 1 2 3 4 5 6 
#
# 1 122.1574 62.2204 -1.9714 0.0000 -18.0006 0.0000
# 2 62.2204 132.8758 13.4335 0.0000 -6.3884 0.0000
# 3 -1.9714 13.4335 28.5589 0.0000 -8.7049 0.0000
# 4 0.0000 0.0000 0.0000 18.4470 0.0000 -16.7523
# 5 -18.0006 -6.3884 -8.7049 0.0000 12.6265 0.0000
# 6 0.0000 0.0000 0.0000 -16.7523 0.0000 27.4344
#
#
#
# Elastic Compliance Matrix: (Units=1/GPa)
#
#
# Indices 1 2 3 4 5 6 
#
# 1 0.016715 -0.007808 0.013781 0.000000 0.029380 0.000000
# 2 -0.007808 0.011582 -0.009613 0.000000 -0.011899 0.000000
# 3 0.013781 -0.009613 0.056965 0.000000 0.054056 0.000000
# 4 0.000000 0.000000 0.000000 0.121692 0.000000 0.074309
# 5 0.029380 -0.011899 0.054056 0.000000 0.152330 0.000000
# 6 0.000000 0.000000 0.000000 0.074309 0.000000 0.081827
#
#
# Mechanical properties :
#
#
# Convention : Reuss Voigt Hill
#
# Bulk Modulus (GPa) = 12.82343 47.88411 30.35377
# Shear Modulus (GPa) = 10.53999 25.69554 18.11776
#
# Velocity S-wave (km/s) = 2.21454 3.45773 2.90345
# Velocity P-wave (km/s) = 3.53632 6.18234 5.03621
#
# Compressibility (1/GPa) = 0.07798225
#
# Stress axis : x y z
#
# Youngs Moduli (GPa) = 59.82809 86.34360 17.55454
#
# Poissons Ratio (x) = 0.67413 -0.24193
# Poissons Ratio (y) = 0.46711 0.16876
# Poissons Ratio (z) = -0.82451 0.83006
#
# Static dielectric constant tensor:
#      x y z
#    x 1.846880 0.000000 0.002370 
#    y 0.000000 1.787440 0.000000 
#    z 0.002370 0.000000 1.806400 
# 
# From -- ./inp_files/76874.got.cif
#   From: 2010.05.17/outbox.cif.g08.bks.cpg/sg12_39_cif.got.tgz:76874.got - 2010.06.03 13:09:07.
