data_PCOD9173645
_publ_section_title
;
Structure prediction by ZEFSAII (Michael W. Deem and Ramdas Pophale) SiO2 
 PCOD9173645
Probable space group: C 2/M
;
_chemical_formula_sum "Si O2"
_cell_formula_units_Z 56
_cell_length_a 19.232864
_cell_length_b 10.940964
_cell_length_c 23.638394
_cell_angle_alpha 90.000000
_cell_angle_beta 40.872186
_cell_angle_gamma 90.000000
_cell_volume 3254.943290
_symmetry_space_group_name_H-M "C 2/M"
_symmetry_group_IT_number 12
_symmetry_cell_setting 'monoclinic'
loop_
_space_group_symop_operation_xyz
x,y,z
-x,y,-z
-x,-y,-z
x,-y,z
1/2+x,1/2+y,z
1/2-x,1/2+y,-z
1/2-x,1/2-y,-z
1/2+x,1/2-y,z
loop_
_atom_site_type_symbol
_atom_site_label
_atom_site_fract_x
_atom_site_fract_y
_atom_site_fract_z
Si Si1 0.625409 0.354321 0.812868
Si Si2 0.526723 0.858147 0.275022
Si Si3 0.219409 0.859752 0.878399
Si Si4 0.832949 0.648598 0.619212
Si Si5 0.281412 0.867931 0.038327
Si Si6 0.959207 0.648670 0.436200
Si Si7 0.930275 0.244876 0.867399
O O1 0.616422 0.500000 0.810578
O O2 0.657134 0.335719 0.858568
O O3 0.722735 0.309345 0.713632
O O4 0.516870 0.295474 0.859148
O O5 0.653417 0.856298 0.211226
O O6 0.464415 0.809871 0.368254
O O7 0.515019 0.783515 0.224733
O O8 0.498360 0.000000 0.282912
O O9 0.197910 0.750727 0.935454
O O10 0.194985 0.000000 0.912487
O O11 0.830729 0.500000 0.620746
O O12 0.864198 0.687184 0.536387
O O13 0.931358 0.683131 0.599265
O O14 0.160487 0.854180 0.091142
O O15 0.296041 0.000000 0.057044
O O16 0.360126 0.854403 0.936747
O O17 0.958708 0.500000 0.434518
#
# Coordination Sequence:
#
# PCOD9173645 Si02
#       7
#     8   8   8   8   8   8   8
#     4  10  18  31  48  72 101 126 155 204 256 293
#     4   9  15  28  47  69  96 129 163 197 239 293
#     4   9  18  32  54  77  98 125 165 210 251 291
#     4   8  13  22  41  70  99 122 151 195 247 289
#     4  10  21  38  53  69  95 133 173 208 245 298
#     4   8  12  21  42  70  96 124 155 193 239 288
#     4  10  21  32  49  70  95 129 168 203 247 297
#
# _framework density 17.204601
#
# number of rings (size 3 to 8) (size 9 to 14) (size 15 to 20)
#    0.000    2.857    1.429    1.714    0.000    4.571 
#    0.000    4.286    0.000    0.000    0.000    0.000 
#    0.000   11.429    0.000    0.000    0.000    0.000 
#
# Total GULP energy -155895.892527 kJ/mol
# GULP energy per Si atom -5567.710447 kJ/mol
# Density = 1.716544 g / cm^3
# Si number density = 17.204601 Si / 1000 Ang^3
#
#
#
# Elastic Constant Matrix: (Units=GPa)
#
#
# Indices 1 2 3 4 5 6 
#
# 1 69.8097 28.1018 7.3910 0.0000 1.2667 0.0000
# 2 28.1018 61.9330 29.6158 0.0000 10.1963 0.0000
# 3 7.3910 29.6158 66.9202 0.0000 7.4489 0.0000
# 4 0.0000 0.0000 0.0000 6.6242 0.0000 7.8774
# 5 1.2667 10.1963 7.4489 0.0000 20.2113 0.0000
# 6 0.0000 0.0000 0.0000 7.8774 0.0000 11.7616
#
#
#
# Elastic Compliance Matrix: (Units=1/GPa)
#
#
# Indices 1 2 3 4 5 6 
#
# 1 0.017903 -0.009526 0.001907 0.000000 0.002981 0.000000
# 2 -0.009526 0.026634 -0.009704 0.000000 -0.009263 0.000000
# 3 0.001907 -0.009704 0.019287 0.000000 -0.002332 0.000000
# 4 0.000000 0.000000 0.000000 0.741694 0.000000 -0.496752
# 5 0.002981 -0.009263 -0.002332 0.000000 0.054823 0.000000
# 6 0.000000 0.000000 0.000000 -0.496752 0.000000 0.417724
#
#
# Mechanical properties :
#
#
# Convention : Reuss Voigt Hill
#
# Bulk Modulus (GPa) = 34.27281 36.54223 35.40752
# Shear Modulus (GPa) = 3.78090 16.62304 10.20197
#
# Velocity S-wave (km/s) = 1.48404 3.11174 2.43776
# Velocity P-wave (km/s) = 4.78544 5.84778 5.34308
#
# Compressibility (1/GPa) = 0.02917765
#
# Stress axis : x y z
#
# Youngs Moduli (GPa) = 55.85529 37.54561 51.84924
#
# Poissons Ratio (x) = 0.35766 -0.09886
# Poissons Ratio (y) = 0.53208 0.50314
# Poissons Ratio (z) = -0.10650 0.36434
#
# Static dielectric constant tensor:
#      x y z
#    x 1.579530 0.000000 0.015200 
#    y 0.000000 1.571220 0.000000 
#    z 0.015200 0.000000 1.630690 
# 
# From -- ./inp_files/315249.got.cif
#   From: 2010.05.17/outbox.cif.g08.bks.cpg/sg12_158_cif.got.tgz:315249.got - 2010.06.03 13:09:07.
