data_PCOD9173209
_publ_section_title
;
Structure prediction by ZEFSAII (Michael W. Deem and Ramdas Pophale) SiO2 
 PCOD9173209
Probable space group: C 2/M
;
_chemical_formula_sum "Si O2"
_cell_formula_units_Z 52
_cell_length_a 24.362416
_cell_length_b 17.951139
_cell_length_c 5.483296
_cell_angle_alpha 90.000000
_cell_angle_beta 116.752903
_cell_angle_gamma 90.000000
_cell_volume 2141.332860
_symmetry_space_group_name_H-M "C 2/M"
_symmetry_group_IT_number 12
_symmetry_cell_setting 'monoclinic'
loop_
_space_group_symop_operation_xyz
x,y,z
-x,y,-z
-x,-y,-z
x,-y,z
1/2+x,1/2+y,z
1/2-x,1/2+y,-z
1/2-x,1/2-y,-z
1/2+x,1/2-y,z
loop_
_atom_site_type_symbol
_atom_site_label
_atom_site_fract_x
_atom_site_fract_y
_atom_site_fract_z
Si Si1 0.837696 0.362619 0.925392
Si Si2 0.335921 0.633324 0.921842
Si Si3 0.799152 0.388838 0.348305
Si Si4 0.526288 0.586783 0.802576
Si Si5 0.536938 0.000000 0.823876
Si Si6 0.799799 0.208611 0.349598
Si Si7 0.962248 0.671785 0.174495
O O1 0.833256 0.408781 0.664681
O O2 0.770666 0.320417 0.791332
O O3 0.833256 0.408781 0.168341
O O4 0.892257 0.300369 0.034515
O O5 0.400456 0.591501 0.050912
O O6 0.330654 0.676721 0.168032
O O7 0.271621 0.587392 0.793242
O O8 0.330654 0.676721 0.654584
O O9 0.800792 0.297806 0.351585
O O10 0.500000 0.621362 0.500000
O O11 0.506391 0.500000 0.762781
O O12 0.500000 0.621361 0.000000
O O13 0.500000 0.000000 0.500000
O O14 0.559918 0.915126 0.869836
O O15 0.500000 0.000000 0.000000
O O16 0.000000 0.686345 0.500000
O O17 0.000000 0.686345 0.000000
#
# Coordination Sequence:
#
# PCOD9173209 Si02
#       7
#     8   8   8   8   4   8   8
#     4  10  18  30  51  73 101 127 173 207 250 297
#     4  10  18  32  56  78 102 129 179 211 258 303
#     4  10  19  33  55  75 100 136 174 210 255 315
#     4  10  21  37  57  80 107 143 181 216 261 318
#     4   8  16  30  48  66  86 120 164 194 222 282
#     4  10  19  33  56  77  98 137 174 211 256 314
#     4  10  19  32  50  71  96 131 168 203 246 296
#
# _framework density 24.283942
#
# number of rings (size 3 to 8) (size 9 to 14) (size 15 to 20)
#    0.000    2.154    0.000    6.462    0.000    0.000 
#    0.000    0.000   13.538   31.385    0.000    0.000 
#    0.000    0.000    0.000    0.000    0.000    0.000 
#
# Total GULP energy -145058.327926 kJ/mol
# GULP energy per Si atom -5579.166459 kJ/mol
# Density = 2.422867 g / cm^3
# Si number density = 24.283942 Si / 1000 Ang^3
#
#
#
# Elastic Constant Matrix: (Units=GPa)
#
#
# Indices 1 2 3 4 5 6 
#
# 1 164.1692 -7.3321 102.1741 0.0000 -23.7208 0.0000
# 2 -7.3321 51.4494 2.5610 0.0000 -14.1353 0.0000
# 3 102.1741 2.5610 208.9768 0.0000 -40.2977 0.0000
# 4 0.0000 0.0000 0.0000 8.6192 0.0000 16.7747
# 5 -23.7208 -14.1353 -40.2977 0.0000 62.9826 0.0000
# 6 0.0000 0.0000 0.0000 16.7747 0.0000 20.3597
#
#
#
# Elastic Compliance Matrix: (Units=1/GPa)
#
#
# Indices 1 2 3 4 5 6 
#
# 1 0.008928 0.001779 -0.004177 0.000000 0.001089 0.000000
# 2 0.001779 0.021167 -0.000096 0.000000 0.005359 0.000000
# 3 -0.004177 -0.000096 0.007439 0.000000 0.003165 0.000000
# 4 0.000000 0.000000 0.000000 -0.192241 0.000000 0.158391
# 5 0.001089 0.005359 0.003165 0.000000 0.019516 0.000000
# 6 0.000000 0.000000 0.000000 0.158391 0.000000 -0.081384
#
#
# Mechanical properties :
#
#
# Convention : Reuss Voigt Hill
#
# Bulk Modulus (GPa) = 30.72434 68.82238 49.77336
# Shear Modulus (GPa) = -24.90782 40.20512 7.64865
#
# Velocity S-wave (km/s) = -3.20612 4.07335 1.77666
# Velocity P-wave (km/s) = 1.01291 7.10810 4.97490
#
# Compressibility (1/GPa) = 0.03254748
#
# Stress axis : x y z
#
# Youngs Moduli (GPa) = 112.01228 47.24247 134.43073
#
# Poissons Ratio (x) = -0.08407 0.56147
# Poissons Ratio (y) = -0.19932 0.01290
# Poissons Ratio (z) = 0.46784 0.00453
#
# Static dielectric constant tensor:
#      x y z
#    x 2.182870 0.000000 0.076930 
#    y 0.000000 2.257470 0.000000 
#    z 0.076930 0.000000 2.129030 
# 
# From -- ./inp_files/26676.got.cif
#   From: 2010.05.17/outbox.cif.g08.bks.cpg/sg12_14_cif.got.tgz:26676.got - 2010.06.03 13:09:07.
