data_PCOD9173274
_publ_section_title
;
Structure prediction by ZEFSAII (Michael W. Deem and Ramdas Pophale) SiO2 
 PCOD9173274
Probable space group: C 2/M
;
_chemical_formula_sum "Si O2"
_cell_formula_units_Z 52
_cell_length_a 23.509005
_cell_length_b 14.177176
_cell_length_c 14.961553
_cell_angle_alpha 90.000000
_cell_angle_beta 150.434726
_cell_angle_gamma 90.000000
_cell_volume 2460.440220
_symmetry_space_group_name_H-M "C 2/M"
_symmetry_group_IT_number 12
_symmetry_cell_setting 'monoclinic'
loop_
_space_group_symop_operation_xyz
x,y,z
-x,y,-z
-x,-y,-z
x,-y,z
1/2+x,1/2+y,z
1/2-x,1/2+y,-z
1/2-x,1/2-y,-z
1/2+x,1/2-y,z
loop_
_atom_site_type_symbol
_atom_site_label
_atom_site_fract_x
_atom_site_fract_y
_atom_site_fract_z
Si Si1 0.691320 0.388577 0.554114
Si Si2 0.963357 0.108450 0.330943
Si Si3 0.262545 0.281268 0.120188
Si Si4 0.855828 0.897313 0.987436
Si Si5 0.500000 0.747854 0.000000
Si Si6 0.115837 0.890954 0.263325
Si Si7 0.103843 0.607745 0.024068
O O1 0.661815 0.500000 0.503626
O O2 0.584198 0.348057 0.463519
O O3 0.691256 0.357517 0.450977
O O4 0.803438 0.385176 0.768135
O O5 0.886926 0.169345 0.294103
O O6 0.890270 0.101651 0.139188
O O7 0.977818 0.000000 0.380171
O O8 0.169038 0.358821 0.024211
O O9 0.250000 0.250000 0.000000
O O10 0.230785 0.190681 0.137672
O O11 0.981794 0.888721 0.113673
O O12 0.807512 0.000000 0.896465
O O13 0.390597 0.680835 0.827756
O O14 0.488042 0.815968 0.069288
O O15 0.142195 0.000000 0.275166
O O16 0.062826 0.500000 0.962601
#
# Coordination Sequence:
#
# PCOD9173274 Si02
#       7
#     8   8   8   8   4   8   8
#     4   8  17  34  54  77 110 142 174 226 278 318
#     4   8  14  26  48  74 100 129 165 212 263 314
#     4  10  18  30  51  77 105 137 174 221 271 323
#     4   8  14  27  46  72 101 128 165 216 265 306
#     4  12  22  34  56  82 112 148 186 218 266 332
#     4   9  17  33  56  80 105 135 180 233 271 305
#     4  11  23  37  52  79 115 148 181 218 271 332
#
# _framework density 21.134429000000001
#
# number of rings (size 3 to 8) (size 9 to 14) (size 15 to 20)
#    0.000    2.769    1.538    2.769    0.000    1.846 
#    0.000    2.308    0.000    0.000    0.000    5.385 
#    0.000    0.000    0.000    0.000    0.000    0.000 
#
# Total GULP energy -144821.313118 kJ/mol
# GULP energy per Si atom -5570.050505 kJ/mol
# Density = 2.108633 g / cm^3
# Si number density = 21.134429 Si / 1000 Ang^3
#
#
#
# Elastic Constant Matrix: (Units=GPa)
#
#
# Indices 1 2 3 4 5 6 
#
# 1 61.3432 9.2631 -0.3967 0.0000 -16.0576 0.0000
# 2 9.2631 101.5299 -0.9580 0.0000 1.1584 0.0000
# 3 -0.3967 -0.9580 24.0588 0.0000 -11.9329 0.0000
# 4 0.0000 0.0000 0.0000 3.6363 0.0000 -0.8659
# 5 -16.0576 1.1584 -11.9329 0.0000 33.3623 0.0000
# 6 0.0000 0.0000 0.0000 -0.8659 0.0000 30.2451
#
#
#
# Elastic Compliance Matrix: (Units=1/GPa)
#
#
# Indices 1 2 3 4 5 6 
#
# 1 0.019688 -0.001873 0.006057 0.000000 0.011708 0.000000
# 2 -0.001873 0.010033 -0.000305 0.000000 -0.001359 0.000000
# 3 0.006057 -0.000305 0.052399 0.000000 0.021668 0.000000
# 4 0.000000 0.000000 0.000000 0.276896 0.000000 0.007927
# 5 0.011708 -0.001359 0.021668 0.000000 0.043406 0.000000
# 6 0.000000 0.000000 0.000000 0.007927 0.000000 0.033290
#
#
# Mechanical properties :
#
#
# Convention : Reuss Voigt Hill
#
# Bulk Modulus (GPa) = 11.12617 22.52764 16.82691
# Shear Modulus (GPa) = 10.91907 25.38362 18.15135
#
# Velocity S-wave (km/s) = 2.27546 3.46938 2.93380
# Velocity P-wave (km/s) = 3.48992 5.17022 4.41082
#
# Compressibility (1/GPa) = 0.08987817
#
# Stress axis : x y z
#
# Youngs Moduli (GPa) = 50.79143 99.67311 19.08417
#
# Poissons Ratio (x) = 0.18666 -0.11559
# Poissons Ratio (y) = 0.09512 0.00583
# Poissons Ratio (z) = -0.30764 0.03044
#
# Static dielectric constant tensor:
#      x y z
#    x 1.843210 0.000000 -0.020640 
#    y 0.000000 1.885840 0.000000 
#    z -0.020640 0.000000 1.792540 
# 
# From -- ./inp_files/293380.got.cif
#   From: 2010.05.17/outbox.cif.g08.bks.cpg/sg12_147_cif.got.tgz:293380.got - 2010.06.03 13:09:07.
