data_PCOD9173417
_publ_section_title
;
Structure prediction by ZEFSAII (Michael W. Deem and Ramdas Pophale) SiO2 
 PCOD9173417
Probable space group: C 2/M
;
_chemical_formula_sum "Si O2"
_cell_formula_units_Z 44
_cell_length_a 17.350881
_cell_length_b 14.408623
_cell_length_c 23.949570
_cell_angle_alpha 90.000000
_cell_angle_beta 23.764248
_cell_angle_gamma 90.000000
_cell_volume 2412.787481
_symmetry_space_group_name_H-M "C 2/M"
_symmetry_group_IT_number 12
_symmetry_cell_setting 'monoclinic'
loop_
_space_group_symop_operation_xyz
x,y,z
-x,y,-z
-x,-y,-z
x,-y,z
1/2+x,1/2+y,z
1/2-x,1/2+y,-z
1/2-x,1/2-y,-z
1/2+x,1/2-y,z
loop_
_atom_site_type_symbol
_atom_site_label
_atom_site_fract_x
_atom_site_fract_y
_atom_site_fract_z
Si Si1 0.915380 0.607370 0.963327
Si Si2 0.500000 0.656123 0.500000
Si Si3 0.736222 0.740522 0.244175
Si Si4 0.019891 0.103426 0.054098
Si Si5 0.600876 0.101121 0.719023
Si Si6 0.365398 0.759881 0.815839
O O1 0.906015 0.500000 0.987683
O O2 0.090944 0.664564 0.875327
O O3 0.974188 0.608401 0.859244
O O4 0.719629 0.663945 0.103606
O O5 0.591095 0.712236 0.388325
O O6 0.319880 0.601905 0.594082
O O7 0.841564 0.835531 0.191580
O O8 0.641879 0.751322 0.246140
O O9 0.029174 0.000000 0.070892
O O10 0.000000 0.098340 0.000000
O O11 0.208621 0.163218 0.938447
O O12 0.556795 0.192503 0.711838
O O13 0.560045 0.000000 0.719094
#
# Coordination Sequence:
#
# PCOD9173417 Si02
#       6
#     8   4   8   8   8   8
#     4   9  18  33  53  80 111 136 160 201 262 318
#     4  10  21  38  51  66 102 144 179 212 251 300
#     4   9  19  32  51  75 103 139 173 207 249 300
#     4   8  14  27  48  74 101 126 156 199 253 306
#     4  10  20  34  54  76 101 135 173 213 255 304
#     4  10  18  30  52  82 105 127 166 216 260 300
#
# _framework density 18.236169
#
# number of rings (size 3 to 8) (size 9 to 14) (size 15 to 20)
#    0.000    2.727    0.000    3.000    0.000    3.636 
#    0.000    0.455    0.000    1.091    0.000    0.000 
#    0.000    0.000    0.000    0.000    0.000    0.000 
#
# Total GULP energy -122558.624147 kJ/mol
# GULP energy per Si atom -5570.846552 kJ/mol
# Density = 1.819466 g / cm^3
# Si number density = 18.236169 Si / 1000 Ang^3
#
#
#
# Elastic Constant Matrix: (Units=GPa)
#
#
# Indices 1 2 3 4 5 6 
#
# 1 64.2986 35.9079 29.0573 -0.0020 -7.1884 0.0011
# 2 35.9079 141.8996 39.5453 -0.0104 1.8709 -0.0018
# 3 29.0573 39.5453 70.4765 -0.0312 7.2324 -0.0055
# 4 -0.0020 -0.0104 -0.0312 -14.3554 -0.0057 -7.4981
# 5 -7.1884 1.8709 7.2324 -0.0057 28.2865 -0.0033
# 6 0.0011 -0.0018 -0.0055 -7.4981 -0.0033 17.0490
#
#
#
# Elastic Compliance Matrix: (Units=1/GPa)
#
#
# Indices 1 2 3 4 5 6 
#
# 1 0.021926 -0.003448 -0.007908 0.000012 0.007822 0.000003
# 2 -0.003448 0.008908 -0.003519 0.000002 -0.000566 0.000001
# 3 -0.007908 -0.003519 0.020135 -0.000033 -0.006925 -0.000009
# 4 0.000012 0.000002 -0.000033 -0.056648 -0.000003 -0.024913
# 5 0.007822 -0.000566 -0.006925 -0.000003 0.039148 0.000003
# 6 0.000003 0.000001 -0.000009 -0.024913 0.000003 0.047698
#
#
# Mechanical properties :
#
#
# Convention : Reuss Voigt Hill
#
# Bulk Modulus (GPa) = 47.12696 53.96619 50.54658
# Shear Modulus (GPa) = 42.37656 17.67363 30.02509
#
# Velocity S-wave (km/s) = 4.82577 3.11650 4.06206
# Velocity P-wave (km/s) = 7.54649 6.52742 7.05538
#
# Compressibility (1/GPa) = 0.02121927
#
# Stress axis : x y z
#
# Youngs Moduli (GPa) = 45.60770 112.26174 49.66541
#
# Poissons Ratio (x) = 0.38704 0.39277
# Poissons Ratio (y) = 0.15724 0.17476
# Poissons Ratio (z) = 0.36068 0.39502
#
# Static dielectric constant tensor:
#      x y z
#    x 1.659540 0.000000 -0.049380 
#    y 0.000000 1.653510 0.000000 
#    z -0.049380 0.000000 1.624590 
# 
# From -- ./inp_files/155205.got.cif
#   From: 2010.05.17/outbox.cif.g08.bks.cpg/sg12_78_cif.got.tgz:155205.got - 2010.06.03 13:09:07.
