data_PCOD9173674
_publ_section_title
;
Structure prediction by ZEFSAII (Michael W. Deem and Ramdas Pophale) SiO2 
 PCOD9173674
Probable space group: C 2/M
;
_chemical_formula_sum "Si O2"
_cell_formula_units_Z 56
_cell_length_a 30.397000
_cell_length_b 7.314192
_cell_length_c 11.601574
_cell_angle_alpha 90.000000
_cell_angle_beta 66.999584
_cell_angle_gamma 90.000000
_cell_volume 2374.317201
_symmetry_space_group_name_H-M "C 2/M"
_symmetry_group_IT_number 12
_symmetry_cell_setting 'monoclinic'
loop_
_space_group_symop_operation_xyz
x,y,z
-x,y,-z
-x,-y,-z
x,-y,z
1/2+x,1/2+y,z
1/2-x,1/2+y,-z
1/2-x,1/2-y,-z
1/2+x,1/2-y,z
loop_
_atom_site_type_symbol
_atom_site_label
_atom_site_fract_x
_atom_site_fract_y
_atom_site_fract_z
Si Si1 0.870415 0.223103 0.288075
Si Si2 0.019236 0.777675 0.852482
Si Si3 0.524522 0.722708 0.353780
Si Si4 0.666222 0.713161 0.913617
Si Si5 0.726406 0.279551 0.187080
Si Si6 0.205830 0.217243 0.461489
Si Si7 0.127229 0.223208 0.179570
O O1 0.925152 0.274840 0.215948
O O2 0.840472 0.287651 0.207242
O O3 0.842564 0.286380 0.430042
O O4 0.869538 0.000000 0.293677
O O5 0.995502 0.721749 0.753219
O O6 0.015667 0.000000 0.857609
O O7 0.000000 0.719441 0.000000
O O8 0.500000 0.781518 0.500000
O O9 0.521590 0.500000 0.357089
O O10 0.580174 0.778278 0.295225
O O11 0.655234 0.500000 0.914121
O O12 0.720353 0.725637 0.904382
O O13 0.628709 0.784550 0.045207
O O14 0.726628 0.500000 0.181719
O O15 0.720229 0.210778 0.323315
O O16 0.678112 0.216567 0.176158
O O17 0.250000 0.250000 0.500000
O O18 0.199852 0.000000 0.452542
O O19 0.127255 0.000000 0.181228
#
# Coordination Sequence:
#
# PCOD9173674 Si02
#       7
#     8   8   8   8   8   8   8
#     4   9  17  27  43  64  89 122 154 186 231 276
#     4   9  16  26  41  62  88 119 156 193 230 279
#     4   9  17  27  41  62  91 125 156 188 233 288
#     4  10  18  31  49  68  95 127 157 190 229 280
#     4  10  20  31  46  68  97 126 156 194 233 275
#     4  10  19  31  46  66  94 126 157 192 231 276
#     4   9  18  30  44  64  93 127 157 189 234 280
#
# _framework density 23.585728
#
# number of rings (size 3 to 8) (size 9 to 14) (size 15 to 20)
#    0.000    2.571    1.429    1.286    2.000    3.429 
#    0.000    0.000    0.000    0.000    0.000    0.000 
#    0.000   14.857    0.000    0.000    0.000    0.000 
#
# Total GULP energy -156243.981574 kJ/mol
# GULP energy per Si atom -5580.142199 kJ/mol
# Density = 2.353205 g / cm^3
# Si number density = 23.585728 Si / 1000 Ang^3
#
#
#
# Elastic Constant Matrix: (Units=GPa)
#
#
# Indices 1 2 3 4 5 6 
#
# 1 92.8983 -16.6948 68.4758 0.0000 -4.8098 0.0000
# 2 -16.6948 91.6681 -0.5914 0.0000 4.1684 0.0000
# 3 68.4758 -0.5914 215.1826 0.0000 -25.7632 0.0000
# 4 0.0000 0.0000 0.0000 -8.1820 0.0000 -3.6912
# 5 -4.8098 4.1684 -25.7632 0.0000 40.4921 0.0000
# 6 0.0000 0.0000 0.0000 -3.6912 0.0000 5.6063
#
#
#
# Elastic Compliance Matrix: (Units=1/GPa)
#
#
# Indices 1 2 3 4 5 6 
#
# 1 0.014776 0.002734 -0.004891 0.000000 -0.001638 0.000000
# 2 0.002734 0.011469 -0.001019 0.000000 -0.001504 0.000000
# 3 -0.004891 -0.001019 0.006650 0.000000 0.003755 0.000000
# 4 0.000000 0.000000 0.000000 -0.094230 0.000000 -0.062041
# 5 -0.001638 -0.001504 0.003755 0.000000 0.027046 0.000000
# 6 0.000000 0.000000 0.000000 -0.062041 0.000000 0.137521
#
#
# Mechanical properties :
#
#
# Convention : Reuss Voigt Hill
#
# Bulk Modulus (GPa) = 37.67270 55.79203 46.73236
# Shear Modulus (GPa) = 42.21895 30.82057 36.51976
#
# Velocity S-wave (km/s) = 4.23545 3.61882 3.93922
# Velocity P-wave (km/s) = 6.31871 6.41619 6.36764
#
# Compressibility (1/GPa) = 0.02654442
#
# Stress axis : x y z
#
# Youngs Moduli (GPa) = 67.67796 87.19423 150.36886
#
# Poissons Ratio (x) = -0.23838 0.73539
# Poissons Ratio (y) = -0.18503 0.15316
# Poissons Ratio (z) = 0.33099 0.08881
#
# Static dielectric constant tensor:
#      x y z
#    x 1.861440 0.000000 0.030420 
#    y 0.000000 2.001170 0.000000 
#    z 0.030420 0.000000 1.884470 
# 
# From -- ./inp_files/181942.got.cif
#   From: 2010.05.17/outbox.cif.g08.bks.cpg/sg12_91_cif.got.tgz:181942.got - 2010.06.03 13:09:07.
