data_PCOD9173641
_publ_section_title
;
Structure prediction by ZEFSAII (Michael W. Deem and Ramdas Pophale) SiO2 
 PCOD9173641
Probable space group: C 2/M
;
_chemical_formula_sum "Si O2"
_cell_formula_units_Z 64
_cell_length_a 24.492994
_cell_length_b 26.167737
_cell_length_c 17.969561
_cell_angle_alpha 90.000000
_cell_angle_beta 20.457847
_cell_angle_gamma 90.000000
_cell_volume 4025.457687
_symmetry_space_group_name_H-M "C 2/M"
_symmetry_group_IT_number 12
_symmetry_cell_setting 'monoclinic'
loop_
_space_group_symop_operation_xyz
x,y,z
-x,y,-z
-x,-y,-z
x,-y,z
1/2+x,1/2+y,z
1/2-x,1/2+y,-z
1/2-x,1/2-y,-z
1/2+x,1/2-y,z
loop_
_atom_site_type_symbol
_atom_site_label
_atom_site_fract_x
_atom_site_fract_y
_atom_site_fract_z
Si Si1 0.828993 0.748336 0.189323
Si Si2 0.787274 0.714059 0.882927
Si Si3 0.273262 0.793408 0.531199
Si Si4 0.921558 0.353486 0.830598
Si Si5 0.245059 0.060442 0.813963
Si Si6 0.063981 0.837483 0.054818
Si Si7 0.982116 0.559840 0.649241
Si Si8 0.831964 0.810462 0.732664
O O1 0.725305 0.764014 0.391873
O O2 0.759969 0.704570 0.224857
O O3 0.856403 0.800759 0.108428
O O4 0.000000 0.732671 0.000000
O O5 0.894668 0.671873 0.783219
O O6 0.860831 0.754208 0.732025
O O7 0.750000 0.750000 0.000000
O O8 0.637601 0.686912 0.036418
O O9 0.250000 0.750000 0.500000
O O10 0.430644 0.825405 0.321914
O O11 0.119734 0.828603 0.720646
O O12 0.955501 0.410457 0.760100
O O13 0.775373 0.342045 0.071968
O O14 0.345226 0.066553 0.762209
O O15 0.359908 0.073212 0.598047
O O16 0.201025 0.000000 0.864901
O O17 0.112962 0.103733 0.984509
O O18 0.990447 0.500000 0.654054
O O19 0.000000 0.834072 0.500000
#
# Coordination Sequence:
#
# PCOD9173641 Si02
#       8
#     8   8   8   8   8   8   8   8
#     4   9  18  32  46  64  97 135 167 196 240 300
#     4   9  17  29  46  70  97 125 164 206 239 289
#     4  11  21  32  48  70 103 138 167 202 244 298
#     4  11  19  32  49  71  99 129 170 204 248 299
#     4   9  17  31  50  75 103 131 166 206 248 297
#     4  10  18  31  48  70  98 134 171 199 241 293
#     4   9  18  32  52  75 101 131 165 208 254 297
#     4  10  20  31  46  69  97 127 164 210 251 290
#
# _framework density 15.898814
#
# number of rings (size 3 to 8) (size 9 to 14) (size 15 to 20)
#    0.000    2.250    1.250    5.250    0.000    2.000 
#    0.000    0.625    0.000    5.250    0.000    0.000 
#    0.000    1.750    0.000    0.000    0.000    0.000 
#
# Total GULP energy -178199.828955 kJ/mol
# GULP energy per Si atom -5568.744655 kJ/mol
# Density = 1.586263 g / cm^3
# Si number density = 15.898814 Si / 1000 Ang^3
#
#
#
# Elastic Constant Matrix: (Units=GPa)
#
#
# Indices 1 2 3 4 5 6 
#
# 1 77.1703 29.0753 34.5687 -0.0043 1.3557 0.0014
# 2 29.0753 67.2990 40.5889 -0.0186 4.8458 0.0095
# 3 34.5687 40.5889 84.3664 -0.0372 15.2809 0.0250
# 4 -0.0043 -0.0186 -0.0372 19.8949 0.0170 -1.5566
# 5 1.3557 4.8458 15.2809 0.0170 11.7501 -0.0087
# 6 0.0014 0.0095 0.0250 -1.5566 -0.0087 22.5657
#
#
#
# Elastic Compliance Matrix: (Units=1/GPa)
#
#
# Indices 1 2 3 4 5 6 
#
# 1 0.017325 -0.004076 -0.006645 -0.000019 0.008324 0.000010
# 2 -0.004076 0.022203 -0.009730 -0.000001 0.003968 0.000003
# 3 -0.006645 -0.009730 0.024059 0.000055 -0.026508 -0.000029
# 4 -0.000019 -0.000001 0.000055 0.050537 -0.000139 0.003486
# 5 0.008324 0.003968 -0.026508 -0.000139 0.116983 0.000062
# 6 0.000010 0.000003 -0.000029 0.003486 0.000062 0.044556
#
#
# Mechanical properties :
#
#
# Convention : Reuss Voigt Hill
#
# Bulk Modulus (GPa) = 44.08727 48.58903 46.33815
# Shear Modulus (GPa) = 15.42607 19.14899 17.28753
#
# Velocity S-wave (km/s) = 3.11829 3.47425 3.30107
# Velocity P-wave (km/s) = 6.38397 6.83533 6.61350
#
# Compressibility (1/GPa) = 0.02268229
#
# Stress axis : x y z
#
# Youngs Moduli (GPa) = 57.72088 45.03906 41.56518
#
# Poissons Ratio (x) = 0.18359 0.27622
# Poissons Ratio (y) = 0.23529 0.40444
# Poissons Ratio (z) = 0.38358 0.43824
#
# Static dielectric constant tensor:
#      x y z
#    x 1.570560 -0.000060 -0.013280 
#    y -0.000060 1.604360 0.000080 
#    z -0.013280 0.000080 1.559860 
# 
# From -- ./inp_files/91089.got.cif
#   From: 2010.05.17/outbox.cif.g08.bks.cpg/sg12_46_cif.got.tgz:91089.got - 2010.06.03 13:09:07.
