data_PCOD9173003
_publ_section_title
;
Structure prediction by ZEFSAII (Michael W. Deem and Ramdas Pophale) SiO2 
 PCOD9173003
Probable space group: C 2/M
;
_chemical_formula_sum "Si O2"
_cell_formula_units_Z 56
_cell_length_a 24.670317
_cell_length_b 7.362364
_cell_length_c 30.481356
_cell_angle_alpha 90.000000
_cell_angle_beta 25.923607
_cell_angle_gamma 90.000000
_cell_volume 2420.354731
_symmetry_space_group_name_H-M "C 2/M"
_symmetry_group_IT_number 12
_symmetry_cell_setting 'monoclinic'
loop_
_space_group_symop_operation_xyz
x,y,z
-x,y,-z
-x,-y,-z
x,-y,z
1/2+x,1/2+y,z
1/2-x,1/2+y,-z
1/2-x,1/2-y,-z
1/2+x,1/2-y,z
loop_
_atom_site_type_symbol
_atom_site_label
_atom_site_fract_x
_atom_site_fract_y
_atom_site_fract_z
Si Si1 0.764397 0.716046 0.541119
Si Si2 0.987177 0.222512 0.229689
Si Si3 0.181622 0.789522 0.157985
Si Si4 0.958392 0.720028 0.650077
Si Si5 0.123882 0.721303 0.384702
Si Si6 0.056427 0.710886 0.003288
Si Si7 0.397767 0.280549 0.202701
O O1 0.766517 0.500000 0.547268
O O2 0.750000 0.750000 0.500000
O O3 0.642290 0.783865 0.654308
O O4 0.899228 0.783288 0.457466
O O5 0.979864 0.277458 0.184417
O O6 0.101038 0.287350 0.176578
O O7 0.988318 0.000000 0.230418
O O8 0.100201 0.782402 0.261610
O O9 0.203197 0.000000 0.130548
O O10 0.314912 0.707669 0.072720
O O11 0.958398 0.500000 0.651518
O O12 0.884631 0.774919 0.660192
O O13 0.122263 0.500000 0.387174
O O14 0.254411 0.778472 0.310390
O O15 0.000000 0.781479 0.500000
O O16 0.085448 0.500000 0.971744
O O17 0.956723 0.719284 0.114394
O O18 0.000000 0.791835 0.000000
O O19 0.396985 0.500000 0.203082
#
# Coordination Sequence:
#
# PCOD9173003 Si02
#       7
#     8   8   8   8   8   8   8
#     4  10  18  30  49  74 107 140 169 205 249 300
#     4   9  18  33  52  76 105 137 173 208 253 314
#     4  10  20  35  54  73 100 140 175 207 258 316
#     4  10  19  30  50  80 106 130 170 219 256 293
#     4   9  17  31  52  78 106 135 168 207 256 310
#     4  10  22  39  56  75 102 137 175 215 263 314
#     4  10  20  35  57  80 103 135 173 215 259 303
#
# _framework density 23.137104999999998
#
# number of rings (size 3 to 8) (size 9 to 14) (size 15 to 20)
#    0.000    2.286    1.429    1.714    0.000    4.857 
#    0.000    1.429    0.000    3.429    0.000    0.000 
#    0.000    0.000    0.000    0.000    0.000    0.000 
#
# Total GULP energy -156500.111724 kJ/mol
# GULP energy per Si atom -5589.289704 kJ/mol
# Density = 2.308444 g / cm^3
# Si number density = 23.137105 Si / 1000 Ang^3
#
#
#
# Elastic Constant Matrix: (Units=GPa)
#
#
# Indices 1 2 3 4 5 6 
#
# 1 204.3371 2.4385 69.1344 -0.0158 -12.7107 0.0838
# 2 2.4385 83.8155 -7.2644 0.0231 -9.7036 0.0382
# 3 69.1344 -7.2644 100.8902 -0.0356 -15.7572 0.0449
# 4 -0.0158 0.0231 -0.0356 16.1903 0.0091 5.7913
# 5 -12.7107 -9.7036 -15.7572 0.0091 46.1109 -0.0325
# 6 0.0838 0.0382 0.0449 5.7913 -0.0325 5.9695
#
#
#
# Elastic Compliance Matrix: (Units=1/GPa)
#
#
# Indices 1 2 3 4 5 6 
#
# 1 0.006399 -0.000551 -0.004402 0.000025 0.000144 -0.000076
# 2 -0.000551 0.012454 0.001754 0.000013 0.003068 -0.000081
# 3 -0.004402 0.001754 0.013651 0.000049 0.003820 -0.000079
# 4 0.000025 0.000013 0.000049 0.094591 -0.000057 -0.091768
# 5 0.000144 0.003068 0.003820 -0.000057 0.023678 0.000134
# 6 -0.000076 -0.000081 -0.000079 -0.091768 0.000134 0.256550
#
#
# Mechanical properties :
#
#
# Convention : Reuss Voigt Hill
#
# Bulk Modulus (GPa) = 38.30633 57.51775 47.91204
# Shear Modulus (GPa) = 11.83647 35.30309 23.56978
#
# Velocity S-wave (km/s) = 2.26427 3.91041 3.19517
# Velocity P-wave (km/s) = 4.84025 6.73067 5.86217
#
# Compressibility (1/GPa) = 0.02610534
#
# Stress axis : x y z
#
# Youngs Moduli (GPa) = 156.28095 80.29410 73.25394
#
# Poissons Ratio (x) = 0.04424 0.32246
# Poissons Ratio (y) = 0.08611 -0.12845
# Poissons Ratio (z) = 0.68793 -0.14080
#
# Static dielectric constant tensor:
#      x y z
#    x 1.854230 0.000090 -0.029310 
#    y 0.000090 1.835020 -0.000080 
#    z -0.029310 -0.000080 1.805680 
# 
# From -- ./inp_files/346983.got.cif
#   From: 2010.05.17/outbox.cif.g08.bks.cpg/sg12_174_cif.got.tgz:346983.got - 2010.06.03 13:09:07.
