data_PCOD9173974
_publ_section_title
;
Structure prediction by ZEFSAII (Michael W. Deem and Ramdas Pophale) SiO2 
 PCOD9173974
Probable space group: C 2/M
;
_chemical_formula_sum "Si O2"
_cell_formula_units_Z 48
_cell_length_a 19.549982
_cell_length_b 20.704676
_cell_length_c 13.932348
_cell_angle_alpha 90.000000
_cell_angle_beta 152.236280
_cell_angle_gamma 90.000000
_cell_volume 2627.019133
_symmetry_space_group_name_H-M "C 2/M"
_symmetry_group_IT_number 12
_symmetry_cell_setting 'monoclinic'
loop_
_space_group_symop_operation_xyz
x,y,z
-x,y,-z
-x,-y,-z
x,-y,z
1/2+x,1/2+y,z
1/2-x,1/2+y,-z
1/2-x,1/2-y,-z
1/2+x,1/2-y,z
loop_
_atom_site_type_symbol
_atom_site_label
_atom_site_fract_x
_atom_site_fract_y
_atom_site_fract_z
Si Si1 0.550382 0.389058 0.169079
Si Si2 0.841080 0.638090 0.002715
Si Si3 0.162406 0.609005 0.366536
Si Si4 0.882319 0.075320 0.148572
Si Si5 0.182670 0.926620 0.631882
Si Si6 0.968136 0.735105 0.849115
O O1 0.714470 0.409881 0.403766
O O2 0.439295 0.415025 0.111495
O O3 0.500000 0.407223 0.000000
O O4 0.551504 0.311065 0.178286
O O5 0.750351 0.621026 0.984203
O O6 0.740357 0.617462 0.788360
O O7 0.897893 0.710405 0.051753
O O8 0.994078 0.597715 0.186977
O O9 0.206713 0.577529 0.320902
O O10 0.161557 0.686886 0.345265
O O11 0.023892 0.090515 0.391339
O O12 0.844240 0.000000 0.116210
O O13 0.175603 0.000000 0.658588
O O14 0.000000 0.717577 0.000000
#
# Coordination Sequence:
#
# PCOD9173974 Si02
#       6
#     8   8   8   8   8   8
#     4  10  21  37  58  72 100 142 190 224 260 298
#     4  10  18  31  51  80 112 135 163 215 268 324
#     4   9  18  33  52  81 106 139 175 218 257 315
#     4  10  22  36  52  78 109 144 180 214 263 314
#     4  10  18  31  52  80 115 146 168 201 261 333
#     4   9  17  33  55  82 108 135 169 212 267 323
#
# _framework density 18.271660000000001
#
# number of rings (size 3 to 8) (size 9 to 14) (size 15 to 20)
#    1.000    1.333    1.667    2.000    0.000    4.333 
#    0.000    0.833    0.000    1.000    0.000    0.000 
#    0.000    0.000    0.000    0.000    0.000    0.000 
#
# Total GULP energy -133646.112848 kJ/mol
# GULP energy per Si atom -5568.588035 kJ/mol
# Density = 1.823007 g / cm^3
# Si number density = 18.271660 Si / 1000 Ang^3
#
#
#
# Elastic Constant Matrix: (Units=GPa)
#
#
# Indices 1 2 3 4 5 6 
#
# 1 87.4241 4.0341 41.9952 0.0000 7.5616 0.0000
# 2 4.0341 21.7304 -4.9838 0.0000 -1.8702 0.0000
# 3 41.9952 -4.9838 55.4624 0.0000 -13.5474 0.0000
# 4 0.0000 0.0000 0.0000 -0.3521 0.0000 0.8528
# 5 7.5616 -1.8702 -13.5474 0.0000 30.0679 0.0000
# 6 0.0000 0.0000 0.0000 0.8528 0.0000 3.7918
#
#
#
# Elastic Compliance Matrix: (Units=1/GPa)
#
#
# Indices 1 2 3 4 5 6 
#
# 1 0.025569 -0.012052 -0.024942 0.000000 -0.018418 0.000000
# 2 -0.012052 0.053468 0.017398 0.000000 0.014195 0.000000
# 3 -0.024942 0.017398 0.045256 0.000000 0.027745 0.000000
# 4 0.000000 0.000000 0.000000 -1.838536 0.000000 0.413502
# 5 -0.018418 0.014195 0.027745 0.000000 0.051274 0.000000
# 6 0.000000 0.000000 0.000000 0.413502 0.000000 0.170726
#
#
# Mechanical properties :
#
#
# Convention : Reuss Voigt Hill
#
# Bulk Modulus (GPa) = 11.75089 27.41196 19.58143
# Shear Modulus (GPa) = -3.50955 14.93961 5.71503
#
# Velocity S-wave (km/s) = -1.38742 2.86254 1.77048
# Velocity P-wave (km/s) = 1.96942 5.09515 3.86258
#
# Compressibility (1/GPa) = 0.08509991
#
# Stress axis : x y z
#
# Youngs Moduli (GPa) = 39.11014 18.70287 22.09631
#
# Poissons Ratio (x) = 0.22541 0.55113
# Poissons Ratio (y) = 0.47136 -0.38442
# Poissons Ratio (z) = 0.97549 -0.32539
#
# Static dielectric constant tensor:
#      x y z
#    x 1.631140 0.000000 0.010950 
#    y 0.000000 1.651400 0.000000 
#    z 0.010950 0.000000 1.624250 
# 
# From -- ./inp_files/160507.got.cif
#   From: 2010.05.17/outbox.cif.g08.bks.cpg/sg12_81_cif.got.tgz:160507.got - 2010.06.03 13:09:07.
