data_PCOD9173297
_publ_section_title
;
Structure prediction by ZEFSAII (Michael W. Deem and Ramdas Pophale) SiO2 
 PCOD9173297
Probable space group: C 2/M
;
_chemical_formula_sum "Si O2"
_cell_formula_units_Z 56
_cell_length_a 15.488128
_cell_length_b 14.350338
_cell_length_c 21.847501
_cell_angle_alpha 90.000000
_cell_angle_beta 153.332204
_cell_angle_gamma 90.000000
_cell_volume 2179.374809
_symmetry_space_group_name_H-M "C 2/M"
_symmetry_group_IT_number 12
_symmetry_cell_setting 'monoclinic'
loop_
_space_group_symop_operation_xyz
x,y,z
-x,y,-z
-x,-y,-z
x,-y,z
1/2+x,1/2+y,z
1/2-x,1/2+y,-z
1/2-x,1/2-y,-z
1/2+x,1/2-y,z
loop_
_atom_site_type_symbol
_atom_site_label
_atom_site_fract_x
_atom_site_fract_y
_atom_site_fract_z
Si Si1 0.284930 0.896699 0.892444
Si Si2 0.212542 0.311794 0.327959
Si Si3 0.814912 0.697551 0.110540
Si Si4 0.697550 0.098386 0.586246
Si Si5 0.489488 0.648199 0.389162
Si Si6 0.967389 0.649057 0.334748
Si Si7 0.050257 0.110052 0.100477
O O1 0.221759 0.804144 0.890368
O O2 0.128483 0.903955 0.737977
O O3 0.289118 0.000000 0.925295
O O4 0.500000 0.880586 0.000000
O O5 0.222496 0.201607 0.351875
O O6 0.314372 0.370106 0.448131
O O7 0.337130 0.333681 0.347426
O O8 0.988060 0.325456 0.174872
O O9 0.893795 0.638291 0.219558
O O10 0.611252 0.656846 0.961065
O O11 0.500000 0.096853 0.500000
O O12 0.634731 0.095317 0.475102
O O13 0.802406 0.000000 0.667033
O O14 0.528955 0.745271 0.380949
O O15 0.771496 0.633819 0.249905
O O16 0.029300 0.000000 0.088121
O O17 0.000000 0.144866 0.000000
#
# Coordination Sequence:
#
# PCOD9173297 Si02
#       7
#     8   8   8   8   8   8   8
#     4  10  21  39  61  81 106 148 199 236 270 324
#     4  10  19  36  54  82 114 147 182 226 282 339
#     4  10  20  33  56  83 113 142 182 235 280 319
#     4  10  18  30  51  78 107 141 181 221 269 334
#     4   9  18  36  58  77 108 149 186 220 279 336
#     4   9  16  31  53  78 103 144 181 219 275 333
#     4   9  17  31  51  77 108 139 174 218 275 334
#
# _framework density 25.695442
#
# number of rings (size 3 to 8) (size 9 to 14) (size 15 to 20)
#    0.000    2.429    2.857    2.571    0.000    6.286 
#    0.000    5.714    0.000    1.714    0.000    0.000 
#    0.000    0.000    0.000    0.000    0.000    0.000 
#
# Total GULP energy -156210.389347 kJ/mol
# GULP energy per Si atom -5578.942477 kJ/mol
# Density = 2.563696 g / cm^3
# Si number density = 25.695442 Si / 1000 Ang^3
#
#
#
# Elastic Constant Matrix: (Units=GPa)
#
#
# Indices 1 2 3 4 5 6 
#
# 1 46.9307 -8.4593 35.7048 -0.0014 -0.5845 -0.0029
# 2 -8.4593 83.4765 11.1042 -0.0044 6.0042 -0.0063
# 3 35.7048 11.1042 110.3264 -0.0124 15.0475 -0.0151
# 4 -0.0014 -0.0044 -0.0124 22.0687 0.0055 2.3129
# 5 -0.5845 6.0042 15.0475 0.0055 55.6279 0.0040
# 6 -0.0029 -0.0063 -0.0151 2.3129 0.0040 11.3004
#
#
#
# Elastic Compliance Matrix: (Units=1/GPa)
#
#
# Indices 1 2 3 4 5 6 
#
# 1 0.030139 0.004263 -0.010553 -0.000003 0.002711 -0.000004
# 2 0.004263 0.012801 -0.002581 0.000001 -0.000639 0.000005
# 3 -0.010553 -0.002581 0.013203 0.000006 -0.003404 0.000014
# 4 -0.000003 0.000001 0.000006 0.046306 -0.000006 -0.009478
# 5 0.002711 -0.000639 -0.003404 -0.000006 0.018995 -0.000010
# 6 -0.000004 0.000005 0.000014 -0.009478 -0.000010 0.090433
#
#
# Mechanical properties :
#
#
# Convention : Reuss Voigt Hill
#
# Bulk Modulus (GPa) = 26.04077 35.27034 30.65555
# Shear Modulus (GPa) = 20.62558 31.29164 25.95861
#
# Velocity S-wave (km/s) = 2.83626 3.49347 3.18188
# Velocity P-wave (km/s) = 4.56971 5.47983 5.04533
#
# Compressibility (1/GPa) = 0.03840133
#
# Stress axis : x y z
#
# Youngs Moduli (GPa) = 33.18013 78.12099 75.73971
#
# Poissons Ratio (x) = -0.33302 0.79924
# Poissons Ratio (y) = -0.14144 0.19547
# Poissons Ratio (z) = 0.35013 0.20162
#
# Static dielectric constant tensor:
#      x y z
#    x 2.123900 0.000000 -0.008290 
#    y 0.000000 1.982180 0.000000 
#    z -0.008290 0.000000 2.055150 
# 
# From -- ./inp_files/364488.got.cif
#   From: 2010.05.17/outbox.cif.g08.bks.cpg/sg12_183_cif.got.tgz:364488.got - 2010.06.03 13:09:07.
