data_PCOD9173217
_publ_section_title
;
Structure prediction by ZEFSAII (Michael W. Deem and Ramdas Pophale) SiO2 
 PCOD9173217
Probable space group: C 2/M
;
_chemical_formula_sum "Si O2"
_cell_formula_units_Z 64
_cell_length_a 32.052345
_cell_length_b 7.723163
_cell_length_c 15.309931
_cell_angle_alpha 90.000000
_cell_angle_beta 119.716800
_cell_angle_gamma 90.000000
_cell_volume 3291.479583
_symmetry_space_group_name_H-M "C 2/M"
_symmetry_group_IT_number 12
_symmetry_cell_setting 'monoclinic'
loop_
_space_group_symop_operation_xyz
x,y,z
-x,y,-z
-x,-y,-z
x,-y,z
1/2+x,1/2+y,z
1/2-x,1/2+y,-z
1/2-x,1/2-y,-z
1/2+x,1/2-y,z
loop_
_atom_site_type_symbol
_atom_site_label
_atom_site_fract_x
_atom_site_fract_y
_atom_site_fract_z
Si Si1 0.313778 0.298779 0.976773
Si Si2 0.461804 0.211325 0.298182
Si Si3 0.882448 0.709455 0.354844
Si Si4 0.572054 0.791014 0.420088
Si Si5 0.381381 0.301802 0.898184
Si Si6 0.073806 0.205919 0.225284
Si Si7 0.963082 0.297701 0.103260
Si Si8 0.205166 0.205348 0.852730
O O1 0.328650 0.500000 0.998712
O O2 0.345615 0.219783 0.932383
O O3 0.257488 0.287155 0.895417
O O4 0.317319 0.225826 0.078958
O O5 0.423726 0.269523 0.330193
O O6 0.516522 0.266751 0.373995
O O7 0.449409 0.265354 0.186501
O O8 0.461988 0.000000 0.298335
O O9 0.883683 0.500000 0.356415
O O10 0.895823 0.769778 0.465838
O O11 0.831502 0.763818 0.263365
O O12 0.588242 0.739463 0.340120
O O13 0.571144 0.000000 0.421316
O O14 0.364842 0.500000 0.867692
O O15 0.390307 0.224658 0.811722
O O16 0.433248 0.299282 0.998976
O O17 0.020403 0.280834 0.156557
O O18 0.069645 0.000000 0.208710
O O19 0.950804 0.500000 0.083038
O O20 0.212973 0.000000 0.871706
#
# Coordination Sequence:
#
# PCOD9173217 Si02
#       8
#     8   8   8   8   8   8   8   8
#     4   9  19  36  54  72  98 128 156 190 236 290
#     4   8  15  28  46  70  98 127 161 196 230 275
#     4  10  18  30  51  73  96 129 163 195 236 287
#     4   9  18  32  49  70  96 128 166 203 237 276
#     4  10  20  33  50  71  95 127 164 198 237 285
#     4  10  20  33  48  67  96 132 165 200 240 278
#     4  10  19  30  47  72 101 131 162 197 235 279
#     4  10  20  33  51  76 102 124 151 192 239 287
#
# _framework density 19.444143
#
# number of rings (size 3 to 8) (size 9 to 14) (size 15 to 20)
#    0.000    2.500    0.000    3.375    0.000    5.500 
#    0.000    2.500    0.000    4.500    0.000    0.000 
#    0.000    0.000    0.000    0.000    0.000    0.000 
#
# Total GULP energy -178561.841269 kJ/mol
# GULP energy per Si atom -5580.057540 kJ/mol
# Density = 1.939989 g / cm^3
# Si number density = 19.444143 Si / 1000 Ang^3
#
#
#
# Elastic Constant Matrix: (Units=GPa)
#
#
# Indices 1 2 3 4 5 6 
#
# 1 77.1871 -2.2334 32.7768 0.0000 -27.5356 0.0000
# 2 -2.2334 38.4094 -6.8496 0.0000 -2.3421 0.0000
# 3 32.7768 -6.8496 103.7058 0.0000 -9.7079 0.0000
# 4 0.0000 0.0000 0.0000 18.5740 0.0000 1.0911
# 5 -27.5356 -2.3421 -9.7079 0.0000 22.7682 0.0000
# 6 0.0000 0.0000 0.0000 1.0911 0.0000 12.0366
#
#
#
# Elastic Compliance Matrix: (Units=1/GPa)
#
#
# Indices 1 2 3 4 5 6 
#
# 1 0.025554 0.002319 -0.005216 0.000000 0.028920 0.000000
# 2 0.002319 0.026842 0.001626 0.000000 0.006259 0.000000
# 3 -0.005216 0.001626 0.011274 0.000000 -0.001334 0.000000
# 4 0.000000 0.000000 0.000000 0.054127 0.000000 -0.004907
# 5 0.028920 0.006259 -0.001334 0.000000 0.078971 0.000000
# 6 0.000000 0.000000 0.000000 -0.004907 0.000000 0.083525
#
#
# Mechanical properties :
#
#
# Convention : Reuss Voigt Hill
#
# Bulk Modulus (GPa) = 16.35927 29.63219 22.99573
# Shear Modulus (GPa) = 16.49019 23.71634 20.10327
#
# Velocity S-wave (km/s) = 2.91534 3.49623 3.21892
# Velocity P-wave (km/s) = 4.44567 5.61880 5.06631
#
# Compressibility (1/GPa) = 0.06112742
#
# Stress axis : x y z
#
# Youngs Moduli (GPa) = 39.13213 37.25536 88.70149
#
# Poissons Ratio (x) = -0.08640 0.46269
# Poissons Ratio (y) = -0.09076 -0.14421
# Poissons Ratio (z) = 0.20412 -0.06057
#
# Static dielectric constant tensor:
#      x y z
#    x 1.694390 0.000000 -0.038790 
#    y 0.000000 1.739570 0.000000 
#    z -0.038790 0.000000 1.670230 
# 
# From -- ./inp_files/248985.got.cif
#   From: 2010.05.17/outbox.cif.g08.bks.cpg/sg12_125_cif.got.tgz:248985.got - 2010.06.03 13:09:07.
