data_PCOD9173093
_publ_section_title
;
Structure prediction by ZEFSAII (Michael W. Deem and Ramdas Pophale) SiO2 
 PCOD9173093
Probable space group: C 2/M
;
_chemical_formula_sum "Si O2"
_cell_formula_units_Z 56
_cell_length_a 8.280802
_cell_length_b 29.562469
_cell_length_c 13.957023
_cell_angle_alpha 90.000000
_cell_angle_beta 107.256718
_cell_angle_gamma 90.000000
_cell_volume 3262.890684
_symmetry_space_group_name_H-M "C 2/M"
_symmetry_group_IT_number 12
_symmetry_cell_setting 'monoclinic'
loop_
_space_group_symop_operation_xyz
x,y,z
-x,y,-z
-x,-y,-z
x,-y,z
1/2+x,1/2+y,z
1/2-x,1/2+y,-z
1/2-x,1/2-y,-z
1/2+x,1/2-y,z
loop_
_atom_site_type_symbol
_atom_site_label
_atom_site_fract_x
_atom_site_fract_y
_atom_site_fract_z
Si Si1 0.750617 0.799537 0.115464
Si Si2 0.302647 0.447750 0.000000
Si Si3 0.096480 0.892671 0.803277
Si Si4 0.500282 0.447888 0.610632
Si Si5 0.610350 0.052112 0.610632
Si Si6 0.706797 0.892671 0.803277
Si Si7 0.364847 0.799537 0.115464
O O1 0.844425 0.841098 0.181240
O O2 0.556877 0.800118 0.113754
O O3 0.824381 0.750000 0.148762
O O4 0.752400 0.805948 0.000000
O O5 0.251527 0.500000 0.000000
O O6 0.199476 0.421396 0.900217
O O7 0.500000 0.447643 0.000000
O O8 0.299259 0.421396 0.099783
O O9 0.102775 0.916062 0.700846
O O10 0.901569 0.894407 0.803138
O O11 0.500000 0.433604 0.500000
O O12 0.561970 0.500000 0.626421
O O13 0.306155 0.448036 0.612310
O O14 0.500000 0.066396 0.500000
O O15 0.598071 0.083938 0.700846
O O16 0.564451 0.000000 0.626421
O O17 0.663185 0.841098 0.818760
#
# Coordination Sequence:
#
# PCOD9173093 Si02
#       7
#     8   8   8   8   8   8   8
#     4  10  20  33  50  72 100 131 165 202 245 298
#     4   9  16  26  44  71 100 129 160 197 240 287
#     4  10  18  30  50  74 100 130 166 205 246 292
#     4   9  18  32  50  73 100 133 173 210 243 286
#     4   9  18  32  50  73 100 133 173 210 243 286
#     4  10  18  30  50  74 100 130 166 205 246 292
#     4  10  20  33  50  72 100 131 165 202 245 298
#
# _framework density 17.162694999999999
#
# number of rings (size 3 to 8) (size 9 to 14) (size 15 to 20)
#    0.000    2.429    1.429    1.714    0.000    5.714 
#    0.000    0.000    0.000    4.286    0.000    6.000 
#    0.000    0.000    0.000    0.000    0.000    0.000 
#
# Total GULP energy -156200.912417 kJ/mol
# GULP energy per Si atom -5578.604015 kJ/mol
# Density = 1.712363 g / cm^3
# Si number density = 17.162695 Si / 1000 Ang^3
#
#
#
# Elastic Constant Matrix: (Units=GPa)
#
#
# Indices 1 2 3 4 5 6 
#
# 1 9.7031 13.4370 19.7592 0.0000 -1.1578 0.0000
# 2 13.4370 154.7378 106.9129 0.0000 -2.0624 0.0000
# 3 19.7592 106.9129 153.7501 0.0000 -2.0204 0.0000
# 4 0.0000 0.0000 0.0000 22.6440 0.0000 -0.0275
# 5 -1.1578 -2.0624 -2.0204 0.0000 21.2287 0.0000
# 6 0.0000 0.0000 0.0000 -0.0275 0.0000 21.3979
#
#
#
# Elastic Compliance Matrix: (Units=1/GPa)
#
#
# Indices 1 2 3 4 5 6 
#
# 1 0.140364 0.000578 -0.018362 0.000000 0.005964 0.000000
# 2 0.000578 0.012444 -0.008722 0.000000 0.000410 0.000000
# 3 -0.018362 -0.008722 0.014923 0.000000 -0.000429 0.000000
# 4 0.000000 0.000000 0.000000 0.044162 0.000000 0.000057
# 5 0.005964 0.000410 -0.000429 0.000000 0.047430 0.000000
# 6 0.000000 0.000000 0.000000 0.000057 0.000000 0.046734
#
#
# Mechanical properties :
#
#
# Convention : Reuss Voigt Hill
#
# Bulk Modulus (GPa) = 8.71699 66.48992 37.60346
# Shear Modulus (GPa) = 12.58460 24.92623 18.75542
#
# Velocity S-wave (km/s) = 2.71080 3.81510 3.30934
# Velocity P-wave (km/s) = 3.85850 7.63097 6.04648
#
# Compressibility (1/GPa) = 0.11471847
#
# Stress axis : x y z
#
# Youngs Moduli (GPa) = 7.12431 80.35819 67.00897
#
# Poissons Ratio (x) = -0.04641 1.23043
# Poissons Ratio (y) = -0.00411 0.58447
# Poissons Ratio (z) = 0.13082 0.70090
#
# Static dielectric constant tensor:
#      x y z
#    x 1.601490 0.000000 0.000620 
#    y 0.000000 1.564690 0.000000 
#    z 0.000620 0.000000 1.573200 
# 
# From -- ./inp_files/198509.got.cif
#   From: 2010.05.17/outbox.cif.g08.bks.cpg/sg12_100_cif.got.tgz:198509.got - 2010.06.03 13:09:07.
