data_PCOD9173660
_publ_section_title
;
Structure prediction by ZEFSAII (Michael W. Deem and Ramdas Pophale) SiO2 
 PCOD9173660
Probable space group: C 2/M
;
_chemical_formula_sum "Si O2"
_cell_formula_units_Z 44
_cell_length_a 9.398518
_cell_length_b 24.264562
_cell_length_c 11.330494
_cell_angle_alpha 90.000000
_cell_angle_beta 109.136231
_cell_angle_gamma 90.000000
_cell_volume 2441.146330
_symmetry_space_group_name_H-M "C 2/M"
_symmetry_group_IT_number 12
_symmetry_cell_setting 'monoclinic'
loop_
_space_group_symop_operation_xyz
x,y,z
-x,y,-z
-x,-y,-z
x,-y,z
1/2+x,1/2+y,z
1/2-x,1/2+y,-z
1/2-x,1/2-y,-z
1/2+x,1/2-y,z
loop_
_atom_site_type_symbol
_atom_site_label
_atom_site_fract_x
_atom_site_fract_y
_atom_site_fract_z
Si Si1 0.000000 0.681341 0.500000
Si Si2 0.910951 0.326503 0.127386
Si Si3 0.224747 0.138872 0.304526
Si Si4 0.479077 0.434600 0.134467
Si Si5 0.975894 0.770944 0.286698
Si Si6 0.727390 0.147290 0.159879
O O1 0.857135 0.642281 0.436757
O O2 0.006225 0.724384 0.392727
O O3 0.800811 0.344301 0.201601
O O4 0.960029 0.263779 0.162827
O O5 0.064736 0.362666 0.174992
O O6 0.826346 0.330352 0.981463
O O7 0.125469 0.085491 0.247622
O O8 0.109871 0.186273 0.313090
O O9 0.459287 0.500000 0.134504
O O10 0.338184 0.402830 0.156040
O O11 0.500000 0.419602 0.000000
O O12 0.824153 0.807295 0.257806
#
# Coordination Sequence:
#
# PCOD9173660 Si02
#       6
#     4   8   8   8   8   8
#     4  10  20  34  51  82 111 140 176 212 252 308
#     4  10  18  31  48  80 114 139 170 208 264 306
#     4  10  20  34  54  78 107 142 177 215 254 311
#     4  10  20  38  58  75  98 134 179 225 271 314
#     4  10  20  32  52  76 111 149 175 203 249 315
#     4  10  20  32  50  78 109 140 173 214 258 313
#
# _framework density 18.024319999999999
#
# number of rings (size 3 to 8) (size 9 to 14) (size 15 to 20)
#    0.000    2.000    1.818    3.273    0.000    2.909 
#    0.000    3.182    0.000    0.000    0.000   35.636 
#    0.000    0.000    0.000    0.000    0.000    0.000 
#
# Total GULP energy -122541.118223 kJ/mol
# GULP energy per Si atom -5570.050828 kJ/mol
# Density = 1.798330 g / cm^3
# Si number density = 18.024320 Si / 1000 Ang^3
#
#
#
# Elastic Constant Matrix: (Units=GPa)
#
#
# Indices 1 2 3 4 5 6 
#
# 1 57.5154 1.2156 22.5454 0.0000 26.0918 0.0000
# 2 1.2156 57.3481 22.9754 0.0000 16.7260 0.0000
# 3 22.5454 22.9754 70.0192 0.0000 25.2994 0.0000
# 4 0.0000 0.0000 0.0000 9.6410 0.0000 -4.4516
# 5 26.0918 16.7260 25.2994 0.0000 31.2759 0.0000
# 6 0.0000 0.0000 0.0000 -4.4516 0.0000 8.2801
#
#
#
# Elastic Compliance Matrix: (Units=1/GPa)
#
#
# Indices 1 2 3 4 5 6 
#
# 1 0.031179 0.008706 -0.002565 0.000000 -0.028592 0.000000
# 2 0.008706 0.023889 -0.004806 0.000000 -0.016150 0.000000
# 3 -0.002565 -0.004806 0.021171 0.000000 -0.012415 0.000000
# 4 0.000000 0.000000 0.000000 0.137976 0.000000 0.074180
# 5 -0.028592 -0.016150 -0.012415 0.000000 0.074506 0.000000
# 6 0.000000 0.000000 0.000000 0.074180 0.000000 0.160653
#
#
# Mechanical properties :
#
#
# Convention : Reuss Voigt Hill
#
# Bulk Modulus (GPa) = 12.67317 30.92837 21.80077
# Shear Modulus (GPa) = 10.57068 19.04914 14.80991
#
# Velocity S-wave (km/s) = 2.42434 3.25446 2.86958
# Velocity P-wave (km/s) = 3.85784 5.59630 4.80632
#
# Compressibility (1/GPa) = 0.07890683
#
# Stress axis : x y z
#
# Youngs Moduli (GPa) = 32.07320 41.86068 47.23534
#
# Poissons Ratio (x) = -0.36443 0.12116
# Poissons Ratio (y) = -0.27922 0.22703
# Poissons Ratio (z) = 0.08227 0.20119
#
# Static dielectric constant tensor:
#      x y z
#    x 1.676120 0.000000 0.005340 
#    y 0.000000 1.592760 0.000000 
#    z 0.005340 0.000000 1.657090 
# 
# From -- ./inp_files/122111.got.cif
#   From: 2010.05.17/outbox.cif.g08.bks.cpg/sg12_62_cif.got.tgz:122111.got - 2010.06.03 13:09:07.
