data_PCOD9173352
_publ_section_title
;
Structure prediction by ZEFSAII (Michael W. Deem and Ramdas Pophale) SiO2 
 PCOD9173352
Probable space group: C 2/M
;
_chemical_formula_sum "Si O2"
_cell_formula_units_Z 64
_cell_length_a 24.944601
_cell_length_b 7.706826
_cell_length_c 24.841820
_cell_angle_alpha 90.000000
_cell_angle_beta 46.681573
_cell_angle_gamma 90.000000
_cell_volume 3474.558724
_symmetry_space_group_name_H-M "C 2/M"
_symmetry_group_IT_number 12
_symmetry_cell_setting 'monoclinic'
loop_
_space_group_symop_operation_xyz
x,y,z
-x,y,-z
-x,-y,-z
x,-y,z
1/2+x,1/2+y,z
1/2-x,1/2+y,-z
1/2-x,1/2-y,-z
1/2+x,1/2-y,z
loop_
_atom_site_type_symbol
_atom_site_label
_atom_site_fract_x
_atom_site_fract_y
_atom_site_fract_z
Si Si1 0.322849 0.710017 0.678452
Si Si2 0.611010 0.702541 0.567291
Si Si3 0.100379 0.202484 0.693176
Si Si4 0.431661 0.798601 0.004618
Si Si5 0.269060 0.710993 0.597427
Si Si6 0.671387 0.213221 0.833939
Si Si7 0.459191 0.205492 0.154210
Si Si8 0.488207 0.202810 0.568602
O O1 0.325225 0.500000 0.677471
O O2 0.305692 0.764042 0.628713
O O3 0.253652 0.766899 0.762249
O O4 0.402398 0.776079 0.640980
O O5 0.628614 0.500000 0.564469
O O6 0.593905 0.779641 0.637599
O O7 0.681159 0.775140 0.486515
O O8 0.541948 0.713121 0.574891
O O9 0.185612 0.227501 0.650737
O O10 0.050787 0.273108 0.775682
O O11 0.082609 0.000000 0.702840
O O12 0.467992 0.721795 0.925631
O O13 0.412387 0.000000 0.007273
O O14 0.500000 0.796937 0.000000
O O15 0.363272 0.725235 0.085634
O O16 0.268028 0.500000 0.597866
O O17 0.614148 0.269486 0.826503
O O18 0.671056 0.000000 0.834397
O O19 0.460983 0.000000 0.142015
O O20 0.500000 0.274715 0.500000
O O21 0.507836 0.000000 0.553838
#
# Coordination Sequence:
#
# PCOD9173352 Si02
#       8
#     8   8   8   8   8   8   8   8
#     4  10  18  30  52  74  95 127 162 196 234 283
#     4  10  22  38  52  67  91 128 169 201 236 281
#     4  11  22  32  46  71 101 130 160 198 238 279
#     4   7  11  20  40  67  94 121 154 195 227 266
#     4  10  19  33  52  71  93 126 165 197 231 283
#     4   8  13  24  43  71  97 121 158 195 230 275
#     4   9  15  27  46  68  95 129 162 190 228 280
#     4  11  23  36  51  72  95 121 158 204 249 284
#
# _framework density 18.419605000000001
#
# number of rings (size 3 to 8) (size 9 to 14) (size 15 to 20)
#    0.000    2.500    2.500    2.625    0.000    2.500 
#    0.000    0.000    0.000    4.125    0.000    0.875 
#    0.000    0.000    0.000    0.000    0.000    0.000 
#
# Total GULP energy -178383.589643 kJ/mol
# GULP energy per Si atom -5574.487176 kJ/mol
# Density = 1.837768 g / cm^3
# Si number density = 18.419605 Si / 1000 Ang^3
#
#
#
# Elastic Constant Matrix: (Units=GPa)
#
#
# Indices 1 2 3 4 5 6 
#
# 1 29.2332 -9.1553 26.9056 0.0014 9.6199 0.0045
# 2 -9.1553 25.7397 2.3086 0.0046 1.3289 0.0130
# 3 26.9056 2.3086 176.1372 0.0015 10.6921 0.0014
# 4 0.0014 0.0046 0.0015 7.9477 0.0001 5.3562
# 5 9.6199 1.3289 10.6921 0.0001 21.6925 -0.0006
# 6 0.0045 0.0130 0.0014 5.3562 -0.0006 16.6975
#
#
#
# Elastic Compliance Matrix: (Units=1/GPa)
#
#
# Indices 1 2 3 4 5 6 
#
# 1 0.054872 0.021312 -0.007324 0.000001 -0.022030 -0.000032
# 2 0.021312 0.047275 -0.003222 -0.000002 -0.010759 -0.000042
# 3 -0.007324 -0.003222 0.006834 -0.000001 0.000077 0.000004
# 4 0.000001 -0.000002 -0.000001 0.160526 -0.000002 -0.051493
# 5 -0.022030 -0.010759 0.000077 -0.000002 0.056490 0.000017
# 6 -0.000032 -0.000042 0.000004 -0.051493 0.000017 0.076407
#
#
# Mechanical properties :
#
#
# Convention : Reuss Voigt Hill
#
# Bulk Modulus (GPa) = 7.66211 30.13645 18.89928
# Shear Modulus (GPa) = 11.78200 23.33761 17.55980
#
# Velocity S-wave (km/s) = 2.53186 3.56335 3.09094
# Velocity P-wave (km/s) = 3.56594 5.77292 4.79804
#
# Compressibility (1/GPa) = 0.13051233
#
# Stress axis : x y z
#
# Youngs Moduli (GPa) = 18.22417 21.15275 146.33329
#
# Poissons Ratio (x) = -0.45080 1.07174
# Poissons Ratio (y) = -0.38839 0.47148
# Poissons Ratio (z) = 0.13347 0.06815
#
# Static dielectric constant tensor:
#      x y z
#    x 1.592670 0.000000 0.020840 
#    y 0.000000 1.689110 0.000000 
#    z 0.020840 0.000000 1.699900 
# 
# From -- ./inp_files/348531.got.cif
#   From: 2010.05.17/outbox.cif.g08.bks.cpg/sg12_175_cif.got.tgz:348531.got - 2010.06.03 13:09:07.
