data_PCOD9173551
_publ_section_title
;
Structure prediction by ZEFSAII (Michael W. Deem and Ramdas Pophale) SiO2 
 PCOD9173551
Probable space group: C 2/M
;
_chemical_formula_sum "Si O2"
_cell_formula_units_Z 48
_cell_length_a 27.627854
_cell_length_b 17.241811
_cell_length_c 14.654271
_cell_angle_alpha 90.000000
_cell_angle_beta 16.119463
_cell_angle_gamma 90.000000
_cell_volume 1938.107504
_symmetry_space_group_name_H-M "C 2/M"
_symmetry_group_IT_number 12
_symmetry_cell_setting 'monoclinic'
loop_
_space_group_symop_operation_xyz
x,y,z
-x,y,-z
-x,-y,-z
x,-y,z
1/2+x,1/2+y,z
1/2-x,1/2+y,-z
1/2-x,1/2-y,-z
1/2+x,1/2-y,z
loop_
_atom_site_type_symbol
_atom_site_label
_atom_site_fract_x
_atom_site_fract_y
_atom_site_fract_z
Si Si1 0.793047 0.410151 0.350212
Si Si2 0.249543 0.904659 0.626119
Si Si3 0.404779 0.586241 0.914140
Si Si4 0.006818 0.394470 0.592332
Si Si5 0.449269 0.288139 0.489164
Si Si6 0.134032 0.358092 0.981813
O O1 0.744846 0.500000 0.431599
O O2 0.709612 0.379465 0.595098
O O3 0.778286 0.378447 0.274155
O O4 0.000000 0.406454 0.000000
O O5 0.283586 0.000000 0.563503
O O6 0.094992 0.892095 0.978867
O O7 0.427256 0.858509 0.332571
O O8 0.477644 0.500000 0.765217
O O9 0.465373 0.649701 0.732838
O O10 0.196892 0.580843 0.278382
O O11 0.995680 0.300994 0.611575
O O12 0.000000 0.418894 0.500000
O O13 0.870049 0.414275 0.920727
O O14 0.500000 0.314173 0.500000
O O15 0.250841 0.288531 0.810086
#
# Coordination Sequence:
#
# PCOD9173551 Si02
#       6
#     8   8   8   8   8   8
#     4   8  14  28  53  81 105 135 179 225 271 331
#     4   8  16  33  56  80 108 143 181 222 276 341
#     4  10  21  36  56  85 117 143 178 239 293 320
#     4  10  21  39  59  76 103 153 203 228 265 340
#     4  11  23  38  55  78 113 155 190 225 279 343
#     4  10  18  30  56  80  99 135 189 232 260 312
#
# _framework density 24.766428999999999
#
# number of rings (size 3 to 8) (size 9 to 14) (size 15 to 20)
#    0.000    2.500    0.000    3.500    0.000    5.333 
#    0.000    5.833    0.000   30.000    0.000    0.000 
#    0.000    0.000    0.000    0.000    0.000    0.000 
#
# Total GULP energy -133673.473149 kJ/mol
# GULP energy per Si atom -5569.728048 kJ/mol
# Density = 2.471006 g / cm^3
# Si number density = 24.766429 Si / 1000 Ang^3
#
#
#
# Elastic Constant Matrix: (Units=GPa)
#
#
# Indices 1 2 3 4 5 6 
#
# 1 248.5041 60.9472 58.7080 0.0003 31.9787 -0.0001
# 2 60.9472 102.6523 39.9299 0.0011 29.0795 -0.0013
# 3 58.7080 39.9299 64.2268 -0.0006 30.9595 -0.0007
# 4 0.0003 0.0011 -0.0006 20.7722 0.0005 -5.8227
# 5 31.9787 29.0795 30.9595 0.0005 45.5399 0.0001
# 6 -0.0001 -0.0013 -0.0007 -5.8227 0.0001 7.2410
#
#
#
# Elastic Compliance Matrix: (Units=1/GPa)
#
#
# Indices 1 2 3 4 5 6 
#
# 1 0.005343 -0.001665 -0.003797 0.000000 -0.000107 -0.000001
# 2 -0.001665 0.013911 -0.005070 0.000000 -0.004267 0.000002
# 3 -0.003797 -0.005070 0.028777 0.000003 -0.013660 0.000004
# 4 0.000000 0.000000 0.000003 0.062150 -0.000002 0.049977
# 5 -0.000107 -0.004267 -0.013660 -0.000002 0.034046 -0.000004
# 6 -0.000001 0.000002 0.000004 0.049977 -0.000004 0.178289
#
#
# Mechanical properties :
#
#
# Convention : Reuss Voigt Hill
#
# Bulk Modulus (GPa) = 37.08141 81.61707 59.34924
# Shear Modulus (GPa) = 14.18160 31.76382 22.97271
#
# Velocity S-wave (km/s) = 2.39553 3.58514 3.04892
# Velocity P-wave (km/s) = 4.75987 7.08264 6.03408
#
# Compressibility (1/GPa) = 0.02696769
#
# Stress axis : x y z
#
# Youngs Moduli (GPa) = 187.14873 71.88579 34.74969
#
# Poissons Ratio (x) = 0.11969 0.13196
# Poissons Ratio (y) = 0.31159 0.17617
# Poissons Ratio (z) = 0.71066 0.36444
#
# Static dielectric constant tensor:
#      x y z
#    x 2.128830 0.000000 0.047540 
#    y 0.000000 1.952530 0.000000 
#    z 0.047540 0.000000 2.092710 
# 
# From -- ./inp_files/247099.got.cif
#   From: 2010.05.17/outbox.cif.g08.bks.cpg/sg12_124_cif.got.tgz:247099.got - 2010.06.03 13:09:07.
