data_PCOD9173478
_publ_section_title
;
Structure prediction by ZEFSAII (Michael W. Deem and Ramdas Pophale) SiO2 
 PCOD9173478
Probable space group: C 2/M
;
_chemical_formula_sum "Si O2"
_cell_formula_units_Z 48
_cell_length_a 15.234055
_cell_length_b 19.452147
_cell_length_c 14.745090
_cell_angle_alpha 90.000000
_cell_angle_beta 37.854452
_cell_angle_gamma 90.000000
_cell_volume 2681.369639
_symmetry_space_group_name_H-M "C 2/M"
_symmetry_group_IT_number 12
_symmetry_cell_setting 'monoclinic'
loop_
_space_group_symop_operation_xyz
x,y,z
-x,y,-z
-x,-y,-z
x,-y,z
1/2+x,1/2+y,z
1/2-x,1/2+y,-z
1/2-x,1/2-y,-z
1/2+x,1/2-y,z
loop_
_atom_site_type_symbol
_atom_site_label
_atom_site_fract_x
_atom_site_fract_y
_atom_site_fract_z
Si Si1 0.343245 0.578551 0.600084
Si Si2 0.902271 0.277136 0.671486
Si Si3 0.099962 0.225251 0.667570
Si Si4 0.190193 0.923557 0.588499
Si Si5 0.130349 0.303475 0.826006
Si Si6 0.480780 0.925486 0.623998
O O1 0.500000 0.605200 0.500000
O O2 0.330583 0.500000 0.643747
O O3 0.336374 0.577689 0.497189
O O4 0.218205 0.626734 0.737479
O O5 0.748738 0.248075 0.770653
O O6 0.000000 0.275618 0.500000
O O7 0.981503 0.235174 0.686379
O O8 0.894643 0.356126 0.711383
O O9 0.250000 0.250000 0.500000
O O10 0.116643 0.145746 0.684130
O O11 0.077842 0.272663 0.773072
O O12 0.359969 0.916900 0.466308
O O13 0.147723 0.000000 0.657759
O O14 0.000000 0.312907 0.000000
O O15 0.500000 0.928863 0.500000
O O16 0.423268 0.000000 0.701472
#
# Coordination Sequence:
#
# PCOD9173478 Si02
#       6
#     8   8   8   8   8   8
#     4  10  20  36  59  85 110 145 190 233 280 340
#     4  11  19  34  59  80 107 146 191 237 279 338
#     4  12  19  35  60  83 110 150 192 237 285 337
#     4  10  18  30  53  85 110 134 183 240 282 326
#     4  12  25  37  54  85 120 153 189 234 288 342
#     4   9  16  26  45  76 106 132 172 230 283 319
#
# _framework density 17.901299000000002
#
# number of rings (size 3 to 8) (size 9 to 14) (size 15 to 20)
#    0.000    1.333    5.000    2.500    0.000    1.000 
#    0.000    0.000    0.000    2.000    0.000    0.000 
#    0.000    0.000    0.000    0.000    0.000    0.000 
#
# Total GULP energy -133904.144106 kJ/mol
# GULP energy per Si atom -5579.339338 kJ/mol
# Density = 1.786055 g / cm^3
# Si number density = 17.901299 Si / 1000 Ang^3
#
#
#
# Elastic Constant Matrix: (Units=GPa)
#
#
# Indices 1 2 3 4 5 6 
#
# 1 106.9413 4.1864 16.3083 0.0013 6.1804 -0.0013
# 2 4.1864 134.8263 25.7430 0.0010 -7.0167 -0.0012
# 3 16.3083 25.7430 74.5722 0.0012 -0.1321 -0.0016
# 4 0.0013 0.0010 0.0012 1.3628 -0.0012 3.6085
# 5 6.1804 -7.0167 -0.1321 -0.0012 16.3371 0.0013
# 6 -0.0013 -0.0012 -0.0016 3.6085 0.0013 29.2806
#
#
#
# Elastic Compliance Matrix: (Units=1/GPa)
#
#
# Indices 1 2 3 4 5 6 
#
# 1 0.009901 -0.000097 -0.002138 -0.000018 -0.003805 0.000003
# 2 -0.000097 0.008133 -0.002780 0.000000 0.003508 0.000000
# 3 -0.002138 -0.002780 0.014837 -0.000016 -0.000265 0.000003
# 4 -0.000018 0.000000 -0.000016 1.089196 0.000096 -0.134233
# 5 -0.003805 0.003508 -0.000265 0.000096 0.064154 -0.000015
# 6 0.000003 0.000000 0.000003 -0.134233 -0.000015 0.050695
#
#
# Mechanical properties :
#
#
# Convention : Reuss Voigt Hill
#
# Bulk Modulus (GPa) = 43.78426 45.42392 44.60409
# Shear Modulus (GPa) = 3.98546 27.40292 15.69419
#
# Velocity S-wave (km/s) = 1.49372 3.91676 2.96414
# Velocity P-wave (km/s) = 5.24278 6.77380 6.05686
#
# Compressibility (1/GPa) = 0.02283926
#
# Stress axis : x y z
#
# Youngs Moduli (GPa) = 101.00298 122.95052 67.40005
#
# Poissons Ratio (x) = 0.01194 0.14413
# Poissons Ratio (y) = 0.00981 0.18739
# Poissons Ratio (z) = 0.21599 0.34183
#
# Static dielectric constant tensor:
#      x y z
#    x 1.605000 0.000000 0.008390 
#    y 0.000000 1.702280 0.000000 
#    z 0.008390 0.000000 1.556680 
# 
# From -- ./inp_files/147909.got.cif
#   From: 2010.05.17/outbox.cif.g08.bks.cpg/sg12_74_cif.got.tgz:147909.got - 2010.06.03 13:09:07.
