data_PCOD9173875
_publ_section_title
;
Structure prediction by ZEFSAII (Michael W. Deem and Ramdas Pophale) SiO2 
 PCOD9173875
Probable space group: C 2/M
;
_chemical_formula_sum "Si O2"
_cell_formula_units_Z 64
_cell_length_a 8.764986
_cell_length_b 21.298332
_cell_length_c 24.167200
_cell_angle_alpha 90.000000
_cell_angle_beta 50.303780
_cell_angle_gamma 90.000000
_cell_volume 3471.353742
_symmetry_space_group_name_H-M "C 2/M"
_symmetry_group_IT_number 12
_symmetry_cell_setting 'monoclinic'
loop_
_space_group_symop_operation_xyz
x,y,z
-x,y,-z
-x,-y,-z
x,-y,z
1/2+x,1/2+y,z
1/2-x,1/2+y,-z
1/2-x,1/2-y,-z
1/2+x,1/2-y,z
loop_
_atom_site_type_symbol
_atom_site_label
_atom_site_fract_x
_atom_site_fract_y
_atom_site_fract_z
Si Si1 0.293411 0.806702 0.576043
Si Si2 0.745188 0.637264 0.221968
Si Si3 0.303133 0.131117 0.731964
Si Si4 0.100872 0.251229 0.332962
Si Si5 0.667419 0.428275 0.654520
Si Si6 0.108371 0.200078 0.148363
Si Si7 0.406865 0.310720 0.079136
Si Si8 0.658157 0.925952 0.157453
O O1 0.500000 0.791809 0.500000
O O2 0.284991 0.779478 0.640695
O O3 0.261766 0.881127 0.588647
O O4 0.095197 0.779565 0.595760
O O5 0.707829 0.699854 0.268599
O O6 0.557318 0.593769 0.280406
O O7 0.742657 0.656530 0.157500
O O8 0.946339 0.600965 0.187816
O O9 0.462413 0.186053 0.686492
O O10 0.283405 0.085617 0.684696
O O11 0.324609 0.090890 0.781631
O O12 0.107127 0.176069 0.780958
O O13 0.674362 0.500000 0.636940
O O14 0.210491 0.267670 0.135557
O O15 0.066594 0.194498 0.092111
O O16 0.328418 0.381801 0.091989
O O17 0.500000 0.288849 0.000000
O O18 0.677952 0.000000 0.142786
#
# Coordination Sequence:
#
# PCOD9173875 Si02
#       8
#     8   8   8   8   8   8   8   8
#     4  10  20  31  46  69  98 133 166 198 240 295
#     4  10  19  33  53  78 101 124 163 213 263 299
#     4   9  18  32  52  77  99 124 161 210 263 303
#     4  10  18  31  51  72  98 125 158 209 257 296
#     4   9  18  32  49  70  98 130 164 204 248 296
#     4  10  20  34  56  80 102 126 162 215 262 299
#     4  11  22  36  54  76 105 137 169 202 244 302
#     4  11  21  33  52  75 103 136 168 205 249 303
#
# _framework density 18.436610000000002
#
# number of rings (size 3 to 8) (size 9 to 14) (size 15 to 20)
#    0.000    2.000    0.000    6.000    0.000    0.500 
#    0.000    0.625    0.000    0.750    0.000    0.000 
#    0.000   18.000    0.000    0.000    0.000    0.000 
#
# Total GULP energy -178136.953204 kJ/mol
# GULP energy per Si atom -5566.779788 kJ/mol
# Density = 1.839465 g / cm^3
# Si number density = 18.436610 Si / 1000 Ang^3
#
#
#
# Elastic Constant Matrix: (Units=GPa)
#
#
# Indices 1 2 3 4 5 6 
#
# 1 71.5164 41.7527 12.0381 0.0000 -0.0862 -0.0001
# 2 41.7527 119.6950 5.4520 0.0000 -8.4076 0.0000
# 3 12.0381 5.4520 30.2146 0.0000 5.9958 0.0000
# 4 0.0000 0.0000 0.0000 8.6087 0.0000 1.0005
# 5 -0.0862 -8.4076 5.9958 0.0000 15.0879 0.0000
# 6 -0.0001 0.0000 0.0000 1.0005 0.0000 17.7836
#
#
#
# Elastic Compliance Matrix: (Units=1/GPa)
#
#
# Indices 1 2 3 4 5 6 
#
# 1 0.018696 -0.006312 -0.006115 0.000000 -0.000980 0.000000
# 2 -0.006312 0.011041 -0.000750 0.000000 0.006415 0.000000
# 3 -0.006115 -0.000750 0.038820 0.000000 -0.015880 0.000000
# 4 0.000000 0.000000 0.000000 0.116927 0.000000 -0.006578
# 5 -0.000980 0.006415 -0.015880 0.000000 0.076158 0.000000
# 6 0.000000 0.000000 0.000000 -0.006578 0.000000 0.056602
#
#
# Mechanical properties :
#
#
# Convention : Reuss Voigt Hill
#
# Bulk Modulus (GPa) = 23.69596 37.76794 30.73195
# Shear Modulus (GPa) = 13.94057 19.10825 16.52441
#
# Velocity S-wave (km/s) = 2.75277 3.22286 2.99705
# Velocity P-wave (km/s) = 4.79419 5.86335 5.35552
#
# Compressibility (1/GPa) = 0.04220129
#
# Stress axis : x y z
#
# Youngs Moduli (GPa) = 53.48724 90.57066 25.76015
#
# Poissons Ratio (x) = 0.57168 0.15753
# Poissons Ratio (y) = 0.33761 0.01933
# Poissons Ratio (z) = 0.32710 0.06796
#
# Static dielectric constant tensor:
#      x y z
#    x 1.685780 0.000000 -0.005150 
#    y 0.000000 1.642520 0.000000 
#    z -0.005150 0.000000 1.657760 
# 
# From -- ./inp_files/333739.got.cif
#   From: 2010.05.17/outbox.cif.g08.bks.cpg/sg12_167_cif.got.tgz:333739.got - 2010.06.03 13:09:07.
