data_PCOD9173073
_publ_section_title
;
Structure prediction by ZEFSAII (Michael W. Deem and Ramdas Pophale) SiO2 
 PCOD9173073
Probable space group: C 2/M
;
_chemical_formula_sum "Si O2"
_cell_formula_units_Z 48
_cell_length_a 18.044035
_cell_length_b 9.037514
_cell_length_c 25.217818
_cell_angle_alpha 90.000000
_cell_angle_beta 146.676349
_cell_angle_gamma 90.000000
_cell_volume 2259.193015
_symmetry_space_group_name_H-M "C 2/M"
_symmetry_group_IT_number 12
_symmetry_cell_setting 'monoclinic'
loop_
_space_group_symop_operation_xyz
x,y,z
-x,y,-z
-x,-y,-z
x,-y,z
1/2+x,1/2+y,z
1/2-x,1/2+y,-z
1/2-x,1/2-y,-z
1/2+x,1/2-y,z
loop_
_atom_site_type_symbol
_atom_site_label
_atom_site_fract_x
_atom_site_fract_y
_atom_site_fract_z
Si Si1 0.230480 0.675803 0.149455
Si Si2 0.742302 0.166897 0.939804
Si Si3 0.182076 0.167102 0.224540
Si Si4 0.500142 0.831063 0.558065
Si Si5 0.024424 0.681479 0.344052
Si Si6 0.420104 0.834230 0.734905
O O1 0.223612 0.500000 0.142024
O O2 0.190822 0.748509 0.069646
O O3 0.154190 0.735021 0.155956
O O4 0.384239 0.731832 0.250919
O O5 0.582378 0.157904 0.832488
O O6 0.794839 0.000000 0.975419
O O7 0.750000 0.250000 0.000000
O O8 0.343059 0.164247 0.331329
O O9 0.121687 0.229580 0.242535
O O10 0.138024 0.000000 0.188025
O O11 0.500000 0.756774 0.500000
O O12 0.428681 0.774155 0.568847
O O13 0.449218 0.000000 0.519914
O O14 0.002418 0.500000 0.331143
O O15 0.113807 0.712789 0.345533
O O16 0.366360 0.000000 0.712530
#
# Coordination Sequence:
#
# PCOD9173073 Si02
#       6
#     8   8   8   8   8   8
#     4  10  18  30  50  72  96 128 163 198 239 288
#     4  10  20  35  54  76 101 128 160 197 239 286
#     4  10  19  31  49  72  97 127 165 205 242 286
#     4   8  14  27  48  71  94 125 165 204 243 288
#     4   8  15  29  48  69  94 127 165 200 238 289
#     4   9  18  32  49  70  98 129 159 196 242 288
#
# _framework density 21.246523
#
# number of rings (size 3 to 8) (size 9 to 14) (size 15 to 20)
#    0.000    2.833    0.000    4.500    0.000    3.333 
#    0.000    1.667    0.000   17.500    0.000    0.000 
#    0.000    0.000    0.000    0.000    0.000    0.000 
#
# Total GULP energy -133709.784839 kJ/mol
# GULP energy per Si atom -5571.241035 kJ/mol
# Density = 2.119817 g / cm^3
# Si number density = 21.246523 Si / 1000 Ang^3
#
#
#
# Elastic Constant Matrix: (Units=GPa)
#
#
# Indices 1 2 3 4 5 6 
#
# 1 124.5489 67.9350 45.9947 0.0000 -63.8710 0.0000
# 2 67.9350 122.2314 33.0926 0.0000 -40.6498 0.0000
# 3 45.9947 33.0926 75.9934 0.0000 -43.8756 0.0000
# 4 0.0000 0.0000 0.0000 11.5366 0.0000 -8.8592
# 5 -63.8710 -40.6498 -43.8756 0.0000 65.6586 0.0000
# 6 0.0000 0.0000 0.0000 -8.8592 0.0000 30.3394
#
#
#
# Elastic Compliance Matrix: (Units=1/GPa)
#
#
# Indices 1 2 3 4 5 6 
#
# 1 0.018499 -0.005372 -0.000631 0.000000 0.014247 0.000000
# 2 -0.005372 0.011943 -0.001136 0.000000 0.001409 0.000000
# 3 -0.000631 -0.001136 0.021614 0.000000 0.013127 0.000000
# 4 0.000000 0.000000 0.000000 0.111736 0.000000 0.032627
# 5 0.014247 0.001409 0.013127 0.000000 0.038734 0.000000
# 6 0.000000 0.000000 0.000000 0.032627 0.000000 0.042488
#
#
# Mechanical properties :
#
#
# Convention : Reuss Voigt Hill
#
# Bulk Modulus (GPa) = 26.47036 68.53538 47.50287
# Shear Modulus (GPa) = 18.39019 33.22367 25.80693
#
# Velocity S-wave (km/s) = 2.94524 3.95868 3.48895
# Velocity P-wave (km/s) = 4.90424 7.29535 6.21586
#
# Compressibility (1/GPa) = 0.03777810
#
# Stress axis : x y z
#
# Youngs Moduli (GPa) = 54.05822 83.72949 46.26576
#
# Poissons Ratio (x) = 0.44983 0.02919
# Poissons Ratio (y) = 0.29042 0.05254
# Poissons Ratio (z) = 0.03410 0.09509
#
# Static dielectric constant tensor:
#      x y z
#    x 1.836140 0.000000 -0.010560 
#    y 0.000000 1.744790 0.000000 
#    z -0.010560 0.000000 1.825450 
# 
# From -- ./inp_files/221591.got.cif
#   From: 2010.05.17/outbox.cif.g08.bks.cpg/sg12_111_cif.got.tgz:221591.got - 2010.06.03 13:09:07.
