data_PCOD9173605
_publ_section_title
;
Structure prediction by ZEFSAII (Michael W. Deem and Ramdas Pophale) SiO2 
 PCOD9173605
Probable space group: C 2/M
;
_chemical_formula_sum "Si O2"
_cell_formula_units_Z 64
_cell_length_a 11.264646
_cell_length_b 23.825334
_cell_length_c 14.865922
_cell_angle_alpha 90.000000
_cell_angle_beta 79.909333
_cell_angle_gamma 90.000000
_cell_volume 3928.060011
_symmetry_space_group_name_H-M "C 2/M"
_symmetry_group_IT_number 12
_symmetry_cell_setting 'monoclinic'
loop_
_space_group_symop_operation_xyz
x,y,z
-x,y,-z
-x,-y,-z
x,-y,z
1/2+x,1/2+y,z
1/2-x,1/2+y,-z
1/2-x,1/2-y,-z
1/2+x,1/2-y,z
loop_
_atom_site_type_symbol
_atom_site_label
_atom_site_fract_x
_atom_site_fract_y
_atom_site_fract_z
Si Si1 0.224421 0.563029 0.496614
Si Si2 0.285479 0.253363 0.343467
Si Si3 0.606090 0.563202 0.700325
Si Si4 0.934651 0.173567 0.192964
Si Si5 0.709067 0.672651 0.204507
Si Si6 0.327421 0.436534 0.681014
Si Si7 0.863291 0.258023 0.053385
Si Si8 0.869299 0.319385 0.496373
O O1 0.173719 0.500000 0.503712
O O2 0.306555 0.569126 0.396946
O O3 0.300861 0.569720 0.578566
O O4 0.132264 0.613878 0.509079
O O5 0.393852 0.284000 0.277643
O O6 0.204704 0.221731 0.280353
O O7 0.216674 0.299053 0.412176
O O8 0.326465 0.206646 0.408682
O O9 0.622492 0.500000 0.735046
O O10 0.616927 0.612881 0.771359
O O11 0.470179 0.567320 0.680071
O O12 0.880512 0.201387 0.110631
O O13 0.079875 0.170439 0.171765
O O14 0.729115 0.613633 0.252841
O O15 0.816014 0.692115 0.124687
O O16 0.288413 0.500000 0.711787
O O17 0.750000 0.250000 0.000000
O O18 0.000000 0.269716 0.000000
O O19 0.000000 0.296203 0.500000
#
# Coordination Sequence:
#
# PCOD9173605 Si02
#       8
#     8   8   8   8   8   8   8   8
#     4  10  18  31  47  69 103 145 186 220 256 299
#     4  10  20  33  46  72 100 143 175 223 265 312
#     4   9  17  30  50  77 107 140 176 219 264 303
#     4  10  19  33  56  79 105 134 175 221 268 325
#     4  10  19  33  56  79 104 134 176 219 272 324
#     4   9  17  30  50  77 106 139 179 220 259 306
#     4  11  22  39  58  85 111 138 168 215 277 342
#     4  11  21  32  44  66 105 141 185 224 265 310
#
# _framework density 16.293030000000002
#
# number of rings (size 3 to 8) (size 9 to 14) (size 15 to 20)
#    0.000    2.000    3.750    1.125    0.000    1.750 
#    0.000    0.000    0.000    1.500    0.000    0.000 
#    0.000    0.000    0.000    0.000    0.000    0.000 
#
# Total GULP energy -178182.022526 kJ/mol
# GULP energy per Si atom -5568.188204 kJ/mol
# Density = 1.625595 g / cm^3
# Si number density = 16.293030 Si / 1000 Ang^3
#
#
#
# Elastic Constant Matrix: (Units=GPa)
#
#
# Indices 1 2 3 4 5 6 
#
# 1 60.9802 23.1872 32.8156 0.0000 2.1428 0.0000
# 2 23.1872 107.3768 34.6671 0.0000 0.0869 0.0000
# 3 32.8156 34.6671 69.4152 0.0000 -0.6439 0.0000
# 4 0.0000 0.0000 0.0000 26.0968 0.0000 0.9127
# 5 2.1428 0.0869 -0.6439 0.0000 18.9189 0.0000
# 6 0.0000 0.0000 0.0000 0.9127 0.0000 20.8682
#
#
#
# Elastic Compliance Matrix: (Units=1/GPa)
#
#
# Indices 1 2 3 4 5 6 
#
# 1 0.022399 -0.001678 -0.009778 0.000000 -0.002862 0.000000
# 2 -0.001678 0.011230 -0.004816 0.000000 -0.000025 0.000000
# 3 -0.009778 -0.004816 0.021451 0.000000 0.001860 0.000000
# 4 0.000000 0.000000 0.000000 0.038378 0.000000 -0.001678
# 5 -0.002862 -0.000025 0.001860 0.000000 0.053245 0.000000
# 6 0.000000 0.000000 0.000000 -0.001678 0.000000 0.047993
#
#
# Mechanical properties :
#
#
# Convention : Reuss Voigt Hill
#
# Bulk Modulus (GPa) = 44.37008 46.56798 45.46903
# Shear Modulus (GPa) = 21.29927 22.98359 22.14143
#
# Velocity S-wave (km/s) = 3.61953 3.75992 3.69039
# Velocity P-wave (km/s) = 6.69027 6.89151 6.79164
#
# Compressibility (1/GPa) = 0.02253771
#
# Stress axis : x y z
#
# Youngs Moduli (GPa) = 44.64486 89.04682 46.61876
#
# Poissons Ratio (x) = 0.14940 0.45582
# Poissons Ratio (y) = 0.07491 0.22449
# Poissons Ratio (z) = 0.43652 0.42881
#
# Static dielectric constant tensor:
#      x y z
#    x 1.527480 0.000000 0.002120 
#    y 0.000000 1.561990 0.000000 
#    z 0.002120 0.000000 1.549960 
# 
# From -- ./inp_files/199885.got.cif
#   From: 2010.05.17/outbox.cif.g08.bks.cpg/sg12_100_cif.got.tgz:199885.got - 2010.06.03 13:09:07.
