data_PCOD9173202
_publ_section_title
;
Structure prediction by ZEFSAII (Michael W. Deem and Ramdas Pophale) SiO2 
 PCOD9173202
Probable space group: C 2/M
;
_chemical_formula_sum "Si O2"
_cell_formula_units_Z 64
_cell_length_a 20.830987
_cell_length_b 18.336723
_cell_length_c 24.731148
_cell_angle_alpha 90.000000
_cell_angle_beta 156.691041
_cell_angle_gamma 90.000000
_cell_volume 3737.919519
_symmetry_space_group_name_H-M "C 2/M"
_symmetry_group_IT_number 12
_symmetry_cell_setting 'monoclinic'
loop_
_space_group_symop_operation_xyz
x,y,z
-x,y,-z
-x,-y,-z
x,-y,z
1/2+x,1/2+y,z
1/2-x,1/2+y,-z
1/2-x,1/2-y,-z
1/2+x,1/2-y,z
loop_
_atom_site_type_symbol
_atom_site_label
_atom_site_fract_x
_atom_site_fract_y
_atom_site_fract_z
Si Si1 0.169214 0.582117 0.014972
Si Si2 0.710221 0.844134 0.935449
Si Si3 0.177909 0.362973 0.249903
Si Si4 0.781736 0.084482 0.216208
Si Si5 0.310396 0.213007 0.490841
Si Si6 0.864630 0.129488 0.497692
Si Si7 0.564759 0.085433 0.344299
Si Si8 0.476855 0.728910 0.808416
O O1 0.230843 0.500000 0.063602
O O2 0.209727 0.614900 0.104680
O O3 0.238310 0.621786 0.016444
O O4 0.975960 0.584989 0.859509
O O5 0.607043 0.896919 0.817395
O O6 0.586613 0.777275 0.851822
O O7 0.888416 0.818204 0.056090
O O8 0.229452 0.370418 0.228147
O O9 0.319458 0.384459 0.400607
O O10 0.112286 0.284682 0.219874
O O11 0.975181 0.087985 0.361157
O O12 0.727870 0.000000 0.181597
O O13 0.250000 0.250000 0.500000
O O14 0.394230 0.283319 0.527835
O O15 0.408770 0.141902 0.585665
O O16 0.160353 0.192721 0.335306
O O17 0.708676 0.105384 0.412631
O O18 0.576247 0.000000 0.366760
#
# Coordination Sequence:
#
# PCOD9173202 Si02
#       8
#     8   8   8   8   8   8   8   8
#     4  10  20  32  44  65  99 135 171 209 251 294
#     4  10  18  30  51  70  92 130 175 220 256 307
#     4  10  19  35  49  67  95 136 177 214 243 293
#     4  11  23  32  47  74 106 144 179 209 241 292
#     4   9  17  32  49  69  97 131 168 217 261 304
#     4  10  20  34  49  70 100 139 175 211 244 298
#     4  11  20  32  50  75 105 135 169 214 265 312
#     4   9  18  32  50  70  90 128 177 218 262 295
#
# _framework density 17.121822999999999
#
# number of rings (size 3 to 8) (size 9 to 14) (size 15 to 20)
#    0.000    2.000    5.000    1.875    3.500    4.000 
#    0.000    0.625    0.000    0.000    0.000    0.000 
#    0.000   11.000    0.000    0.000    0.000    0.750 
#
# Total GULP energy -178246.481141 kJ/mol
# GULP energy per Si atom -5570.202536 kJ/mol
# Density = 1.708285 g / cm^3
# Si number density = 17.121823 Si / 1000 Ang^3
#
#
#
# Elastic Constant Matrix: (Units=GPa)
#
#
# Indices 1 2 3 4 5 6 
#
# 1 34.1142 13.7597 32.0626 -0.0113 -14.8553 0.0031
# 2 13.7597 73.6112 36.7148 -0.0207 -14.4407 -0.0005
# 3 32.0626 36.7148 67.0210 -0.0068 -19.0503 -0.0017
# 4 -0.0113 -0.0207 -0.0068 19.7111 -0.0090 -0.2173
# 5 -14.8553 -14.4407 -19.0503 -0.0090 24.4176 0.0004
# 6 0.0031 -0.0005 -0.0017 -0.2173 0.0004 10.2467
#
#
#
# Elastic Compliance Matrix: (Units=1/GPa)
#
#
# Indices 1 2 3 4 5 6 
#
# 1 0.060375 0.005750 -0.026503 0.000040 0.019454 -0.000022
# 2 0.005750 0.019539 -0.011790 0.000022 0.005855 -0.000002
# 3 -0.026503 -0.011790 0.035328 -0.000013 0.004465 0.000013
# 4 0.000040 0.000022 -0.000013 0.050745 0.000046 0.001076
# 5 0.019454 0.005855 0.004465 0.000046 0.059736 -0.000006
# 6 -0.000022 -0.000002 0.000013 0.001076 -0.000006 0.097615
#
#
# Mechanical properties :
#
#
# Convention : Reuss Voigt Hill
#
# Bulk Modulus (GPa) = 19.93821 37.75783 28.84802
# Shear Modulus (GPa) = 12.34127 17.02236 14.68182
#
# Velocity S-wave (km/s) = 2.68767 3.15650 2.93147
# Velocity P-wave (km/s) = 4.61537 5.94853 5.32384
#
# Compressibility (1/GPa) = 0.05015496
#
# Stress axis : x y z
#
# Youngs Moduli (GPa) = 16.56309 51.17873 28.30626
#
# Poissons Ratio (x) = -0.29427 0.75021
# Poissons Ratio (y) = -0.09524 0.33374
# Poissons Ratio (z) = 0.43898 0.60341
#
# Static dielectric constant tensor:
#      x y z
#    x 1.576480 0.000010 -0.005610 
#    y 0.000010 1.737850 0.000010 
#    z -0.005610 0.000010 1.616690 
# 
# From -- ./inp_files/368281.got.cif
#   From: 2010.05.17/outbox.cif.g08.bks.cpg/sg12_185_cif.got.tgz:368281.got - 2010.06.03 13:09:07.
