data_PCOD9173027
_publ_section_title
;
Structure prediction by ZEFSAII (Michael W. Deem and Ramdas Pophale) SiO2 
 PCOD9173027
Probable space group: C 2/M
;
_chemical_formula_sum "Si O2"
_cell_formula_units_Z 50
_cell_length_a 17.650123
_cell_length_b 9.370122
_cell_length_c 19.298736
_cell_angle_alpha 90.000000
_cell_angle_beta 134.693254
_cell_angle_gamma 90.000000
_cell_volume 2268.921862
_symmetry_space_group_name_H-M "C 2/M"
_symmetry_group_IT_number 12
_symmetry_cell_setting 'monoclinic'
loop_
_space_group_symop_operation_xyz
x,y,z
-x,y,-z
-x,-y,-z
x,-y,z
1/2+x,1/2+y,z
1/2-x,1/2+y,-z
1/2-x,1/2-y,-z
1/2+x,1/2-y,z
loop_
_atom_site_type_symbol
_atom_site_label
_atom_site_fract_x
_atom_site_fract_y
_atom_site_fract_z
Si Si1 0.188482 0.652361 0.575328
Si Si2 0.060592 0.161085 0.731639
Si Si3 0.642241 0.662003 0.941520
Si Si4 0.000000 0.500000 0.500000
Si Si5 0.052459 0.665197 0.136494
Si Si6 0.746446 0.165451 0.775750
Si Si7 0.132155 0.661618 0.348833
O O1 0.240014 0.500000 0.586449
O O2 0.063363 0.622565 0.495069
O O3 0.211842 0.661936 0.672781
O O4 0.248342 0.778739 0.576840
O O5 0.091032 0.151483 0.832345
O O6 0.153203 0.254606 0.756453
O O7 0.947265 0.239407 0.659211
O O8 0.057681 0.000000 0.701210
O O9 0.661255 0.500000 0.978684
O O10 0.558126 0.748698 0.933967
O O11 0.750000 0.750000 0.000000
O O12 0.040582 0.500000 0.108039
O O13 0.143203 0.747695 0.151985
O O14 0.092486 0.664087 0.242819
O O15 0.757313 0.000000 0.804440
O O16 0.126047 0.500000 0.369514
#
# Coordination Sequence:
#
# PCOD9173027 Si02
#       7
#     8   8   8   2   8   8   8
#     4   8  16  30  51  74  97 132 160 196 242 294
#     4  10  20  32  49  74 101 131 166 207 251 298
#     4  10  20  34  51  71  98 133 169 206 251 301
#     4   8  16  32  54  76 100 136 164 190 242 308
#     4   9  17  30  49  71  99 128 163 209 250 293
#     4  10  18  30  49  76 101 126 161 210 250 286
#     4   9  16  28  48  75  98 124 167 211 244 281
#
# _framework density 22.036898000000001
#
# number of rings (size 3 to 8) (size 9 to 14) (size 15 to 20)
#    0.480    2.240    0.000    2.400    0.000    6.400 
#    0.000    1.200    0.000    5.760    0.000    0.000 
#    0.000    0.000    0.000    0.000    0.000    0.000 
#
# Total GULP energy -139265.622253 kJ/mol
# GULP energy per Si atom -5570.624890 kJ/mol
# Density = 2.198674 g / cm^3
# Si number density = 22.036898 Si / 1000 Ang^3
#
#
#
# Elastic Constant Matrix: (Units=GPa)
#
#
# Indices 1 2 3 4 5 6 
#
# 1 108.8931 84.8723 46.6933 0.0000 39.9082 0.0000
# 2 84.8723 218.2056 39.9201 0.0000 56.1632 0.0000
# 3 46.6933 39.9201 56.9240 0.0000 22.9465 0.0000
# 4 0.0000 0.0000 0.0000 -31.4578 0.0000 27.1396
# 5 39.9082 56.1632 22.9465 0.0000 63.2424 0.0000
# 6 0.0000 0.0000 0.0000 27.1396 0.0000 34.2929
#
#
#
# Elastic Compliance Matrix: (Units=1/GPa)
#
#
# Indices 1 2 3 4 5 6 
#
# 1 0.018496 -0.004205 -0.010569 0.000000 -0.004103 0.000000
# 2 -0.004205 0.007187 -0.000103 0.000000 -0.003692 0.000000
# 3 -0.010569 -0.000103 0.027624 0.000000 -0.003262 0.000000
# 4 0.000000 0.000000 0.000000 -0.018891 0.000000 0.014950
# 5 -0.004103 -0.003692 -0.003262 0.000000 0.022864 0.000000
# 6 0.000000 0.000000 0.000000 0.014950 0.000000 0.017329
#
#
# Mechanical properties :
#
#
# Convention : Reuss Voigt Hill
#
# Bulk Modulus (GPa) = 42.45646 80.77713 61.61680
# Shear Modulus (GPa) = 44.55714 27.38463 35.97088
#
# Velocity S-wave (km/s) = 4.50147 3.52898 4.04456
# Velocity P-wave (km/s) = 6.80629 7.30342 7.05923
#
# Compressibility (1/GPa) = 0.02355354
#
# Stress axis : x y z
#
# Youngs Moduli (GPa) = 54.06512 139.13204 36.19997
#
# Poissons Ratio (x) = 0.58498 0.38261
# Poissons Ratio (y) = 0.22732 0.00374
# Poissons Ratio (z) = 0.57144 0.01436
#
# Static dielectric constant tensor:
#      x y z
#    x 1.779910 0.000000 -0.064230 
#    y 0.000000 1.794990 0.000000 
#    z -0.064230 0.000000 1.890080 
# 
# From -- ./inp_files/377454.got.cif
#   From: 2010.05.17/outbox.cif.g08.bks.cpg/sg12_189_cif.got.tgz:377454.got - 2010.06.03 13:09:07.
