data_PCOD9173258
_publ_section_title
;
Structure prediction by ZEFSAII (Michael W. Deem and Ramdas Pophale) SiO2 
 PCOD9173258
Probable space group: C 2/M
;
_chemical_formula_sum "Si O2"
_cell_formula_units_Z 56
_cell_length_a 28.542367
_cell_length_b 7.933764
_cell_length_c 18.982136
_cell_angle_alpha 90.000000
_cell_angle_beta 32.611747
_cell_angle_gamma 90.000000
_cell_volume 2316.634821
_symmetry_space_group_name_H-M "C 2/M"
_symmetry_group_IT_number 12
_symmetry_cell_setting 'monoclinic'
loop_
_space_group_symop_operation_xyz
x,y,z
-x,y,-z
-x,-y,-z
x,-y,z
1/2+x,1/2+y,z
1/2-x,1/2+y,-z
1/2-x,1/2-y,-z
1/2+x,1/2-y,z
loop_
_atom_site_type_symbol
_atom_site_label
_atom_site_fract_x
_atom_site_fract_y
_atom_site_fract_z
Si Si1 0.762566 0.801863 0.903915
Si Si2 0.876156 0.192257 0.638961
Si Si3 0.774137 0.799532 0.548234
Si Si4 0.520475 0.693086 0.048350
Si Si5 0.569320 0.704991 0.129648
Si Si6 0.047670 0.794348 0.597840
Si Si7 0.717946 0.685980 0.758647
O O1 0.667166 0.764703 0.994660
O O2 0.778571 0.000000 0.883013
O O3 0.750000 0.750000 0.000000
O O4 0.840157 0.727188 0.757074
O O5 0.942489 0.264416 0.495943
O O6 0.786401 0.188915 0.706835
O O7 0.903344 0.000000 0.619338
O O8 0.750000 0.750000 0.500000
O O9 0.867733 0.745735 0.462217
O O10 0.707291 0.725105 0.689718
O O11 0.772469 0.000000 0.554190
O O12 0.484569 0.500000 0.091755
O O13 0.507098 0.762764 0.143790
O O14 0.500000 0.780173 0.000000
O O15 0.624598 0.683294 0.911336
O O16 0.568474 0.500000 0.129107
O O17 0.533420 0.758187 0.251473
O O18 0.046650 0.000000 0.595364
O O19 0.757238 0.500000 0.717404
#
# Coordination Sequence:
#
# PCOD9173258 Si02
#       7
#     8   8   8   8   8   8   8
#     4  11  23  39  62  87 115 145 183 231 285 345
#     4   9  18  36  57  79 109 144 181 225 272 327
#     4  10  20  33  49  73 105 145 194 239 280 328
#     4   9  18  29  48  78 111 147 188 228 269 326
#     4  10  19  36  60  84 112 146 189 237 280 330
#     4   8  17  33  56  79 104 143 187 228 277 333
#     4  10  18  30  51  76 104 141 184 229 276 327
#
# _framework density 24.172995
#
# number of rings (size 3 to 8) (size 9 to 14) (size 15 to 20)
#    0.000    2.429    1.429    2.143    2.000    0.571 
#    0.000    4.286    0.000    6.429    0.000    0.000 
#    0.000    0.000    0.000    0.000    0.000    0.000 
#
# Total GULP energy -156135.740357 kJ/mol
# GULP energy per Si atom -5576.276441 kJ/mol
# Density = 2.411798 g / cm^3
# Si number density = 24.172995 Si / 1000 Ang^3
#
#
#
# Elastic Constant Matrix: (Units=GPa)
#
#
# Indices 1 2 3 4 5 6 
#
# 1 89.1166 7.2215 38.2572 0.0121 41.0732 -0.0084
# 2 7.2215 43.5083 10.3277 0.0126 -0.1517 -0.0111
# 3 38.2572 10.3277 169.8151 0.0103 44.4811 -0.0084
# 4 0.0121 0.0126 0.0103 11.5488 -0.0027 0.5534
# 5 41.0732 -0.1517 44.4811 -0.0027 48.2628 0.0002
# 6 -0.0084 -0.0111 -0.0084 0.5534 0.0002 15.4151
#
#
#
# Elastic Compliance Matrix: (Units=1/GPa)
#
#
# Indices 1 2 3 4 5 6 
#
# 1 0.018902 -0.003243 0.000204 -0.000021 -0.016285 0.000009
# 2 -0.003243 0.023999 -0.001940 -0.000021 0.004623 0.000015
# 3 0.000204 -0.001940 0.007920 -0.000007 -0.007479 0.000003
# 4 -0.000021 -0.000021 -0.000007 0.086739 0.000029 -0.003114
# 5 -0.016285 0.004623 -0.007479 0.000029 0.041486 -0.000011
# 6 0.000009 0.000015 0.000003 -0.003114 -0.000011 0.064983
#
#
# Mechanical properties :
#
#
# Convention : Reuss Voigt Hill
#
# Bulk Modulus (GPa) = 24.47130 46.00586 35.23858
# Shear Modulus (GPa) = 18.68417 31.48758 25.08588
#
# Velocity S-wave (km/s) = 2.78319 3.61306 3.22493
# Velocity P-wave (km/s) = 4.52477 6.03977 5.33631
#
# Compressibility (1/GPa) = 0.04086420
#
# Stress axis : x y z
#
# Youngs Moduli (GPa) = 52.90529 41.66852 126.26586
#
# Poissons Ratio (x) = 0.13511 -0.02581
# Poissons Ratio (y) = 0.17155 0.24495
# Poissons Ratio (z) = -0.01082 0.08084
#
# Static dielectric constant tensor:
#      x y z
#    x 2.017020 0.000000 0.049560 
#    y 0.000000 1.910510 0.000000 
#    z 0.049560 0.000000 1.959850 
# 
# From -- ./inp_files/281754.got.cif
#   From: 2010.05.17/outbox.cif.g08.bks.cpg/sg12_141_cif.got.tgz:281754.got - 2010.06.03 13:09:07.
