data_PCOD9173927
_publ_section_title
;
Structure prediction by ZEFSAII (Michael W. Deem and Ramdas Pophale) SiO2 
 PCOD9173927
Probable space group: C 2/M
;
_chemical_formula_sum "Si O2"
_cell_formula_units_Z 48
_cell_length_a 7.492505
_cell_length_b 23.531779
_cell_length_c 23.589007
_cell_angle_alpha 90.000000
_cell_angle_beta 35.295436
_cell_angle_gamma 90.000000
_cell_volume 2403.053534
_symmetry_space_group_name_H-M "C 2/M"
_symmetry_group_IT_number 12
_symmetry_cell_setting 'monoclinic'
loop_
_space_group_symop_operation_xyz
x,y,z
-x,y,-z
-x,-y,-z
x,-y,z
1/2+x,1/2+y,z
1/2-x,1/2+y,-z
1/2-x,1/2-y,-z
1/2+x,1/2-y,z
loop_
_atom_site_type_symbol
_atom_site_label
_atom_site_fract_x
_atom_site_fract_y
_atom_site_fract_z
Si Si1 0.983540 0.379880 0.270322
Si Si2 0.285684 0.282554 0.136737
Si Si3 0.051338 0.433898 0.840776
Si Si4 0.768511 0.432655 0.678664
Si Si5 0.092636 0.674165 0.063304
Si Si6 0.619935 0.564643 0.534084
O O1 0.071262 0.314347 0.237079
O O2 0.160732 0.402408 0.279953
O O3 0.067318 0.413136 0.190151
O O4 0.622680 0.394089 0.373301
O O5 0.181548 0.304498 0.102810
O O6 0.297602 0.214507 0.130677
O O7 0.636825 0.306934 0.049127
O O8 0.980803 0.500000 0.867392
O O9 0.421765 0.425185 0.747161
O O10 0.933983 0.392854 0.921567
O O11 0.817535 0.500000 0.675766
O O12 0.026080 0.416593 0.565053
O O13 0.500000 0.561227 0.500000
O O14 0.601427 0.500000 0.562957
#
# Coordination Sequence:
#
# PCOD9173927 Si02
#       6
#     8   8   8   8   8   8
#     4  10  18  31  51  76 102 133 170 210 253 295
#     4   9  19  34  55  76  96 133 174 212 251 302
#     4  10  20  33  51  77 107 133 165 213 258 303
#     4   9  18  31  49  76 106 138 171 205 252 303
#     4   9  19  36  53  77 100 130 175 210 254 304
#     4   8  14  27  47  72 103 135 170 207 244 299
#
# _framework density 19.974585999999999
#
# number of rings (size 3 to 8) (size 9 to 14) (size 15 to 20)
#    0.000    2.833    0.000    2.500    2.333    0.667 
#    0.000   10.833    0.000    3.000    4.333    0.000 
#    0.000    0.000    0.000    0.000    0.000    0.000 
#
# Total GULP energy -133701.401378 kJ/mol
# GULP energy per Si atom -5570.891724 kJ/mol
# Density = 1.992912 g / cm^3
# Si number density = 19.974586 Si / 1000 Ang^3
#
#
#
# Elastic Constant Matrix: (Units=GPa)
#
#
# Indices 1 2 3 4 5 6 
#
# 1 57.0811 28.2995 8.9270 -0.0001 7.9867 0.0000
# 2 28.2995 83.9851 23.0370 -0.0001 12.7095 0.0000
# 3 8.9270 23.0370 51.1656 -0.0009 12.8579 -0.0004
# 4 -0.0001 -0.0001 -0.0009 35.2225 0.0000 3.1395
# 5 7.9867 12.7095 12.8579 0.0000 16.8291 -0.0001
# 6 0.0000 0.0000 -0.0004 3.1395 -0.0001 14.5650
#
#
#
# Elastic Compliance Matrix: (Units=1/GPa)
#
#
# Indices 1 2 3 4 5 6 
#
# 1 0.021464 -0.006540 0.000642 0.000000 -0.005737 0.000000
# 2 -0.006540 0.016260 -0.004795 0.000000 -0.005513 0.000000
# 3 0.000642 -0.004795 0.025690 0.000001 -0.016312 0.000001
# 4 0.000000 0.000000 0.000001 0.028947 0.000000 -0.006240
# 5 -0.005737 -0.005513 -0.016312 0.000000 0.078770 0.000000
# 6 0.000000 0.000000 0.000001 -0.006240 0.000000 0.070003
#
#
# Mechanical properties :
#
#
# Convention : Reuss Voigt Hill
#
# Bulk Modulus (GPa) = 23.79369 34.75095 29.27232
# Shear Modulus (GPa) = 18.08127 22.12119 20.10123
#
# Velocity S-wave (km/s) = 3.01194 3.33147 3.17573
# Velocity P-wave (km/s) = 4.90240 5.67747 5.30411
#
# Compressibility (1/GPa) = 0.04202794
#
# Stress axis : x y z
#
# Youngs Moduli (GPa) = 46.59004 61.50052 38.92517
#
# Poissons Ratio (x) = 0.40222 -0.02497
# Poissons Ratio (y) = 0.30471 0.18663
# Poissons Ratio (z) = -0.02989 0.29487
#
# Static dielectric constant tensor:
#      x y z
#    x 1.790580 0.000000 -0.035350 
#    y 0.000000 1.737650 0.000000 
#    z -0.035350 0.000000 1.756990 
# 
# From -- ./inp_files/258818.got.cif
#   From: 2010.05.17/outbox.cif.g08.bks.cpg/sg12_130_cif.got.tgz:258818.got - 2010.06.03 13:09:07.
