data_PCOD9173735
_publ_section_title
;
Structure prediction by ZEFSAII (Michael W. Deem and Ramdas Pophale) SiO2 
 PCOD9173735
Probable space group: C 2/M
;
_chemical_formula_sum "Si O2"
_cell_formula_units_Z 48
_cell_length_a 24.181208
_cell_length_b 24.272820
_cell_length_c 5.259576
_cell_angle_alpha 90.000000
_cell_angle_beta 108.017432
_cell_angle_gamma 90.000000
_cell_volume 2935.704469
_symmetry_space_group_name_H-M "C 2/M"
_symmetry_group_IT_number 12
_symmetry_cell_setting 'monoclinic'
loop_
_space_group_symop_operation_xyz
x,y,z
-x,y,-z
-x,-y,-z
x,-y,z
1/2+x,1/2+y,z
1/2-x,1/2+y,-z
1/2-x,1/2-y,-z
1/2+x,1/2-y,z
loop_
_atom_site_type_symbol
_atom_site_label
_atom_site_fract_x
_atom_site_fract_y
_atom_site_fract_z
Si Si1 0.752594 0.177070 0.742146
Si Si2 0.180324 0.782076 0.658952
Si Si3 0.460123 0.559044 0.187718
Si Si4 0.277293 0.561817 0.923527
Si Si5 0.856150 0.937688 0.538189
Si Si6 0.931491 0.845231 0.422199
O O1 0.790688 0.185004 0.538325
O O2 0.698407 0.218717 0.641110
O O3 0.737817 0.114323 0.796036
O O4 0.790253 0.198411 0.035857
O O5 0.112341 0.795178 0.599372
O O6 0.500000 0.558240 0.500000
O O7 0.428847 0.500000 0.134210
O O8 0.424885 0.615532 0.164964
O O9 0.500000 0.560786 0.000000
O O10 0.251451 0.500000 0.891264
O O11 0.322635 0.563472 0.754808
O O12 0.310840 0.569765 0.239168
O O13 0.904650 0.890531 0.581102
O O14 0.880295 0.000000 0.546899
O O15 0.000000 0.829675 0.500000
#
# Coordination Sequence:
#
# PCOD9173735 Si02
#       6
#     8   8   8   8   8   8
#     4  10  18  36  51  68  88 117 158 196 236 286
#     4  10  21  32  52  67  89 121 157 195 236 276
#     4   9  19  32  43  57  82 120 158 188 217 253
#     4  10  18  31  50  68  90 115 152 197 234 270
#     4  10  20  31  44  65  92 123 155 190 225 265
#     4  11  21  33  47  66  93 124 161 196 228 272
#
# _framework density 16.35042
#
# number of rings (size 3 to 8) (size 9 to 14) (size 15 to 20)
#    0.000    2.000    3.333    0.500    0.000    6.333 
#    0.000    8.333    0.000    0.000    0.000    0.000 
#    0.000    0.667    0.000    0.000    0.000   38.167 
#
# Total GULP energy -133604.635078 kJ/mol
# GULP energy per Si atom -5566.859795 kJ/mol
# Density = 1.631321 g / cm^3
# Si number density = 16.350420 Si / 1000 Ang^3
#
#
#
# Elastic Constant Matrix: (Units=GPa)
#
#
# Indices 1 2 3 4 5 6 
#
# 1 76.9695 55.0012 12.0946 0.0000 -4.3906 0.0000
# 2 55.0012 116.1241 15.1293 0.0000 12.1549 0.0000
# 3 12.0946 15.1293 110.0370 0.0000 -13.1086 0.0000
# 4 0.0000 0.0000 0.0000 12.8645 0.0000 -8.1413
# 5 -4.3906 12.1549 -13.1086 0.0000 20.6270 0.0000
# 6 0.0000 0.0000 0.0000 -8.1413 0.0000 22.8242
#
#
#
# Elastic Compliance Matrix: (Units=1/GPa)
#
#
# Indices 1 2 3 4 5 6 
#
# 1 0.021969 -0.011743 0.000629 0.000000 0.011996 0.000000
# 2 -0.011743 0.015908 -0.002500 0.000000 -0.013463 0.000000
# 3 0.000629 -0.002500 0.010337 0.000000 0.008176 0.000000
# 4 0.000000 0.000000 0.000000 0.100396 0.000000 0.035811
# 5 0.011996 -0.013463 0.008176 0.000000 0.064163 0.000000
# 6 0.000000 0.000000 0.000000 0.035811 0.000000 0.056587
#
#
# Mechanical properties :
#
#
# Convention : Reuss Voigt Hill
#
# Bulk Modulus (GPa) = 47.65314 51.95344 49.80329
# Shear Modulus (GPa) = 16.46990 25.99014 21.23002
#
# Velocity S-wave (km/s) = 3.17725 3.99127 3.60729
# Velocity P-wave (km/s) = 6.53208 7.28589 6.91926
#
# Compressibility (1/GPa) = 0.02098498
#
# Stress axis : x y z
#
# Youngs Moduli (GPa) = 45.51879 62.85984 96.74410
#
# Poissons Ratio (x) = 0.73816 -0.06084
# Poissons Ratio (y) = 0.53453 0.24190
# Poissons Ratio (z) = -0.02863 0.15718
#
# Static dielectric constant tensor:
#      x y z
#    x 1.592990 0.000000 0.007380 
#    y 0.000000 1.644010 0.000000 
#    z 0.007380 0.000000 1.629610 
# 
# From -- ./inp_files/25813.got.cif
#   From: 2010.05.17/outbox.cif.g08.bks.cpg/sg12_13_cif.got.tgz:25813.got - 2010.06.03 13:09:07.
