data_PCOD9173932
_publ_section_title
;
Structure prediction by ZEFSAII (Michael W. Deem and Ramdas Pophale) SiO2 
 PCOD9173932
Probable space group: C 2/M
;
_chemical_formula_sum "Si O2"
_cell_formula_units_Z 48
_cell_length_a 19.824720
_cell_length_b 8.645692
_cell_length_c 22.768585
_cell_angle_alpha 90.000000
_cell_angle_beta 136.635081
_cell_angle_gamma 90.000000
_cell_volume 2679.622119
_symmetry_space_group_name_H-M "C 2/M"
_symmetry_group_IT_number 12
_symmetry_cell_setting 'monoclinic'
loop_
_space_group_symop_operation_xyz
x,y,z
-x,y,-z
-x,-y,-z
x,-y,z
1/2+x,1/2+y,z
1/2-x,1/2+y,-z
1/2-x,1/2-y,-z
1/2+x,1/2-y,z
loop_
_atom_site_type_symbol
_atom_site_label
_atom_site_fract_x
_atom_site_fract_y
_atom_site_fract_z
Si Si1 0.192920 0.185108 0.785824
Si Si2 0.280596 0.684666 0.725669
Si Si3 0.681347 0.184175 0.905602
Si Si4 0.394185 0.685660 0.463364
Si Si5 0.462625 0.312647 0.762231
Si Si6 0.465034 0.312618 0.631980
O O1 0.261675 0.239931 0.776785
O O2 0.216038 0.257557 0.863523
O O3 0.080015 0.231131 0.698863
O O4 0.194595 0.000000 0.791806
O O5 0.282046 0.500000 0.732932
O O6 0.191037 0.732919 0.626719
O O7 0.381169 0.734378 0.757632
O O8 0.570106 0.245745 0.842330
O O9 0.681831 0.000000 0.907318
O O10 0.750000 0.250000 0.000000
O O11 0.500000 0.711643 0.500000
O O12 0.376976 0.500000 0.450958
O O13 0.403958 0.740559 0.537015
O O14 0.469697 0.500000 0.766709
O O15 0.432732 0.264844 0.676769
O O16 0.462372 0.500000 0.628253
#
# Coordination Sequence:
#
# PCOD9173932 Si02
#       6
#     8   8   8   8   8   8
#     4  10  19  36  59  81 110 148 187 227 278 334
#     4  11  22  34  51  81 117 150 188 237 284 323
#     4  11  22  39  64  91 113 139 179 223 271 334
#     4  10  18  31  51  76 105 148 201 241 277 327
#     4   9  20  38  56  78 114 153 185 228 284 332
#     4   8  15  31  53  73 100 145 194 232 274 325
#
# _framework density 17.912973000000001
#
# number of rings (size 3 to 8) (size 9 to 14) (size 15 to 20)
#    0.000    2.167    1.667    3.500    0.000    2.333 
#    0.000    1.667    0.000    5.000    0.000    0.000 
#    0.000    0.000    0.000    0.000    0.000    0.000 
#
# Total GULP energy -133948.799391 kJ/mol
# GULP energy per Si atom -5581.199975 kJ/mol
# Density = 1.787220 g / cm^3
# Si number density = 17.912973 Si / 1000 Ang^3
#
#
#
# Elastic Constant Matrix: (Units=GPa)
#
#
# Indices 1 2 3 4 5 6 
#
# 1 149.8867 42.6639 62.6174 0.0000 -21.7104 0.0000
# 2 42.6639 47.2451 31.0309 0.0000 -7.1848 0.0000
# 3 62.6174 31.0309 122.0070 0.0000 -25.4924 0.0000
# 4 0.0000 0.0000 0.0000 29.0571 0.0000 -2.3550
# 5 -21.7104 -7.1848 -25.4924 0.0000 20.0326 0.0000
# 6 0.0000 0.0000 0.0000 -2.3550 0.0000 25.0272
#
#
#
# Elastic Compliance Matrix: (Units=1/GPa)
#
#
# Indices 1 2 3 4 5 6 
#
# 1 0.010519 -0.007043 -0.002388 0.000000 0.005835 0.000000
# 2 -0.007043 0.030149 -0.004616 0.000000 -0.002695 0.000000
# 3 -0.002388 -0.004616 0.013226 0.000000 0.012587 0.000000
# 4 0.000000 0.000000 0.000000 0.034679 0.000000 0.003263
# 5 0.005835 -0.002695 0.012587 0.000000 0.071293 0.000000
# 6 0.000000 0.000000 0.000000 0.003263 0.000000 0.040264
#
#
# Mechanical properties :
#
#
# Convention : Reuss Voigt Hill
#
# Bulk Modulus (GPa) = 38.76173 65.75147 52.25660
# Shear Modulus (GPa) = 21.11258 27.01183 24.06221
#
# Velocity S-wave (km/s) = 3.43683 3.88744 3.66906
# Velocity P-wave (km/s) = 6.11841 7.54555 6.86914
#
# Compressibility (1/GPa) = 0.02579864
#
# Stress axis : x y z
#
# Youngs Moduli (GPa) = 95.06155 33.16885 75.60913
#
# Poissons Ratio (x) = 0.23362 0.18057
# Poissons Ratio (y) = 0.66956 0.34902
# Poissons Ratio (z) = 0.22703 0.15311
#
# Static dielectric constant tensor:
#      x y z
#    x 1.616520 0.000000 -0.018750 
#    y 0.000000 1.605670 0.000000 
#    z -0.018750 0.000000 1.591180 
# 
# From -- ./inp_files/273710.got.cif
#   From: 2010.05.17/outbox.cif.g08.bks.cpg/sg12_137_cif.got.tgz:273710.got - 2010.06.03 13:09:07.
