data_PCOD9173373
_publ_section_title
;
Structure prediction by ZEFSAII (Michael W. Deem and Ramdas Pophale) SiO2 
 PCOD9173373
Probable space group: C 2/M
;
_chemical_formula_sum "Si O2"
_cell_formula_units_Z 64
_cell_length_a 24.631706
_cell_length_b 19.790546
_cell_length_c 10.162178
_cell_angle_alpha 90.000000
_cell_angle_beta 127.011093
_cell_angle_gamma 90.000000
_cell_volume 3955.708753
_symmetry_space_group_name_H-M "C 2/M"
_symmetry_group_IT_number 12
_symmetry_cell_setting 'monoclinic'
loop_
_space_group_symop_operation_xyz
x,y,z
-x,y,-z
-x,-y,-z
x,-y,z
1/2+x,1/2+y,z
1/2-x,1/2+y,-z
1/2-x,1/2-y,-z
1/2+x,1/2-y,z
loop_
_atom_site_type_symbol
_atom_site_label
_atom_site_fract_x
_atom_site_fract_y
_atom_site_fract_z
Si Si1 0.217979 0.077630 0.663250
Si Si2 0.283207 0.215339 0.675949
Si Si3 0.578724 0.364113 0.363121
Si Si4 0.713302 0.424774 0.971999
Si Si5 0.220466 0.291920 0.834117
Si Si6 0.922718 0.783756 0.902600
Si Si7 0.573743 0.740652 0.586716
Si Si8 0.072278 0.133409 0.820868
O O1 0.262487 0.137048 0.662473
O O2 0.141032 0.090769 0.501657
O O3 0.219171 0.087398 0.823288
O O4 0.237832 0.000000 0.664196
O O5 0.250000 0.250000 0.500000
O O6 0.251160 0.255945 0.751448
O O7 0.363719 0.229179 0.796552
O O8 0.586273 0.340514 0.223823
O O9 0.579459 0.295840 0.453617
O O10 0.503917 0.395152 0.276466
O O11 0.737758 0.500000 0.035494
O O12 0.634333 0.417446 0.896722
O O13 0.753926 0.367603 0.108608
O O14 0.139284 0.285730 0.708313
O O15 0.250000 0.250000 0.000000
O O16 0.916423 0.818835 0.035718
O O17 0.000000 0.757790 0.000000
O O18 0.500000 0.773944 0.500000
O O19 0.575033 0.680170 0.695382
#
# Coordination Sequence:
#
# PCOD9173373 Si02
#       8
#     8   8   8   8   8   8   8   8
#     4  11  22  35  52  80 112 140 174 221 270 316
#     4  12  20  34  58  80 103 142 180 222 260 314
#     4  10  18  33  49  76 107 140 174 205 263 320
#     4  11  22  34  52  81 110 140 178 221 267 314
#     4  12  18  34  56  77 103 140 180 221 260 303
#     4  10  20  32  52  79 108 135 173 224 266 307
#     4  10  18  30  52  77 104 133 175 222 262 307
#     4  10  18  31  51  75 105 140 174 211 255 318
#
# _framework density 16.179148000000001
#
# number of rings (size 3 to 8) (size 9 to 14) (size 15 to 20)
#    0.000    1.250    7.500    0.000    0.000    0.500 
#    0.000    3.750    0.000    3.000    0.000    0.000 
#    0.000    0.000    0.000    0.000    0.000    0.000 
#
# Total GULP energy -178518.221458 kJ/mol
# GULP energy per Si atom -5578.694421 kJ/mol
# Density = 1.614232 g / cm^3
# Si number density = 16.179148 Si / 1000 Ang^3
#
#
#
# Elastic Constant Matrix: (Units=GPa)
#
#
# Indices 1 2 3 4 5 6 
#
# 1 76.4272 39.5185 29.0947 0.0000 15.4314 0.0000
# 2 39.5185 94.6219 25.3921 0.0000 12.2564 0.0000
# 3 29.0947 25.3921 75.4655 0.0000 3.8126 0.0000
# 4 0.0000 0.0000 0.0000 17.8271 0.0000 1.6915
# 5 15.4314 12.2564 3.8126 0.0000 35.1594 0.0000
# 6 0.0000 0.0000 0.0000 1.6915 0.0000 16.2286
#
#
#
# Elastic Compliance Matrix: (Units=1/GPa)
#
#
# Indices 1 2 3 4 5 6 
#
# 1 0.019282 -0.005915 -0.005149 0.000000 -0.005843 0.000000
# 2 -0.005915 0.013916 -0.002301 0.000000 -0.002006 0.000000
# 3 -0.005149 -0.002301 0.015943 0.000000 0.001333 0.000000
# 4 0.000000 0.000000 0.000000 0.056655 0.000000 -0.005905
# 5 -0.005843 -0.002006 0.001333 0.000000 0.031561 0.000000
# 6 0.000000 0.000000 0.000000 -0.005905 0.000000 0.062235
#
#
# Mechanical properties :
#
#
# Convention : Reuss Voigt Hill
#
# Bulk Modulus (GPa) = 44.61712 48.28059 46.44886
# Shear Modulus (GPa) = 21.38660 24.01030 22.69845
#
# Velocity S-wave (km/s) = 3.63969 3.85649 3.74965
# Velocity P-wave (km/s) = 6.73052 7.05238 6.89333
#
# Compressibility (1/GPa) = 0.02241292
#
# Stress axis : x y z
#
# Youngs Moduli (GPa) = 51.86053 71.86072 62.72395
#
# Poissons Ratio (x) = 0.42504 0.32295
# Poissons Ratio (y) = 0.30674 0.14430
# Poissons Ratio (z) = 0.26702 0.16532
#
# Static dielectric constant tensor:
#      x y z
#    x 1.564470 0.000000 0.018420 
#    y 0.000000 1.506880 0.000000 
#    z 0.018420 0.000000 1.539290 
# 
# From -- ./inp_files/98885.got.cif
#   From: 2010.05.17/outbox.cif.g08.bks.cpg/sg12_50_cif.got.tgz:98885.got - 2010.06.03 13:09:07.
