data_PCOD9173577
_publ_section_title
;
Structure prediction by ZEFSAII (Michael W. Deem and Ramdas Pophale) SiO2 
 PCOD9173577
Probable space group: C 2/M
;
_chemical_formula_sum "Si O2"
_cell_formula_units_Z 64
_cell_length_a 12.474808
_cell_length_b 24.057260
_cell_length_c 14.987334
_cell_angle_alpha 90.000000
_cell_angle_beta 62.059887
_cell_angle_gamma 90.000000
_cell_volume 3973.565739
_symmetry_space_group_name_H-M "C 2/M"
_symmetry_group_IT_number 12
_symmetry_cell_setting 'monoclinic'
loop_
_space_group_symop_operation_xyz
x,y,z
-x,y,-z
-x,-y,-z
x,-y,z
1/2+x,1/2+y,z
1/2-x,1/2+y,-z
1/2-x,1/2-y,-z
1/2+x,1/2-y,z
loop_
_atom_site_type_symbol
_atom_site_label
_atom_site_fract_x
_atom_site_fract_y
_atom_site_fract_z
Si Si1 0.175837 0.777010 0.279320
Si Si2 0.438478 0.336031 0.845198
Si Si3 0.995066 0.435257 0.896190
Si Si4 0.206251 0.837228 0.791898
Si Si5 0.064677 0.720732 0.067887
Si Si6 0.250442 0.375832 0.031136
Si Si7 0.107038 0.341734 0.732490
Si Si8 0.041491 0.671367 0.384724
O O1 0.116221 0.813574 0.225449
O O2 0.265887 0.728975 0.204009
O O3 0.259363 0.815907 0.308576
O O4 0.574711 0.762450 0.364375
O O5 0.582164 0.345821 0.787177
O O6 0.421082 0.285807 0.923166
O O7 0.356505 0.384890 0.918223
O O8 0.022504 0.500000 0.874521
O O9 0.856751 0.420794 0.923717
O O10 0.082448 0.396934 0.801217
O O11 0.000000 0.421442 0.000000
O O12 0.199135 0.866322 0.889866
O O13 0.329006 0.855581 0.693274
O O14 0.179848 0.680637 0.028623
O O15 0.983820 0.701339 0.183235
O O16 0.000000 0.709985 0.000000
O O17 0.057322 0.344991 0.651380
O O18 0.000000 0.658031 0.500000
#
# Coordination Sequence:
#
# PCOD9173577 Si02
#       8
#     8   8   8   8   8   8   8   8
#     4  10  18  31  44  67 104 134 171 204 240 300
#     4  12  19  27  42  70 104 135 167 199 236 305
#     4  10  20  35  53  75 102 133 169 212 260 301
#     4  10  19  31  42  69 102 136 171 202 239 300
#     4  11  16  24  40  65  98 127 155 191 235 284
#     4  11  19  28  44  69  99 134 162 203 246 293
#     4  11  18  34  49  72 100 132 173 209 249 295
#     4  10  20  34  50  69 101 142 173 208 253 296
#
# _framework density 16.106441
#
# number of rings (size 3 to 8) (size 9 to 14) (size 15 to 20)
#    0.750    0.625    6.250    4.500    0.000    0.500 
#    0.000    0.000    0.000    1.875    0.000    0.000 
#    0.000    0.500    0.000    0.125    0.000    0.000 
#
# Total GULP energy -178197.254621 kJ/mol
# GULP energy per Si atom -5568.664207 kJ/mol
# Density = 1.606978 g / cm^3
# Si number density = 16.106441 Si / 1000 Ang^3
#
#
#
# Elastic Constant Matrix: (Units=GPa)
#
#
# Indices 1 2 3 4 5 6 
#
# 1 85.5913 -0.3662 20.3095 0.0000 12.3670 0.0000
# 2 -0.3662 40.2286 1.4212 0.0000 4.4246 0.0000
# 3 20.3095 1.4212 65.0486 0.0000 17.2618 0.0000
# 4 0.0000 0.0000 0.0000 5.9915 0.0000 -1.3666
# 5 12.3670 4.4246 17.2618 0.0000 20.1298 0.0000
# 6 0.0000 0.0000 0.0000 -1.3666 0.0000 5.7677
#
#
#
# Elastic Compliance Matrix: (Units=1/GPa)
#
#
# Indices 1 2 3 4 5 6 
#
# 1 0.013168 0.000883 -0.002502 0.000000 -0.006139 0.000000
# 2 0.000883 0.025606 0.001039 0.000000 -0.007062 0.000000
# 3 -0.002502 0.001039 0.020434 0.000000 -0.016214 0.000000
# 4 0.000000 0.000000 0.000000 0.176439 0.000000 0.041806
# 5 -0.006139 -0.007062 -0.016214 0.000000 0.068905 0.000000
# 6 0.000000 0.000000 0.000000 0.041806 0.000000 0.183286
#
#
# Mechanical properties :
#
#
# Convention : Reuss Voigt Hill
#
# Bulk Modulus (GPa) = 17.22678 25.95529 21.59104
# Shear Modulus (GPa) = 9.83581 17.67806 13.75694
#
# Velocity S-wave (km/s) = 2.47387 3.31656 2.92571
# Velocity P-wave (km/s) = 4.34498 5.55121 4.98472
#
# Compressibility (1/GPa) = 0.05804916
#
# Stress axis : x y z
#
# Youngs Moduli (GPa) = 75.94302 39.05335 48.93755
#
# Poissons Ratio (x) = -0.03450 0.12242
# Poissons Ratio (y) = -0.06709 -0.05083
# Poissons Ratio (z) = 0.18997 -0.04056
#
# Static dielectric constant tensor:
#      x y z
#    x 1.588900 0.000000 -0.020000 
#    y 0.000000 1.539290 0.000000 
#    z -0.020000 0.000000 1.531160 
# 
# From -- ./inp_files/208843.got.cif
#   From: 2010.05.17/outbox.cif.g08.bks.cpg/sg12_105_cif.got.tgz:208843.got - 2010.06.03 13:09:07.
