data_PCOD9173917
_publ_section_title
;
Structure prediction by ZEFSAII (Michael W. Deem and Ramdas Pophale) SiO2 
 PCOD9173917
Probable space group: C 2/M
;
_chemical_formula_sum "Si O2"
_cell_formula_units_Z 40
_cell_length_a 25.816155
_cell_length_b 8.724883
_cell_length_c 12.541579
_cell_angle_alpha 90.000000
_cell_angle_beta 121.140954
_cell_angle_gamma 90.000000
_cell_volume 2417.827024
_symmetry_space_group_name_H-M "C 2/M"
_symmetry_group_IT_number 12
_symmetry_cell_setting 'monoclinic'
loop_
_space_group_symop_operation_xyz
x,y,z
-x,y,-z
-x,-y,-z
x,-y,z
1/2+x,1/2+y,z
1/2-x,1/2+y,-z
1/2-x,1/2-y,-z
1/2+x,1/2-y,z
loop_
_atom_site_type_symbol
_atom_site_label
_atom_site_fract_x
_atom_site_fract_y
_atom_site_fract_z
Si Si1 0.651812 0.817442 0.395591
Si Si2 0.079303 0.315559 0.669260
Si Si3 0.283803 0.184734 0.137973
Si Si4 0.043598 0.817387 0.400892
Si Si5 0.259538 0.684427 0.675638
O O1 0.589239 0.736233 0.357849
O O2 0.683578 0.761877 0.321190
O O3 0.700407 0.778755 0.540879
O O4 0.643671 0.000000 0.386896
O O5 0.075660 0.500000 0.659742
O O6 0.145454 0.271134 0.781383
O O7 0.069542 0.250078 0.539861
O O8 0.023833 0.250731 0.679153
O O9 0.252826 0.232811 0.216503
O O10 0.281787 0.000000 0.132770
O O11 0.250000 0.250000 0.000000
O O12 0.040994 0.000000 0.405059
O O13 0.266614 0.500000 0.679763
#
# Coordination Sequence:
#
# PCOD9173917 Si02
#       5
#     8   8   8   8   8
#     4  10  18  31  51  75 104 136 167 207 260 311
#     4  10  19  34  51  72 103 138 172 210 256 305
#     4  10  21  36  54  75 104 139 174 211 251 300
#     4  11  20  30  49  78 106 134 167 212 260 307
#     4   9  18  33  49  73 104 134 171 210 253 302
#
# _framework density 16.543780000000002
#
# number of rings (size 3 to 8) (size 9 to 14) (size 15 to 20)
#    0.000    2.000    2.000    4.200    0.000    3.200 
#    0.000    0.000    0.000    1.200    0.000    8.400 
#    0.000    0.000    0.000    0.000    0.000    0.000 
#
# Total GULP energy -111610.155396 kJ/mol
# GULP energy per Si atom -5580.507770 kJ/mol
# Density = 1.650613 g / cm^3
# Si number density = 16.543780 Si / 1000 Ang^3
#
#
#
# Elastic Constant Matrix: (Units=GPa)
#
#
# Indices 1 2 3 4 5 6 
#
# 1 175.2496 58.2987 69.3238 0.0000 4.1680 0.0000
# 2 58.2987 65.2542 31.3018 0.0000 4.8247 0.0000
# 3 69.3238 31.3018 93.2460 0.0000 0.3339 0.0000
# 4 0.0000 0.0000 0.0000 23.2518 0.0000 -1.3869
# 5 4.1680 4.8247 0.3339 0.0000 20.1418 0.0000
# 6 0.0000 0.0000 0.0000 -1.3869 0.0000 30.6915
#
#
#
# Elastic Compliance Matrix: (Units=1/GPa)
#
#
# Indices 1 2 3 4 5 6 
#
# 1 0.009876 -0.006280 -0.005232 0.000000 -0.000453 0.000000
# 2 -0.006280 0.022634 -0.002915 0.000000 -0.004074 0.000000
# 3 -0.005232 -0.002915 0.015587 0.000000 0.001523 0.000000
# 4 0.000000 0.000000 0.000000 0.043124 0.000000 0.001949
# 5 -0.000453 -0.004074 0.001523 0.000000 0.050692 0.000000
# 6 0.000000 0.000000 0.000000 0.001949 0.000000 0.032670
#
#
# Mechanical properties :
#
#
# Convention : Reuss Voigt Hill
#
# Bulk Modulus (GPa) = 51.96562 72.39980 62.18271
# Shear Modulus (GPa) = 23.82623 26.47205 25.14914
#
# Velocity S-wave (km/s) = 3.79910 4.00449 3.90315
# Velocity P-wave (km/s) = 7.12204 8.07706 7.61453
#
# Compressibility (1/GPa) = 0.01924349
#
# Stress axis : x y z
#
# Youngs Moduli (GPa) = 101.25846 44.18037 64.15402
#
# Poissons Ratio (x) = 0.27744 0.33568
# Poissons Ratio (y) = 0.63586 0.18701
# Poissons Ratio (z) = 0.52983 0.12879
#
# Static dielectric constant tensor:
#      x y z
#    x 1.573620 0.000000 0.003450 
#    y 0.000000 1.553920 0.000000 
#    z 0.003450 0.000000 1.522840 
# 
# From -- ./inp_files/171391.got.cif
#   From: 2010.05.17/outbox.cif.g08.bks.cpg/sg12_86_cif.got.tgz:171391.got - 2010.06.03 13:09:07.
