data_PCOD9173171
_publ_section_title
;
Structure prediction by ZEFSAII (Michael W. Deem and Ramdas Pophale) SiO2 
 PCOD9173171
Probable space group: C 2/M
;
_chemical_formula_sum "Si O2"
_cell_formula_units_Z 56
_cell_length_a 19.346350
_cell_length_b 9.033349
_cell_length_c 28.543253
_cell_angle_alpha 90.000000
_cell_angle_beta 39.567249
_cell_angle_gamma 90.000000
_cell_volume 3177.455272
_symmetry_space_group_name_H-M "C 2/M"
_symmetry_group_IT_number 12
_symmetry_cell_setting 'monoclinic'
loop_
_space_group_symop_operation_xyz
x,y,z
-x,y,-z
-x,-y,-z
x,-y,z
1/2+x,1/2+y,z
1/2-x,1/2+y,-z
1/2-x,1/2-y,-z
1/2+x,1/2-y,z
loop_
_atom_site_type_symbol
_atom_site_label
_atom_site_fract_x
_atom_site_fract_y
_atom_site_fract_z
Si Si1 0.655573 0.326517 0.693901
Si Si2 0.134154 0.174902 0.816918
Si Si3 0.600930 0.823199 0.414028
Si Si4 0.910255 0.324066 0.948106
Si Si5 0.202747 0.675936 0.092869
Si Si6 0.136760 0.176283 0.295921
Si Si7 0.467101 0.824090 0.736857
O O1 0.636972 0.500000 0.692942
O O2 0.630155 0.305305 0.762427
O O3 0.783210 0.293333 0.622046
O O4 0.578022 0.227085 0.703216
O O5 0.243622 0.255571 0.775820
O O6 0.024680 0.243537 0.894787
O O7 0.141795 0.000000 0.822477
O O8 0.500000 0.788659 0.500000
O O9 0.600466 0.735586 0.365684
O O10 0.599720 0.000000 0.404166
O O11 0.922944 0.500000 0.945870
O O12 0.866259 0.291602 0.918291
O O13 0.814931 0.264038 0.031133
O O14 0.225502 0.500000 0.080643
O O15 0.128911 0.711148 0.175955
O O16 0.057146 0.237916 0.297939
O O17 0.141925 0.000000 0.292879
O O18 0.466913 0.000000 0.729023
#
# Coordination Sequence:
#
# PCOD9173171 Si02
#       7
#     8   8   8   8   8   8   8
#     4   9  18  32  55  84 109 139 179 222 266 317
#     4  10  19  34  55  78 107 144 186 229 275 326
#     4   9  19  39  64  88 114 144 178 217 265 322
#     4  10  18  30  50  78 107 139 184 233 279 322
#     4   9  19  32  48  74 107 144 182 226 278 326
#     4  11  23  37  56  82 113 144 181 225 272 324
#     4  11  21  36  55  78 111 147 185 225 272 326
#
# _framework density 17.624167
#
# number of rings (size 3 to 8) (size 9 to 14) (size 15 to 20)
#    0.000    2.143    1.429    3.429    0.000    4.286 
#    0.000    1.429    0.000    4.286    0.000    0.000 
#    0.000    0.000    0.000    0.000    0.000    0.000 
#
# Total GULP energy -156325.712668 kJ/mol
# GULP energy per Si atom -5583.061167 kJ/mol
# Density = 1.758405 g / cm^3
# Si number density = 17.624167 Si / 1000 Ang^3
#
#
#
# Elastic Constant Matrix: (Units=GPa)
#
#
# Indices 1 2 3 4 5 6 
#
# 1 68.5354 51.4176 34.1203 0.0000 -5.3452 0.0002
# 2 51.4176 77.7201 51.6301 0.0000 -7.0044 0.0004
# 3 34.1203 51.6301 98.0263 0.0000 -21.0551 0.0000
# 4 0.0000 0.0000 0.0000 25.1711 0.0000 -5.3086
# 5 -5.3452 -7.0044 -21.0551 0.0000 17.8996 0.0000
# 6 0.0002 0.0004 0.0000 -5.3086 0.0000 27.4424
#
#
#
# Elastic Compliance Matrix: (Units=1/GPa)
#
#
# Indices 1 2 3 4 5 6 
#
# 1 0.029003 -0.019328 0.000429 0.000000 0.001602 0.000000
# 2 -0.019328 0.033173 -0.012305 0.000000 -0.007265 0.000000
# 3 0.000429 -0.012305 0.020775 0.000000 0.019751 0.000000
# 4 0.000000 0.000000 0.000000 0.041418 0.000000 0.008012
# 5 0.001602 -0.007265 0.019751 0.000000 0.076735 0.000000
# 6 0.000000 0.000000 0.000000 0.008012 0.000000 0.037990
#
#
# Mechanical properties :
#
#
# Convention : Reuss Voigt Hill
#
# Bulk Modulus (GPa) = 48.67787 57.62418 53.15102
# Shear Modulus (GPa) = 16.21527 21.24355 18.72941
#
# Velocity S-wave (km/s) = 3.03654 3.47560 3.26346
# Velocity P-wave (km/s) = 6.32250 6.99096 6.66511
#
# Compressibility (1/GPa) = 0.02054322
#
# Stress axis : x y z
#
# Youngs Moduli (GPa) = 34.47902 30.14457 48.13410
#
# Poissons Ratio (x) = 0.58265 -0.02066
# Poissons Ratio (y) = 0.66642 0.59230
# Poissons Ratio (z) = -0.01480 0.37093
#
# Static dielectric constant tensor:
#      x y z
#    x 1.588990 0.000000 -0.000270 
#    y 0.000000 1.581100 0.000000 
#    z -0.000270 0.000000 1.585910 
# 
# From -- ./inp_files/342533.got.cif
#   From: 2010.05.17/outbox.cif.g08.bks.cpg/sg12_172_cif.got.tgz:342533.got - 2010.06.03 13:09:07.
