data_PCOD9173447
_publ_section_title
;
Structure prediction by ZEFSAII (Michael W. Deem and Ramdas Pophale) SiO2 
 PCOD9173447
Probable space group: C 2/M
;
_chemical_formula_sum "Si O2"
_cell_formula_units_Z 64
_cell_length_a 25.254354
_cell_length_b 8.545401
_cell_length_c 20.746409
_cell_angle_alpha 90.000000
_cell_angle_beta 53.964241
_cell_angle_gamma 90.000000
_cell_volume 3620.530692
_symmetry_space_group_name_H-M "C 2/M"
_symmetry_group_IT_number 12
_symmetry_cell_setting 'monoclinic'
loop_
_space_group_symop_operation_xyz
x,y,z
-x,y,-z
-x,-y,-z
x,-y,z
1/2+x,1/2+y,z
1/2-x,1/2+y,-z
1/2-x,1/2-y,-z
1/2+x,1/2-y,z
loop_
_atom_site_type_symbol
_atom_site_label
_atom_site_fract_x
_atom_site_fract_y
_atom_site_fract_z
Si Si1 0.091168 0.811479 0.234516
Si Si2 0.572583 0.190657 0.970215
Si Si3 0.945054 0.312598 0.873818
Si Si4 0.572692 0.813318 0.469171
Si Si5 0.324141 0.189483 0.211566
Si Si6 0.823829 0.188990 0.707503
Si Si7 0.410811 0.312455 0.261968
Si Si8 0.056684 0.811744 0.619618
O O1 0.094234 0.744927 0.160439
O O2 0.146220 0.758784 0.245350
O O3 0.019720 0.768021 0.314505
O O4 0.092219 0.000000 0.229391
O O5 0.627354 0.242930 0.880486
O O6 0.572862 0.000000 0.968726
O O7 0.500000 0.240322 0.000000
O O8 0.582660 0.238727 0.037071
O O9 0.947980 0.500000 0.871066
O O10 0.019171 0.249633 0.813528
O O11 0.500000 0.757750 0.500000
O O12 0.626985 0.742312 0.383500
O O13 0.582351 0.764832 0.536292
O O14 0.574279 0.000000 0.462030
O O15 0.250059 0.242655 0.252318
O O16 0.354241 0.247599 0.257060
O O17 0.324760 0.000000 0.211587
O O18 0.823466 0.000000 0.708787
O O19 0.412061 0.500000 0.258242
O O20 0.406970 0.266991 0.340121
O O21 0.059470 0.000000 0.611005
#
# Coordination Sequence:
#
# PCOD9173447 Si02
#       8
#     8   8   8   8   8   8   8   8
#     4   9  18  33  51  76 108 139 173 218 267 311
#     4   9  16  30  52  79 107 136 176 225 266 305
#     4  10  18  30  53  79 105 139 178 222 263 309
#     4  11  22  34  53  83 110 133 172 224 266 308
#     4  10  20  36  57  79 104 142 187 218 257 320
#     4  10  21  37  57  77 105 146 181 214 262 323
#     4  10  20  34  52  79 111 140 172 218 271 314
#     4   9  18  33  54  76 103 138 175 213 260 318
#
# _framework density 17.676966
#
# number of rings (size 3 to 8) (size 9 to 14) (size 15 to 20)
#    0.000    2.250    2.500    1.875    0.000    4.000 
#    0.000    3.125    0.000    0.000    0.000    0.000 
#    0.000    0.000    0.000    0.000    0.000    0.000 
#
# Total GULP energy -178521.815385 kJ/mol
# GULP energy per Si atom -5578.806731 kJ/mol
# Density = 1.763673 g / cm^3
# Si number density = 17.676966 Si / 1000 Ang^3
#
#
#
# Elastic Constant Matrix: (Units=GPa)
#
#
# Indices 1 2 3 4 5 6 
#
# 1 176.7814 27.8032 92.3899 0.0002 14.0870 0.0006
# 2 27.8032 11.5582 17.6502 0.0027 1.6959 0.0024
# 3 92.3899 17.6502 114.8275 0.0000 10.4245 0.0007
# 4 0.0002 0.0027 0.0000 24.3970 -0.0003 8.2135
# 5 14.0870 1.6959 10.4245 -0.0003 30.5986 -0.0007
# 6 0.0006 0.0024 0.0007 8.2135 -0.0007 26.3277
#
#
#
# Elastic Compliance Matrix: (Units=1/GPa)
#
#
# Indices 1 2 3 4 5 6 
#
# 1 0.012424 -0.019081 -0.006852 0.000002 -0.002328 0.000001
# 2 -0.019081 0.142364 -0.006822 -0.000013 0.003218 -0.000008
# 3 -0.006852 -0.006822 0.015427 0.000001 -0.001723 0.000000
# 4 0.000002 -0.000013 0.000001 0.045799 0.000000 -0.014288
# 5 -0.002328 0.003218 -0.001723 0.000000 0.034162 0.000001
# 6 0.000001 -0.000008 0.000000 -0.014288 0.000001 0.042440
#
#
# Mechanical properties :
#
#
# Convention : Reuss Voigt Hill
#
# Bulk Modulus (GPa) = 9.55074 64.31707 36.93390
# Shear Modulus (GPa) = 12.72171 27.28625 20.00398
#
# Velocity S-wave (km/s) = 2.68559 3.93314 3.36764
# Velocity P-wave (km/s) = 3.87701 7.55578 6.00504
#
# Compressibility (1/GPa) = 0.10470391
#
# Stress axis : x y z
#
# Youngs Moduli (GPa) = 80.48722 7.02425 64.82084
#
# Poissons Ratio (x) = 0.13403 0.44417
# Poissons Ratio (y) = 1.53579 0.44223
# Poissons Ratio (z) = 0.55152 0.04792
#
# Static dielectric constant tensor:
#      x y z
#    x 1.607710 0.000000 0.014790 
#    y 0.000000 1.605590 0.000000 
#    z 0.014790 0.000000 1.583160 
# 
# From -- ./inp_files/324129.got.cif
#   From: 2010.05.17/outbox.cif.g08.bks.cpg/sg12_163_cif.got.tgz:324129.got - 2010.06.03 13:09:07.
