data_PCOD9173713
_publ_section_title
;
Structure prediction by ZEFSAII (Michael W. Deem and Ramdas Pophale) SiO2 
 PCOD9173713
Probable space group: C 2/M
;
_chemical_formula_sum "Si O2"
_cell_formula_units_Z 64
_cell_length_a 19.358173
_cell_length_b 17.984616
_cell_length_c 12.417074
_cell_angle_alpha 90.000000
_cell_angle_beta 63.351745
_cell_angle_gamma 90.000000
_cell_volume 3863.793337
_symmetry_space_group_name_H-M "C 2/M"
_symmetry_group_IT_number 12
_symmetry_cell_setting 'monoclinic'
loop_
_space_group_symop_operation_xyz
x,y,z
-x,y,-z
-x,-y,-z
x,-y,z
1/2+x,1/2+y,z
1/2-x,1/2+y,-z
1/2-x,1/2-y,-z
1/2+x,1/2-y,z
loop_
_atom_site_type_symbol
_atom_site_label
_atom_site_fract_x
_atom_site_fract_y
_atom_site_fract_z
Si Si1 0.698087 0.410448 0.415836
Si Si2 0.327763 0.659025 0.982181
Si Si3 0.928654 0.088477 0.325263
Si Si4 0.920501 0.819255 0.116624
Si Si5 0.004185 0.414075 0.127732
Si Si6 0.652598 0.162148 0.775859
Si Si7 0.663020 0.161683 0.018592
Si Si8 0.906028 0.911547 0.719014
O O1 0.715240 0.500000 0.401504
O O2 0.650063 0.393341 0.557056
O O3 0.774048 0.361264 0.345270
O O4 0.641088 0.393978 0.355454
O O5 0.335879 0.748842 0.976427
O O6 0.370199 0.628151 0.847732
O O7 0.369531 0.637286 0.063646
O O8 0.237917 0.637153 0.033428
O O9 0.938508 0.130743 0.206563
O O10 0.002976 0.105855 0.347568
O O11 0.928991 0.000000 0.306641
O O12 0.872985 0.747698 0.191782
O O13 0.000000 0.795339 0.000000
O O14 0.010498 0.500000 0.153869
O O15 0.922849 0.379060 0.217489
O O16 0.080146 0.369826 0.111305
O O17 0.000000 0.409820 0.000000
O O18 0.671572 0.138175 0.886746
O O19 0.898873 0.000000 0.740028
#
# Coordination Sequence:
#
# PCOD9173713 Si02
#       8
#     8   8   8   8   8   8   8   8
#     4  10  20  35  54  77 105 134 170 215 259 303
#     4  10  18  31  49  74 101 139 167 204 256 304
#     4  10  22  37  52  73 104 141 176 213 252 297
#     4  11  21  34  54  76 104 140 174 205 253 308
#     4   9  17  28  45  71 102 130 160 204 254 305
#     4  10  18  31  52  77 102 133 167 205 260 309
#     4   9  18  30  47  72 105 135 167 206 255 306
#     4  10  19  32  53  76 100 132 172 211 256 307
#
# _framework density 16.564032999999998
#
# number of rings (size 3 to 8) (size 9 to 14) (size 15 to 20)
#    0.000    2.125    2.500    2.625    0.000    3.750 
#    0.000    0.000    0.000    0.000    0.000    0.875 
#    0.000    3.000    0.000    0.000    0.000    0.000 
#
# Total GULP energy -178334.259963 kJ/mol
# GULP energy per Si atom -5572.945624 kJ/mol
# Density = 1.652633 g / cm^3
# Si number density = 16.564033 Si / 1000 Ang^3
#
#
#
# Elastic Constant Matrix: (Units=GPa)
#
#
# Indices 1 2 3 4 5 6 
#
# 1 103.7906 31.8949 26.9935 0.0000 -19.5880 0.0000
# 2 31.8949 28.3175 27.9173 0.0000 -10.3923 0.0000
# 3 26.9935 27.9173 69.7640 0.0000 -20.0599 0.0000
# 4 0.0000 0.0000 0.0000 18.5247 0.0000 -13.1311
# 5 -19.5880 -10.3923 -20.0599 0.0000 27.6112 0.0000
# 6 0.0000 0.0000 0.0000 -13.1311 0.0000 -17.5803
#
#
#
# Elastic Compliance Matrix: (Units=1/GPa)
#
#
# Indices 1 2 3 4 5 6 
#
# 1 0.015698 -0.018415 0.003166 0.000000 0.006506 0.000000
# 2 -0.018415 0.080809 -0.025563 0.000000 -0.001221 0.000000
# 3 0.003166 -0.025563 0.026821 0.000000 0.012110 0.000000
# 4 0.000000 0.000000 0.000000 0.035295 0.000000 -0.026363
# 5 0.006506 -0.001221 0.012110 0.000000 0.049171 0.000000
# 6 0.000000 0.000000 0.000000 -0.026363 0.000000 -0.037191
#
#
# Mechanical properties :
#
#
# Convention : Reuss Voigt Hill
#
# Bulk Modulus (GPa) = 23.97890 41.72039 32.84965
# Shear Modulus (GPa) = 18.78800 13.38223 16.08511
#
# Velocity S-wave (km/s) = 3.37154 2.84546 3.11961
# Velocity P-wave (km/s) = 5.44649 6.00313 5.73157
#
# Compressibility (1/GPa) = 0.04170333
#
# Stress axis : x y z
#
# Youngs Moduli (GPa) = 63.70204 12.37493 37.28452
#
# Poissons Ratio (x) = 0.22788 -0.11803
# Poissons Ratio (y) = 1.17305 0.95310
# Poissons Ratio (z) = -0.20165 0.31634
#
# Static dielectric constant tensor:
#      x y z
#    x 1.590890 0.000000 -0.014500 
#    y 0.000000 1.552240 0.000000 
#    z -0.014500 0.000000 1.539480 
# 
# From -- ./inp_files/168459.got.cif
#   From: 2010.05.17/outbox.cif.g08.bks.cpg/sg12_85_cif.got.tgz:168459.got - 2010.06.03 13:09:07.
