data_PCOD9173487
_publ_section_title
;
Structure prediction by ZEFSAII (Michael W. Deem and Ramdas Pophale) SiO2 
 PCOD9173487
Probable space group: C 2/M
;
_chemical_formula_sum "Si O2"
_cell_formula_units_Z 56
_cell_length_a 5.491292
_cell_length_b 29.965674
_cell_length_c 15.311252
_cell_angle_alpha 90.000000
_cell_angle_beta 101.281969
_cell_angle_gamma 90.000000
_cell_volume 2470.785029
_symmetry_space_group_name_H-M "C 2/M"
_symmetry_group_IT_number 12
_symmetry_cell_setting 'monoclinic'
loop_
_space_group_symop_operation_xyz
x,y,z
-x,y,-z
-x,-y,-z
x,-y,z
1/2+x,1/2+y,z
1/2-x,1/2+y,-z
1/2-x,1/2-y,-z
1/2+x,1/2-y,z
loop_
_atom_site_type_symbol
_atom_site_label
_atom_site_fract_x
_atom_site_fract_y
_atom_site_fract_z
Si Si1 0.203351 0.047618 0.781295
Si Si2 0.956578 0.227707 0.157080
Si Si3 0.165426 0.450269 0.925144
Si Si4 0.476792 0.760930 0.636453
Si Si5 0.600197 0.374291 0.152301
Si Si6 0.889215 0.636793 0.344953
Si Si7 0.583802 0.589033 0.599704
O O1 0.489436 0.047448 0.827695
O O2 0.138303 0.052002 0.675962
O O3 0.092350 0.091420 0.817611
O O4 0.102120 0.000000 0.807138
O O5 0.177371 0.254343 0.123490
O O6 0.003042 0.238486 0.264457
O O7 0.989364 0.175405 0.136909
O O8 0.280467 0.500000 0.938909
O O9 0.308485 0.403862 0.922458
O O10 0.000000 0.446544 0.000000
O O11 0.686270 0.736707 0.594508
O O12 0.573002 0.811132 0.640510
O O13 0.823160 0.369175 0.238108
O O14 0.648004 0.618685 0.380121
O O15 0.151238 0.614329 0.387532
O O16 0.500000 0.572234 0.500000
#
# Coordination Sequence:
#
# PCOD9173487 Si02
#       7
#     8   8   8   8   8   8   8
#     4  10  23  40  66  98 128 170 224 272 328 401
#     4  10  21  32  58  98 130 168 222 267 320 391
#     4  10  22  41  66  99 137 171 214 275 337 400
#     4  10  18  30  53  89 120 160 216 265 317 382
#     4  11  21  36  65  95 134 173 223 266 333 396
#     4  11  21  36  63  90 124 170 220 266 320 388
#     4  11  24  41  63  92 129 172 217 271 329 386
#
# _framework density 22.664860999999998
#
# number of rings (size 3 to 8) (size 9 to 14) (size 15 to 20)
#    0.000    1.571    4.286    1.714    8.000    0.857 
#    0.000    2.143    0.000   12.000    0.000    0.000 
#    0.000    0.000    0.000    0.000    0.000    0.000 
#
# Total GULP energy -156154.354396 kJ/mol
# GULP energy per Si atom -5576.941228 kJ/mol
# Density = 2.261327 g / cm^3
# Si number density = 22.664861 Si / 1000 Ang^3
#
#
#
# Elastic Constant Matrix: (Units=GPa)
#
#
# Indices 1 2 3 4 5 6 
#
# 1 159.0055 45.6728 43.8157 0.0000 7.1916 0.0000
# 2 45.6728 160.0130 43.6989 0.0000 -1.8736 0.0000
# 3 43.8157 43.6989 64.1671 0.0000 -2.4655 0.0000
# 4 0.0000 0.0000 0.0000 28.4759 0.0000 24.3102
# 5 7.1916 -1.8736 -2.4655 0.0000 24.2911 0.0000
# 6 0.0000 0.0000 0.0000 24.3102 0.0000 40.1212
#
#
#
# Elastic Compliance Matrix: (Units=1/GPa)
#
#
# Indices 1 2 3 4 5 6 
#
# 1 0.008072 -0.000986 -0.004955 0.000000 -0.002969 0.000000
# 2 -0.000986 0.007798 -0.004621 0.000000 0.000424 0.000000
# 3 -0.004955 -0.004621 0.022244 0.000000 0.003368 0.000000
# 4 0.000000 0.000000 0.000000 0.072749 0.000000 -0.044080
# 5 -0.002969 0.000424 0.003368 0.000000 0.042421 0.000000
# 6 0.000000 0.000000 0.000000 -0.044080 0.000000 0.051633
#
#
# Mechanical properties :
#
#
# Convention : Reuss Voigt Hill
#
# Bulk Modulus (GPa) = 58.85495 72.17338 65.51417
# Shear Modulus (GPa) = 21.57936 35.24420 28.41178
#
# Velocity S-wave (km/s) = 3.08897 3.94765 3.54441
# Velocity P-wave (km/s) = 6.22464 7.25888 6.76157
#
# Compressibility (1/GPa) = 0.01699092
#
# Stress axis : x y z
#
# Youngs Moduli (GPa) = 123.88914 128.24135 44.95618
#
# Poissons Ratio (x) = 0.12640 0.22274
# Poissons Ratio (y) = 0.12211 0.20775
# Poissons Ratio (z) = 0.61381 0.59262
#
# Static dielectric constant tensor:
#      x y z
#    x 2.202490 0.000000 0.282430 
#    y 0.000000 1.831190 0.000000 
#    z 0.282430 0.000000 2.215090 
# 
# From -- ./inp_files/192591.got.cif
#   From: 2010.05.17/outbox.cif.g08.bks.cpg/sg12_97_cif.got.tgz:192591.got - 2010.06.03 13:09:07.
