data_PCOD9173803
_publ_section_title
;
Structure prediction by ZEFSAII (Michael W. Deem and Ramdas Pophale) SiO2 
 PCOD9173803
Probable space group: C 2/M
;
_chemical_formula_sum "Si O2"
_cell_formula_units_Z 64
_cell_length_a 26.572922
_cell_length_b 18.036525
_cell_length_c 19.667943
_cell_angle_alpha 90.000000
_cell_angle_beta 25.578609
_cell_angle_gamma 90.000000
_cell_volume 4069.888280
_symmetry_space_group_name_H-M "C 2/M"
_symmetry_group_IT_number 12
_symmetry_cell_setting 'monoclinic'
loop_
_space_group_symop_operation_xyz
x,y,z
-x,y,-z
-x,-y,-z
x,-y,z
1/2+x,1/2+y,z
1/2-x,1/2+y,-z
1/2-x,1/2-y,-z
1/2+x,1/2-y,z
loop_
_atom_site_type_symbol
_atom_site_label
_atom_site_fract_x
_atom_site_fract_y
_atom_site_fract_z
Si Si1 0.049504 0.671730 0.226576
Si Si2 0.393077 0.323357 0.681351
Si Si3 0.699395 0.088269 0.838862
Si Si4 0.522479 0.344673 0.270356
Si Si5 0.248403 0.915939 0.960642
Si Si6 0.460575 0.911613 0.203571
Si Si7 0.924830 0.349179 0.656775
Si Si8 0.729777 0.410835 0.402931
O O1 0.988565 0.629390 0.239699
O O2 0.040501 0.759328 0.227212
O O3 0.182244 0.640980 0.073797
O O4 0.002618 0.654639 0.360393
O O5 0.500000 0.336796 0.500000
O O6 0.281794 0.365497 0.788335
O O7 0.434296 0.350564 0.704422
O O8 0.376763 0.234423 0.705190
O O9 0.732721 0.106582 0.720502
O O10 0.719473 0.000000 0.823523
O O11 0.565644 0.103032 0.022288
O O12 0.389445 0.370659 0.431012
O O13 0.614261 0.394719 0.117993
O O14 0.318848 0.903065 0.804845
O O15 0.262991 0.000000 0.966872
O O16 0.337409 0.890949 0.320547
O O17 0.460045 0.000000 0.216326
O O18 0.000000 0.369579 0.500000
O O19 0.712551 0.500000 0.427120
#
# Coordination Sequence:
#
# PCOD9173803 Si02
#       8
#     8   8   8   8   8   8   8   8
#     4   9  20  33  53  76  99 132 166 207 252 298
#     4  10  18  31  50  74 103 136 164 196 252 301
#     4  10  20  31  50  75 102 138 173 203 237 292
#     4  11  20  33  49  74 105 135 165 204 250 302
#     4  10  20  32  51  76 102 129 160 200 253 307
#     4  10  20  35  52  72 100 136 176 213 244 285
#     4   8  19  34  51  74  99 127 156 204 258 304
#     4  10  21  35  50  71 104 141 173 206 243 285
#
# _framework density 15.725247
#
# number of rings (size 3 to 8) (size 9 to 14) (size 15 to 20)
#    0.750    1.500    1.250    2.250    1.750    4.500 
#    0.000    0.000    0.000    0.000    0.000    0.875 
#    0.000    3.000    0.000    0.000    0.000    0.000 
#
# Total GULP energy -178211.259608 kJ/mol
# GULP energy per Si atom -5569.101863 kJ/mol
# Density = 1.568946 g / cm^3
# Si number density = 15.725247 Si / 1000 Ang^3
#
#
#
# Elastic Constant Matrix: (Units=GPa)
#
#
# Indices 1 2 3 4 5 6 
#
# 1 71.8593 29.5030 52.7427 0.0000 -7.6111 0.0001
# 2 29.5030 53.5970 60.9295 -0.0001 -4.2152 0.0001
# 3 52.7427 60.9295 114.7264 -0.0002 -15.0478 0.0001
# 4 0.0000 -0.0001 -0.0002 -31.2309 0.0001 52.0680
# 5 -7.6111 -4.2152 -15.0478 0.0001 26.2545 -0.0001
# 6 0.0001 0.0001 0.0001 52.0680 -0.0001 -52.8213
#
#
#
# Elastic Compliance Matrix: (Units=1/GPa)
#
#
# Indices 1 2 3 4 5 6 
#
# 1 0.021067 -0.001632 -0.008706 0.000000 0.000855 0.000000
# 2 -0.001632 0.048551 -0.026031 0.000000 -0.007598 0.000000
# 3 -0.008706 -0.026031 0.027750 0.000000 0.009202 0.000000
# 4 0.000000 0.000000 0.000000 0.049765 0.000000 0.049055
# 5 0.000855 -0.007598 0.009202 0.000000 0.042391 0.000000
# 6 0.000000 0.000000 0.000000 0.049055 0.000000 0.029424
#
#
# Mechanical properties :
#
#
# Convention : Reuss Voigt Hill
#
# Bulk Modulus (GPa) = 40.60103 58.50369 49.55236
# Shear Modulus (GPa) = 16.67255 -5.09238 5.79008
#
# Velocity S-wave (km/s) = 3.25967 -1.80149 1.92094
# Velocity P-wave (km/s) = 6.32790 5.74084 6.04150
#
# Compressibility (1/GPa) = 0.02462992
#
# Stress axis : x y z
#
# Youngs Moduli (GPa) = 47.46840 20.59706 36.03576
#
# Poissons Ratio (x) = 0.03362 0.31372
# Poissons Ratio (y) = 0.07748 0.93804
# Poissons Ratio (z) = 0.41325 0.53616
#
# Static dielectric constant tensor:
#      x y z
#    x 1.518780 0.000000 0.025460 
#    y 0.000000 1.524940 0.000000 
#    z 0.025460 0.000000 1.532570 
# 
# From -- ./inp_files/354287.got.cif
#   From: 2010.05.17/outbox.cif.g08.bks.cpg/sg12_178_cif.got.tgz:354287.got - 2010.06.03 13:09:07.
