data_PCOD9173733
_publ_section_title
;
Structure prediction by ZEFSAII (Michael W. Deem and Ramdas Pophale) SiO2 
 PCOD9173733
Probable space group: C 2/M
;
_chemical_formula_sum "Si O2"
_cell_formula_units_Z 56
_cell_length_a 19.880402
_cell_length_b 7.563516
_cell_length_c 25.918938
_cell_angle_alpha 90.000000
_cell_angle_beta 46.874759
_cell_angle_gamma 90.000000
_cell_volume 2844.502829
_symmetry_space_group_name_H-M "C 2/M"
_symmetry_group_IT_number 12
_symmetry_cell_setting 'monoclinic'
loop_
_space_group_symop_operation_xyz
x,y,z
-x,y,-z
-x,-y,-z
x,-y,z
1/2+x,1/2+y,z
1/2-x,1/2+y,-z
1/2-x,1/2-y,-z
1/2+x,1/2-y,z
loop_
_atom_site_type_symbol
_atom_site_label
_atom_site_fract_x
_atom_site_fract_y
_atom_site_fract_z
Si Si1 0.857057 0.709343 0.431216
Si Si2 0.710081 0.786389 0.946318
Si Si3 0.912574 0.715870 0.079834
Si Si4 0.399692 0.202054 0.201712
Si Si5 0.897638 0.206287 0.895144
Si Si6 0.412878 0.292189 0.512877
Si Si7 0.204471 0.282084 0.644393
O O1 0.870834 0.500000 0.423710
O O2 0.750000 0.750000 0.500000
O O3 0.916973 0.777088 0.448151
O O4 0.860084 0.773444 0.370253
O O5 0.675671 0.738522 0.908093
O O6 0.811313 0.722401 0.907988
O O7 0.710517 0.000000 0.950084
O O8 0.637453 0.724272 0.027489
O O9 0.920926 0.500000 0.078337
O O10 0.903874 0.783714 0.142420
O O11 0.000000 0.775138 0.000000
O O12 0.505760 0.201606 0.163823
O O13 0.337215 0.279315 0.279604
O O14 0.367426 0.000000 0.211992
O O15 0.910454 0.000000 0.876838
O O16 0.500000 0.219809 0.500000
O O17 0.409291 0.500000 0.526918
O O18 0.310614 0.222315 0.581213
O O19 0.204496 0.500000 0.643361
#
# Coordination Sequence:
#
# PCOD9173733 Si02
#       7
#     8   8   8   8   8   8   8
#     4   9  16  29  49  72  97 125 163 199 233 283
#     4   9  17  31  47  64  87 115 152 194 234 280
#     4   9  15  26  47  69  83 110 160 201 224 265
#     4  10  18  31  50  66  89 124 160 196 236 282
#     4  10  19  29  44  67  92 116 147 193 242 285
#     4   9  17  31  51  76 103 127 157 197 240 289
#     4   8  16  30  48  70  93 124 161 193 230 284
#
# _framework density 19.687094999999999
#
# number of rings (size 3 to 8) (size 9 to 14) (size 15 to 20)
#    0.000    2.857    1.429    1.714    0.000    0.857 
#    0.000    6.429    0.000    3.429    0.000    0.000 
#    0.000    0.000    0.000    0.000    0.000    0.000 
#
# Total GULP energy -155943.762326 kJ/mol
# GULP energy per Si atom -5569.420083 kJ/mol
# Density = 1.964229 g / cm^3
# Si number density = 19.687095 Si / 1000 Ang^3
#
#
#
# Elastic Constant Matrix: (Units=GPa)
#
#
# Indices 1 2 3 4 5 6 
#
# 1 142.6158 1.0641 71.3201 -0.0004 19.6042 0.0003
# 2 1.0641 43.0877 1.0896 -0.0016 -0.1492 -0.0068
# 3 71.3201 1.0896 123.2751 0.0000 24.5016 -0.0003
# 4 -0.0004 -0.0016 0.0000 7.8089 0.0001 0.5577
# 5 19.6042 -0.1492 24.5016 0.0001 24.8322 -0.0002
# 6 0.0003 -0.0068 -0.0003 0.5577 -0.0002 15.6547
#
#
#
# Elastic Compliance Matrix: (Units=1/GPa)
#
#
# Indices 1 2 3 4 5 6 
#
# 1 0.010013 -0.000124 -0.005250 0.000001 -0.002725 0.000000
# 2 -0.000124 0.023219 -0.000225 0.000004 0.000459 0.000010
# 3 -0.005250 -0.000225 0.012847 0.000000 -0.008533 0.000000
# 4 0.000001 0.000004 0.000000 0.128386 -0.000001 -0.004574
# 5 -0.002725 0.000459 -0.008533 -0.000001 0.050844 0.000001
# 6 0.000000 0.000010 0.000000 -0.004574 0.000001 0.064041
#
#
# Mechanical properties :
#
#
# Convention : Reuss Voigt Hill
#
# Bulk Modulus (GPa) = 28.66862 50.65847 39.66355
# Shear Modulus (GPa) = 16.01667 25.35949 20.68808
#
# Velocity S-wave (km/s) = 2.85540 3.59294 3.24519
# Velocity P-wave (km/s) = 5.04627 6.55744 5.85085
#
# Compressibility (1/GPa) = 0.03488134
#
# Stress axis : x y z
#
# Youngs Moduli (GPa) = 99.87091 43.06847 77.83739
#
# Poissons Ratio (x) = 0.00534 0.40866
# Poissons Ratio (y) = 0.01238 0.01750
# Poissons Ratio (z) = 0.52434 0.00968
#
# Static dielectric constant tensor:
#      x y z
#    x 1.720610 0.000000 0.028820 
#    y 0.000000 1.733840 0.000000 
#    z 0.028820 0.000000 1.684890 
# 
# From -- ./inp_files/345496.got.cif
#   From: 2010.05.17/outbox.cif.g08.bks.cpg/sg12_173_cif.got.tgz:345496.got - 2010.06.03 13:09:07.
