data_PCOD9173497
_publ_section_title
;
Structure prediction by ZEFSAII (Michael W. Deem and Ramdas Pophale) SiO2 
 PCOD9173497
Probable space group: C 2/M
;
_chemical_formula_sum "Si O2"
_cell_formula_units_Z 64
_cell_length_a 26.515868
_cell_length_b 8.340274
_cell_length_c 15.122982
_cell_angle_alpha 90.000000
_cell_angle_beta 79.400497
_cell_angle_gamma 90.000000
_cell_volume 3287.375098
_symmetry_space_group_name_H-M "C 2/M"
_symmetry_group_IT_number 12
_symmetry_cell_setting 'monoclinic'
loop_
_space_group_symop_operation_xyz
x,y,z
-x,y,-z
-x,-y,-z
x,-y,z
1/2+x,1/2+y,z
1/2-x,1/2+y,-z
1/2-x,1/2-y,-z
1/2+x,1/2-y,z
loop_
_atom_site_type_symbol
_atom_site_label
_atom_site_fract_x
_atom_site_fract_y
_atom_site_fract_z
Si Si1 0.027232 0.694100 0.401613
Si Si2 0.400173 0.192349 0.929287
Si Si3 0.357352 0.312030 0.647811
Si Si4 0.306473 0.689331 0.855734
Si Si5 0.502350 0.804047 0.215239
Si Si6 0.593760 0.803672 0.871856
Si Si7 0.207986 0.307373 0.789101
Si Si8 0.259577 0.814482 0.594575
O O1 0.028196 0.500000 0.401936
O O2 0.084895 0.756916 0.380568
O O3 0.000000 0.748949 0.500000
O O4 0.000781 0.744991 0.318197
O O5 0.342568 0.236521 0.918728
O O6 0.444327 0.250361 0.847545
O O7 0.402977 0.000000 0.927979
O O8 0.412680 0.247001 0.024391
O O9 0.351467 0.500000 0.629343
O O10 0.338327 0.288447 0.754437
O O11 0.319045 0.213181 0.598856
O O12 0.302132 0.500000 0.874997
O O13 0.249836 0.753218 0.847973
O O14 0.453168 0.751056 0.174710
O O15 0.502699 0.000000 0.213433
O O16 0.650100 0.750250 0.822082
O O17 0.593486 0.000000 0.870525
O O18 0.207890 0.500000 0.798266
O O19 0.228652 0.269551 0.684377
O O20 0.250000 0.750000 0.500000
O O21 0.246370 0.000000 0.601943
#
# Coordination Sequence:
#
# PCOD9173497 Si02
#       8
#     8   8   8   8   8   8   8   8
#     4  10  20  33  52  82 113 143 184 232 285 338
#     4  10  18  30  54  81 102 137 190 233 276 332
#     4  10  20  36  56  78 108 145 184 226 278 332
#     4   9  18  32  51  74 104 141 178 224 279 336
#     4   9  17  31  51  77 109 141 181 232 278 325
#     4   9  18  32  52  78 109 145 185 231 279 332
#     4   9  19  36  54  77 111 147 184 225 277 333
#     4  11  22  37  59  84 110 142 184 228 276 332
#
# _framework density 19.468419999999998
#
# number of rings (size 3 to 8) (size 9 to 14) (size 15 to 20)
#    0.000    2.375    1.250    2.625    0.000    5.250 
#    0.000    3.125    0.000    3.750    0.000    0.000 
#    0.000    0.000    0.000    0.000    0.000    0.000 
#
# Total GULP energy -178526.949288 kJ/mol
# GULP energy per Si atom -5578.967165 kJ/mol
# Density = 1.942411 g / cm^3
# Si number density = 19.468420 Si / 1000 Ang^3
#
#
#
# Elastic Constant Matrix: (Units=GPa)
#
#
# Indices 1 2 3 4 5 6 
#
# 1 113.8936 6.8139 51.0199 0.0000 10.3749 0.0000
# 2 6.8139 -4.9525 8.2260 0.0000 1.6417 0.0000
# 3 51.0199 8.2260 98.1968 0.0000 14.6803 0.0000
# 4 0.0000 0.0000 0.0000 10.4910 0.0000 2.4450
# 5 10.3749 1.6417 14.6803 0.0000 21.7204 0.0000
# 6 0.0000 0.0000 0.0000 2.4450 0.0000 24.4053
#
#
#
# Elastic Compliance Matrix: (Units=1/GPa)
#
#
# Indices 1 2 3 4 5 6 
#
# 1 0.011352 0.004987 -0.006061 0.000000 -0.001703 0.000000
# 2 0.004987 -0.174792 0.011605 0.000000 0.002986 0.000000
# 3 -0.006061 0.011605 0.013415 0.000000 -0.007048 0.000000
# 4 0.000000 0.000000 0.000000 0.097599 0.000000 -0.009778
# 5 -0.001703 0.002986 -0.007048 0.000000 0.051391 0.000000
# 6 0.000000 0.000000 0.000000 -0.009778 0.000000 0.041954
#
#
# Mechanical properties :
#
#
# Convention : Reuss Voigt Hill
#
# Bulk Modulus (GPa) = -7.75407 37.69526 14.97060
# Shear Modulus (GPa) = -216.17264 20.72856 -97.72204
#
# Velocity S-wave (km/s) = -10.54887 3.26656 -7.09254
# Velocity P-wave (km/s) = 12.34354 5.79927 7.70492
#
# Compressibility (1/GPa) = -0.12896457
#
# Stress axis : x y z
#
# Youngs Moduli (GPa) = 88.08905 -5.72110 74.54604
#
# Poissons Ratio (x) = 0.02853 0.45185
# Poissons Ratio (y) = -0.43927 -0.86511
# Poissons Ratio (z) = 0.53394 0.06639
#
# Static dielectric constant tensor:
#      x y z
#    x 1.661240 0.000000 0.030850 
#    y 0.000000 1.681640 0.000000 
#    z 0.030850 0.000000 1.635110 
# 
# From -- ./inp_files/243921.got.cif
#   From: 2010.05.17/outbox.cif.g08.bks.cpg/sg12_122_cif.got.tgz:243921.got - 2010.06.03 13:09:07.
