data_PCOD9173755
_publ_section_title
;
Structure prediction by ZEFSAII (Michael W. Deem and Ramdas Pophale) SiO2 
 PCOD9173755
Probable space group: C 2/M
;
_chemical_formula_sum "Si O2"
_cell_formula_units_Z 56
_cell_length_a 31.041128
_cell_length_b 13.747253
_cell_length_c 10.047643
_cell_angle_alpha 90.000000
_cell_angle_beta 127.215276
_cell_angle_gamma 90.000000
_cell_volume 3414.536778
_symmetry_space_group_name_H-M "C 2/M"
_symmetry_group_IT_number 12
_symmetry_cell_setting 'monoclinic'
loop_
_space_group_symop_operation_xyz
x,y,z
-x,y,-z
-x,-y,-z
x,-y,z
1/2+x,1/2+y,z
1/2-x,1/2+y,-z
1/2-x,1/2-y,-z
1/2+x,1/2-y,z
loop_
_atom_site_type_symbol
_atom_site_label
_atom_site_fract_x
_atom_site_fract_y
_atom_site_fract_z
Si Si1 0.712050 0.616168 0.341986
Si Si2 0.052322 0.615639 0.918602
Si Si3 0.759650 0.115509 0.299192
Si Si4 0.825084 0.616396 0.400395
Si Si5 0.690110 0.271380 0.836061
Si Si6 0.846712 0.744332 0.954291
Si Si7 0.065409 0.615168 0.260521
O O1 0.703008 0.500000 0.314505
O O2 0.721763 0.639313 0.515424
O O3 0.767970 0.638531 0.365986
O O4 0.664667 0.677225 0.183088
O O5 0.057857 0.500000 0.895441
O O6 0.990585 0.650259 0.778294
O O7 0.098269 0.683582 0.944973
O O8 0.060715 0.624111 0.093493
O O9 0.802697 0.151539 0.269401
O O10 0.702838 0.168154 0.160776
O O11 0.752282 0.000000 0.278056
O O12 0.826682 0.500000 0.387954
O O13 0.828903 0.672009 0.268621
O O14 0.876735 0.651207 0.581791
O O15 0.750000 0.250000 0.000000
O O16 0.658318 0.295050 0.910730
O O17 0.065398 0.500000 0.287989
#
# Coordination Sequence:
#
# PCOD9173755 Si02
#       7
#     8   8   8   8   8   8   8
#     4  10  20  32  50  75 100 129 167 209 251 294
#     4   9  17  30  50  76 106 133 167 206 245 296
#     4  10  20  32  47  70  99 132 166 205 251 299
#     4  10  18  31  50  71 103 137 166 203 245 295
#     4  10  21  32  43  70 101 137 169 198 242 301
#     4  11  20  32  48  74 102 135 166 203 249 300
#     4   8  16  30  49  76 101 133 170 203 249 295
#
# _framework density 16.400468
#
# number of rings (size 3 to 8) (size 9 to 14) (size 15 to 20)
#    0.000    2.286    2.857    2.571    2.000    5.714 
#    0.000    0.714    0.000    2.571    0.000    3.000 
#    0.000    2.286    0.000    0.000    0.000    0.000 
#
# Total GULP energy -155917.298837 kJ/mol
# GULP energy per Si atom -5568.474958 kJ/mol
# Density = 1.636314 g / cm^3
# Si number density = 16.400468 Si / 1000 Ang^3
#
#
#
# Elastic Constant Matrix: (Units=GPa)
#
#
# Indices 1 2 3 4 5 6 
#
# 1 43.7934 3.2585 1.4706 0.0000 -4.1942 0.0000
# 2 3.2585 47.4726 4.6345 0.0000 -5.8866 0.0000
# 3 1.4706 4.6345 44.1173 0.0000 -10.9647 0.0000
# 4 0.0000 0.0000 0.0000 16.6516 0.0000 -1.6772
# 5 -4.1942 -5.8866 -10.9647 0.0000 26.3190 0.0000
# 6 0.0000 0.0000 0.0000 -1.6772 0.0000 24.6898
#
#
#
# Elastic Compliance Matrix: (Units=1/GPa)
#
#
# Indices 1 2 3 4 5 6 
#
# 1 0.023253 -0.001180 0.000228 0.000000 0.003537 0.000000
# 2 -0.001180 0.021782 -0.001210 0.000000 0.004180 0.000000
# 3 0.000228 -0.001210 0.025353 0.000000 0.010328 0.000000
# 4 0.000000 0.000000 0.000000 0.060468 0.000000 0.004108
# 5 0.003537 0.004180 0.010328 0.000000 0.043796 0.000000
# 6 0.000000 0.000000 0.000000 0.004108 0.000000 0.040782
#
#
# Mechanical properties :
#
#
# Convention : Reuss Voigt Hill
#
# Bulk Modulus (GPa) = 15.13672 17.12342 16.13007
# Shear Modulus (GPa) = 20.67992 21.93340 21.30666
#
# Velocity S-wave (km/s) = 3.55482 3.66097 3.60828
# Velocity P-wave (km/s) = 5.10866 5.32294 5.21690
#
# Compressibility (1/GPa) = 0.06606450
#
# Stress axis : x y z
#
# Youngs Moduli (GPa) = 43.00459 45.90907 39.44274
#
# Poissons Ratio (x) = 0.05416 -0.00898
# Poissons Ratio (y) = 0.05074 0.04773
# Poissons Ratio (z) = -0.00980 0.05555
#
# Static dielectric constant tensor:
#      x y z
#    x 1.586810 0.000000 -0.007050 
#    y 0.000000 1.560680 0.000000 
#    z -0.007050 0.000000 1.550740 
# 
# From -- ./inp_files/111300.got.cif
#   From: 2010.05.17/outbox.cif.g08.bks.cpg/sg12_56_cif.got.tgz:111300.got - 2010.06.03 13:09:07.
