data_PCOD9173388
_publ_section_title
;
Structure prediction by ZEFSAII (Michael W. Deem and Ramdas Pophale) SiO2 
 PCOD9173388
Probable space group: C 2/M
;
_chemical_formula_sum "Si O2"
_cell_formula_units_Z 60
_cell_length_a 12.613393
_cell_length_b 13.287788
_cell_length_c 23.540635
_cell_angle_alpha 90.000000
_cell_angle_beta 128.550830
_cell_angle_gamma 90.000000
_cell_volume 3085.605594
_symmetry_space_group_name_H-M "C 2/M"
_symmetry_group_IT_number 12
_symmetry_cell_setting 'monoclinic'
loop_
_space_group_symop_operation_xyz
x,y,z
-x,y,-z
-x,-y,-z
x,-y,z
1/2+x,1/2+y,z
1/2-x,1/2+y,-z
1/2-x,1/2-y,-z
1/2+x,1/2-y,z
loop_
_atom_site_type_symbol
_atom_site_label
_atom_site_fract_x
_atom_site_fract_y
_atom_site_fract_z
Si Si1 0.500000 0.711400 0.500000
Si Si2 0.283717 0.196526 0.571502
Si Si3 0.626699 0.387544 0.819082
Si Si4 0.122889 0.114581 0.082963
Si Si5 0.462152 0.111916 0.395575
Si Si6 0.359636 0.206140 0.823279
Si Si7 0.669777 0.319265 0.299673
Si Si8 0.659759 0.206706 0.919017
O O1 0.637937 0.649338 0.538995
O O2 0.519612 0.791368 0.557740
O O3 0.250000 0.250000 0.500000
O O4 0.417055 0.128641 0.609269
O O5 0.311653 0.276555 0.630672
O O6 0.654536 0.500000 0.849040
O O7 0.736365 0.358106 0.807492
O O8 0.470840 0.379326 0.747502
O O9 0.639928 0.303597 0.871885
O O10 0.138160 0.188301 0.141239
O O11 0.255828 0.126558 0.088864
O O12 0.099111 0.000000 0.092811
O O13 0.000000 0.146067 0.000000
O O14 0.304646 0.120689 0.325866
O O15 0.481908 0.000000 0.427043
O O16 0.342946 0.230203 0.751189
O O17 0.511383 0.165657 0.885153
O O18 0.750000 0.250000 0.000000
#
# Coordination Sequence:
#
# PCOD9173388 Si02
#       8
#     4   8   8   8   8   8   8   8
#     4   8  17  32  51  74 106 144 172 210 265 328
#     4   9  18  34  56  80 109 145 182 220 273 330
#     4  10  22  37  55  81 111 148 187 226 275 331
#     4  10  20  34  55  80 105 138 180 226 272 324
#     4  10  18  30  52  79 105 132 177 226 264 313
#     4  10  21  37  56  75 111 144 180 230 279 333
#     4  10  20  36  55  78 107 146 184 223 276 327
#     4  10  20  36  55  79 111 144 183 231 279 331
#
# _framework density 19.445129000000001
#
# number of rings (size 3 to 8) (size 9 to 14) (size 15 to 20)
#    0.000    2.267    1.333    1.400    0.000    3.733 
#    0.000    2.333    0.000    0.000    0.000    0.000 
#    0.000    0.000    0.000    0.000    0.000    0.000 
#
# Total GULP energy -167041.882671 kJ/mol
# GULP energy per Si atom -5568.062756 kJ/mol
# Density = 1.940087 g / cm^3
# Si number density = 19.445129 Si / 1000 Ang^3
#
#
#
# Elastic Constant Matrix: (Units=GPa)
#
#
# Indices 1 2 3 4 5 6 
#
# 1 135.1424 12.1070 38.4801 0.0000 44.2842 0.0000
# 2 12.1070 40.8484 14.9993 0.0000 9.9827 0.0000
# 3 38.4801 14.9993 78.6336 0.0000 9.6109 0.0000
# 4 0.0000 0.0000 0.0000 -12.2955 0.0000 8.4863
# 5 44.2842 9.9827 9.6109 0.0000 42.4753 0.0000
# 6 0.0000 0.0000 0.0000 8.4863 0.0000 -0.2966
#
#
#
# Elastic Compliance Matrix: (Units=1/GPa)
#
#
# Indices 1 2 3 4 5 6 
#
# 1 0.012800 0.001071 -0.004943 0.000000 -0.012478 0.000000
# 2 0.001071 0.027578 -0.004994 0.000000 -0.006468 0.000000
# 3 -0.004943 -0.004994 0.015751 0.000000 0.002763 0.000000
# 4 0.000000 0.000000 0.000000 0.004339 0.000000 0.124124
# 5 -0.012478 -0.006468 0.002763 0.000000 0.037448 0.000000
# 6 0.000000 0.000000 0.000000 0.124124 0.000000 0.179839
#
#
# Mechanical properties :
#
#
# Convention : Reuss Voigt Hill
#
# Bulk Modulus (GPa) = 26.04392 42.86634 34.45513
# Shear Modulus (GPa) = 16.21871 18.57916 17.39894
#
# Velocity S-wave (km/s) = 2.89117 3.09441 2.99452
# Velocity P-wave (km/s) = 4.95659 5.90422 5.45104
#
# Compressibility (1/GPa) = 0.03839668
#
# Stress axis : x y z
#
# Youngs Moduli (GPa) = 78.12419 36.26109 63.48825
#
# Poissons Ratio (x) = -0.03883 0.31382
# Poissons Ratio (y) = -0.08365 0.31705
# Poissons Ratio (z) = 0.38616 0.18108
#
# Static dielectric constant tensor:
#      x y z
#    x 1.746410 0.000000 0.027420 
#    y 0.000000 1.635140 0.000000 
#    z 0.027420 0.000000 1.701550 
# 
# From -- ./inp_files/336075.got.cif
#   From: 2010.05.17/outbox.cif.g08.bks.cpg/sg12_169_cif.got.tgz:336075.got - 2010.06.03 13:09:07.
