data_PCOD9173949
_publ_section_title
;
Structure prediction by ZEFSAII (Michael W. Deem and Ramdas Pophale) SiO2 
 PCOD9173949
Probable space group: C 2/M
;
_chemical_formula_sum "Si O2"
_cell_formula_units_Z 64
_cell_length_a 23.222740
_cell_length_b 25.965729
_cell_length_c 5.531109
_cell_angle_alpha 90.000000
_cell_angle_beta 86.194506
_cell_angle_gamma 90.000000
_cell_volume 3327.879311
_symmetry_space_group_name_H-M "C 2/M"
_symmetry_group_IT_number 12
_symmetry_cell_setting 'monoclinic'
loop_
_space_group_symop_operation_xyz
x,y,z
-x,y,-z
-x,-y,-z
x,-y,z
1/2+x,1/2+y,z
1/2-x,1/2+y,-z
1/2-x,1/2-y,-z
1/2+x,1/2-y,z
loop_
_atom_site_type_symbol
_atom_site_label
_atom_site_fract_x
_atom_site_fract_y
_atom_site_fract_z
Si Si1 0.553174 0.760278 0.304176
Si Si2 0.706518 0.559819 0.756997
Si Si3 0.336168 0.386343 0.733639
Si Si4 0.465817 0.647052 0.768634
Si Si5 0.936803 0.636605 0.009530
Si Si6 0.640414 0.189148 0.570689
Si Si7 0.676702 0.890854 0.178112
Si Si8 0.744883 0.197325 0.857713
O O1 0.500000 0.759455 0.500000
O O2 0.549377 0.706917 0.164761
O O3 0.612893 0.764599 0.429209
O O4 0.552548 0.814707 0.169853
O O5 0.691723 0.500000 0.739329
O O6 0.684943 0.588419 0.516177
O O7 0.775872 0.566924 0.770980
O O8 0.681465 0.582616 0.016327
O O9 0.404909 0.380041 0.731748
O O10 0.303005 0.331485 0.763750
O O11 0.500000 0.645420 0.500000
O O12 0.500000 0.627585 0.000000
O O13 0.910078 0.667427 0.243280
O O14 0.884320 0.599762 0.938763
O O15 0.000000 0.611247 0.000000
O O16 0.658119 0.138457 0.422439
O O17 0.699629 0.209148 0.661565
O O18 0.710272 0.846740 0.017382
O O19 0.750000 0.250000 0.000000
#
# Coordination Sequence:
#
# PCOD9173949 Si02
#       8
#     8   8   8   8   8   8   8   8
#     4  10  20  30  50  78 116 174 222 238 279 346
#     4  11  23  46  72  94 120 154 205 271 326 382
#     4  11  24  43  67  98 124 159 212 252 316 392
#     4  11  25  41  61  88 127 169 202 253 300 365
#     4  10  18  31  51  77 120 165 212 257 285 345
#     4  10  19  33  48  74 122 156 213 255 286 344
#     4   9  21  35  52  87 115 156 211 251 305 367
#     4  10  22  34  52  82 127 168 198 248 307 362
#
# _framework density 19.231466999999999
#
# number of rings (size 3 to 8) (size 9 to 14) (size 15 to 20)
#    0.000    1.750    2.500    1.500    7.000    2.500 
#    0.000    0.000    0.000    7.875    0.000    0.875 
#    0.000    0.000    0.000    0.000    0.000    0.000 
#
# Total GULP energy -178175.775654 kJ/mol
# GULP energy per Si atom -5567.992989 kJ/mol
# Density = 1.918770 g / cm^3
# Si number density = 19.231467 Si / 1000 Ang^3
#
#
#
# Elastic Constant Matrix: (Units=GPa)
#
#
# Indices 1 2 3 4 5 6 
#
# 1 150.4069 39.8419 52.7656 0.0000 13.0622 0.0000
# 2 39.8419 60.1741 27.1550 0.0000 7.5140 0.0000
# 3 52.7656 27.1550 86.9160 0.0000 13.1261 0.0000
# 4 0.0000 0.0000 0.0000 16.5194 0.0000 5.1633
# 5 13.0622 7.5140 13.1261 0.0000 36.1411 0.0000
# 6 0.0000 0.0000 0.0000 5.1633 0.0000 18.7680
#
#
#
# Elastic Compliance Matrix: (Units=1/GPa)
#
#
# Indices 1 2 3 4 5 6 
#
# 1 0.009307 -0.004141 -0.004209 0.000000 -0.000974 0.000000
# 2 -0.004141 0.021317 -0.003918 0.000000 -0.001512 0.000000
# 3 -0.004209 -0.003918 0.015798 0.000000 -0.003402 0.000000
# 4 0.000000 0.000000 0.000000 0.066230 0.000000 -0.018221
# 5 -0.000974 -0.001512 -0.003402 0.000000 0.029571 0.000000
# 6 0.000000 0.000000 0.000000 -0.018221 0.000000 0.058295
#
#
# Mechanical properties :
#
#
# Convention : Reuss Voigt Hill
#
# Bulk Modulus (GPa) = 45.69006 59.66909 52.67957
# Shear Modulus (GPa) = 21.51927 26.13467 23.82697
#
# Velocity S-wave (km/s) = 3.34872 3.69040 3.52370
# Velocity P-wave (km/s) = 6.22587 7.01804 6.63379
#
# Compressibility (1/GPa) = 0.02188660
#
# Stress axis : x y z
#
# Youngs Moduli (GPa) = 107.44818 46.91081 63.29723
#
# Poissons Ratio (x) = 0.19426 0.26643
# Poissons Ratio (y) = 0.44494 0.24798
# Poissons Ratio (z) = 0.45227 0.18378
#
# Static dielectric constant tensor:
#      x y z
#    x 1.686360 0.000000 0.089240 
#    y 0.000000 1.632730 0.000000 
#    z 0.089240 0.000000 1.851720 
# 
# From -- ./inp_files/26069.got.cif
#   From: 2010.05.17/outbox.cif.g08.bks.cpg/sg12_14_cif.got.tgz:26069.got - 2010.06.03 13:09:07.
