data_PCOD9173856
_publ_section_title
;
Structure prediction by ZEFSAII (Michael W. Deem and Ramdas Pophale) SiO2 
 PCOD9173856
Probable space group: C 2/M
;
_chemical_formula_sum "Si O2"
_cell_formula_units_Z 48
_cell_length_a 23.424929
_cell_length_b 7.989948
_cell_length_c 24.738625
_cell_angle_alpha 90.000000
_cell_angle_beta 34.961024
_cell_angle_gamma 90.000000
_cell_volume 2653.180931
_symmetry_space_group_name_H-M "C 2/M"
_symmetry_group_IT_number 12
_symmetry_cell_setting 'monoclinic'
loop_
_space_group_symop_operation_xyz
x,y,z
-x,y,-z
-x,-y,-z
x,-y,z
1/2+x,1/2+y,z
1/2-x,1/2+y,-z
1/2-x,1/2-y,-z
1/2+x,1/2-y,z
loop_
_atom_site_type_symbol
_atom_site_label
_atom_site_fract_x
_atom_site_fract_y
_atom_site_fract_z
Si Si1 0.166297 0.300408 0.021132
Si Si2 0.986116 0.800353 0.777412
Si Si3 0.789808 0.797788 0.410335
Si Si4 0.617365 0.803810 0.464886
Si Si5 0.321723 0.705235 0.817710
Si Si6 0.605654 0.304204 0.353873
O O1 0.158406 0.500000 0.025727
O O2 0.216309 0.243635 0.926084
O O3 0.250000 0.250000 0.000000
O O4 0.064527 0.232397 0.125193
O O5 0.910728 0.737876 0.788971
O O6 0.097841 0.733549 0.685465
O O7 0.990271 0.000000 0.766955
O O8 0.750000 0.750000 0.500000
O O9 0.710242 0.739521 0.427448
O O10 0.793421 0.000000 0.403749
O O11 0.513755 0.714243 0.559639
O O12 0.633567 0.783404 0.388248
O O13 0.602834 0.000000 0.488042
O O14 0.324015 0.500000 0.815902
O O15 0.342577 0.760819 0.740674
O O16 0.629086 0.500000 0.341752
#
# Coordination Sequence:
#
# PCOD9173856 Si02
#       6
#     8   8   8   8   8   8
#     4   9  16  28  45  68  95 122 151 190 234 277
#     4   9  17  31  47  67  95 125 153 190 234 278
#     4  10  21  34  50  70  97 128 158 192 234 281
#     4  10  20  33  46  68  98 124 151 193 239 275
#     4   8  15  27  46  69  92 115 149 192 230 266
#     4  10  18  31  51  70  89 123 161 193 229 278
#
# _framework density 18.091491999999999
#
# number of rings (size 3 to 8) (size 9 to 14) (size 15 to 20)
#    0.000    2.667    0.000    4.500    0.000    3.333 
#    0.000   10.000    0.000    1.000    0.000    7.000 
#    0.000    0.000    0.000    0.000    0.000    0.000 
#
# Total GULP energy -133750.312658 kJ/mol
# GULP energy per Si atom -5572.929694 kJ/mol
# Density = 1.805032 g / cm^3
# Si number density = 18.091492 Si / 1000 Ang^3
#
#
#
# Elastic Constant Matrix: (Units=GPa)
#
#
# Indices 1 2 3 4 5 6 
#
# 1 75.7827 -3.9155 59.2018 -0.0003 -3.4336 0.0001
# 2 -3.9155 10.1530 -13.3523 -0.0004 -3.9060 0.0000
# 3 59.2018 -13.3523 162.2975 -0.0005 8.3285 0.0003
# 4 -0.0003 -0.0004 -0.0005 23.3500 0.0003 2.2217
# 5 -3.4336 -3.9060 8.3285 0.0003 26.8032 -0.0001
# 6 0.0001 0.0000 0.0003 2.2217 -0.0001 14.1735
#
#
#
# Elastic Compliance Matrix: (Units=1/GPa)
#
#
# Indices 1 2 3 4 5 6 
#
# 1 0.019013 -0.000362 -0.007202 0.000000 0.004621 0.000000
# 2 -0.000362 0.115465 0.008912 0.000002 0.014011 0.000000
# 3 -0.007202 0.008912 0.009657 0.000000 -0.002624 0.000000
# 4 0.000000 0.000002 0.000000 0.043475 0.000000 -0.006815
# 5 0.004621 0.014011 -0.002624 0.000000 0.040758 0.000000
# 6 0.000000 0.000000 0.000000 -0.006815 0.000000 0.071622
#
#
# Mechanical properties :
#
#
# Convention : Reuss Voigt Hill
#
# Bulk Modulus (GPa) = 6.81055 36.90012 21.85533
# Shear Modulus (GPa) = 14.44100 26.61863 20.52981
#
# Velocity S-wave (km/s) = 2.82834 3.83996 3.37230
# Velocity P-wave (km/s) = 3.79983 6.33254 5.22206
#
# Compressibility (1/GPa) = 0.14683107
#
# Stress axis : x y z
#
# Youngs Moduli (GPa) = 52.59638 8.66064 103.55607
#
# Poissons Ratio (x) = 0.00313 0.74583
# Poissons Ratio (y) = 0.01903 -0.92293
# Poissons Ratio (z) = 0.37881 -0.07719
#
# Static dielectric constant tensor:
#      x y z
#    x 1.606650 0.000000 0.002890 
#    y 0.000000 1.653840 0.000000 
#    z 0.002890 0.000000 1.646820 
# 
# From -- ./inp_files/348290.got.cif
#   From: 2010.05.17/outbox.cif.g08.bks.cpg/sg12_175_cif.got.tgz:348290.got - 2010.06.03 13:09:07.
