data_PCOD9173261
_publ_section_title
;
Structure prediction by ZEFSAII (Michael W. Deem and Ramdas Pophale) SiO2 
 PCOD9173261
Probable space group: C 2/M
;
_chemical_formula_sum "Si O2"
_cell_formula_units_Z 52
_cell_length_a 29.571002
_cell_length_b 15.114565
_cell_length_c 21.918783
_cell_angle_alpha 90.000000
_cell_angle_beta 160.523282
_cell_angle_gamma 90.000000
_cell_volume 3266.440233
_symmetry_space_group_name_H-M "C 2/M"
_symmetry_group_IT_number 12
_symmetry_cell_setting 'monoclinic'
loop_
_space_group_symop_operation_xyz
x,y,z
-x,y,-z
-x,-y,-z
x,-y,z
1/2+x,1/2+y,z
1/2-x,1/2+y,-z
1/2-x,1/2-y,-z
1/2+x,1/2-y,z
loop_
_atom_site_type_symbol
_atom_site_label
_atom_site_fract_x
_atom_site_fract_y
_atom_site_fract_z
Si Si1 0.502450 0.000000 0.849380
Si Si2 0.552967 0.669835 0.358174
Si Si3 0.596424 0.311166 0.550665
Si Si4 0.560447 0.833700 0.841425
Si Si5 0.259989 0.894135 0.046548
Si Si6 0.771954 0.000000 0.276148
Si Si7 0.728345 0.500000 0.576804
Si Si8 0.308490 0.762981 0.214983
O O1 0.505031 0.083754 0.807732
O O2 0.370825 0.000000 0.724241
O O3 0.636109 0.000000 0.062750
O O4 0.614169 0.695928 0.501341
O O5 0.547458 0.757635 0.310905
O O6 0.639911 0.586308 0.447251
O O7 0.394483 0.638935 0.162839
O O8 0.645808 0.409353 0.632205
O O9 0.671112 0.236644 0.686302
O O10 0.437220 0.295657 0.358610
O O11 0.639890 0.861072 0.880029
O O12 0.673157 0.788502 0.027041
O O13 0.305202 0.849769 0.168286
O O14 0.261272 0.000000 0.050284
O O15 0.750051 0.000000 0.321922
#
# Coordination Sequence:
#
# PCOD9173261 Si02
#       8
#     4   8   8   8   8   4   4   8
#     4  12  23  36  51  80 106 137 182 223 258 304
#     4  10  19  36  55  78 105 141 170 215 264 320
#     4  10  18  30  51  76 107 136 168 203 254 324
#     4  11  20  33  53  78 114 133 169 214 271 311
#     4  11  19  33  53  79 108 137 167 213 271 310
#     4  10  21  34  52  75 104 140 167 218 270 302
#     4  10  23  37  56  76 102 138 185 221 257 307
#     4  10  19  30  48  78 109 138 167 204 250 331
#
# _framework density 15.919471
#
# number of rings (size 3 to 8) (size 9 to 14) (size 15 to 20)
#    0.000    1.538    6.154    1.154    0.000    2.462 
#    0.000    1.538    1.692    0.000    0.000    0.000 
#    0.000    2.769    0.000    0.000    0.000    0.000 
#
# Total GULP energy -144844.302336 kJ/mol
# GULP energy per Si atom -5570.934705 kJ/mol
# Density = 1.588324 g / cm^3
# Si number density = 15.919471 Si / 1000 Ang^3
#
#
#
# Elastic Constant Matrix: (Units=GPa)
#
#
# Indices 1 2 3 4 5 6 
#
# 1 46.7726 41.6367 32.8700 0.0001 -11.5693 0.0001
# 2 41.6367 103.0828 43.6681 -0.0001 -7.9131 0.0000
# 3 32.8700 43.6681 69.0480 -0.0002 -17.0668 -0.0002
# 4 0.0001 -0.0001 -0.0002 14.9431 -0.0001 -14.4357
# 5 -11.5693 -7.9131 -17.0668 -0.0001 24.7738 -0.0001
# 6 0.0001 0.0000 -0.0002 -14.4357 -0.0001 12.1982
#
#
#
# Elastic Compliance Matrix: (Units=1/GPa)
#
#
# Indices 1 2 3 4 5 6 
#
# 1 0.040840 -0.011606 -0.010008 0.000005 0.008471 0.000005
# 2 -0.011606 0.016621 -0.006043 0.000000 -0.004274 0.000000
# 3 -0.010008 -0.006043 0.025836 -0.000006 0.011194 -0.000007
# 4 0.000005 0.000000 -0.000006 -0.467179 -0.000005 -0.552873
# 5 0.008471 -0.004274 0.011194 -0.000005 0.050668 -0.000005
# 6 0.000005 0.000000 -0.000007 -0.552873 -0.000005 -0.572305
#
#
# Mechanical properties :
#
#
# Convention : Reuss Voigt Hill
#
# Bulk Modulus (GPa) = 35.73660 50.58364 43.16012
# Shear Modulus (GPa) = -5.94616 17.09827 5.57606
#
# Velocity S-wave (km/s) = -1.93475 3.28082 1.87357
# Velocity P-wave (km/s) = 4.18403 6.79672 5.64365
#
# Compressibility (1/GPa) = 0.02798252
#
# Stress axis : x y z
#
# Youngs Moduli (GPa) = 24.48566 60.16637 38.70640
#
# Poissons Ratio (x) = 0.69830 0.38737
# Poissons Ratio (y) = 0.28418 0.23389
# Poissons Ratio (z) = 0.24505 0.36357
#
# Static dielectric constant tensor:
#      x y z
#    x 1.566780 0.000000 -0.024390 
#    y 0.000000 1.532470 0.000000 
#    z -0.024390 0.000000 1.520620 
# 
# From -- ./inp_files/155412.got.cif
#   From: 2010.05.17/outbox.cif.g08.bks.cpg/sg12_78_cif.got.tgz:155412.got - 2010.06.03 13:09:07.
