data_PCOD9173310
_publ_section_title
;
Structure prediction by ZEFSAII (Michael W. Deem and Ramdas Pophale) SiO2 
 PCOD9173310
Probable space group: C 2/M
;
_chemical_formula_sum "Si O2"
_cell_formula_units_Z 64
_cell_length_a 24.723098
_cell_length_b 9.190973
_cell_length_c 16.136618
_cell_angle_alpha 90.000000
_cell_angle_beta 90.781984
_cell_angle_gamma 90.000000
_cell_volume 3666.371335
_symmetry_space_group_name_H-M "C 2/M"
_symmetry_group_IT_number 12
_symmetry_cell_setting 'monoclinic'
loop_
_space_group_symop_operation_xyz
x,y,z
-x,y,-z
-x,-y,-z
x,-y,z
1/2+x,1/2+y,z
1/2-x,1/2+y,-z
1/2-x,1/2-y,-z
1/2+x,1/2-y,z
loop_
_atom_site_type_symbol
_atom_site_label
_atom_site_fract_x
_atom_site_fract_y
_atom_site_fract_z
Si Si1 0.579256 0.170035 0.556087
Si Si2 0.391447 0.673376 0.188342
Si Si3 0.667814 0.827506 0.953929
Si Si4 0.711197 0.671904 0.109926
Si Si5 0.678731 0.170726 0.673738
Si Si6 0.699143 0.673298 0.304541
Si Si7 0.092844 0.326559 0.364216
Si Si8 0.989991 0.173169 0.306414
O O1 0.640076 0.183803 0.593374
O O2 0.578137 0.206662 0.459672
O O3 0.541648 0.267694 0.613253
O O4 0.563049 0.000000 0.565972
O O5 0.385763 0.500000 0.181679
O O6 0.377527 0.749120 0.101633
O O7 0.348877 0.735722 0.254695
O O8 0.450336 0.706328 0.228411
O O9 0.725873 0.798182 0.910436
O O10 0.659571 0.000000 0.955183
O O11 0.675042 0.763418 0.045821
O O12 0.702538 0.500000 0.094733
O O13 0.700455 0.701751 0.205800
O O14 0.740927 0.210607 0.661174
O O15 0.678166 0.000000 0.700128
O O16 0.690625 0.500000 0.316393
O O17 0.651298 0.762134 0.344991
O O18 0.092376 0.500000 0.354562
O O19 0.047383 0.252274 0.306455
O O20 0.996797 0.000000 0.311683
#
# Coordination Sequence:
#
# PCOD9173310 Si02
#       8
#     8   8   8   8   8   8   8   8
#     4   9  19  35  55  77 104 133 168 219 267 307
#     4  10  19  31  51  79 107 132 166 215 262 303
#     4  10  18  30  51  79 107 137 170 203 252 307
#     4   9  18  32  49  75 107 138 171 206 248 300
#     4   9  17  33  53  74 102 138 173 207 257 311
#     4  10  20  35  53  73 104 143 176 208 250 306
#     4  11  23  36  51  75 103 138 178 215 261 308
#     4  10  21  36  55  78 101 132 175 220 263 305
#
# _framework density 17.455950999999999
#
# number of rings (size 3 to 8) (size 9 to 14) (size 15 to 20)
#    0.000    2.250    1.250    1.875    0.000    6.000 
#    0.000    0.000    0.000    0.750    0.000    5.250 
#    0.000    0.000    0.000    0.000    0.000    0.000 
#
# Total GULP energy -178584.468162 kJ/mol
# GULP energy per Si atom -5580.764630 kJ/mol
# Density = 1.741622 g / cm^3
# Si number density = 17.455951 Si / 1000 Ang^3
#
#
#
# Elastic Constant Matrix: (Units=GPa)
#
#
# Indices 1 2 3 4 5 6 
#
# 1 85.9789 31.0258 11.7887 0.0000 23.6144 0.0000
# 2 31.0258 38.8477 22.5353 0.0000 19.2398 0.0000
# 3 11.7887 22.5353 35.9762 0.0000 23.4510 0.0000
# 4 0.0000 0.0000 0.0000 25.9255 0.0000 -0.4143
# 5 23.6144 19.2398 23.4510 0.0000 23.9140 0.0000
# 6 0.0000 0.0000 0.0000 -0.4143 0.0000 26.2822
#
#
#
# Elastic Compliance Matrix: (Units=1/GPa)
#
#
# Indices 1 2 3 4 5 6 
#
# 1 0.023639 -0.016132 0.025265 0.000000 -0.035140 0.000000
# 2 -0.016132 0.055788 -0.029896 0.000000 0.000364 0.000000
# 3 0.025265 -0.029896 0.107624 0.000000 -0.106436 0.000000
# 4 0.000000 0.000000 0.000000 0.038582 0.000000 0.000608
# 5 -0.035140 0.000364 -0.106436 0.000000 0.180599 0.000000
# 6 0.000000 0.000000 0.000000 0.000608 0.000000 0.038058
#
#
# Mechanical properties :
#
#
# Convention : Reuss Voigt Hill
#
# Bulk Modulus (GPa) = 6.87171 32.38917 19.63044
# Shear Modulus (GPa) = 9.35760 21.58788 15.47274
#
# Velocity S-wave (km/s) = 2.31783 3.52050 2.98046
# Velocity P-wave (km/s) = 3.33290 5.92624 4.80773
#
# Compressibility (1/GPa) = 0.14552426
#
# Stress axis : x y z
#
# Youngs Moduli (GPa) = 42.30257 17.92504 9.29158
#
# Poissons Ratio (x) = 0.28917 -0.23475
# Poissons Ratio (y) = 0.68243 0.27778
# Poissons Ratio (z) = -1.06876 0.53589
#
# Static dielectric constant tensor:
#      x y z
#    x 1.596390 0.000000 0.026410 
#    y 0.000000 1.579430 0.000000 
#    z 0.026410 0.000000 1.580760 
# 
# From -- ./inp_files/238580.got.cif
#   From: 2010.05.17/outbox.cif.g08.bks.cpg/sg12_120_cif.got.tgz:238580.got - 2010.06.03 13:09:07.
