data_PCOD9173315
_publ_section_title
;
Structure prediction by ZEFSAII (Michael W. Deem and Ramdas Pophale) SiO2 
 PCOD9173315
Probable space group: C 2/M
;
_chemical_formula_sum "Si O2"
_cell_formula_units_Z 64
_cell_length_a 16.724647
_cell_length_b 28.199884
_cell_length_c 8.850796
_cell_angle_alpha 90.000000
_cell_angle_beta 43.045859
_cell_angle_gamma 90.000000
_cell_volume 2849.327733
_symmetry_space_group_name_H-M "C 2/M"
_symmetry_group_IT_number 12
_symmetry_cell_setting 'monoclinic'
loop_
_space_group_symop_operation_xyz
x,y,z
-x,y,-z
-x,-y,-z
x,-y,z
1/2+x,1/2+y,z
1/2-x,1/2+y,-z
1/2-x,1/2-y,-z
1/2+x,1/2-y,z
loop_
_atom_site_type_symbol
_atom_site_label
_atom_site_fract_x
_atom_site_fract_y
_atom_site_fract_z
Si Si1 0.380967 0.238261 0.735853
Si Si2 0.742775 0.333863 0.217127
Si Si3 0.671372 0.554318 0.859696
Si Si4 0.234739 0.854966 0.577478
Si Si5 0.644902 0.304697 0.978337
Si Si6 0.103826 0.550994 0.239217
Si Si7 0.491661 0.867713 0.840834
Si Si8 0.919393 0.106532 0.756086
O O1 0.500000 0.221282 0.500000
O O2 0.329586 0.285460 0.719960
O O3 0.279538 0.199426 0.856285
O O4 0.405511 0.258730 0.869227
O O5 0.714835 0.347806 0.428070
O O6 0.697803 0.376453 0.171660
O O7 0.883266 0.330979 0.004854
O O8 0.662631 0.500000 0.818007
O O9 0.686584 0.594946 0.711678
O O10 0.785707 0.560607 0.806982
O O11 0.576678 0.566026 0.121859
O O12 0.168600 0.815130 0.770527
O O13 0.378048 0.852740 0.394330
O O14 0.568791 0.346969 0.153897
O O15 0.125119 0.500000 0.131801
O O16 0.058843 0.591164 0.192306
O O17 0.000000 0.545936 0.500000
O O18 0.500000 0.886459 0.000000
O O19 0.000000 0.098738 0.500000
#
# Coordination Sequence:
#
# PCOD9173315 Si02
#       8
#     8   8   8   8   8   8   8   8
#     4  10  21  39  59  84 112 144 189 236 282 338
#     4  10  20  36  55  79 116 150 187 235 282 346
#     4  10  20  36  56  82 115 152 198 244 280 332
#     4  10  21  35  55  84 116 154 187 229 292 340
#     4   9  20  36  56  83 109 139 183 232 278 338
#     4  10  18  30  51  79 110 146 187 231 279 330
#     4  10  20  33  50  80 115 147 183 223 281 342
#     4  10  20  38  61  83 112 149 195 237 283 337
#
# _framework density 22.461438999999999
#
# number of rings (size 3 to 8) (size 9 to 14) (size 15 to 20)
#    0.000    2.125    2.500    1.500    0.000    4.000 
#    0.000    8.125    0.000    2.250    0.000    0.000 
#    0.000    0.000    0.000    0.000    0.000    0.000 
#
# Total GULP energy -178156.373595 kJ/mol
# GULP energy per Si atom -5567.386675 kJ/mol
# Density = 2.241032 g / cm^3
# Si number density = 22.461439 Si / 1000 Ang^3
#
#
#
# Elastic Constant Matrix: (Units=GPa)
#
#
# Indices 1 2 3 4 5 6 
#
# 1 43.3920 31.4712 7.1844 0.0000 12.2052 0.0000
# 2 31.4712 81.1764 26.4438 0.0000 29.9640 0.0000
# 3 7.1844 26.4438 124.5605 0.0000 10.2277 0.0000
# 4 0.0000 0.0000 0.0000 26.1262 0.0000 13.9364
# 5 12.2052 29.9640 10.2277 0.0000 40.1249 0.0000
# 6 0.0000 0.0000 0.0000 13.9364 0.0000 39.4216
#
#
#
# Elastic Compliance Matrix: (Units=1/GPa)
#
#
# Indices 1 2 3 4 5 6 
#
# 1 0.032157 -0.012500 0.000853 0.000000 -0.000665 0.000000
# 2 -0.012500 0.022748 -0.003090 0.000000 -0.012397 0.000000
# 3 0.000853 -0.003090 0.008648 0.000000 -0.000156 0.000000
# 4 0.000000 0.000000 0.000000 0.047171 0.000000 -0.016676
# 5 -0.000665 -0.012397 -0.000156 0.000000 0.034422 0.000000
# 6 0.000000 0.000000 0.000000 -0.016676 0.000000 0.031262
#
#
# Mechanical properties :
#
#
# Convention : Reuss Voigt Hill
#
# Bulk Modulus (GPa) = 29.34300 42.14752 35.74526
# Shear Modulus (GPa) = 23.01593 33.40317 28.20955
#
# Velocity S-wave (km/s) = 3.20454 3.86052 3.54773
# Velocity P-wave (km/s) = 5.17535 6.21905 5.72105
#
# Compressibility (1/GPa) = 0.03407968
#
# Stress axis : x y z
#
# Youngs Moduli (GPa) = 31.09741 43.96062 115.63510
#
# Poissons Ratio (x) = 0.54949 -0.09869
# Poissons Ratio (y) = 0.38870 0.35735
# Poissons Ratio (z) = -0.02654 0.13585
#
# Static dielectric constant tensor:
#      x y z
#    x 1.899350 0.000000 -0.054420 
#    y 0.000000 1.931770 0.000000 
#    z -0.054420 0.000000 1.935770 
# 
# From -- ./inp_files/80726.got.cif
#   From: 2010.05.17/outbox.cif.g08.bks.cpg/sg12_41_cif.got.tgz:80726.got - 2010.06.03 13:09:07.
