data_PCOD9173249
_publ_section_title
;
Structure prediction by ZEFSAII (Michael W. Deem and Ramdas Pophale) SiO2 
 PCOD9173249
Probable space group: C 2/M
;
_chemical_formula_sum "Si O2"
_cell_formula_units_Z 56
_cell_length_a 24.135385
_cell_length_b 7.430433
_cell_length_c 14.967344
_cell_angle_alpha 90.000000
_cell_angle_beta 69.199069
_cell_angle_gamma 90.000000
_cell_volume 2509.233318
_symmetry_space_group_name_H-M "C 2/M"
_symmetry_group_IT_number 12
_symmetry_cell_setting 'monoclinic'
loop_
_space_group_symop_operation_xyz
x,y,z
-x,y,-z
-x,-y,-z
x,-y,z
1/2+x,1/2+y,z
1/2-x,1/2+y,-z
1/2-x,1/2-y,-z
1/2+x,1/2-y,z
loop_
_atom_site_type_symbol
_atom_site_label
_atom_site_fract_x
_atom_site_fract_y
_atom_site_fract_z
Si Si1 0.690054 0.281821 0.135246
Si Si2 0.221080 0.285111 0.612801
Si Si3 0.057591 0.720552 0.912302
Si Si4 0.442926 0.713993 0.481510
Si Si5 0.413249 0.783967 0.299483
Si Si6 0.331699 0.280183 0.657807
Si Si7 0.674628 0.792533 0.945533
O O1 0.690680 0.500000 0.129361
O O2 0.658565 0.228600 0.245116
O O3 0.662458 0.215124 0.058652
O O4 0.758734 0.217449 0.101899
O O5 0.217078 0.500000 0.626139
O O6 0.250000 0.250000 0.500000
O O7 0.154494 0.214305 0.657200
O O8 0.267563 0.218915 0.659784
O O9 0.057875 0.500000 0.915113
O O10 0.056763 0.776980 0.809382
O O11 0.119367 0.782160 0.922079
O O12 0.000000 0.779292 0.000000
O O13 0.500000 0.787132 0.500000
O O14 0.441837 0.500000 0.497132
O O15 0.444244 0.741067 0.375008
O O16 0.382324 0.783122 0.560971
O O17 0.410447 0.000000 0.296323
O O18 0.330743 0.500000 0.656249
O O19 0.679972 0.000000 0.913188
#
# Coordination Sequence:
#
# PCOD9173249 Si02
#       7
#     8   8   8   8   8   8   8
#     4   9  17  30  50  72  97 129 163 202 247 296
#     4  10  18  30  51  76 101 129 165 207 252 300
#     4   9  18  33  53  75 101 134 170 206 250 302
#     4  10  21  36  52  71 100 138 173 203 245 305
#     4  10  20  34  54  79 102 129 170 216 255 296
#     4   9  17  31  50  71  97 132 167 198 244 303
#     4   9  17  31  50  73  98 126 163 206 249 294
#
# _framework density 22.317574
#
# number of rings (size 3 to 8) (size 9 to 14) (size 15 to 20)
#    0.000    2.571    1.429    0.857    0.000    4.857 
#    0.000    2.143    0.000    4.286    0.000    0.000 
#    0.000    0.000    0.000    0.000    0.000    0.000 
#
# Total GULP energy -156375.844482 kJ/mol
# GULP energy per Si atom -5584.851589 kJ/mol
# Density = 2.226678 g / cm^3
# Si number density = 22.317574 Si / 1000 Ang^3
#
#
#
# Elastic Constant Matrix: (Units=GPa)
#
#
# Indices 1 2 3 4 5 6 
#
# 1 109.8451 2.4833 60.0883 0.0000 17.3747 0.0000
# 2 2.4833 69.8048 -13.4015 0.0000 -3.2887 0.0000
# 3 60.0883 -13.4015 157.8430 0.0000 11.2730 0.0000
# 4 0.0000 0.0000 0.0000 16.4615 0.0000 -1.3569
# 5 17.3747 -3.2887 11.2730 0.0000 30.0214 0.0000
# 6 0.0000 0.0000 0.0000 -1.3569 0.0000 -7.9439
#
#
#
# Elastic Compliance Matrix: (Units=1/GPa)
#
#
# Indices 1 2 3 4 5 6 
#
# 1 0.012496 -0.001575 -0.004482 0.000000 -0.005722 0.000000
# 2 -0.001575 0.014801 0.001721 0.000000 0.001886 0.000000
# 3 -0.004482 0.001721 0.008209 0.000000 -0.000300 0.000000
# 4 0.000000 0.000000 0.000000 0.059904 0.000000 -0.010232
# 5 -0.005722 0.001886 -0.000300 0.000000 0.036940 0.000000
# 6 0.000000 0.000000 0.000000 -0.010232 0.000000 -0.124135
#
#
# Mechanical properties :
#
#
# Convention : Reuss Voigt Hill
#
# Bulk Modulus (GPa) = 37.26382 48.42592 42.84487
# Shear Modulus (GPa) = 193.56091 26.92932 110.24512
#
# Velocity S-wave (km/s) = 9.32301 3.47744 7.03602
# Velocity P-wave (km/s) = 11.51628 6.15379 9.23293
#
# Compressibility (1/GPa) = 0.02683568
#
# Stress axis : x y z
#
# Youngs Moduli (GPa) = 80.02434 67.56285 121.81340
#
# Poissons Ratio (x) = 0.10639 0.54599
# Poissons Ratio (y) = 0.12601 -0.20969
# Poissons Ratio (z) = 0.35868 -0.11630
#
# Static dielectric constant tensor:
#      x y z
#    x 1.798430 0.000000 -0.004220 
#    y 0.000000 1.871840 0.000000 
#    z -0.004220 0.000000 1.800600 
# 
# From -- ./inp_files/164843.got.cif
#   From: 2010.05.17/outbox.cif.g08.bks.cpg/sg12_83_cif.got.tgz:164843.got - 2010.06.03 13:09:07.
