data_PCOD9173666
_publ_section_title
;
Structure prediction by ZEFSAII (Michael W. Deem and Ramdas Pophale) SiO2 
 PCOD9173666
Probable space group: C 2/M
;
_chemical_formula_sum "Si O2"
_cell_formula_units_Z 48
_cell_length_a 24.814885
_cell_length_b 7.626294
_cell_length_c 13.753133
_cell_angle_alpha 90.000000
_cell_angle_beta 104.190284
_cell_angle_gamma 90.000000
_cell_volume 2523.303057
_symmetry_space_group_name_H-M "C 2/M"
_symmetry_group_IT_number 12
_symmetry_cell_setting 'monoclinic'
loop_
_space_group_symop_operation_xyz
x,y,z
-x,y,-z
-x,-y,-z
x,-y,z
1/2+x,1/2+y,z
1/2-x,1/2+y,-z
1/2-x,1/2-y,-z
1/2+x,1/2-y,z
loop_
_atom_site_type_symbol
_atom_site_label
_atom_site_fract_x
_atom_site_fract_y
_atom_site_fract_z
Si Si1 0.272410 0.710787 0.616194
Si Si2 0.708938 0.784778 0.779922
Si Si3 0.381220 0.705757 0.759810
Si Si4 0.890916 0.300595 0.147228
Si Si5 0.183381 0.794454 0.063381
Si Si6 0.006366 0.204457 0.111706
O O1 0.274963 0.500000 0.628044
O O2 0.250000 0.750000 0.500000
O O3 0.231462 0.771483 0.684766
O O4 0.334672 0.779757 0.666195
O O5 0.647920 0.725195 0.784645
O O6 0.755412 0.730094 0.879818
O O7 0.708662 0.000000 0.782009
O O8 0.387632 0.500000 0.735885
O O9 0.351999 0.715699 0.852676
O O10 0.442628 0.781534 0.803507
O O11 0.905470 0.500000 0.178372
O O12 0.947863 0.211623 0.140588
O O13 0.849911 0.299143 0.036009
O O14 0.186605 0.000000 0.038696
O O15 0.021626 0.000000 0.103109
O O16 0.000000 0.281553 0.000000
#
# Coordination Sequence:
#
# PCOD9173666 Si02
#       6
#     8   8   8   8   8   8
#     4   9  17  33  55  74  91 115 150 197 245 283
#     4   8  17  31  47  66  94 127 156 186 235 290
#     4   8  15  29  49  69  90 120 159 194 226 269
#     4  11  20  28  41  68 101 129 153 189 235 274
#     4   9  15  29  48  64  87 128 167 189 217 273
#     4  10  18  31  49  66  89 130 173 192 212 269
#
# _framework density 19.022684000000002
#
# number of rings (size 3 to 8) (size 9 to 14) (size 15 to 20)
#    0.000    2.833    1.667    3.000    0.000    0.333 
#    0.000    6.667    0.000    1.000    0.000    7.000 
#    0.000    0.000    0.000    0.000    0.000    0.000 
#
# Total GULP energy -133755.863215 kJ/mol
# GULP energy per Si atom -5573.160967 kJ/mol
# Density = 1.897939 g / cm^3
# Si number density = 19.022684 Si / 1000 Ang^3
#
#
#
# Elastic Constant Matrix: (Units=GPa)
#
#
# Indices 1 2 3 4 5 6 
#
# 1 144.9956 2.5376 64.3073 0.0000 20.3041 0.0000
# 2 2.5376 36.1042 2.3683 0.0000 2.3147 0.0000
# 3 64.3073 2.3683 114.4629 0.0000 16.9671 0.0000
# 4 0.0000 0.0000 0.0000 16.3425 0.0000 2.8366
# 5 20.3041 2.3147 16.9671 0.0000 17.4773 0.0000
# 6 0.0000 0.0000 0.0000 2.8366 0.0000 1.0395
#
#
#
# Elastic Compliance Matrix: (Units=1/GPa)
#
#
# Indices 1 2 3 4 5 6 
#
# 1 0.009890 0.000057 -0.004501 0.000000 -0.007128 0.000000
# 2 0.000057 0.027935 -0.000061 0.000000 -0.003707 0.000000
# 3 -0.004501 -0.000061 0.012254 0.000000 -0.006659 0.000000
# 4 0.000000 0.000000 0.000000 0.116256 0.000000 -0.317246
# 5 -0.007128 -0.003707 -0.006659 0.000000 0.072453 0.000000
# 6 0.000000 0.000000 0.000000 -0.317246 0.000000 1.827727
#
#
# Mechanical properties :
#
#
# Convention : Reuss Voigt Hill
#
# Bulk Modulus (GPa) = 24.34875 48.22103 36.28489
# Shear Modulus (GPa) = 2.39325 22.06184 12.22754
#
# Velocity S-wave (km/s) = 1.12287 3.40923 2.53808
# Velocity P-wave (km/s) = 3.80903 6.39542 5.26356
#
# Compressibility (1/GPa) = 0.04106987
#
# Stress axis : x y z
#
# Youngs Moduli (GPa) = 101.11058 35.79709 81.60904
#
# Poissons Ratio (x) = -0.00204 0.36733
# Poissons Ratio (y) = -0.00577 0.00494
# Poissons Ratio (z) = 0.45511 0.00217
#
# Static dielectric constant tensor:
#      x y z
#    x 1.694180 0.000000 0.015800 
#    y 0.000000 1.823900 0.000000 
#    z 0.015800 0.000000 1.649890 
# 
# From -- ./inp_files/179204.got.cif
#   From: 2010.05.17/outbox.cif.g08.bks.cpg/sg12_90_cif.got.tgz:179204.got - 2010.06.03 13:09:07.
