data_PCOD9173375
_publ_section_title
;
Structure prediction by ZEFSAII (Michael W. Deem and Ramdas Pophale) SiO2 
 PCOD9173375
Probable space group: C 2/M
;
_chemical_formula_sum "Si O2"
_cell_formula_units_Z 60
_cell_length_a 15.095183
_cell_length_b 7.337397
_cell_length_c 20.382010
_cell_angle_alpha 90.000000
_cell_angle_beta 94.211247
_cell_angle_gamma 90.000000
_cell_volume 2251.403128
_symmetry_space_group_name_H-M "C 2/M"
_symmetry_group_IT_number 12
_symmetry_cell_setting 'monoclinic'
loop_
_space_group_symop_operation_xyz
x,y,z
-x,y,-z
-x,-y,-z
x,-y,z
1/2+x,1/2+y,z
1/2-x,1/2+y,-z
1/2-x,1/2-y,-z
1/2+x,1/2-y,z
loop_
_atom_site_type_symbol
_atom_site_label
_atom_site_fract_x
_atom_site_fract_y
_atom_site_fract_z
Si Si1 0.950408 0.292760 0.058014
Si Si2 0.876020 0.278166 0.544677
Si Si3 0.593388 0.209592 0.258497
Si Si4 0.436230 0.215028 0.405335
Si Si5 0.748292 0.718538 0.643879
Si Si6 0.718360 0.279547 0.151659
Si Si7 0.750000 0.750000 0.000000
Si Si8 0.913797 0.723520 0.200105
O O1 0.984372 0.500000 0.065876
O O2 0.949112 0.214419 0.130471
O O3 0.848031 0.295880 0.031915
O O4 0.000000 0.201850 0.000000
O O5 0.871970 0.500000 0.542414
O O6 0.898294 0.212619 0.472928
O O7 0.786400 0.217478 0.575363
O O8 0.962002 0.221929 0.593580
O O9 0.676239 0.290111 0.303059
O O10 0.633975 0.212042 0.187507
O O11 0.493157 0.284351 0.252588
O O12 0.583959 0.000000 0.280652
O O13 0.354444 0.235504 0.351136
O O14 0.446086 0.000000 0.413525
O O15 0.750461 0.500000 0.646251
O O16 0.717098 0.500000 0.150187
O O17 0.810202 0.221396 0.193636
O O18 0.717927 0.220520 0.076086
O O19 0.913219 0.500000 0.201575
#
# Coordination Sequence:
#
# PCOD9173375 Si02
#       8
#     8   8   8   8   8   8   4   8
#     4   9  16  27  47  72  94 120 157 196 233 289
#     4   8  16  32  53  77 107 139 175 215 257 308
#     4  10  21  36  54  74 101 139 178 214 257 307
#     4   9  17  32  55  80 104 137 177 217 259 304
#     4  10  20  33  50  76 107 138 172 214 262 311
#     4  10  21  36  56  80 104 132 172 219 261 308
#     4  10  18  30  52  78 102 122 154 206 266 308
#     4   8  16  32  51  71  95 130 172 205 242 302
#
# _framework density 26.650047000000001
#
# number of rings (size 3 to 8) (size 9 to 14) (size 15 to 20)
#    0.000    2.800    0.000    3.200    0.000    3.733 
#    0.000    5.333    0.000   12.800    0.000    0.000 
#    0.000    0.000    0.000    0.000    0.000    0.000 
#
# Total GULP energy -167072.449837 kJ/mol
# GULP energy per Si atom -5569.081661 kJ/mol
# Density = 2.658939 g / cm^3
# Si number density = 26.650047 Si / 1000 Ang^3
#
#
#
# Elastic Constant Matrix: (Units=GPa)
#
#
# Indices 1 2 3 4 5 6 
#
# 1 175.4653 -4.3347 35.6792 0.0000 17.3691 0.0000
# 2 -4.3347 102.4580 -9.1172 0.0000 2.3825 0.0000
# 3 35.6792 -9.1172 75.4462 0.0000 19.4881 0.0000
# 4 0.0000 0.0000 0.0000 -3.0065 0.0000 4.9752
# 5 17.3691 2.3825 19.4881 0.0000 63.8198 0.0000
# 6 0.0000 0.0000 0.0000 4.9752 0.0000 12.7045
#
#
#
# Elastic Compliance Matrix: (Units=1/GPa)
#
#
# Indices 1 2 3 4 5 6 
#
# 1 0.006351 0.000043 -0.002770 0.000000 -0.000884 0.000000
# 2 0.000043 0.009904 0.001384 0.000000 -0.000804 0.000000
# 3 -0.002770 0.001384 0.015796 0.000000 -0.004121 0.000000
# 4 0.000000 0.000000 0.000000 -0.201824 0.000000 0.079036
# 5 -0.000884 -0.000804 -0.004121 0.000000 0.017198 0.000000
# 6 0.000000 0.000000 0.000000 0.079036 0.000000 0.047762
#
#
# Mechanical properties :
#
#
# Convention : Reuss Voigt Hill
#
# Bulk Modulus (GPa) = 34.05368 44.20265 39.12817
# Shear Modulus (GPa) = -54.14852 36.77969 -8.68441
#
# Velocity S-wave (km/s) = -4.51248 3.71900 -1.80714
# Velocity P-wave (km/s) = 3.78736 5.92145 3.21865
#
# Compressibility (1/GPa) = 0.02936540
#
# Stress axis : x y z
#
# Youngs Moduli (GPa) = 157.45695 100.97146 63.30626
#
# Poissons Ratio (x) = -0.00432 0.17535
# Poissons Ratio (y) = -0.00674 -0.08763
# Poissons Ratio (z) = 0.43613 -0.13977
#
# Static dielectric constant tensor:
#      x y z
#    x 2.029770 0.000000 -0.003540 
#    y 0.000000 2.070180 0.000000 
#    z -0.003540 0.000000 2.153900 
# 
# From -- ./inp_files/338111.got.cif
#   From: 2010.05.17/outbox.cif.g08.bks.cpg/sg12_170_cif.got.tgz:338111.got - 2010.06.03 13:09:07.
