data_PCOD9173362
_publ_section_title
;
Structure prediction by ZEFSAII (Michael W. Deem and Ramdas Pophale) SiO2 
 PCOD9173362
Probable space group: C 2/M
;
_chemical_formula_sum "Si O2"
_cell_formula_units_Z 58
_cell_length_a 19.741102
_cell_length_b 7.839736
_cell_length_c 16.363516
_cell_angle_alpha 90.000000
_cell_angle_beta 95.888992
_cell_angle_gamma 90.000000
_cell_volume 2519.134865
_symmetry_space_group_name_H-M "C 2/M"
_symmetry_group_IT_number 12
_symmetry_cell_setting 'monoclinic'
loop_
_space_group_symop_operation_xyz
x,y,z
-x,y,-z
-x,-y,-z
x,-y,z
1/2+x,1/2+y,z
1/2-x,1/2+y,-z
1/2-x,1/2-y,-z
1/2+x,1/2-y,z
loop_
_atom_site_type_symbol
_atom_site_label
_atom_site_fract_x
_atom_site_fract_y
_atom_site_fract_z
Si Si1 0.299134 0.302148 0.124593
Si Si2 0.412993 0.191330 0.544319
Si Si3 0.500000 0.500000 0.500000
Si Si4 0.344629 0.198397 0.967822
Si Si5 0.015023 0.696911 0.710800
Si Si6 0.802178 0.208404 0.652261
Si Si7 0.598450 0.302707 0.187472
Si Si8 0.839512 0.695647 0.304062
O O1 0.292185 0.500000 0.147282
O O2 0.226669 0.240059 0.080772
O O3 0.317348 0.198982 0.206727
O O4 0.351888 0.287666 0.055984
O O5 0.440583 0.348299 0.495827
O O6 0.463775 0.197859 0.628576
O O7 0.339674 0.223351 0.576483
O O8 0.417222 0.000000 0.509092
O O9 0.397287 0.218774 0.900670
O O10 0.336775 0.000000 0.986001
O O11 0.027251 0.500000 0.736092
O O12 0.085915 0.777084 0.690893
O O13 0.974765 0.784265 0.779152
O O14 0.846348 0.263460 0.738363
O O15 0.724425 0.266662 0.653810
O O16 0.804748 0.000000 0.651307
O O17 0.614392 0.500000 0.177092
O O18 0.847439 0.500000 0.332921
#
# Coordination Sequence:
#
# PCOD9173362 Si02
#       8
#     8   8   2   8   8   8   8   8
#     4  10  20  31  46  74 106 139 189 236 290 342
#     4  10  21  38  63  94 121 152 189 231 273 332
#     4  12  22  40  68  94 124 148 192 226 278 330
#     4  10  19  31  48  69 103 144 186 240 289 339
#     4   9  20  36  55  83 114 147 186 227 278 337
#     4   9  17  32  55  85 115 144 189 234 278 328
#     4  10  18  30  52  76 106 141 182 237 289 329
#     4  10  19  34  56  80 111 150 185 233 284 338
#
# _framework density 23.023776000000002
#
# number of rings (size 3 to 8) (size 9 to 14) (size 15 to 20)
#    0.000    2.207    2.069    1.448    0.966    2.759 
#    0.000    0.690    0.000    4.966    0.000    0.000 
#    0.000    0.000    0.000    0.000    0.000    0.000 
#
# Total GULP energy -161673.953137 kJ/mol
# GULP energy per Si atom -5574.963901 kJ/mol
# Density = 2.297137 g / cm^3
# Si number density = 23.023776 Si / 1000 Ang^3
#
#
#
# Elastic Constant Matrix: (Units=GPa)
#
#
# Indices 1 2 3 4 5 6 
#
# 1 108.1528 7.9566 34.6789 0.0000 -43.5118 0.0000
# 2 7.9566 83.3631 27.6812 0.0000 -14.3134 0.0000
# 3 34.6789 27.6812 96.3484 0.0000 -26.1871 0.0000
# 4 0.0000 0.0000 0.0000 5.7353 0.0000 -14.1985
# 5 -43.5118 -14.3134 -26.1871 0.0000 36.1377 0.0000
# 6 0.0000 0.0000 0.0000 -14.1985 0.0000 13.4327
#
#
#
# Elastic Compliance Matrix: (Units=1/GPa)
#
#
# Indices 1 2 3 4 5 6 
#
# 1 0.018422 0.002491 -0.001307 0.000000 0.022220 0.000000
# 2 0.002491 0.013883 -0.003207 0.000000 0.006174 0.000000
# 3 -0.001307 -0.003207 0.013695 0.000000 0.007081 0.000000
# 4 0.000000 0.000000 0.000000 -0.107846 0.000000 -0.113993
# 5 0.022220 0.006174 0.007081 0.000000 0.062003 0.000000
# 6 0.000000 0.000000 0.000000 -0.113993 0.000000 -0.046046
#
#
# Mechanical properties :
#
#
# Convention : Reuss Voigt Hill
#
# Bulk Modulus (GPa) = 23.83583 47.61086 35.72334
# Shear Modulus (GPa) = -179.47703 25.56432 -76.95635
#
# Velocity S-wave (km/s) = -8.83867 3.33580 -5.78768
# Velocity P-wave (km/s) = 9.68440 5.96327 5.39570
#
# Compressibility (1/GPa) = 0.04195366
#
# Stress axis : x y z
#
# Youngs Moduli (GPa) = 54.28432 72.03070 73.01820
#
# Poissons Ratio (x) = -0.17942 0.09542
# Poissons Ratio (y) = -0.13521 0.23418
# Poissons Ratio (z) = 0.07094 0.23101
#
# Static dielectric constant tensor:
#      x y z
#    x 1.908260 0.000000 -0.012550 
#    y 0.000000 1.956990 0.000000 
#    z -0.012550 0.000000 1.876510 
# 
# From -- ./inp_files/313852.got.cif
#   From: 2010.05.17/outbox.cif.g08.bks.cpg/sg12_157_cif.got.tgz:313852.got - 2010.06.03 13:09:07.
