data_PCOD9173320
_publ_section_title
;
Structure prediction by ZEFSAII (Michael W. Deem and Ramdas Pophale) SiO2 
 PCOD9173320
Probable space group: C 2/M
;
_chemical_formula_sum "Si O2"
_cell_formula_units_Z 64
_cell_length_a 26.366216
_cell_length_b 11.626228
_cell_length_c 20.868491
_cell_angle_alpha 90.000000
_cell_angle_beta 31.370462
_cell_angle_gamma 90.000000
_cell_volume 3330.093515
_symmetry_space_group_name_H-M "C 2/M"
_symmetry_group_IT_number 12
_symmetry_cell_setting 'monoclinic'
loop_
_space_group_symop_operation_xyz
x,y,z
-x,y,-z
-x,-y,-z
x,-y,z
1/2+x,1/2+y,z
1/2-x,1/2+y,-z
1/2-x,1/2-y,-z
1/2+x,1/2-y,z
loop_
_atom_site_type_symbol
_atom_site_label
_atom_site_fract_x
_atom_site_fract_y
_atom_site_fract_z
Si Si1 0.041219 0.627529 0.610105
Si Si2 0.757010 0.364475 0.767431
Si Si3 0.246190 0.364260 0.458355
Si Si4 0.303090 0.377428 0.874778
Si Si5 0.883904 0.134061 0.190455
Si Si6 0.602062 0.799248 0.130257
Si Si7 0.428581 0.364360 0.948511
Si Si8 0.569421 0.712601 0.371318
O O1 0.035096 0.500000 0.587700
O O2 0.150304 0.647647 0.517170
O O3 0.975588 0.630633 0.745301
O O4 0.998723 0.719395 0.606070
O O5 0.776179 0.500000 0.736905
O O6 0.693613 0.316440 0.776262
O O7 0.857293 0.301309 0.672991
O O8 0.682571 0.352795 0.907639
O O9 0.243516 0.500000 0.487057
O O10 0.250000 0.250000 0.500000
O O11 0.336772 0.359994 0.311787
O O12 0.328476 0.500000 0.877629
O O13 0.343769 0.276004 0.874322
O O14 0.357767 0.366480 0.748326
O O15 0.186427 0.366522 0.001359
O O16 0.994613 0.174772 0.079988
O O17 0.891651 0.000000 0.162096
O O18 0.554655 0.711442 0.131769
O O19 0.445550 0.500000 0.918853
O O20 0.500000 0.658493 0.500000
#
# Coordination Sequence:
#
# PCOD9173320 Si02
#       8
#     8   8   8   8   8   8   8   8
#     4  10  21  35  55  83 113 143 181 225 273 326
#     4  10  19  32  51  77 108 140 177 222 272 322
#     4  10  20  36  56  82 112 147 185 228 279 334
#     4  10  21  36  53  75 106 141 178 223 270 323
#     4   9  18  31  50  76 109 142 176 222 276 326
#     4  10  19  34  54  80 105 139 177 219 273 323
#     4  10  18  30  51  80 108 137 176 221 271 325
#     4  11  22  36  54  78 107 142 183 219 270 330
#
# _framework density 19.218679999999999
#
# number of rings (size 3 to 8) (size 9 to 14) (size 15 to 20)
#    0.000    2.000    1.250    3.000    0.000    3.750 
#    0.000    2.500    0.000    2.250    0.000    0.875 
#    0.000    0.000    0.000    0.000    0.000    0.000 
#
# Total GULP energy -178278.159393 kJ/mol
# GULP energy per Si atom -5571.192481 kJ/mol
# Density = 1.917494 g / cm^3
# Si number density = 19.218680 Si / 1000 Ang^3
#
#
#
# Elastic Constant Matrix: (Units=GPa)
#
#
# Indices 1 2 3 4 5 6 
#
# 1 55.5531 4.3385 15.1626 0.0000 -1.7832 0.0000
# 2 4.3385 52.8306 14.1735 0.0000 4.1746 0.0000
# 3 15.1626 14.1735 98.9421 0.0000 -2.9290 0.0000
# 4 0.0000 0.0000 0.0000 13.3154 0.0000 1.5049
# 5 -1.7832 4.1746 -2.9290 0.0000 31.1128 0.0000
# 6 0.0000 0.0000 0.0000 1.5049 0.0000 20.5937
#
#
#
# Elastic Compliance Matrix: (Units=1/GPa)
#
#
# Indices 1 2 3 4 5 6 
#
# 1 0.018846 -0.000889 -0.002733 0.000000 0.000942 0.000000
# 2 -0.000889 0.019994 -0.002817 0.000000 -0.002999 0.000000
# 3 -0.002733 -0.002817 0.010966 0.000000 0.001254 0.000000
# 4 0.000000 0.000000 0.000000 0.075726 0.000000 -0.005534
# 5 0.000942 -0.002999 0.001254 0.000000 0.032715 0.000000
# 6 0.000000 0.000000 0.000000 -0.005534 0.000000 0.048963
#
#
# Mechanical properties :
#
#
# Convention : Reuss Voigt Hill
#
# Bulk Modulus (GPa) = 27.07853 30.51944 28.79898
# Shear Modulus (GPa) = 21.51480 24.58115 23.04797
#
# Velocity S-wave (km/s) = 3.34948 3.58022 3.46677
# Velocity P-wave (km/s) = 5.39249 5.74502 5.57155
#
# Compressibility (1/GPa) = 0.03692963
#
# Stress axis : x y z
#
# Youngs Moduli (GPa) = 53.06063 50.01488 91.18814
#
# Poissons Ratio (x) = 0.04446 0.24921
# Poissons Ratio (y) = 0.04717 0.25685
# Poissons Ratio (z) = 0.14501 0.14088
#
# Static dielectric constant tensor:
#      x y z
#    x 1.683300 0.000000 0.014170 
#    y 0.000000 1.663250 0.000000 
#    z 0.014170 0.000000 1.723090 
# 
# From -- ./inp_files/327806.got.cif
#   From: 2010.05.17/outbox.cif.g08.bks.cpg/sg12_164_cif.got.tgz:327806.got - 2010.06.03 13:09:07.
