data_PCOD9173726
_publ_section_title
;
Structure prediction by ZEFSAII (Michael W. Deem and Ramdas Pophale) SiO2 
 PCOD9173726
Probable space group: C 2/M
;
_chemical_formula_sum "Si O2"
_cell_formula_units_Z 48
_cell_length_a 23.470057
_cell_length_b 8.832000
_cell_length_c 17.807906
_cell_angle_alpha 90.000000
_cell_angle_beta 47.463683
_cell_angle_gamma 90.000000
_cell_volume 2719.972650
_symmetry_space_group_name_H-M "C 2/M"
_symmetry_group_IT_number 12
_symmetry_cell_setting 'monoclinic'
loop_
_space_group_symop_operation_xyz
x,y,z
-x,y,-z
-x,-y,-z
x,-y,z
1/2+x,1/2+y,z
1/2-x,1/2+y,-z
1/2-x,1/2-y,-z
1/2+x,1/2-y,z
loop_
_atom_site_type_symbol
_atom_site_label
_atom_site_fract_x
_atom_site_fract_y
_atom_site_fract_z
Si Si1 0.627825 0.682977 0.115647
Si Si2 0.773640 0.324772 0.709167
Si Si3 0.734340 0.819174 0.895121
Si Si4 0.054395 0.334883 0.379820
Si Si5 0.308479 0.182214 0.508384
Si Si6 0.025581 0.175839 0.675245
O O1 0.629073 0.500000 0.111838
O O2 0.685073 0.728566 0.134107
O O3 0.538356 0.729152 0.206972
O O4 0.667238 0.750187 0.006705
O O5 0.747374 0.500000 0.730483
O O6 0.728748 0.235815 0.814234
O O7 0.860385 0.321572 0.664311
O O8 0.781466 0.268570 0.616460
O O9 0.731958 0.000000 0.899572
O O10 0.046772 0.500000 0.347018
O O11 0.000000 0.339165 0.500000
O O12 0.025202 0.199971 0.354442
O O13 0.250000 0.250000 0.500000
O O14 0.394882 0.236431 0.409933
O O15 0.307421 0.000000 0.509141
O O16 0.043639 0.000000 0.672165
#
# Coordination Sequence:
#
# PCOD9173726 Si02
#       6
#     8   8   8   8   8   8
#     4   9  19  33  48  75 114 150 181 214 262 321
#     4  10  20  34  54  77 110 147 178 217 271 328
#     4  10  19  31  50  79 112 146 184 220 260 315
#     4  10  18  31  49  76 110 145 179 214 266 330
#     4  11  24  42  59  80 106 142 186 228 277 327
#     4  11  21  34  54  81 112 145 180 224 270 321
#
# _framework density 17.647234999999998
#
# number of rings (size 3 to 8) (size 9 to 14) (size 15 to 20)
#    0.000    1.833    3.333    1.500    0.000    3.667 
#    0.000    0.000    0.000    1.000    0.000    7.000 
#    0.000    0.000    0.000    0.000    0.000    0.000 
#
# Total GULP energy -133718.848938 kJ/mol
# GULP energy per Si atom -5571.618706 kJ/mol
# Density = 1.760707 g / cm^3
# Si number density = 17.647235 Si / 1000 Ang^3
#
#
#
# Elastic Constant Matrix: (Units=GPa)
#
#
# Indices 1 2 3 4 5 6 
#
# 1 60.4295 20.7714 52.2996 0.0001 10.4839 0.0000
# 2 20.7714 32.2584 41.8185 0.0003 7.4365 -0.0001
# 3 52.2996 41.8185 154.3409 0.0001 16.6951 0.0000
# 4 0.0001 0.0003 0.0001 26.0637 -0.0001 1.7130
# 5 10.4839 7.4365 16.6951 -0.0001 10.8666 0.0000
# 6 0.0000 -0.0001 0.0000 1.7130 0.0000 21.8984
#
#
#
# Elastic Compliance Matrix: (Units=1/GPa)
#
#
# Indices 1 2 3 4 5 6 
#
# 1 0.025733 -0.006499 -0.005702 0.000000 -0.011618 0.000000
# 2 -0.006499 0.051664 -0.010374 -0.000001 -0.013148 0.000000
# 3 -0.005702 -0.010374 0.011824 0.000000 -0.005566 0.000000
# 4 0.000000 -0.000001 0.000000 0.038566 0.000001 -0.003017
# 5 -0.011618 -0.013148 -0.005566 0.000001 0.120783 0.000000
# 6 0.000000 0.000000 0.000000 -0.003017 0.000000 0.045901
#
#
# Mechanical properties :
#
#
# Convention : Reuss Voigt Hill
#
# Bulk Modulus (GPa) = 22.69091 52.97863 37.83477
# Shear Modulus (GPa) = 14.11192 20.57503 17.34348
#
# Velocity S-wave (km/s) = 2.83091 3.41824 3.13834
# Velocity P-wave (km/s) = 4.85503 6.75761 5.88373
#
# Compressibility (1/GPa) = 0.04407051
#
# Stress axis : x y z
#
# Youngs Moduli (GPa) = 38.86104 19.35602 84.57281
#
# Poissons Ratio (x) = 0.12580 0.48224
# Poissons Ratio (y) = 0.25257 0.87733
# Poissons Ratio (z) = 0.22159 0.20079
#
# Static dielectric constant tensor:
#      x y z
#    x 1.582350 0.000000 -0.004070 
#    y 0.000000 1.649100 0.000000 
#    z -0.004070 0.000000 1.645240 
# 
# From -- ./inp_files/287262.got.cif
#   From: 2010.05.17/outbox.cif.g08.bks.cpg/sg12_144_cif.got.tgz:287262.got - 2010.06.03 13:09:07.
