data_PCOD9173543
_publ_section_title
;
Structure prediction by ZEFSAII (Michael W. Deem and Ramdas Pophale) SiO2 
 PCOD9173543
Probable space group: C 2/M
;
_chemical_formula_sum "Si O2"
_cell_formula_units_Z 58
_cell_length_a 24.215243
_cell_length_b 20.447699
_cell_length_c 9.630032
_cell_angle_alpha 90.000000
_cell_angle_beta 138.266529
_cell_angle_gamma 90.000000
_cell_volume 3174.078395
_symmetry_space_group_name_H-M "C 2/M"
_symmetry_group_IT_number 12
_symmetry_cell_setting 'monoclinic'
loop_
_space_group_symop_operation_xyz
x,y,z
-x,y,-z
-x,-y,-z
x,-y,z
1/2+x,1/2+y,z
1/2-x,1/2+y,-z
1/2-x,1/2-y,-z
1/2+x,1/2-y,z
loop_
_atom_site_type_symbol
_atom_site_label
_atom_site_fract_x
_atom_site_fract_y
_atom_site_fract_z
Si Si1 0.397746 0.927043 0.574940
Si Si2 0.418008 0.235920 0.927194
Si Si3 0.777495 0.924106 0.915853
Si Si4 0.185014 0.423320 0.001770
Si Si5 0.368750 0.616740 0.826258
Si Si6 0.967694 0.328545 0.293809
Si Si7 0.695819 0.883374 0.339278
Si Si8 0.000000 0.000000 0.000000
O O1 0.313023 0.920644 0.327218
O O2 0.461212 0.871908 0.646233
O O3 0.369511 0.918964 0.681561
O O4 0.432193 0.000000 0.616989
O O5 0.403829 0.311201 0.865965
O O6 0.339878 0.190391 0.740432
O O7 0.500000 0.212668 0.000000
O O8 0.435785 0.223821 0.123076
O O9 0.840319 0.886668 0.934326
O O10 0.803312 0.000000 0.962943
O O11 0.761278 0.903757 0.044183
O O12 0.169036 0.500000 0.944955
O O13 0.199582 0.412446 0.192075
O O14 0.106814 0.378975 0.816274
O O15 0.284901 0.610544 0.578175
O O16 0.430914 0.558092 0.907815
O O17 0.000000 0.301347 0.500000
#
# Coordination Sequence:
#
# PCOD9173543 Si02
#       8
#     8   8   8   8   8   8   8   2
#     4  10  18  30  55  85 120 161 198 236 287 351
#     4  11  22  41  60  88 123 163 206 253 303 371
#     4   9  18  34  56  84 118 153 190 240 299 363
#     4  10  20  32  55  90 128 164 197 242 302 362
#     4  11  23  42  66  90 116 150 214 261 321 365
#     4  11  21  35  54  85 128 166 205 240 289 357
#     4  10  22  38  60  90 124 164 199 252 310 369
#     4  12  24  40  76  98 110 154 208 276 312 368
#
# _framework density 18.273022000000001
#
# number of rings (size 3 to 8) (size 9 to 14) (size 15 to 20)
#    0.000    1.655    4.138    1.241    1.931    0.552 
#    0.000    6.207    0.000    0.828    0.000    0.000 
#    0.000    0.000    0.000    0.000    0.000    0.000 
#
# Total GULP energy -161506.599691 kJ/mol
# GULP energy per Si atom -5569.193093 kJ/mol
# Density = 1.823143 g / cm^3
# Si number density = 18.273022 Si / 1000 Ang^3
#
#
#
# Elastic Constant Matrix: (Units=GPa)
#
#
# Indices 1 2 3 4 5 6 
#
# 1 90.8210 3.8574 33.7919 0.0000 -4.1168 0.0000
# 2 3.8574 69.0402 9.4417 0.0000 11.5884 0.0000
# 3 33.7919 9.4417 38.8587 0.0000 -5.1775 0.0000
# 4 0.0000 0.0000 0.0000 9.3571 0.0000 4.1168
# 5 -4.1168 11.5884 -5.1775 0.0000 32.0275 0.0000
# 6 0.0000 0.0000 0.0000 4.1168 0.0000 22.5005
#
#
#
# Elastic Compliance Matrix: (Units=1/GPa)
#
#
# Indices 1 2 3 4 5 6 
#
# 1 0.016367 0.001201 -0.014617 0.000000 -0.000694 0.000000
# 2 0.001201 0.016354 -0.005913 0.000000 -0.006719 0.000000
# 3 -0.014617 -0.005913 0.040795 0.000000 0.006856 0.000000
# 4 0.000000 0.000000 0.000000 0.116226 0.000000 -0.021265
# 5 -0.000694 -0.006719 0.006856 0.000000 0.034673 0.000000
# 6 0.000000 0.000000 0.000000 -0.021265 0.000000 0.048334
#
#
# Mechanical properties :
#
#
# Convention : Reuss Voigt Hill
#
# Bulk Modulus (GPa) = 28.68804 32.54465 30.61634
# Shear Modulus (GPa) = 15.47859 22.88561 19.18210
#
# Velocity S-wave (km/s) = 2.91361 3.54280 3.24350
# Velocity P-wave (km/s) = 5.20121 5.88083 5.55143
#
# Compressibility (1/GPa) = 0.03485774
#
# Stress axis : x y z
#
# Youngs Moduli (GPa) = 61.09948 61.14863 24.51257
#
# Poissons Ratio (x) = -0.07344 0.35830
# Poissons Ratio (y) = -0.07338 0.14494
# Poissons Ratio (z) = 0.89309 0.36157
#
# Static dielectric constant tensor:
#      x y z
#    x 1.649900 0.000000 -0.022740 
#    y 0.000000 1.606050 0.000000 
#    z -0.022740 0.000000 1.629300 
# 
# From -- ./inp_files/99256.got.cif
#   From: 2010.05.17/outbox.cif.g08.bks.cpg/sg12_50_cif.got.tgz:99256.got - 2010.06.03 13:09:07.
