data_PCOD9173329
_publ_section_title
;
Structure prediction by ZEFSAII (Michael W. Deem and Ramdas Pophale) SiO2 
 PCOD9173329
Probable space group: C 2/M
;
_chemical_formula_sum "Si O2"
_cell_formula_units_Z 56
_cell_length_a 15.187181
_cell_length_b 15.060529
_cell_length_c 23.832521
_cell_angle_alpha 90.000000
_cell_angle_beta 151.316534
_cell_angle_gamma 90.000000
_cell_volume 2616.385876
_symmetry_space_group_name_H-M "C 2/M"
_symmetry_group_IT_number 12
_symmetry_cell_setting 'monoclinic'
loop_
_space_group_symop_operation_xyz
x,y,z
-x,y,-z
-x,-y,-z
x,-y,z
1/2+x,1/2+y,z
1/2-x,1/2+y,-z
1/2-x,1/2-y,-z
1/2+x,1/2-y,z
loop_
_atom_site_type_symbol
_atom_site_label
_atom_site_fract_x
_atom_site_fract_y
_atom_site_fract_z
Si Si1 0.343517 0.718538 0.757458
Si Si2 0.450969 0.211178 0.578185
Si Si3 0.437522 0.099507 0.780075
Si Si4 0.697037 0.105774 0.089012
Si Si5 0.821430 0.895719 0.031135
Si Si6 0.866011 0.096018 0.478766
Si Si7 0.569255 0.306031 0.325316
O O1 0.141795 0.682707 0.657906
O O2 0.351201 0.824476 0.770867
O O3 0.502884 0.665910 0.878276
O O4 0.390225 0.710588 0.717475
O O5 0.413214 0.312746 0.535900
O O6 0.467749 0.223133 0.654020
O O7 0.267811 0.158288 0.458387
O O8 0.330323 0.098232 0.661752
O O9 0.422668 0.000000 0.796505
O O10 0.653137 0.119815 0.894948
O O11 0.733743 0.123963 0.043472
O O12 0.881170 0.139228 0.222663
O O13 0.691516 0.000000 0.092272
O O14 0.500000 0.141520 0.000000
O O15 0.872643 0.000000 0.058804
O O16 0.000000 0.094501 0.500000
O O17 0.887473 0.000000 0.520428
#
# Coordination Sequence:
#
# PCOD9173329 Si02
#       7
#     8   8   8   8   8   8   8
#     4  11  20  37  60  81 113 156 187 233 290 335
#     4  11  21  36  55  80 114 153 186 232 281 333
#     4  10  19  32  55  85 113 143 183 234 288 343
#     4   9  19  35  54  78 112 143 175 235 295 334
#     4   9  20  36  55  83 113 146 195 236 275 340
#     4  10  18  30  51  81 112 142 179 223 282 347
#     4  10  22  36  53  80 116 142 191 232 272 339
#
# _framework density 21.403572
#
# number of rings (size 3 to 8) (size 9 to 14) (size 15 to 20)
#    0.000    2.000    2.857    0.857    2.000    0.571 
#    0.000    0.714    0.000    5.143    0.000    2.000 
#    0.000    0.000    0.000    0.000    0.000    0.000 
#
# Total GULP energy -156104.503699 kJ/mol
# GULP energy per Si atom -5575.160846 kJ/mol
# Density = 2.135486 g / cm^3
# Si number density = 21.403572 Si / 1000 Ang^3
#
#
#
# Elastic Constant Matrix: (Units=GPa)
#
#
# Indices 1 2 3 4 5 6 
#
# 1 64.1719 14.0032 46.2327 -0.0004 18.1585 -0.0001
# 2 14.0032 31.9517 34.4163 0.0006 13.0171 -0.0002
# 3 46.2327 34.4163 171.8209 -0.0002 27.4974 -0.0011
# 4 -0.0004 0.0006 -0.0002 -4.0212 0.0000 -25.0570
# 5 18.1585 13.0171 27.4974 0.0000 35.1242 0.0000
# 6 -0.0001 -0.0002 -0.0011 -25.0570 0.0000 1.7880
#
#
#
# Elastic Compliance Matrix: (Units=1/GPa)
#
#
# Indices 1 2 3 4 5 6 
#
# 1 0.020933 -0.001905 -0.004152 0.000000 -0.006865 0.000000
# 2 -0.001905 0.043235 -0.006563 0.000000 -0.009900 0.000001
# 3 -0.004152 -0.006563 0.008596 0.000000 -0.002151 0.000000
# 4 0.000000 0.000000 0.000000 -0.002816 0.000000 -0.039457
# 5 -0.006865 -0.009900 -0.002151 0.000000 0.037372 0.000000
# 6 0.000000 0.000001 0.000000 -0.039457 0.000000 0.006332
#
#
# Mechanical properties :
#
#
# Convention : Reuss Voigt Hill
#
# Bulk Modulus (GPa) = 21.04218 50.80543 35.92380
# Shear Modulus (GPa) = 32.31354 18.13104 25.22229
#
# Velocity S-wave (km/s) = 3.88973 2.91366 3.43653
# Velocity P-wave (km/s) = 5.47959 5.92517 5.70673
#
# Compressibility (1/GPa) = 0.04752360
#
# Stress axis : x y z
#
# Youngs Moduli (GPa) = 47.77156 23.12957 116.33180
#
# Poissons Ratio (x) = 0.04405 0.48305
# Poissons Ratio (y) = 0.09098 0.76351
# Poissons Ratio (z) = 0.19836 0.15180
#
# Static dielectric constant tensor:
#      x y z
#    x 1.794920 0.000000 -0.014740 
#    y 0.000000 1.840810 0.000000 
#    z -0.014740 0.000000 1.842250 
# 
# From -- ./inp_files/379696.got.cif
#   From: 2010.05.17/outbox.cif.g08.bks.cpg/sg12_190_cif.got.tgz:379696.got - 2010.06.03 13:09:07.
