data_PCOD9173916
_publ_section_title
;
Structure prediction by ZEFSAII (Michael W. Deem and Ramdas Pophale) SiO2 
 PCOD9173916
Probable space group: C 2/M
;
_chemical_formula_sum "Si O2"
_cell_formula_units_Z 56
_cell_length_a 16.470682
_cell_length_b 7.480734
_cell_length_c 20.320626
_cell_angle_alpha 90.000000
_cell_angle_beta 89.609253
_cell_angle_gamma 90.000000
_cell_volume 2503.702816
_symmetry_space_group_name_H-M "C 2/M"
_symmetry_group_IT_number 12
_symmetry_cell_setting 'monoclinic'
loop_
_space_group_symop_operation_xyz
x,y,z
-x,y,-z
-x,-y,-z
x,-y,z
1/2+x,1/2+y,z
1/2-x,1/2+y,-z
1/2-x,1/2-y,-z
1/2+x,1/2-y,z
loop_
_atom_site_type_symbol
_atom_site_label
_atom_site_fract_x
_atom_site_fract_y
_atom_site_fract_z
Si Si1 0.406117 0.716982 0.927289
Si Si2 0.844855 0.210599 0.209866
Si Si3 0.840786 0.784598 0.788827
Si Si4 0.097673 0.216925 0.929775
Si Si5 0.090502 0.218308 0.348700
Si Si6 0.914239 0.787842 0.343823
Si Si7 0.749528 0.211197 0.577172
O O1 0.400233 0.500000 0.926978
O O2 0.365061 0.783352 0.860845
O O3 0.501958 0.758393 0.924830
O O4 0.373215 0.779894 0.998409
O O5 0.750604 0.230547 0.226859
O O6 0.860349 0.284752 0.136716
O O7 0.894849 0.286296 0.271013
O O8 0.864951 0.000000 0.205537
O O9 0.897264 0.730570 0.727840
O O10 0.843998 0.000000 0.791276
O O11 0.104808 0.000000 0.931072
O O12 0.168671 0.284287 0.388773
O O13 0.000654 0.278222 0.370625
O O14 0.092895 0.000000 0.352407
O O15 0.834932 0.767435 0.389055
O O16 0.924646 0.000000 0.335462
O O17 0.750000 0.250000 0.500000
O O18 0.752338 0.000000 0.586494
#
# Coordination Sequence:
#
# PCOD9173916 Si02
#       7
#     8   8   8   8   8   8   8
#     4   8  14  25  45  69  96 133 180 228 266 311
#     4  10  19  30  49  76 107 137 174 226 276 316
#     4  10  18  31  51  75 103 139 183 224 266 321
#     4   8  14  26  43  69 100 132 176 228 273 309
#     4   9  19  36  59  82 109 146 187 224 265 320
#     4  10  20  37  60  84 109 146 189 226 267 320
#     4  11  23  41  62  87 117 146 176 220 270 324
#
# _framework density 22.366872999999998
#
# number of rings (size 3 to 8) (size 9 to 14) (size 15 to 20)
#    0.000    2.571    1.429    2.143    0.000    4.571 
#    0.000    5.000    0.000    2.571    0.000    2.000 
#    0.000    0.000    0.000    0.000    0.000    0.000 
#
# Total GULP energy -156271.866435 kJ/mol
# GULP energy per Si atom -5581.138087 kJ/mol
# Density = 2.231597 g / cm^3
# Si number density = 22.366873 Si / 1000 Ang^3
#
#
#
# Elastic Constant Matrix: (Units=GPa)
#
#
# Indices 1 2 3 4 5 6 
#
# 1 149.0512 0.3196 79.6572 0.0000 4.3737 0.0000
# 2 0.3196 60.9735 -0.2792 0.0000 3.6673 0.0000
# 3 79.6572 -0.2792 142.4791 0.0000 4.7348 0.0000
# 4 0.0000 0.0000 0.0000 1.2172 0.0000 -3.8451
# 5 4.3737 3.6673 4.7348 0.0000 17.4930 0.0000
# 6 0.0000 0.0000 0.0000 -3.8451 0.0000 8.0571
#
#
#
# Elastic Compliance Matrix: (Units=1/GPa)
#
#
# Indices 1 2 3 4 5 6 
#
# 1 0.009584 -0.000017 -0.005326 0.000000 -0.000951 0.000000
# 2 -0.000017 0.016613 0.000159 0.000000 -0.003522 0.000000
# 3 -0.005326 0.000159 0.010044 0.000000 -0.001420 0.000000
# 4 0.000000 0.000000 0.000000 -1.618608 0.000000 -0.772460
# 5 -0.000951 -0.003522 -0.001420 0.000000 0.058526 0.000000
# 6 0.000000 0.000000 0.000000 -0.772460 0.000000 -0.244532
#
#
# Mechanical properties :
#
#
# Convention : Reuss Voigt Hill
#
# Bulk Modulus (GPa) = 38.65224 56.87767 47.76495
# Shear Modulus (GPa) = -2.85816 23.54053 10.34118
#
# Velocity S-wave (km/s) = -1.13165 3.24770 2.15255
# Velocity P-wave (km/s) = 3.95108 6.28873 5.25162
#
# Compressibility (1/GPa) = 0.02587172
#
# Stress axis : x y z
#
# Youngs Moduli (GPa) = 104.34429 60.19305 99.56189
#
# Poissons Ratio (x) = 0.00105 0.53031
# Poissons Ratio (y) = 0.00182 -0.01586
# Poissons Ratio (z) = 0.55579 -0.00959
#
# Static dielectric constant tensor:
#      x y z
#    x 1.806580 0.000000 0.015960 
#    y 0.000000 2.028300 0.000000 
#    z 0.015960 0.000000 1.820070 
# 
# From -- ./inp_files/308915.got.cif
#   From: 2010.05.17/outbox.cif.g08.bks.cpg/sg12_155_cif.got.tgz:308915.got - 2010.06.03 13:09:07.
