data_PCOD9173205
_publ_section_title
;
Structure prediction by ZEFSAII (Michael W. Deem and Ramdas Pophale) SiO2 
 PCOD9173205
Probable space group: C 2/M
;
_chemical_formula_sum "Si O2"
_cell_formula_units_Z 56
_cell_length_a 12.671046
_cell_length_b 28.660565
_cell_length_c 15.765714
_cell_angle_alpha 90.000000
_cell_angle_beta 36.447328
_cell_angle_gamma 90.000000
_cell_volume 3401.405316
_symmetry_space_group_name_H-M "C 2/M"
_symmetry_group_IT_number 12
_symmetry_cell_setting 'monoclinic'
loop_
_space_group_symop_operation_xyz
x,y,z
-x,y,-z
-x,-y,-z
x,-y,z
1/2+x,1/2+y,z
1/2-x,1/2+y,-z
1/2-x,1/2-y,-z
1/2+x,1/2-y,z
loop_
_atom_site_type_symbol
_atom_site_label
_atom_site_fract_x
_atom_site_fract_y
_atom_site_fract_z
Si Si1 0.340649 0.446439 0.533126
Si Si2 0.296351 0.309242 0.546176
Si Si3 0.198865 0.230293 0.902655
Si Si4 0.632297 0.124628 0.777954
Si Si5 0.758275 0.329201 0.033111
Si Si6 0.438531 0.620619 0.707324
Si Si7 0.468392 0.791250 0.428537
O O1 0.500000 0.444486 0.500000
O O2 0.289308 0.500000 0.554252
O O3 0.184836 0.414741 0.674300
O O4 0.432035 0.423253 0.391465
O O5 0.209777 0.327818 0.687565
O O6 0.464141 0.340131 0.412070
O O7 0.358497 0.256456 0.515449
O O8 0.153410 0.316129 0.563106
O O9 0.232644 0.194434 0.958245
O O10 0.345885 0.220752 0.736258
O O11 0.216484 0.283828 0.922999
O O12 0.000000 0.223564 0.000000
O O13 0.427900 0.136604 0.923803
O O14 0.746600 0.112608 0.787453
O O15 0.595650 0.358577 0.177893
O O16 0.500000 0.813838 0.500000
#
# Coordination Sequence:
#
# PCOD9173205 Si02
#       7
#     8   8   8   8   8   8   8
#     4   8  16  31  51  74 100 127 158 198 246 296
#     4  10  20  32  45  67  93 126 172 206 236 279
#     4  11  24  35  47  67 102 139 170 210 247 274
#     4  10  18  32  49  70  99 131 165 194 240 291
#     4  11  22  34  47  70 102 134 173 203 237 293
#     4  10  18  30  51  72  95 134 160 198 239 294
#     4  11  22  32  48  65  92 128 173 214 244 275
#
# _framework density 16.463782999999999
#
# number of rings (size 3 to 8) (size 9 to 14) (size 15 to 20)
#    0.000    1.857    2.857    3.429    4.000    0.000 
#    0.000    0.714    0.000    3.429    0.000    0.000 
#    0.000   21.714    0.000    0.000    0.000    0.000 
#
# Total GULP energy -156084.014828 kJ/mol
# GULP energy per Si atom -5574.429101 kJ/mol
# Density = 1.642631 g / cm^3
# Si number density = 16.463783 Si / 1000 Ang^3
#
#
#
# Elastic Constant Matrix: (Units=GPa)
#
#
# Indices 1 2 3 4 5 6 
#
# 1 65.9453 2.3043 18.6865 0.0000 -2.3562 0.0000
# 2 2.3043 61.8978 19.2841 0.0000 2.7417 0.0000
# 3 18.6865 19.2841 91.2949 0.0001 9.3854 0.0000
# 4 0.0000 0.0000 0.0001 6.7399 0.0000 -2.1145
# 5 -2.3562 2.7417 9.3854 0.0000 22.1968 0.0000
# 6 0.0000 0.0000 0.0000 -2.1145 0.0000 10.2454
#
#
#
# Elastic Compliance Matrix: (Units=1/GPa)
#
#
# Indices 1 2 3 4 5 6 
#
# 1 0.016334 0.000421 -0.003769 0.000000 0.003276 0.000000
# 2 0.000421 0.017313 -0.003688 0.000000 -0.000534 0.000000
# 3 -0.003769 -0.003688 0.013066 0.000000 -0.005469 0.000000
# 4 0.000000 0.000000 0.000000 0.158642 0.000000 0.032741
# 5 0.003276 -0.000534 -0.005469 0.000000 0.047778 0.000000
# 6 0.000000 0.000000 0.000000 0.032741 0.000000 0.104362
#
#
# Mechanical properties :
#
#
# Convention : Reuss Voigt Hill
#
# Bulk Modulus (GPa) = 30.63630 33.29866 31.96748
# Shear Modulus (GPa) = 13.07369 19.76062 16.41716
#
# Velocity S-wave (km/s) = 2.82101 3.46822 3.16122
# Velocity P-wave (km/s) = 5.40921 6.02556 5.72568
#
# Compressibility (1/GPa) = 0.03264101
#
# Stress axis : x y z
#
# Youngs Moduli (GPa) = 61.22039 57.76107 76.53282
#
# Poissons Ratio (x) = -0.02432 0.28846
# Poissons Ratio (y) = -0.02578 0.28227
# Poissons Ratio (z) = 0.23074 0.21303
#
# Static dielectric constant tensor:
#      x y z
#    x 1.614870 0.000000 0.000590 
#    y 0.000000 1.551720 0.000000 
#    z 0.000590 0.000000 1.569440 
# 
# From -- ./inp_files/67632.got.cif
#   From: 2010.05.17/outbox.cif.g08.bks.cpg/sg12_34_cif.got.tgz:67632.got - 2010.06.03 13:09:07.
