data_PCOD9173103
_publ_section_title
;
Structure prediction by ZEFSAII (Michael W. Deem and Ramdas Pophale) SiO2 
 PCOD9173103
Probable space group: C 2/M
;
_chemical_formula_sum "Si O2"
_cell_formula_units_Z 56
_cell_length_a 28.007343
_cell_length_b 7.433637
_cell_length_c 18.842372
_cell_angle_alpha 90.000000
_cell_angle_beta 148.114885
_cell_angle_gamma 90.000000
_cell_volume 2072.153069
_symmetry_space_group_name_H-M "C 2/M"
_symmetry_group_IT_number 12
_symmetry_cell_setting 'monoclinic'
loop_
_space_group_symop_operation_xyz
x,y,z
-x,y,-z
-x,-y,-z
x,-y,z
1/2+x,1/2+y,z
1/2-x,1/2+y,-z
1/2-x,1/2-y,-z
1/2+x,1/2-y,z
loop_
_atom_site_type_symbol
_atom_site_label
_atom_site_fract_x
_atom_site_fract_y
_atom_site_fract_z
Si Si1 0.373012 0.713705 0.404769
Si Si2 0.216867 0.294464 0.856746
Si Si3 0.542224 0.785737 0.705170
Si Si4 0.565030 0.293896 0.288334
Si Si5 0.611899 0.718932 0.001001
Si Si6 0.772338 0.779775 0.423085
Si Si7 0.597076 0.209225 0.137623
O O1 0.361757 0.500000 0.383393
O O2 0.332903 0.796761 0.282977
O O3 0.477245 0.751237 0.555697
O O4 0.320609 0.773245 0.410094
O O5 0.230910 0.500000 0.897044
O O6 0.142542 0.214065 0.815619
O O7 0.315348 0.215215 0.964671
O O8 0.491855 0.704940 0.709382
O O9 0.546394 0.000000 0.720985
O O10 0.578990 0.500000 0.285872
O O11 0.661823 0.212275 0.431523
O O12 0.490191 0.213972 0.141407
O O13 0.611493 0.500000 0.998789
O O14 0.642063 0.779496 0.116645
O O15 0.668916 0.718716 0.284768
O O16 0.773086 0.000000 0.426364
O O17 0.584089 0.000000 0.138102
O O18 0.500000 0.296654 0.000000
#
# Coordination Sequence:
#
# PCOD9173103 Si02
#       7
#     8   8   8   8   8   8   8
#     4  10  18  30  50  74 102 139 183 222 260 311
#     4  10  20  32  47  72 107 142 177 221 271 311
#     4  10  20  32  47  72 107 143 179 222 266 307
#     4   9  19  36  55  75 105 144 184 219 257 311
#     4  10  21  37  56  78 107 142 177 219 268 317
#     4   8  15  31  53  76 101 134 172 212 259 310
#     4  10  20  36  59  84 107 132 170 221 272 323
#
# _framework density 27.025030000000001
#
# number of rings (size 3 to 8) (size 9 to 14) (size 15 to 20)
#    0.000    2.429    1.429    2.143    0.000    4.286 
#    0.000    0.714    0.000    0.000    0.000    0.000 
#    0.000    0.000    0.000    0.000    0.000    0.000 
#
# Total GULP energy -156693.115554 kJ/mol
# GULP energy per Si atom -5596.182698 kJ/mol
# Density = 2.696352 g / cm^3
# Si number density = 27.025030 Si / 1000 Ang^3
#
#
#
# Elastic Constant Matrix: (Units=GPa)
#
#
# Indices 1 2 3 4 5 6 
#
# 1 98.6405 14.7772 50.0351 0.0000 4.5249 0.0000
# 2 14.7772 120.0333 12.9299 0.0000 6.8002 0.0000
# 3 50.0351 12.9299 219.8556 0.0000 14.9976 0.0000
# 4 0.0000 0.0000 0.0000 4.3941 0.0000 -3.4364
# 5 4.5249 6.8002 14.9976 0.0000 60.9997 0.0000
# 6 0.0000 0.0000 0.0000 -3.4364 0.0000 20.7687
#
#
#
# Elastic Compliance Matrix: (Units=1/GPa)
#
#
# Indices 1 2 3 4 5 6 
#
# 1 0.011618 -0.001148 -0.002570 0.000000 -0.000102 0.000000
# 2 -0.001148 0.008539 -0.000185 0.000000 -0.000821 0.000000
# 3 -0.002570 -0.000185 0.005217 0.000000 -0.001071 0.000000
# 4 0.000000 0.000000 0.000000 0.261402 0.000000 0.043252
# 5 -0.000102 -0.000821 -0.001071 0.000000 0.016756 0.000000
# 6 0.000000 0.000000 0.000000 0.043252 0.000000 0.055306
#
#
# Mechanical properties :
#
#
# Convention : Reuss Voigt Hill
#
# Bulk Modulus (GPa) = 56.91711 66.00153 61.45932
# Shear Modulus (GPa) = 13.42285 41.28498 27.35392
#
# Velocity S-wave (km/s) = 2.23105 3.91277 3.18491
# Velocity P-wave (km/s) = 5.26720 6.69988 6.02627
#
# Compressibility (1/GPa) = 0.01756941
#
# Stress axis : x y z
#
# Youngs Moduli (GPa) = 86.07459 117.11301 191.67402
#
# Poissons Ratio (x) = 0.13441 0.49251
# Poissons Ratio (y) = 0.09879 0.03545
# Poissons Ratio (z) = 0.22117 0.02166
#
# Static dielectric constant tensor:
#      x y z
#    x 2.156190 0.000000 0.037250 
#    y 0.000000 1.978100 0.000000 
#    z 0.037250 0.000000 2.134280 
# 
# From -- ./inp_files/329687.got.cif
#   From: 2010.05.17/outbox.cif.g08.bks.cpg/sg12_165_cif.got.tgz:329687.got - 2010.06.03 13:09:07.
