data_PCOD9173655
_publ_section_title
;
Structure prediction by ZEFSAII (Michael W. Deem and Ramdas Pophale) SiO2 
 PCOD9173655
Probable space group: C 2/M
;
_chemical_formula_sum "Si O2"
_cell_formula_units_Z 40
_cell_length_a 23.818558
_cell_length_b 17.407603
_cell_length_c 11.686479
_cell_angle_alpha 90.000000
_cell_angle_beta 18.938855
_cell_angle_gamma 90.000000
_cell_volume 1572.648568
_symmetry_space_group_name_H-M "C 2/M"
_symmetry_group_IT_number 12
_symmetry_cell_setting 'monoclinic'
loop_
_space_group_symop_operation_xyz
x,y,z
-x,y,-z
-x,-y,-z
x,-y,z
1/2+x,1/2+y,z
1/2-x,1/2+y,-z
1/2-x,1/2-y,-z
1/2+x,1/2-y,z
loop_
_atom_site_type_symbol
_atom_site_label
_atom_site_fract_x
_atom_site_fract_y
_atom_site_fract_z
Si Si1 0.767580 0.660697 0.494312
Si Si2 0.539946 0.590261 0.756335
Si Si3 0.856456 0.175465 0.932707
Si Si4 0.187927 0.585231 0.073667
Si Si5 0.994062 0.339225 0.759822
O O1 0.750000 0.750000 0.500000
O O2 0.715911 0.616601 0.477876
O O3 0.943100 0.654308 0.230222
O O4 0.613216 0.631625 0.875619
O O5 0.519144 0.500000 0.805938
O O6 0.502040 0.618951 0.701885
O O7 0.806357 0.153049 0.899289
O O8 0.676564 0.157123 0.342214
O O9 0.913049 0.258971 0.869821
O O10 0.261021 0.500000 0.953176
O O11 0.000000 0.587923 0.500000
O O12 0.131212 0.597364 0.052008
#
# Coordination Sequence:
#
# PCOD9173655 Si02
#       5
#     8   8   8   8   8
#     4  10  18  31  48  76 107 137 172 222 265 312
#     4  10  20  33  54  81 106 138 186 228 264 311
#     4  10  19  34  54  80 106 136 176 222 268 319
#     4   9  18  32  52  78 105 132 174 225 269 310
#     4  10  20  32  53  77 105 140 174 219 268 321
#
# _framework density 25.434797
#
# number of rings (size 3 to 8) (size 9 to 14) (size 15 to 20)
#    0.000    2.200    2.000    2.400    0.000    5.600 
#    0.000    0.000    0.000    3.600    0.000   12.600 
#    0.000    0.000    0.000    0.000    0.000    0.000 
#
# Total GULP energy -111748.374244 kJ/mol
# GULP energy per Si atom -5587.418712 kJ/mol
# Density = 2.537691 g / cm^3
# Si number density = 25.434797 Si / 1000 Ang^3
#
#
#
# Elastic Constant Matrix: (Units=GPa)
#
#
# Indices 1 2 3 4 5 6 
#
# 1 199.6206 35.2676 30.2515 -0.0009 -53.5513 0.0005
# 2 35.2676 125.3336 13.9899 -0.0003 -25.8100 0.0004
# 3 30.2515 13.9899 124.4048 0.0004 -25.2410 0.0004
# 4 -0.0009 -0.0003 0.0004 12.5281 -0.0001 -9.8819
# 5 -53.5513 -25.8100 -25.2410 -0.0001 46.9264 -0.0006
# 6 0.0005 0.0004 0.0004 -9.8819 -0.0006 38.6203
#
#
#
# Elastic Compliance Matrix: (Units=1/GPa)
#
#
# Indices 1 2 3 4 5 6 
#
# 1 0.007237 -0.000378 -0.000094 0.000001 0.007999 0.000000
# 2 -0.000378 0.009018 -0.000004 0.000000 0.004526 0.000000
# 3 -0.000094 -0.000004 0.009024 0.000000 0.004744 0.000000
# 4 0.000001 0.000000 0.000000 0.100004 0.000001 0.025588
# 5 0.007999 0.004526 0.004744 0.000001 0.035480 0.000001
# 6 0.000000 0.000000 0.000000 0.025588 0.000001 0.032441
#
#
# Mechanical properties :
#
#
# Convention : Reuss Voigt Hill
#
# Bulk Modulus (GPa) = 41.10877 67.59746 54.35312
# Shear Modulus (GPa) = 24.72015 44.27163 34.49589
#
# Velocity S-wave (km/s) = 3.12092 4.17657 3.68672
# Velocity P-wave (km/s) = 5.40225 7.06348 6.28797
#
# Compressibility (1/GPa) = 0.02432571
#
# Stress axis : x y z
#
# Youngs Moduli (GPa) = 138.18618 110.89383 110.81295
#
# Poissons Ratio (x) = 0.04197 0.01043
# Poissons Ratio (y) = 0.05230 0.00042
# Poissons Ratio (z) = 0.01301 0.00042
#
# Static dielectric constant tensor:
#      x y z
#    x 2.098060 0.000000 0.054860 
#    y 0.000000 2.291320 0.000000 
#    z 0.054860 0.000000 2.050610 
# 
# From -- ./inp_files/130551.got.cif
#   From: 2010.05.17/outbox.cif.g08.bks.cpg/sg12_66_cif.got.tgz:130551.got - 2010.06.03 13:09:07.
