data_PCOD9173796
_publ_section_title
;
Structure prediction by ZEFSAII (Michael W. Deem and Ramdas Pophale) SiO2 
 PCOD9173796
Probable space group: C 2/M
;
_chemical_formula_sum "Si O2"
_cell_formula_units_Z 64
_cell_length_a 22.970129
_cell_length_b 9.477782
_cell_length_c 13.874445
_cell_angle_alpha 90.000000
_cell_angle_beta 71.016021
_cell_angle_gamma 90.000000
_cell_volume 2856.259288
_symmetry_space_group_name_H-M "C 2/M"
_symmetry_group_IT_number 12
_symmetry_cell_setting 'monoclinic'
loop_
_space_group_symop_operation_xyz
x,y,z
-x,y,-z
-x,-y,-z
x,-y,z
1/2+x,1/2+y,z
1/2-x,1/2+y,-z
1/2-x,1/2-y,-z
1/2+x,1/2-y,z
loop_
_atom_site_type_symbol
_atom_site_label
_atom_site_fract_x
_atom_site_fract_y
_atom_site_fract_z
Si Si1 0.454442 0.343553 0.243754
Si Si2 0.812534 0.338402 0.463368
Si Si3 0.140535 0.340740 0.102356
Si Si4 0.965834 0.339192 0.673645
Si Si5 0.352732 0.159421 0.218938
Si Si6 0.379907 0.334376 0.586358
Si Si7 0.276236 0.336590 0.809506
Si Si8 0.055036 0.841276 0.033099
O O1 0.434697 0.500000 0.286964
O O2 0.473237 0.232253 0.315332
O O3 0.405660 0.276383 0.195750
O O4 0.518865 0.360390 0.153264
O O5 0.804804 0.500000 0.502360
O O6 0.750000 0.250000 0.500000
O O7 0.831911 0.345086 0.341852
O O8 0.859522 0.253002 0.504577
O O9 0.155707 0.500000 0.066692
O O10 0.086963 0.346355 0.213890
O O11 0.197292 0.261839 0.121360
O O12 0.112349 0.255572 0.027603
O O13 0.977230 0.500000 0.636626
O O14 0.937251 0.240370 0.607122
O O15 0.292380 0.194828 0.189811
O O16 0.374322 0.000000 0.181829
O O17 0.390594 0.500000 0.561912
O O18 0.322740 0.324353 0.693163
O O19 0.278988 0.500000 0.838906
O O20 0.069720 0.000000 0.989186
O O21 0.000000 0.775791 0.000000
#
# Coordination Sequence:
#
# PCOD9173796 Si02
#       8
#     8   8   8   8   8   8   8   8
#     4  10  20  34  53  78 103 132 169 209 250 301
#     4  11  21  34  50  72 101 134 174 217 261 305
#     4   9  17  28  47  78 106 128 163 209 250 289
#     4   9  17  31  50  72  99 134 168 207 257 307
#     4  10  21  36  51  71 102 140 173 207 256 308
#     4  10  18  31  50  74 100 129 170 220 262 302
#     4   9  17  31  49  70  99 136 172 205 250 302
#     4   9  18  34  56  80 106 135 164 198 247 304
#
# _framework density 22.406931
#
# number of rings (size 3 to 8) (size 9 to 14) (size 15 to 20)
#    0.000    2.375    1.250    1.875    0.000    5.750 
#    0.000    0.625    0.000    4.500    0.000    0.000 
#    0.000    0.000    0.000    0.000    0.000    0.000 
#
# Total GULP energy -178780.874040 kJ/mol
# GULP energy per Si atom -5586.902314 kJ/mol
# Density = 2.235593 g / cm^3
# Si number density = 22.406931 Si / 1000 Ang^3
#
#
#
# Elastic Constant Matrix: (Units=GPa)
#
#
# Indices 1 2 3 4 5 6 
#
# 1 132.5823 102.5873 31.1402 0.0000 42.3417 0.0000
# 2 102.5873 188.4678 34.8714 0.0000 35.0919 0.0000
# 3 31.1402 34.8714 48.8593 0.0000 12.9781 0.0000
# 4 0.0000 0.0000 0.0000 18.4040 0.0000 14.2044
# 5 42.3417 35.0919 12.9781 0.0000 50.6056 0.0000
# 6 0.0000 0.0000 0.0000 14.2044 0.0000 30.5196
#
#
#
# Elastic Compliance Matrix: (Units=1/GPa)
#
#
# Indices 1 2 3 4 5 6 
#
# 1 0.015963 -0.006591 -0.003365 0.000000 -0.007923 0.000000
# 2 -0.006591 0.009414 -0.002413 0.000000 -0.000394 0.000000
# 3 -0.003365 -0.002413 0.024833 0.000000 -0.001880 0.000000
# 4 0.000000 0.000000 0.000000 0.084796 0.000000 -0.039466
# 5 -0.007923 -0.000394 -0.001880 0.000000 0.027145 0.000000
# 6 0.000000 0.000000 0.000000 -0.039466 0.000000 0.051134
#
#
# Mechanical properties :
#
#
# Convention : Reuss Voigt Hill
#
# Bulk Modulus (GPa) = 39.26070 78.56747 58.91409
# Shear Modulus (GPa) = 20.28278 33.32655 26.80466
#
# Velocity S-wave (km/s) = 3.01192 3.86078 3.46246
# Velocity P-wave (km/s) = 5.44566 7.41715 6.50651
#
# Compressibility (1/GPa) = 0.02547076
#
# Stress axis : x y z
#
# Youngs Moduli (GPa) = 62.64399 106.22972 40.26864
#
# Poissons Ratio (x) = 0.70019 0.13552
# Poissons Ratio (y) = 0.41291 0.09717
# Poissons Ratio (z) = 0.21082 0.25633
#
# Static dielectric constant tensor:
#      x y z
#    x 1.804600 0.000000 -0.045250 
#    y 0.000000 1.815160 0.000000 
#    z -0.045250 0.000000 1.911350 
# 
# From -- ./inp_files/281299.got.cif
#   From: 2010.05.17/outbox.cif.g08.bks.cpg/sg12_141_cif.got.tgz:281299.got - 2010.06.03 13:09:07.
