data_PCOD9173496
_publ_section_title
;
Structure prediction by ZEFSAII (Michael W. Deem and Ramdas Pophale) SiO2 
 PCOD9173496
Probable space group: C 2/M
;
_chemical_formula_sum "Si O2"
_cell_formula_units_Z 58
_cell_length_a 24.718929
_cell_length_b 9.721515
_cell_length_c 14.680869
_cell_angle_alpha 90.000000
_cell_angle_beta 104.193571
_cell_angle_gamma 90.000000
_cell_volume 3420.196229
_symmetry_space_group_name_H-M "C 2/M"
_symmetry_group_IT_number 12
_symmetry_cell_setting 'monoclinic'
loop_
_space_group_symop_operation_xyz
x,y,z
-x,y,-z
-x,-y,-z
x,-y,z
1/2+x,1/2+y,z
1/2-x,1/2+y,-z
1/2-x,1/2-y,-z
1/2+x,1/2-y,z
loop_
_atom_site_type_symbol
_atom_site_label
_atom_site_fract_x
_atom_site_fract_y
_atom_site_fract_z
Si Si1 0.240102 0.161891 0.086175
Si Si2 0.431708 0.267946 0.409311
Si Si3 0.889089 0.837436 0.915356
Si Si4 0.000000 0.500000 0.500000
Si Si5 0.047789 0.148837 0.384044
Si Si6 0.068252 0.657820 0.902421
Si Si7 0.441637 0.838932 0.778230
Si Si8 0.651160 0.837685 0.765228
O O1 0.176991 0.177347 0.093965
O O2 0.286420 0.201589 0.180038
O O3 0.249591 0.000000 0.069559
O O4 0.250000 0.250000 0.000000
O O5 0.459313 0.119949 0.440632
O O6 0.424267 0.334473 0.505392
O O7 0.481337 0.344730 0.376104
O O8 0.377235 0.249310 0.326195
O O9 0.906767 0.752834 0.833774
O O10 0.902181 0.000000 0.913969
O O11 0.920390 0.765834 0.013250
O O12 0.062658 0.273179 0.323604
O O13 0.061854 0.000000 0.349523
O O14 0.074294 0.500000 0.939758
O O15 0.112380 0.677037 0.839094
O O16 0.006314 0.670808 0.836199
O O17 0.426362 0.000000 0.772603
O O18 0.650609 0.000000 0.740749
#
# Coordination Sequence:
#
# PCOD9173496 Si02
#       8
#     8   8   8   2   8   8   8   8
#     4  10  21  37  57  79 106 145 188 231 273 319
#     4  10  18  30  54  80 115 144 175 218 273 329
#     4  11  23  38  53  77 111 147 184 225 276 325
#     4   8  16  24  50  80 108 134 174 216 262 320
#     4  10  21  34  51  79 116 146 171 214 275 334
#     4  10  20  34  55  80 109 142 183 224 272 327
#     4  11  23  36  57  80 106 146 188 224 270 330
#     4  10  18  32  55  84 112 142 181 231 275 314
#
# _framework density 16.958093000000002
#
# number of rings (size 3 to 8) (size 9 to 14) (size 15 to 20)
#    0.000    1.931    3.448    2.069    3.862    3.310 
#    0.000    1.379    0.000    0.828    0.000    0.000 
#    0.000    0.000    0.000    0.000    0.000    0.000 
#
# Total GULP energy -161542.160692 kJ/mol
# GULP energy per Si atom -5570.419334 kJ/mol
# Density = 1.691950 g / cm^3
# Si number density = 16.958093 Si / 1000 Ang^3
#
#
#
# Elastic Constant Matrix: (Units=GPa)
#
#
# Indices 1 2 3 4 5 6 
#
# 1 32.5352 29.7202 23.9018 0.0000 -3.2198 0.0000
# 2 29.7202 111.6361 43.8768 0.0000 -6.5201 0.0000
# 3 23.9018 43.8768 94.6687 0.0000 7.4622 0.0000
# 4 0.0000 0.0000 0.0000 -28.2980 0.0000 19.9841
# 5 -3.2198 -6.5201 7.4622 0.0000 23.6476 0.0000
# 6 0.0000 0.0000 0.0000 19.9841 0.0000 3.7449
#
#
#
# Elastic Compliance Matrix: (Units=1/GPa)
#
#
# Indices 1 2 3 4 5 6 
#
# 1 0.044911 -0.008485 -0.007901 0.000000 0.006269 0.000000
# 2 -0.008485 0.013100 -0.004228 0.000000 0.003791 0.000000
# 3 -0.007901 -0.004228 0.015069 0.000000 -0.006997 0.000000
# 4 0.000000 0.000000 0.000000 -0.007411 0.000000 0.039546
# 5 0.006269 0.003791 -0.006997 0.000000 0.046394 0.000000
# 6 0.000000 0.000000 0.000000 0.039546 0.000000 0.055998
#
#
# Mechanical properties :
#
#
# Convention : Reuss Voigt Hill
#
# Bulk Modulus (GPa) = 31.39450 48.20421 39.79935
# Shear Modulus (GPa) = 22.73696 9.24167 15.98932
#
# Velocity S-wave (km/s) = 3.66563 2.33699 3.07395
# Velocity P-wave (km/s) = 6.03895 5.98074 6.00992
#
# Compressibility (1/GPa) = 0.03185271
#
# Stress axis : x y z
#
# Youngs Moduli (GPa) = 22.26604 76.33740 66.36173
#
# Poissons Ratio (x) = 0.64774 0.52430
# Poissons Ratio (y) = 0.18893 0.28057
# Poissons Ratio (z) = 0.17592 0.32275
#
# Static dielectric constant tensor:
#      x y z
#    x 1.558980 0.000000 -0.002390 
#    y 0.000000 1.579490 0.000000 
#    z -0.002390 0.000000 1.577320 
# 
# From -- ./inp_files/237706.got.cif
#   From: 2010.05.17/outbox.cif.g08.bks.cpg/sg12_119_cif.got.tgz:237706.got - 2010.06.03 13:09:07.
