data_PCOD9173832
_publ_section_title
;
Structure prediction by ZEFSAII (Michael W. Deem and Ramdas Pophale) SiO2 
 PCOD9173832
Probable space group: C 2/M
;
_chemical_formula_sum "Si O2"
_cell_formula_units_Z 56
_cell_length_a 24.095564
_cell_length_b 8.796423
_cell_length_c 15.390141
_cell_angle_alpha 90.000000
_cell_angle_beta 118.388829
_cell_angle_gamma 90.000000
_cell_volume 2869.728267
_symmetry_space_group_name_H-M "C 2/M"
_symmetry_group_IT_number 12
_symmetry_cell_setting 'monoclinic'
loop_
_space_group_symop_operation_xyz
x,y,z
-x,y,-z
-x,-y,-z
x,-y,z
1/2+x,1/2+y,z
1/2-x,1/2+y,-z
1/2-x,1/2-y,-z
1/2+x,1/2-y,z
loop_
_atom_site_type_symbol
_atom_site_label
_atom_site_fract_x
_atom_site_fract_y
_atom_site_fract_z
Si Si1 0.190440 0.679614 0.508313
Si Si2 0.432910 0.320498 0.669743
Si Si3 0.263048 0.675983 0.288896
Si Si4 0.382234 0.171388 0.796182
Si Si5 0.068462 0.827066 0.007187
Si Si6 0.212718 0.816139 0.889040
Si Si7 0.568946 0.315558 0.807321
O O1 0.193906 0.500000 0.500230
O O2 0.250000 0.750000 0.500000
O O3 0.123511 0.738899 0.422756
O O4 0.196853 0.726687 0.613916
O O5 0.429822 0.500000 0.649872
O O6 0.416892 0.288739 0.759088
O O7 0.505138 0.264766 0.710947
O O8 0.285185 0.500000 0.306127
O O9 0.192259 0.678106 0.273498
O O10 0.261474 0.726397 0.187236
O O11 0.392603 0.215124 0.903525
O O12 0.404615 0.000000 0.794944
O O13 0.094498 0.000000 0.027680
O O14 0.063657 0.775025 0.904925
O O15 0.000000 0.831794 0.000000
O O16 0.138957 0.768310 0.832161
O O17 0.215479 0.000000 0.898790
O O18 0.250000 0.750000 0.000000
O O19 0.567240 0.500000 0.801475
#
# Coordination Sequence:
#
# PCOD9173832 Si02
#       7
#     8   8   8   8   8   8   8
#     4  12  24  39  61  90 121 155 196 245 302 361
#     4  11  21  37  59  84 116 154 193 240 296 353
#     4  10  22  39  59  85 119 157 200 247 296 353
#     4  11  21  32  50  81 117 150 189 240 296 354
#     4  10  18  31  50  76 111 149 191 236 288 353
#     4  10  21  40  64  89 120 159 205 251 292 348
#     4   9  19  36  58  83 114 156 202 245 294 352
#
# _framework density 19.514042
#
# number of rings (size 3 to 8) (size 9 to 14) (size 15 to 20)
#    0.000    1.571    2.857    3.000    0.000    1.429 
#    0.000    2.143    0.000    4.286    0.000    0.000 
#    0.000    0.000    0.000    0.000    0.000    0.000 
#
# Total GULP energy -156231.925147 kJ/mol
# GULP energy per Si atom -5579.711612 kJ/mol
# Density = 1.946963 g / cm^3
# Si number density = 19.514042 Si / 1000 Ang^3
#
#
#
# Elastic Constant Matrix: (Units=GPa)
#
#
# Indices 1 2 3 4 5 6 
#
# 1 81.6476 15.9939 35.2891 0.0000 13.4205 0.0000
# 2 15.9939 60.1095 40.5729 0.0000 11.6319 0.0000
# 3 35.2891 40.5729 120.1365 0.0000 19.8077 0.0000
# 4 0.0000 0.0000 0.0000 32.0529 0.0000 1.5520
# 5 13.4205 11.6319 19.8077 0.0000 34.2615 0.0000
# 6 0.0000 0.0000 0.0000 1.5520 0.0000 14.4458
#
#
#
# Elastic Compliance Matrix: (Units=1/GPa)
#
#
# Indices 1 2 3 4 5 6 
#
# 1 0.014443 -0.000907 -0.003376 0.000000 -0.003398 0.000000
# 2 -0.000907 0.021978 -0.006615 0.000000 -0.003282 0.000000
# 3 -0.003376 -0.006615 0.012116 0.000000 -0.003437 0.000000
# 4 0.000000 0.000000 0.000000 0.031362 0.000000 -0.003369
# 5 -0.003398 -0.003282 -0.003437 0.000000 0.033619 0.000000
# 6 0.000000 0.000000 0.000000 -0.003369 0.000000 0.069586
#
#
# Mechanical properties :
#
#
# Convention : Reuss Voigt Hill
#
# Bulk Modulus (GPa) = 37.39510 49.51173 43.45342
# Shear Modulus (GPa) = 23.38492 27.48789 25.43640
#
# Velocity S-wave (km/s) = 3.46549 3.75723 3.61431
# Velocity P-wave (km/s) = 5.93445 6.65205 6.30347
#
# Compressibility (1/GPa) = 0.02674147
#
# Stress axis : x y z
#
# Youngs Moduli (GPa) = 69.23743 45.50090 82.53426
#
# Poissons Ratio (x) = 0.04125 0.27864
# Poissons Ratio (y) = 0.06278 0.54596
# Poissons Ratio (z) = 0.23375 0.30098
#
# Static dielectric constant tensor:
#      x y z
#    x 1.701830 0.000000 0.016360 
#    y 0.000000 1.679640 0.000000 
#    z 0.016360 0.000000 1.708620 
# 
# From -- ./inp_files/237878.got.cif
#   From: 2010.05.17/outbox.cif.g08.bks.cpg/sg12_119_cif.got.tgz:237878.got - 2010.06.03 13:09:07.
