data_PCOD9173372
_publ_section_title
;
Structure prediction by ZEFSAII (Michael W. Deem and Ramdas Pophale) SiO2 
 PCOD9173372
Probable space group: C 2/M
;
_chemical_formula_sum "Si O2"
_cell_formula_units_Z 48
_cell_length_a 11.659676
_cell_length_b 17.492724
_cell_length_c 17.561210
_cell_angle_alpha 90.000000
_cell_angle_beta 37.738106
_cell_angle_gamma 90.000000
_cell_volume 2192.236904
_symmetry_space_group_name_H-M "C 2/M"
_symmetry_group_IT_number 12
_symmetry_cell_setting 'monoclinic'
loop_
_space_group_symop_operation_xyz
x,y,z
-x,y,-z
-x,-y,-z
x,-y,z
1/2+x,1/2+y,z
1/2-x,1/2+y,-z
1/2-x,1/2-y,-z
1/2+x,1/2-y,z
loop_
_atom_site_type_symbol
_atom_site_label
_atom_site_fract_x
_atom_site_fract_y
_atom_site_fract_z
Si Si1 0.257967 0.325712 0.811510
Si Si2 0.273748 0.410807 0.122683
Si Si3 0.679742 0.318951 0.766922
Si Si4 0.764087 0.839696 0.973789
Si Si5 0.216048 0.087951 0.358339
Si Si6 0.843066 0.740841 0.369562
O O1 0.136513 0.257899 0.838064
O O2 0.189890 0.355796 0.928705
O O3 0.280652 0.386935 0.732438
O O4 0.451780 0.279505 0.728950
O O5 0.251787 0.500000 0.140531
O O6 0.204096 0.370592 0.236291
O O7 0.500000 0.393368 0.000000
O O8 0.189202 0.382243 0.087400
O O9 0.484422 0.360665 0.853185
O O10 0.756173 0.289417 0.646514
O O11 0.750000 0.750000 0.000000
O O12 0.323094 0.153737 0.350325
O O13 0.000000 0.091561 0.500000
O O14 0.280957 0.000000 0.333942
O O15 0.750000 0.750000 0.500000
#
# Coordination Sequence:
#
# PCOD9173372 Si02
#       6
#     8   8   8   8   8   8
#     4  10  19  33  54  78 103 141 179 215 260 321
#     4   9  17  31  48  71 103 135 168 214 261 300
#     4   9  19  31  50  76 101 136 176 214 257 309
#     4  10  18  30  52  77 103 135 177 216 253 312
#     4  10  20  35  55  81 110 137 173 227 275 312
#     4  10  19  34  54  78 103 137 180 216 260 323
#
# _framework density 21.895444000000001
#
# number of rings (size 3 to 8) (size 9 to 14) (size 15 to 20)
#    0.000    2.333    3.333    0.000    0.000    0.667 
#    0.000    4.167    0.000    0.000    0.000    8.167 
#    0.000    0.000    0.000    0.000    0.000    0.000 
#
# Total GULP energy -133878.950450 kJ/mol
# GULP energy per Si atom -5578.289602 kJ/mol
# Density = 2.184561 g / cm^3
# Si number density = 21.895444 Si / 1000 Ang^3
#
#
#
# Elastic Constant Matrix: (Units=GPa)
#
#
# Indices 1 2 3 4 5 6 
#
# 1 137.6730 43.3039 73.0454 -0.0003 41.8367 0.0000
# 2 43.3039 119.4627 46.5592 -0.0005 35.5434 0.0006
# 3 73.0454 46.5592 99.8363 -0.0004 48.4374 0.0007
# 4 -0.0003 -0.0005 -0.0004 23.7011 0.0007 6.1270
# 5 41.8367 35.5434 48.4374 0.0007 62.4060 -0.0004
# 6 0.0000 0.0006 0.0007 6.1270 -0.0004 27.5099
#
#
#
# Elastic Compliance Matrix: (Units=1/GPa)
#
#
# Indices 1 2 3 4 5 6 
#
# 1 0.012101 -0.000921 -0.007608 0.000000 -0.001683 0.000000
# 2 -0.000921 0.010773 -0.002683 0.000000 -0.003436 0.000000
# 3 -0.007608 -0.002683 0.021844 0.000001 -0.010326 -0.000001
# 4 0.000000 0.000000 0.000001 0.044770 -0.000001 -0.009971
# 5 -0.001683 -0.003436 -0.010326 -0.000001 0.027124 0.000001
# 6 0.000000 0.000000 -0.000001 -0.009971 0.000001 0.038571
#
#
# Mechanical properties :
#
#
# Convention : Reuss Voigt Hill
#
# Bulk Modulus (GPa) = 44.85550 75.86544 60.36047
# Shear Modulus (GPa) = 27.02149 35.66095 31.34122
#
# Velocity S-wave (km/s) = 3.51681 4.04008 3.78749
# Velocity P-wave (km/s) = 6.08451 7.51580 6.83771
#
# Compressibility (1/GPa) = 0.02229381
#
# Stress axis : x y z
#
# Youngs Moduli (GPa) = 82.63633 92.82861 45.77936
#
# Poissons Ratio (x) = 0.08546 0.34828
# Poissons Ratio (y) = 0.07608 0.12284
# Poissons Ratio (z) = 0.62868 0.24910
#
# Static dielectric constant tensor:
#      x y z
#    x 1.913670 0.000000 -0.057230 
#    y 0.000000 1.756040 0.000000 
#    z -0.057230 0.000000 1.853010 
# 
# From -- ./inp_files/131170.got.cif
#   From: 2010.05.17/outbox.cif.g08.bks.cpg/sg12_66_cif.got.tgz:131170.got - 2010.06.03 13:09:07.
