data_PCOD9173187
_publ_section_title
;
Structure prediction by ZEFSAII (Michael W. Deem and Ramdas Pophale) SiO2 
 PCOD9173187
Probable space group: C 2/M
;
_chemical_formula_sum "Si O2"
_cell_formula_units_Z 40
_cell_length_a 22.252825
_cell_length_b 11.573176
_cell_length_c 20.129284
_cell_angle_alpha 90.000000
_cell_angle_beta 153.041092
_cell_angle_gamma 90.000000
_cell_volume 2350.179111
_symmetry_space_group_name_H-M "C 2/M"
_symmetry_group_IT_number 12
_symmetry_cell_setting 'monoclinic'
loop_
_space_group_symop_operation_xyz
x,y,z
-x,y,-z
-x,-y,-z
x,-y,z
1/2+x,1/2+y,z
1/2-x,1/2+y,-z
1/2-x,1/2-y,-z
1/2+x,1/2-y,z
loop_
_atom_site_type_symbol
_atom_site_label
_atom_site_fract_x
_atom_site_fract_y
_atom_site_fract_z
Si Si1 0.874022 0.229025 0.332790
Si Si2 0.421775 0.783757 0.108797
Si Si3 0.283488 0.000000 0.791505
Si Si4 0.890082 0.862734 0.945190
Si Si5 0.515161 0.000000 0.130921
Si Si6 0.882111 0.137665 0.194178
O O1 0.806793 0.112597 0.294383
O O2 0.757436 0.323206 0.219497
O O3 0.912145 0.195303 0.294862
O O4 0.000000 0.262280 0.500000
O O5 0.451032 0.710339 0.203390
O O6 0.515311 0.887616 0.177490
O O7 0.416117 0.696642 0.041314
O O8 0.276054 0.842310 0.972812
O O9 0.370821 0.000000 0.811528
O O10 0.380674 0.000000 0.952251
O O11 0.898848 0.000000 0.958869
O O12 0.000000 0.821805 0.000000
O O13 0.909275 0.000000 0.220492
#
# Coordination Sequence:
#
# PCOD9173187 Si02
#       6
#     8   8   4   8   4   8
#     4  11  21  35  55  83 108 141 180 225 272 315
#     4  10  18  30  50  80 106 138 172 225 273 310
#     4  11  19  32  56  82 108 136 178 233 265 317
#     4  10  20  35  55  79 107 142 182 218 266 323
#     4  11  18  32  56  82 109 134 182 231 268 311
#     4  10  18  31  48  75 112 138 172 219 272 322
#
# _framework density 17.019978999999999
#
# number of rings (size 3 to 8) (size 9 to 14) (size 15 to 20)
#    0.000    1.600    6.000    2.100    0.000    0.400 
#    1.800    0.000    0.000    4.800    0.000    0.000 
#    0.000    0.000    0.000    0.000    0.000    0.000 
#
# Total GULP energy -111575.163740 kJ/mol
# GULP energy per Si atom -5578.758187 kJ/mol
# Density = 1.698124 g / cm^3
# Si number density = 17.019979 Si / 1000 Ang^3
#
#
#
# Elastic Constant Matrix: (Units=GPa)
#
#
# Indices 1 2 3 4 5 6 
#
# 1 133.1116 57.3041 44.6747 0.0000 -9.6742 0.0000
# 2 57.3041 86.9973 24.0379 0.0000 -6.3174 0.0000
# 3 44.6747 24.0379 65.5721 0.0000 -9.8639 0.0000
# 4 0.0000 0.0000 0.0000 12.4005 0.0000 -13.1358
# 5 -9.6742 -6.3174 -9.8639 0.0000 12.0255 0.0000
# 6 0.0000 0.0000 0.0000 -13.1358 0.0000 15.3396
#
#
#
# Elastic Compliance Matrix: (Units=1/GPa)
#
#
# Indices 1 2 3 4 5 6 
#
# 1 0.012342 -0.006398 -0.005790 0.000000 0.001819 0.000000
# 2 -0.006398 0.016221 -0.001232 0.000000 0.002364 0.000000
# 3 -0.005790 -0.001232 0.021502 -0.000001 0.012332 -0.000001
# 4 0.000000 0.000000 -0.000001 0.868135 -0.000001 0.743412
# 5 0.001819 0.002364 0.012332 -0.000001 0.095977 -0.000001
# 6 0.000000 0.000000 -0.000001 0.743412 -0.000001 0.701798
#
#
# Mechanical properties :
#
#
# Convention : Reuss Voigt Hill
#
# Bulk Modulus (GPa) = 43.05581 59.74604 51.40092
# Shear Modulus (GPa) = 2.85624 18.59741 10.72683
#
# Velocity S-wave (km/s) = 1.29685 3.30916 2.51320
# Velocity P-wave (km/s) = 5.25305 7.05552 6.21993
#
# Compressibility (1/GPa) = 0.02322567
#
# Stress axis : x y z
#
# Youngs Moduli (GPa) = 81.02393 61.64942 46.50806
#
# Poissons Ratio (x) = 0.39442 0.26927
# Poissons Ratio (y) = 0.51837 0.05729
# Poissons Ratio (z) = 0.46911 0.07594
#
# Static dielectric constant tensor:
#      x y z
#    x 1.585510 0.000000 -0.001790 
#    y 0.000000 1.577060 0.000000 
#    z -0.001790 0.000000 1.561840 
# 
# From -- ./inp_files/83675.got.cif
#   From: 2010.05.17/outbox.cif.g08.bks.cpg/sg12_42_cif.got.tgz:83675.got - 2010.06.03 13:09:07.
