data_PCOD9173730
_publ_section_title
;
Structure prediction by ZEFSAII (Michael W. Deem and Ramdas Pophale) SiO2 
 PCOD9173730
Probable space group: C 2/M
;
_chemical_formula_sum "Si O2"
_cell_formula_units_Z 40
_cell_length_a 22.682714
_cell_length_b 12.734348
_cell_length_c 20.251666
_cell_angle_alpha 90.000000
_cell_angle_beta 18.015255
_cell_angle_gamma 90.000000
_cell_volume 1809.133291
_symmetry_space_group_name_H-M "C 2/M"
_symmetry_group_IT_number 12
_symmetry_cell_setting 'monoclinic'
loop_
_space_group_symop_operation_xyz
x,y,z
-x,y,-z
-x,-y,-z
x,-y,z
1/2+x,1/2+y,z
1/2-x,1/2+y,-z
1/2-x,1/2-y,-z
1/2+x,1/2-y,z
loop_
_atom_site_type_symbol
_atom_site_label
_atom_site_fract_x
_atom_site_fract_y
_atom_site_fract_z
Si Si1 0.459486 0.800972 0.277206
Si Si2 0.330979 0.325540 0.139137
Si Si3 0.971241 0.388645 0.124599
Si Si4 0.311923 0.813241 0.844522
Si Si5 0.080101 0.175982 0.482097
O O1 0.250000 0.750000 0.500000
O O2 0.468452 0.878673 0.206056
O O3 0.532637 0.851307 0.267792
O O4 0.616818 0.711938 0.090991
O O5 0.246010 0.371524 0.161896
O O6 0.169828 0.287875 0.361758
O O7 0.500000 0.379544 0.000000
O O8 0.423968 0.214046 0.015257
O O9 0.057707 0.500000 0.012159
O O10 0.754125 0.381932 0.330599
O O11 0.412023 0.705532 0.711006
O O12 0.000000 0.127237 0.500000
#
# Coordination Sequence:
#
# PCOD9173730 Si02
#       5
#     8   8   8   8   8
#     4  10  18  31  50  62  87 125 166 201 237 268
#     4   8  16  28  45  66  95 126 148 191 227 278
#     4  10  19  30  44  67  97 132 164 195 231 277
#     4   9  17  29  48  68  86 119 163 199 235 269
#     4   9  16  28  43  65  93 124 155 189 224 276
#
# _framework density 22.110035
#
# number of rings (size 3 to 8) (size 9 to 14) (size 15 to 20)
#    0.000    2.800    2.000    0.000    0.000    4.000 
#    0.000    8.000    0.000    0.000    0.000    0.000 
#    0.000    8.000    0.000    9.200    0.000    0.200 
#
# Total GULP energy -111375.531840 kJ/mol
# GULP energy per Si atom -5568.776592 kJ/mol
# Density = 2.205971 g / cm^3
# Si number density = 22.110035 Si / 1000 Ang^3
#
#
#
# Elastic Constant Matrix: (Units=GPa)
#
#
# Indices 1 2 3 4 5 6 
#
# 1 225.4360 10.6592 22.2844 -0.0007 -24.2225 -0.0005
# 2 10.6592 51.2229 9.5938 -0.0003 0.0922 -0.0008
# 3 22.2844 9.5938 117.5818 -0.0031 -14.5783 -0.0001
# 4 -0.0007 -0.0003 -0.0031 0.4414 0.0016 3.4817
# 5 -24.2225 0.0922 -14.5783 0.0016 45.6196 0.0004
# 6 -0.0005 -0.0008 -0.0001 3.4817 0.0004 -8.9339
#
#
#
# Elastic Compliance Matrix: (Units=1/GPa)
#
#
# Indices 1 2 3 4 5 6 
#
# 1 0.004786 -0.000899 -0.000540 -0.000001 0.002371 -0.000001
# 2 -0.000899 0.020009 -0.001589 0.000004 -0.001026 0.000000
# 3 -0.000540 -0.001589 0.009061 0.000013 0.002612 0.000005
# 4 -0.000001 0.000004 0.000013 0.556098 -0.000018 0.216721
# 5 0.002371 -0.001026 0.002612 -0.000018 0.024016 -0.000006
# 6 -0.000001 0.000000 0.000005 0.216721 -0.000006 -0.027474
#
#
# Mechanical properties :
#
#
# Convention : Reuss Voigt Hill
#
# Bulk Modulus (GPa) = 35.97203 53.25727 44.61465
# Shear Modulus (GPa) = 8.30814 30.87231 19.59022
#
# Velocity S-wave (km/s) = 1.94056 3.74077 2.97986
# Velocity P-wave (km/s) = 4.61800 6.54198 5.66230
#
# Compressibility (1/GPa) = 0.02779938
#
# Stress axis : x y z
#
# Youngs Moduli (GPa) = 208.92268 49.97715 110.36847
#
# Poissons Ratio (x) = 0.04494 0.05958
# Poissons Ratio (y) = 0.18786 0.17542
# Poissons Ratio (z) = 0.11278 0.07943
#
# Static dielectric constant tensor:
#      x y z
#    x 1.922080 0.000000 -0.020470 
#    y 0.000000 1.825050 0.000000 
#    z -0.020470 0.000000 1.856680 
# 
# From -- ./inp_files/325777.got.cif
#   From: 2010.05.17/outbox.cif.g08.bks.cpg/sg12_163_cif.got.tgz:325777.got - 2010.06.03 13:09:07.
