data_PCOD9173038
_publ_section_title
;
Structure prediction by ZEFSAII (Michael W. Deem and Ramdas Pophale) SiO2 
 PCOD9173038
Probable space group: C 2/M
;
_chemical_formula_sum "Si O2"
_cell_formula_units_Z 56
_cell_length_a 27.383398
_cell_length_b 8.745083
_cell_length_c 13.764731
_cell_angle_alpha 90.000000
_cell_angle_beta 61.040259
_cell_angle_gamma 90.000000
_cell_volume 2884.079804
_symmetry_space_group_name_H-M "C 2/M"
_symmetry_group_IT_number 12
_symmetry_cell_setting 'monoclinic'
loop_
_space_group_symop_operation_xyz
x,y,z
-x,y,-z
-x,-y,-z
x,-y,z
1/2+x,1/2+y,z
1/2-x,1/2+y,-z
1/2-x,1/2-y,-z
1/2+x,1/2-y,z
loop_
_atom_site_type_symbol
_atom_site_label
_atom_site_fract_x
_atom_site_fract_y
_atom_site_fract_z
Si Si1 0.383977 0.319707 0.257892
Si Si2 0.505125 0.822287 0.132404
Si Si3 0.607825 0.684988 0.535555
Si Si4 0.379291 0.816334 0.063015
Si Si5 0.984240 0.323701 0.654250
Si Si6 0.688203 0.183307 0.062706
Si Si7 0.873793 0.180521 0.692557
O O1 0.375884 0.500000 0.257922
O O2 0.449880 0.278410 0.188964
O O3 0.366929 0.270253 0.383729
O O4 0.358428 0.241393 0.187290
O O5 0.529758 0.821050 0.217630
O O6 0.489549 0.000000 0.126344
O O7 0.555625 0.771806 0.015225
O O8 0.600413 0.500000 0.544118
O O9 0.547114 0.763036 0.586437
O O10 0.640463 0.723614 0.405145
O O11 0.378586 0.000000 0.063366
O O12 0.344861 0.762933 0.002222
O O13 0.980272 0.500000 0.626135
O O14 0.939067 0.221166 0.643841
O O15 0.658661 0.234557 0.190712
O O16 0.689492 0.000000 0.058697
O O17 0.750000 0.250000 0.000000
O O18 0.865125 0.000000 0.712492
#
# Coordination Sequence:
#
# PCOD9173038 Si02
#       7
#     8   8   8   8   8   8   8
#     4  10  20  32  49  78 112 146 186 224 258 314
#     4   9  17  31  48  71 108 150 183 218 269 322
#     4   9  20  35  49  75 115 153 185 222 269 322
#     4  10  20  36  55  75 107 144 177 221 276 329
#     4  10  18  30  49  77 111 149 190 228 267 322
#     4  11  24  43  63  86 110 136 179 232 285 334
#     4  11  21  35  56  78 108 148 184 225 279 328
#
# _framework density 19.416938999999999
#
# number of rings (size 3 to 8) (size 9 to 14) (size 15 to 20)
#    0.000    2.000    1.429    2.571    0.000    7.429 
#    0.000    0.000    0.000    0.857    0.000    0.000 
#    0.000    0.000    0.000    0.000    0.000    0.000 
#
# Total GULP energy -156233.385137 kJ/mol
# GULP energy per Si atom -5579.763755 kJ/mol
# Density = 1.937275 g / cm^3
# Si number density = 19.416939 Si / 1000 Ang^3
#
#
#
# Elastic Constant Matrix: (Units=GPa)
#
#
# Indices 1 2 3 4 5 6 
#
# 1 51.4270 12.6654 50.5113 0.0000 18.7572 0.0000
# 2 12.6654 26.8692 24.0234 0.0000 6.8002 0.0000
# 3 50.5113 24.0234 127.3684 0.0000 44.3957 0.0000
# 4 0.0000 0.0000 0.0000 18.8129 0.0000 5.8655
# 5 18.7572 6.8002 44.3957 0.0000 30.5556 0.0000
# 6 0.0000 0.0000 0.0000 5.8655 0.0000 22.9555
#
#
#
# Elastic Compliance Matrix: (Units=1/GPa)
#
#
# Indices 1 2 3 4 5 6 
#
# 1 0.032437 -0.004767 -0.010929 0.000000 -0.002973 0.000000
# 2 -0.004767 0.045798 -0.008540 0.000000 0.005142 0.000000
# 3 -0.010929 -0.008540 0.021872 0.000000 -0.023170 0.000000
# 4 0.000000 0.000000 0.000000 0.057756 0.000000 -0.014758
# 5 -0.002973 0.005142 -0.023170 0.000000 0.067072 0.000000
# 6 0.000000 0.000000 0.000000 -0.014758 0.000000 0.047333
#
#
# Mechanical properties :
#
#
# Convention : Reuss Voigt Hill
#
# Bulk Modulus (GPa) = 19.36595 42.22944 30.79769
# Shear Modulus (GPa) = 14.79496 22.36242 18.57869
#
# Velocity S-wave (km/s) = 2.76336 3.39735 3.09662
# Velocity P-wave (km/s) = 4.49187 6.09797 5.35547
#
# Compressibility (1/GPa) = 0.05163703
#
# Stress axis : x y z
#
# Youngs Moduli (GPa) = 30.82874 21.83479 45.72026
#
# Poissons Ratio (x) = 0.10408 0.49966
# Poissons Ratio (y) = 0.14695 0.39046
# Poissons Ratio (z) = 0.33692 0.18647
#
# Static dielectric constant tensor:
#      x y z
#    x 1.684080 0.000000 0.062640 
#    y 0.000000 1.652960 0.000000 
#    z 0.062640 0.000000 1.739520 
# 
# From -- ./inp_files/243620.got.cif
#   From: 2010.05.17/outbox.cif.g08.bks.cpg/sg12_122_cif.got.tgz:243620.got - 2010.06.03 13:09:07.
