data_PCOD9173742
_publ_section_title
;
Structure prediction by ZEFSAII (Michael W. Deem and Ramdas Pophale) SiO2 
 PCOD9173742
Probable space group: C 2/M
;
_chemical_formula_sum "Si O2"
_cell_formula_units_Z 56
_cell_length_a 30.101130
_cell_length_b 8.454045
_cell_length_c 13.993856
_cell_angle_alpha 90.000000
_cell_angle_beta 76.399032
_cell_angle_gamma 90.000000
_cell_volume 3461.240840
_symmetry_space_group_name_H-M "C 2/M"
_symmetry_group_IT_number 12
_symmetry_cell_setting 'monoclinic'
loop_
_space_group_symop_operation_xyz
x,y,z
-x,y,-z
-x,-y,-z
x,-y,z
1/2+x,1/2+y,z
1/2-x,1/2+y,-z
1/2-x,1/2-y,-z
1/2+x,1/2-y,z
loop_
_atom_site_type_symbol
_atom_site_label
_atom_site_fract_x
_atom_site_fract_y
_atom_site_fract_z
Si Si1 0.479990 0.311565 0.111805
Si Si2 0.201630 0.690011 0.634446
Si Si3 0.603218 0.811305 0.735096
Si Si4 0.966149 0.687373 0.735043
Si Si5 0.894109 0.691628 0.627317
Si Si6 0.800184 0.309880 0.586360
Si Si7 0.549948 0.314093 0.581385
O O1 0.473261 0.500000 0.113460
O O2 0.431705 0.231806 0.163169
O O3 0.515215 0.270617 0.179369
O O4 0.500000 0.259847 0.000000
O O5 0.205216 0.500000 0.631191
O O6 0.156486 0.731611 0.717279
O O7 0.194290 0.742904 0.527410
O O8 0.249984 0.756918 0.643684
O O9 0.583878 0.721405 0.652301
O O10 0.600486 0.000000 0.718064
O O11 0.965316 0.500000 0.753415
O O12 0.917802 0.739685 0.714881
O O13 0.003915 0.723697 0.634414
O O14 0.894773 0.500000 0.624643
O O15 0.842674 0.745476 0.629094
O O16 0.925856 0.752828 0.525559
O O17 0.801549 0.500000 0.584645
O O18 0.540287 0.500000 0.579469
#
# Coordination Sequence:
#
# PCOD9173742 Si02
#       7
#     8   8   8   8   8   8   8
#     4  10  21  36  52  72  97 119 146 191 241 285
#     4   9  17  29  44  65  92 123 159 195 229 265
#     4  10  18  31  50  69  94 125 158 195 231 275
#     4  10  20  32  49  67  89 122 158 192 228 277
#     4  10  19  32  45  63  92 128 162 191 227 268
#     4   9  17  29  44  62  92 127 160 194 225 265
#     4  11  20  28  42  65  94 126 160 193 227 270
#
# _framework density 16.179169000000002
#
# number of rings (size 3 to 8) (size 9 to 14) (size 15 to 20)
#    0.000    2.143    1.429    4.714    0.000    5.714 
#    0.000    0.000    0.000    0.000    0.000    1.000 
#    0.000    0.000    0.000    0.000    0.000    0.000 
#
# Total GULP energy -156113.169344 kJ/mol
# GULP energy per Si atom -5575.470334 kJ/mol
# Density = 1.614234 g / cm^3
# Si number density = 16.179169 Si / 1000 Ang^3
#
#
#
# Elastic Constant Matrix: (Units=GPa)
#
#
# Indices 1 2 3 4 5 6 
#
# 1 114.7079 5.0375 49.1531 0.0000 2.9753 0.0000
# 2 5.0375 11.5488 6.2141 0.0000 0.0958 0.0000
# 3 49.1531 6.2141 68.1099 0.0000 -9.5333 0.0000
# 4 0.0000 0.0000 0.0000 19.0644 0.0000 -1.7390
# 5 2.9753 0.0958 -9.5333 0.0000 11.6464 0.0000
# 6 0.0000 0.0000 0.0000 -1.7390 0.0000 28.8831
#
#
#
# Elastic Compliance Matrix: (Units=1/GPa)
#
#
# Indices 1 2 3 4 5 6 
#
# 1 0.014326 0.000486 -0.012306 0.000000 -0.013737 0.000000
# 2 0.000486 0.091832 -0.009998 0.000000 -0.009063 0.000000
# 3 -0.012306 -0.009998 0.028152 0.000000 0.026270 0.000000
# 4 0.000000 0.000000 0.000000 0.052743 0.000000 0.003176
# 5 -0.013737 -0.009063 0.026270 0.000000 0.110950 0.000000
# 6 0.000000 0.000000 0.000000 0.003176 0.000000 0.034813
#
#
# Mechanical properties :
#
#
# Convention : Reuss Voigt Hill
#
# Bulk Modulus (GPa) = 11.02838 35.01953 23.02396
# Shear Modulus (GPa) = 12.29479 20.84959 16.57219
#
# Velocity S-wave (km/s) = 2.75965 3.59370 3.20393
# Velocity P-wave (km/s) = 4.12133 6.23790 5.28662
#
# Compressibility (1/GPa) = 0.09067514
#
# Stress axis : x y z
#
# Youngs Moduli (GPa) = 69.80425 10.88947 35.52151
#
# Poissons Ratio (x) = -0.00530 0.43711
# Poissons Ratio (y) = -0.03396 0.35515
# Poissons Ratio (z) = 0.85898 0.10887
#
# Static dielectric constant tensor:
#      x y z
#    x 1.579100 0.000000 0.006550 
#    y 0.000000 1.548840 0.000000 
#    z 0.006550 0.000000 1.521030 
# 
# From -- ./inp_files/247800.got.cif
#   From: 2010.05.17/outbox.cif.g08.bks.cpg/sg12_124_cif.got.tgz:247800.got - 2010.06.03 13:09:07.
