data_PCOD9173595
_publ_section_title
;
Structure prediction by ZEFSAII (Michael W. Deem and Ramdas Pophale) SiO2 
 PCOD9173595
Probable space group: C 2/M
;
_chemical_formula_sum "Si O2"
_cell_formula_units_Z 64
_cell_length_a 20.793342
_cell_length_b 9.233884
_cell_length_c 21.628320
_cell_angle_alpha 90.000000
_cell_angle_beta 72.142664
_cell_angle_gamma 90.000000
_cell_volume 3952.643951
_symmetry_space_group_name_H-M "C 2/M"
_symmetry_group_IT_number 12
_symmetry_cell_setting 'monoclinic'
loop_
_space_group_symop_operation_xyz
x,y,z
-x,y,-z
-x,-y,-z
x,-y,z
1/2+x,1/2+y,z
1/2-x,1/2+y,-z
1/2-x,1/2-y,-z
1/2+x,1/2-y,z
loop_
_atom_site_type_symbol
_atom_site_label
_atom_site_fract_x
_atom_site_fract_y
_atom_site_fract_z
Si Si1 0.689410 0.825817 0.830438
Si Si2 0.956329 0.672566 0.951008
Si Si3 0.949481 0.825786 0.170123
Si Si4 0.801965 0.672759 0.029478
Si Si5 0.751620 0.832637 0.299715
Si Si6 0.699666 0.333112 0.428886
Si Si7 0.851842 0.665997 0.442004
Si Si8 0.402703 0.665697 0.315047
O O1 0.616597 0.753710 0.838109
O O2 0.740359 0.758246 0.765353
O O3 0.684451 0.000000 0.824867
O O4 0.708563 0.791427 0.895243
O O5 0.961730 0.500000 0.936265
O O6 0.878920 0.708720 0.988325
O O7 0.987501 0.764536 0.886179
O O8 0.000000 0.700045 0.000000
O O9 0.949942 0.792795 0.243430
O O10 0.942554 0.000000 0.166046
O O11 0.794750 0.500000 0.025755
O O12 0.750000 0.750000 0.000000
O O13 0.704251 0.757241 0.364382
O O14 0.827082 0.832270 0.307686
O O15 0.733763 0.000000 0.293824
O O16 0.681781 0.500000 0.423250
O O17 0.775901 0.331636 0.435112
O O18 0.653043 0.259694 0.494436
O O19 0.868449 0.500000 0.450611
O O20 0.899833 0.733152 0.375455
O O21 0.416570 0.500000 0.329321
#
# Coordination Sequence:
#
# PCOD9173595 Si02
#       8
#     8   8   8   8   8   8   8   8
#     4  10  18  31  47  64  89 121 153 189 238 288
#     4  10  19  35  53  71  96 125 157 196 242 289
#     4  10  19  29  45  70  92 116 153 198 237 275
#     4  10  22  37  53  72  96 127 158 196 242 291
#     4   9  16  25  37  56  79 105 144 191 229 268
#     4   9  15  22  32  47  70 105 143 180 225 272
#     4   9  15  21  31  47  69 102 144 183 220 265
#     4   8  15  25  34  50  79 108 139 180 227 272
#
# _framework density 16.191693999999998
#
# number of rings (size 3 to 8) (size 9 to 14) (size 15 to 20)
#    0.000    2.625    1.250    2.625    0.000    8.250 
#    0.000    0.000    0.000    0.000    0.000    0.000 
#    0.000    0.000    0.000    1.125    0.000   21.500 
#
# Total GULP energy -178298.913706 kJ/mol
# GULP energy per Si atom -5571.841053 kJ/mol
# Density = 1.615484 g / cm^3
# Si number density = 16.191694 Si / 1000 Ang^3
#
#
#
# Elastic Constant Matrix: (Units=GPa)
#
#
# Indices 1 2 3 4 5 6 
#
# 1 39.7548 25.9838 37.6670 0.0000 0.3000 0.0000
# 2 25.9838 100.7016 88.1158 0.0000 -10.1818 0.0000
# 3 37.6670 88.1158 162.8630 0.0000 -20.9204 0.0000
# 4 0.0000 0.0000 0.0000 35.0604 0.0000 -4.1511
# 5 0.3000 -10.1818 -20.9204 0.0000 11.1918 0.0000
# 6 0.0000 0.0000 0.0000 -4.1511 0.0000 15.0611
#
#
#
# Elastic Compliance Matrix: (Units=1/GPa)
#
#
# Indices 1 2 3 4 5 6 
#
# 1 0.036389 -0.003384 -0.009351 0.000000 -0.021533 0.000000
# 2 -0.003384 0.019227 -0.009688 0.000000 -0.000526 0.000000
# 3 -0.009351 -0.009688 0.016377 0.000000 0.022049 0.000000
# 4 0.000000 0.000000 0.000000 0.029484 0.000000 0.008126
# 5 -0.021533 -0.000526 0.022049 0.000000 0.130665 0.000000
# 6 0.000000 0.000000 0.000000 0.008126 0.000000 0.068636
#
#
# Mechanical properties :
#
#
# Convention : Reuss Voigt Hill
#
# Bulk Modulus (GPa) = 36.83685 67.42806 52.13245
# Shear Modulus (GPa) = 14.09753 22.36618 18.23185
#
# Velocity S-wave (km/s) = 2.95390 3.72067 3.35923
# Velocity P-wave (km/s) = 5.86804 7.75834 6.87843
#
# Compressibility (1/GPa) = 0.02714673
#
# Stress axis : x y z
#
# Youngs Moduli (GPa) = 27.48120 52.00971 61.06301
#
# Poissons Ratio (x) = 0.17601 0.57100
# Poissons Ratio (y) = 0.09300 0.59155
# Poissons Ratio (z) = 0.25698 0.50385
#
# Static dielectric constant tensor:
#      x y z
#    x 1.508640 0.000000 -0.015910 
#    y 0.000000 1.543500 0.000000 
#    z -0.015910 0.000000 1.553780 
# 
# From -- ./inp_files/287555.got.cif
#   From: 2010.05.17/outbox.cif.g08.bks.cpg/sg12_144_cif.got.tgz:287555.got - 2010.06.03 13:09:07.
