data_PCOD9173864
_publ_section_title
;
Structure prediction by ZEFSAII (Michael W. Deem and Ramdas Pophale) SiO2 
 PCOD9173864
Probable space group: C 2/M
;
_chemical_formula_sum "Si O2"
_cell_formula_units_Z 64
_cell_length_a 28.898412
_cell_length_b 7.405430
_cell_length_c 13.309476
_cell_angle_alpha 90.000000
_cell_angle_beta 96.469119
_cell_angle_gamma 90.000000
_cell_volume 2830.160749
_symmetry_space_group_name_H-M "C 2/M"
_symmetry_group_IT_number 12
_symmetry_cell_setting 'monoclinic'
loop_
_space_group_symop_operation_xyz
x,y,z
-x,y,-z
-x,-y,-z
x,-y,z
1/2+x,1/2+y,z
1/2-x,1/2+y,-z
1/2-x,1/2-y,-z
1/2+x,1/2-y,z
loop_
_atom_site_type_symbol
_atom_site_label
_atom_site_fract_x
_atom_site_fract_y
_atom_site_fract_z
Si Si1 0.347583 0.717752 0.525075
Si Si2 0.436046 0.717177 0.666914
Si Si3 0.954027 0.706954 0.044409
Si Si4 0.527358 0.795749 0.597854
Si Si5 0.794518 0.779089 0.715543
Si Si6 0.597333 0.222967 0.770337
Si Si7 0.382461 0.282431 0.856480
Si Si8 0.309790 0.210008 0.294599
O O1 0.346926 0.500000 0.522803
O O2 0.400076 0.771561 0.569792
O O3 0.315098 0.775155 0.611415
O O4 0.329491 0.781462 0.413355
O O5 0.440192 0.500000 0.665171
O O6 0.486531 0.800210 0.670189
O O7 0.412374 0.765330 0.765543
O O8 0.967025 0.500000 0.071152
O O9 0.932835 0.785549 0.142081
O O10 0.910289 0.709130 0.957798
O O11 0.000000 0.786545 0.000000
O O12 0.500000 0.703931 0.500000
O O13 0.571606 0.715158 0.662319
O O14 0.539061 0.000000 0.570015
O O15 0.830364 0.725507 0.812521
O O16 0.742162 0.713023 0.718484
O O17 0.794768 0.000000 0.713318
O O18 0.650698 0.282090 0.771142
O O19 0.596755 0.000000 0.770659
O O20 0.382252 0.500000 0.866202
O O21 0.304540 0.000000 0.267002
#
# Coordination Sequence:
#
# PCOD9173864 Si02
#       8
#     8   8   8   8   8   8   8   8
#     4   9  17  30  47  71 103 131 158 195 238 282
#     4   9  18  31  47  68  96 128 157 193 243 291
#     4  10  20  35  54  73  96 127 159 196 247 295
#     4  10  19  31  48  70  97 128 162 198 232 275
#     4   8  16  31  51  73  98 130 161 194 240 286
#     4   9  19  33  48  71 100 126 157 200 245 287
#     4   9  18  34  53  73  96 121 158 203 241 283
#     4  10  18  31  51  71  95 130 167 197 233 285
#
# _framework density 22.613557
#
# number of rings (size 3 to 8) (size 9 to 14) (size 15 to 20)
#    0.000    2.750    0.000    3.375    0.000    3.500 
#    0.000    5.000    0.000    0.000    0.000    0.000 
#    0.000    0.000    0.000    0.000    0.000    0.000 
#
# Total GULP energy -178619.909408 kJ/mol
# GULP energy per Si atom -5581.872169 kJ/mol
# Density = 2.256209 g / cm^3
# Si number density = 22.613557 Si / 1000 Ang^3
#
#
#
# Elastic Constant Matrix: (Units=GPa)
#
#
# Indices 1 2 3 4 5 6 
#
# 1 155.7633 5.3661 41.2814 0.0000 -11.9658 0.0000
# 2 5.3661 75.8842 -0.9213 0.0000 -7.0414 0.0000
# 3 41.2814 -0.9213 95.1186 0.0000 1.8322 0.0000
# 4 0.0000 0.0000 0.0000 0.2316 0.0000 18.5304
# 5 -11.9658 -7.0414 1.8322 0.0000 30.6247 0.0000
# 6 0.0000 0.0000 0.0000 18.5304 0.0000 -7.0847
#
#
#
# Elastic Compliance Matrix: (Units=1/GPa)
#
#
# Indices 1 2 3 4 5 6 
#
# 1 0.007552 -0.000288 -0.003340 0.000000 0.003084 0.000000
# 2 -0.000288 0.013477 0.000198 0.000000 0.002974 0.000000
# 3 -0.003340 0.000198 0.012003 0.000000 -0.001977 0.000000
# 4 0.000000 0.000000 0.000000 0.020535 0.000000 0.053709
# 5 0.003084 0.002974 -0.001977 0.000000 0.034661 0.000000
# 6 0.000000 0.000000 0.000000 0.053709 0.000000 -0.000671
#
#
# Mechanical properties :
#
#
# Convention : Reuss Voigt Hill
#
# Bulk Modulus (GPa) = 38.20890 46.46870 42.33880
# Shear Modulus (GPa) = 48.47845 23.49032 35.98438
#
# Velocity S-wave (km/s) = 4.63512 3.22649 3.99341
# Velocity P-wave (km/s) = 6.75121 5.87146 6.32665
#
# Compressibility (1/GPa) = 0.02617191
#
# Stress axis : x y z
#
# Youngs Moduli (GPa) = 132.41547 74.20186 83.31489
#
# Poissons Ratio (x) = 0.02140 0.27825
# Poissons Ratio (y) = 0.03819 -0.01653
# Poissons Ratio (z) = 0.44224 -0.01472
#
# Static dielectric constant tensor:
#      x y z
#    x 1.845670 0.000000 -0.022140 
#    y 0.000000 1.856550 0.000000 
#    z -0.022140 0.000000 1.848000 
# 
# From -- ./inp_files/187579.got.cif
#   From: 2010.05.17/outbox.cif.g08.bks.cpg/sg12_94_cif.got.tgz:187579.got - 2010.06.03 13:09:07.
