data_PCOD9173565
_publ_section_title
;
Structure prediction by ZEFSAII (Michael W. Deem and Ramdas Pophale) SiO2 
 PCOD9173565
Probable space group: C 2/M
;
_chemical_formula_sum "Si O2"
_cell_formula_units_Z 52
_cell_length_a 29.449018
_cell_length_b 19.531629
_cell_length_c 7.504548
_cell_angle_alpha 90.000000
_cell_angle_beta 30.265750
_cell_angle_gamma 90.000000
_cell_volume 2175.575694
_symmetry_space_group_name_H-M "C 2/M"
_symmetry_group_IT_number 12
_symmetry_cell_setting 'monoclinic'
loop_
_space_group_symop_operation_xyz
x,y,z
-x,y,-z
-x,-y,-z
x,-y,z
1/2+x,1/2+y,z
1/2-x,1/2+y,-z
1/2-x,1/2-y,-z
1/2+x,1/2-y,z
loop_
_atom_site_type_symbol
_atom_site_label
_atom_site_fract_x
_atom_site_fract_y
_atom_site_fract_z
Si Si1 0.311495 0.362211 0.805217
Si Si2 0.541202 0.280612 0.553259
Si Si3 0.609026 0.500000 0.636308
Si Si4 0.693772 0.852186 0.695366
Si Si5 0.115656 0.361259 0.365589
Si Si6 0.566431 0.000000 0.441639
Si Si7 0.859156 0.219040 0.303846
Si Si8 0.236323 0.500000 0.611497
O O1 0.373541 0.330696 0.748092
O O2 0.354334 0.432023 0.586751
O O3 0.321858 0.303139 0.619956
O O4 0.205029 0.370571 0.180597
O O5 0.500000 0.266232 0.500000
O O6 0.567105 0.209876 0.560191
O O7 0.458459 0.311354 0.944092
O O8 0.663131 0.500000 0.643898
O O9 0.500000 0.500000 0.000000
O O10 0.790381 0.817797 0.403379
O O11 0.642806 0.799170 0.740283
O O12 0.712263 0.931137 0.586647
O O13 0.645065 0.854852 0.055067
O O14 0.056304 0.429270 0.579839
O O15 0.500000 0.000000 0.500000
O O16 0.668512 0.000000 0.013661
#
# Coordination Sequence:
#
# PCOD9173565 Si02
#       8
#     8   8   4   8   8   4   8   4
#     4  11  23  40  60  83 115 159 193 243 294 344
#     4  12  23  35  56  88 118 148 196 244 290 346
#     4  12  20  36  59  83 112 151 209 243 279 338
#     4   9  18  33  57  83 115 148 187 238 285 336
#     4  10  19  37  55  86 118 152 189 239 294 352
#     4  10  18  30  58  86 117 150 193 243 289 336
#     4  10  19  35  56  84 115 145 193 236 282 343
#     4  10  18  34  56  87 117 146 199 241 288 336
#
# _framework density 23.901719
#
# number of rings (size 3 to 8) (size 9 to 14) (size 15 to 20)
#    0.000    1.538    6.154    2.308    2.154    0.000 
#    0.000    0.385    0.000    0.923    0.000    2.154 
#    0.000    0.000    0.000    0.000    0.000    0.000 
#
# Total GULP energy -145338.622844 kJ/mol
# GULP energy per Si atom -5589.947032 kJ/mol
# Density = 2.384732 g / cm^3
# Si number density = 23.901719 Si / 1000 Ang^3
#
#
#
# Elastic Constant Matrix: (Units=GPa)
#
#
# Indices 1 2 3 4 5 6 
#
# 1 64.6798 26.0530 22.0984 0.0000 -23.2130 0.0000
# 2 26.0530 151.4229 -7.2806 0.0000 -13.3716 0.0000
# 3 22.0984 -7.2806 44.8454 0.0000 -19.8593 0.0000
# 4 0.0000 0.0000 0.0000 18.1434 0.0000 -2.4956
# 5 -23.2130 -13.3716 -19.8593 0.0000 40.1280 0.0000
# 6 0.0000 0.0000 0.0000 -2.4956 0.0000 25.9742
#
#
#
# Elastic Compliance Matrix: (Units=1/GPa)
#
#
# Indices 1 2 3 4 5 6 
#
# 1 0.022498 -0.003583 -0.008239 0.000000 0.007743 0.000000
# 2 -0.003583 0.007640 0.004118 0.000000 0.002511 0.000000
# 3 -0.008239 0.004118 0.032688 0.000000 0.012784 0.000000
# 4 0.000000 0.000000 0.000000 0.055855 0.000000 0.005366
# 5 0.007743 0.002511 0.012784 0.000000 0.036563 0.000000
# 6 0.000000 0.000000 0.000000 0.005366 0.000000 0.039015
#
#
# Mechanical properties :
#
#
# Convention : Reuss Voigt Hill
#
# Bulk Modulus (GPa) = 21.08898 38.07665 29.58282
# Shear Modulus (GPa) = 22.17551 31.52096 26.84824
#
# Velocity S-wave (km/s) = 3.04925 3.63543 3.35517
# Velocity P-wave (km/s) = 4.60864 5.79542 5.23577
#
# Compressibility (1/GPa) = 0.04741812
#
# Stress axis : x y z
#
# Youngs Moduli (GPa) = 44.44847 130.88491 30.59182
#
# Poissons Ratio (x) = 0.46900 0.25205
# Poissons Ratio (y) = 0.15927 -0.12598
# Poissons Ratio (z) = 0.36622 -0.53901
#
# Static dielectric constant tensor:
#      x y z
#    x 1.952710 0.000000 0.020190 
#    y 0.000000 1.914120 0.000000 
#    z 0.020190 0.000000 1.982150 
# 
# From -- ./inp_files/113290.got.cif
#   From: 2010.05.17/outbox.cif.g08.bks.cpg/sg12_57_cif.got.tgz:113290.got - 2010.06.03 13:09:07.
