data_PCOD9173608
_publ_section_title
;
Structure prediction by ZEFSAII (Michael W. Deem and Ramdas Pophale) SiO2 
 PCOD9173608
Probable space group: C 2/M
;
_chemical_formula_sum "Si O2"
_cell_formula_units_Z 48
_cell_length_a 23.644947
_cell_length_b 8.638388
_cell_length_c 26.755866
_cell_angle_alpha 90.000000
_cell_angle_beta 29.622374
_cell_angle_gamma 90.000000
_cell_volume 2701.247032
_symmetry_space_group_name_H-M "C 2/M"
_symmetry_group_IT_number 12
_symmetry_cell_setting 'monoclinic'
loop_
_space_group_symop_operation_xyz
x,y,z
-x,y,-z
-x,-y,-z
x,-y,z
1/2+x,1/2+y,z
1/2-x,1/2+y,-z
1/2-x,1/2-y,-z
1/2+x,1/2-y,z
loop_
_atom_site_type_symbol
_atom_site_label
_atom_site_fract_x
_atom_site_fract_y
_atom_site_fract_z
Si Si1 0.323696 0.314225 0.488981
Si Si2 0.058663 0.811163 0.878161
Si Si3 0.675771 0.313960 0.891474
Si Si4 0.123874 0.171148 0.380523
Si Si5 0.084661 0.180783 0.293055
Si Si6 0.711416 0.321405 0.674896
O O1 0.327542 0.500000 0.485179
O O2 0.250000 0.250000 0.500000
O O3 0.456137 0.258182 0.382436
O O4 0.262738 0.264140 0.587493
O O5 0.139988 0.760869 0.862403
O O6 0.101430 0.760531 0.790541
O O7 0.063046 0.000000 0.874333
O O8 0.930360 0.765613 0.991980
O O9 0.676801 0.500000 0.888784
O O10 0.799246 0.259000 0.815522
O O11 0.103179 0.192542 0.338299
O O12 0.194300 0.302862 0.353934
O O13 0.000000 0.167053 0.500000
O O14 0.177817 0.000000 0.347666
O O15 0.086122 0.000000 0.277652
O O16 0.693346 0.500000 0.674984
#
# Coordination Sequence:
#
# PCOD9173608 Si02
#       6
#     8   8   8   8   8   8
#     4  11  24  42  57  75 102 136 175 222 271 315
#     4   8  16  29  47  75 111 144 172 208 251 296
#     4   9  16  30  50  74 108 145 177 207 245 303
#     4  10  18  31  47  71 108 145 169 203 263 316
#     4  10  20  33  51  75 108 139 168 212 266 310
#     4  11  20  32  53  80 107 139 176 214 255 310
#
# _framework density 17.769570999999999
#
# number of rings (size 3 to 8) (size 9 to 14) (size 15 to 20)
#    0.000    2.167    3.333    2.000    0.000    1.667 
#    0.000    3.333    0.000    1.000    0.000    0.000 
#    0.000    0.000    0.000    0.000    0.000    0.000 
#
# Total GULP energy -133625.317223 kJ/mol
# GULP energy per Si atom -5567.721551 kJ/mol
# Density = 1.772913 g / cm^3
# Si number density = 17.769571 Si / 1000 Ang^3
#
#
#
# Elastic Constant Matrix: (Units=GPa)
#
#
# Indices 1 2 3 4 5 6 
#
# 1 55.1957 19.0806 55.9056 0.0004 -13.3713 -0.0001
# 2 19.0806 21.8713 26.1602 0.0014 -5.7450 -0.0003
# 3 55.9056 26.1602 151.8211 0.0007 -22.2125 -0.0002
# 4 0.0004 0.0014 0.0007 20.5109 -0.0003 -4.4824
# 5 -13.3713 -5.7450 -22.2125 -0.0003 13.7141 0.0001
# 6 -0.0001 -0.0003 -0.0002 -4.4824 0.0001 21.2907
#
#
#
# Elastic Compliance Matrix: (Units=1/GPa)
#
#
# Indices 1 2 3 4 5 6 
#
# 1 0.035984 -0.017971 -0.008024 0.000001 0.014560 0.000000
# 2 -0.017971 0.067756 -0.004546 -0.000004 0.003500 0.000000
# 3 -0.008024 -0.004546 0.011666 0.000000 0.009168 0.000000
# 4 0.000001 -0.000004 0.000000 0.051106 0.000001 0.010759
# 5 0.014560 0.003500 0.009168 0.000001 0.103429 0.000000
# 6 0.000000 0.000000 0.000000 0.010759 0.000000 0.049234
#
#
# Mechanical properties :
#
#
# Convention : Reuss Voigt Hill
#
# Bulk Modulus (GPa) = 18.40744 47.90899 33.15821
# Shear Modulus (GPa) = 12.55138 19.61925 16.08531
#
# Velocity S-wave (km/s) = 2.66059 3.32639 3.01195
# Velocity P-wave (km/s) = 4.45194 6.46320 5.54945
#
# Compressibility (1/GPa) = 0.05432586
#
# Stress axis : x y z
#
# Youngs Moduli (GPa) = 27.79043 14.75889 85.72062
#
# Poissons Ratio (x) = 0.26523 0.68779
# Poissons Ratio (y) = 0.49941 0.38965
# Poissons Ratio (z) = 0.22298 0.06709
#
# Static dielectric constant tensor:
#      x y z
#    x 1.580980 0.000000 -0.003080 
#    y 0.000000 1.652960 0.000000 
#    z -0.003080 0.000000 1.681400 
# 
# From -- ./inp_files/365534.got.cif
#   From: 2010.05.17/outbox.cif.g08.bks.cpg/sg12_183_cif.got.tgz:365534.got - 2010.06.03 13:09:07.
