data_PCOD9173166
_publ_section_title
;
Structure prediction by ZEFSAII (Michael W. Deem and Ramdas Pophale) SiO2 
 PCOD9173166
Probable space group: C 2/M
;
_chemical_formula_sum "Si O2"
_cell_formula_units_Z 56
_cell_length_a 16.046277
_cell_length_b 27.493114
_cell_length_c 8.726556
_cell_angle_alpha 90.000000
_cell_angle_beta 130.970957
_cell_angle_gamma 90.000000
_cell_volume 2906.780442
_symmetry_space_group_name_H-M "C 2/M"
_symmetry_group_IT_number 12
_symmetry_cell_setting 'monoclinic'
loop_
_space_group_symop_operation_xyz
x,y,z
-x,y,-z
-x,-y,-z
x,-y,z
1/2+x,1/2+y,z
1/2-x,1/2+y,-z
1/2-x,1/2-y,-z
1/2+x,1/2-y,z
loop_
_atom_site_type_symbol
_atom_site_label
_atom_site_fract_x
_atom_site_fract_y
_atom_site_fract_z
Si Si1 0.393875 0.055364 0.588089
Si Si2 0.655084 0.946294 0.818913
Si Si3 0.389827 0.309839 0.433350
Si Si4 0.071300 0.341282 0.287575
Si Si5 0.188301 0.647856 0.025873
Si Si6 0.890320 0.232741 0.772238
Si Si7 0.672213 0.794802 0.696847
O O1 0.334883 0.061652 0.351818
O O2 0.524337 0.055450 0.702591
O O3 0.377603 0.104293 0.669663
O O4 0.369528 0.000000 0.617025
O O5 0.708759 0.905799 0.987269
O O6 0.695757 0.000000 0.902536
O O7 0.500000 0.334249 0.500000
O O8 0.396072 0.295606 0.618717
O O9 0.381206 0.257546 0.338420
O O10 0.278821 0.338135 0.258532
O O11 0.113829 0.290904 0.264843
O O12 0.094061 0.328342 0.495346
O O13 0.941462 0.346161 0.090356
O O14 0.200570 0.681594 0.891484
O O15 0.783191 0.216095 0.735406
O O16 0.000000 0.223234 0.000000
#
# Coordination Sequence:
#
# PCOD9173166 Si02
#       7
#     8   8   8   8   8   8   8
#     4   8  13  24  44  73 108 135 162 202 246 301
#     4   8  14  25  45  76 108 132 160 204 256 303
#     4  11  22  35  50  72 100 134 180 220 255 299
#     4  10  18  30  50  77 107 141 172 204 253 307
#     4  11  19  31  54  79 105 137 172 214 256 304
#     4  11  23  38  51  69 102 144 180 216 258 305
#     4  11  20  33  50  75 106 139 174 210 254 306
#
# _framework density 19.2653
#
# number of rings (size 3 to 8) (size 9 to 14) (size 15 to 20)
#    0.000    2.000    1.429    6.857    0.000    0.000 
#    0.000    0.000    0.000    0.857    0.000    7.000 
#    0.000    4.000    0.000    0.000    0.000    2.571 
#
# Total GULP energy -156290.353392 kJ/mol
# GULP energy per Si atom -5581.798335 kJ/mol
# Density = 1.922145 g / cm^3
# Si number density = 19.265300 Si / 1000 Ang^3
#
#
#
# Elastic Constant Matrix: (Units=GPa)
#
#
# Indices 1 2 3 4 5 6 
#
# 1 80.8292 21.2313 30.9006 0.0000 3.3165 0.0000
# 2 21.2313 111.5141 56.8543 0.0000 -1.7633 0.0000
# 3 30.9006 56.8543 129.2332 0.0000 8.2175 0.0000
# 4 0.0000 0.0000 0.0000 17.5225 0.0000 -3.1518
# 5 3.3165 -1.7633 8.2175 0.0000 23.3049 0.0000
# 6 0.0000 0.0000 0.0000 -3.1518 0.0000 13.0262
#
#
#
# Elastic Compliance Matrix: (Units=1/GPa)
#
#
# Indices 1 2 3 4 5 6 
#
# 1 0.013771 -0.001285 -0.002656 0.000000 -0.001120 0.000000
# 2 -0.001285 0.011853 -0.005090 0.000000 0.002874 0.000000
# 3 -0.002656 -0.005090 0.010856 0.000000 -0.003835 0.000000
# 4 0.000000 0.000000 0.000000 0.059666 0.000000 0.014437
# 5 -0.001120 0.002874 -0.003835 0.000000 0.044639 0.000000
# 6 0.000000 0.000000 0.000000 0.014437 0.000000 0.080262
#
#
# Mechanical properties :
#
#
# Convention : Reuss Voigt Hill
#
# Bulk Modulus (GPa) = 54.29749 59.94988 57.12369
# Shear Modulus (GPa) = 20.38755 24.94339 22.66547
#
# Velocity S-wave (km/s) = 3.25661 3.60214 3.43372
# Velocity P-wave (km/s) = 6.51045 6.96320 6.74063
#
# Compressibility (1/GPa) = 0.01841706
#
# Stress axis : x y z
#
# Youngs Moduli (GPa) = 72.61777 84.36924 92.11452
#
# Poissons Ratio (x) = 0.10845 0.24465
# Poissons Ratio (y) = 0.09335 0.46885
# Poissons Ratio (z) = 0.19287 0.42942
#
# Static dielectric constant tensor:
#      x y z
#    x 1.732000 0.000000 -0.026990 
#    y 0.000000 1.698960 0.000000 
#    z -0.026990 0.000000 1.699450 
# 
# From -- ./inp_files/79713.got.cif
#   From: 2010.05.17/outbox.cif.g08.bks.cpg/sg12_40_cif.got.tgz:79713.got - 2010.06.03 13:09:07.
