data_PCOD9173070
_publ_section_title
;
Structure prediction by ZEFSAII (Michael W. Deem and Ramdas Pophale) SiO2 
 PCOD9173070
Probable space group: C 2/M
;
_chemical_formula_sum "Si O2"
_cell_formula_units_Z 48
_cell_length_a 20.130037
_cell_length_b 7.951777
_cell_length_c 28.387303
_cell_angle_alpha 90.000000
_cell_angle_beta 33.942206
_cell_angle_gamma 90.000000
_cell_volume 2537.139670
_symmetry_space_group_name_H-M "C 2/M"
_symmetry_group_IT_number 12
_symmetry_cell_setting 'monoclinic'
loop_
_space_group_symop_operation_xyz
x,y,z
-x,y,-z
-x,-y,-z
x,-y,z
1/2+x,1/2+y,z
1/2-x,1/2+y,-z
1/2-x,1/2-y,-z
1/2+x,1/2-y,z
loop_
_atom_site_type_symbol
_atom_site_label
_atom_site_fract_x
_atom_site_fract_y
_atom_site_fract_z
Si Si1 0.058415 0.705978 0.241410
Si Si2 0.798750 0.294950 0.367306
Si Si3 0.835447 0.698625 0.724288
Si Si4 0.964020 0.796521 0.468282
Si Si5 0.871832 0.701527 0.220012
Si Si6 0.372243 0.797707 0.903592
O O1 0.058917 0.500000 0.241454
O O2 0.128108 0.768660 0.246100
O O3 0.114599 0.759153 0.158458
O O4 0.919239 0.757328 0.322812
O O5 0.797365 0.500000 0.368327
O O6 0.671277 0.238983 0.461535
O O7 0.813384 0.241505 0.303994
O O8 0.827562 0.500000 0.734057
O O9 0.711899 0.755649 0.774134
O O10 0.940533 0.738167 0.625711
O O11 0.000000 0.743258 0.500000
O O12 0.966056 0.000000 0.466807
O O13 0.875373 0.500000 0.220799
O O14 0.008200 0.762613 0.139915
O O15 0.377137 0.000000 0.899787
O O16 0.250000 0.750000 0.000000
#
# Coordination Sequence:
#
# PCOD9173070 Si02
#       6
#     8   8   8   8   8   8
#     4   8  17  33  50  71 101 135 163 195 251 306
#     4   8  14  29  51  68  89 131 179 206 228 285
#     4  11  21  31  47  74 106 133 161 206 254 291
#     4  10  18  30  50  72  95 132 179 211 238 287
#     4   9  17  33  54  73  95 132 172 200 238 295
#     4   9  18  35  60  80  97 125 164 205 244 296
#
# _framework density 18.918942000000001
#
# number of rings (size 3 to 8) (size 9 to 14) (size 15 to 20)
#    0.000    2.833    1.667    2.500    0.000    1.667 
#    0.000    2.500    0.000    8.000    0.000    0.000 
#    0.000    0.000    0.000    0.000    0.000    0.000 
#
# Total GULP energy -133792.013223 kJ/mol
# GULP energy per Si atom -5574.667218 kJ/mol
# Density = 1.887588 g / cm^3
# Si number density = 18.918942 Si / 1000 Ang^3
#
#
#
# Elastic Constant Matrix: (Units=GPa)
#
#
# Indices 1 2 3 4 5 6 
#
# 1 188.2142 10.1167 84.5078 0.0001 -15.0039 -0.0001
# 2 10.1167 12.0562 4.8992 0.0002 -2.5556 -0.0002
# 3 84.5078 4.8992 124.3791 0.0000 -26.0309 0.0000
# 4 0.0001 0.0002 0.0000 23.8443 0.0000 -2.9371
# 5 -15.0039 -2.5556 -26.0309 0.0000 21.9892 0.0000
# 6 -0.0001 -0.0002 0.0000 -2.9371 0.0000 18.3791
#
#
#
# Elastic Compliance Matrix: (Units=1/GPa)
#
#
# Indices 1 2 3 4 5 6 
#
# 1 0.007928 -0.004759 -0.005560 0.000000 -0.001726 0.000000
# 2 -0.004759 0.088169 0.001629 -0.000001 0.008928 0.000001
# 3 -0.005560 0.001629 0.014622 0.000000 0.013705 0.000000
# 4 0.000000 -0.000001 0.000000 0.042781 0.000000 0.006837
# 5 -0.001726 0.008928 0.013705 0.000000 0.061561 0.000000
# 6 0.000000 0.000001 0.000000 0.006837 0.000000 0.055502
#
#
# Mechanical properties :
#
#
# Convention : Reuss Voigt Hill
#
# Bulk Modulus (GPa) = 10.71370 58.18852 34.45111
# Shear Modulus (GPa) = 15.67127 27.85090 21.76108
#
# Velocity S-wave (km/s) = 2.88121 3.84098 3.39518
# Velocity P-wave (km/s) = 4.09191 7.10594 5.79819
#
# Compressibility (1/GPa) = 0.09333842
#
# Stress axis : x y z
#
# Youngs Moduli (GPa) = 126.13785 11.34187 68.39091
#
# Poissons Ratio (x) = 0.05397 0.38027
# Poissons Ratio (y) = 0.60027 -0.11141
# Poissons Ratio (z) = 0.70135 -0.01848
#
# Static dielectric constant tensor:
#      x y z
#    x 1.690780 0.000000 -0.020030 
#    y 0.000000 1.691250 0.000000 
#    z -0.020030 0.000000 1.635200 
# 
# From -- ./inp_files/249369.got.cif
#   From: 2010.05.17/outbox.cif.g08.bks.cpg/sg12_125_cif.got.tgz:249369.got - 2010.06.03 13:09:07.
