data_PCOD9173816
_publ_section_title
;
Structure prediction by ZEFSAII (Michael W. Deem and Ramdas Pophale) SiO2 
 PCOD9173816
Probable space group: C 2/M
;
_chemical_formula_sum "Si O2"
_cell_formula_units_Z 56
_cell_length_a 21.077809
_cell_length_b 8.737208
_cell_length_c 20.145700
_cell_angle_alpha 90.000000
_cell_angle_beta 120.968121
_cell_angle_gamma 90.000000
_cell_volume 3181.201633
_symmetry_space_group_name_H-M "C 2/M"
_symmetry_group_IT_number 12
_symmetry_cell_setting 'monoclinic'
loop_
_space_group_symop_operation_xyz
x,y,z
-x,y,-z
-x,-y,-z
x,-y,z
1/2+x,1/2+y,z
1/2-x,1/2+y,-z
1/2-x,1/2-y,-z
1/2+x,1/2-y,z
loop_
_atom_site_type_symbol
_atom_site_label
_atom_site_fract_x
_atom_site_fract_y
_atom_site_fract_z
Si Si1 0.045886 0.683428 0.823712
Si Si2 0.425039 0.823721 0.504042
Si Si3 0.155640 0.184409 0.659017
Si Si4 0.290120 0.186385 0.820736
Si Si5 0.459769 0.813203 0.910423
Si Si6 0.509842 0.317812 0.666635
Si Si7 0.789614 0.816216 0.085796
O O1 0.051858 0.500000 0.827511
O O2 0.005284 0.736852 0.734980
O O3 0.127192 0.755643 0.865832
O O4 0.004164 0.732204 0.868444
O O5 0.500000 0.817882 0.500000
O O6 0.363253 0.753766 0.422648
O O7 0.445666 0.732162 0.581356
O O8 0.409460 0.000000 0.511295
O O9 0.233032 0.235169 0.732694
O O10 0.088296 0.224786 0.673338
O O11 0.155038 0.000000 0.653493
O O12 0.374606 0.238433 0.860903
O O13 0.254996 0.230866 0.872308
O O14 0.290897 0.000000 0.819544
O O15 0.459131 0.000000 0.911428
O O16 0.500000 0.763333 0.000000
O O17 0.510102 0.500000 0.675375
O O18 0.790112 0.000000 0.083614
O O19 0.750000 0.750000 0.000000
#
# Coordination Sequence:
#
# PCOD9173816 Si02
#       7
#     8   8   8   8   8   8   8
#     4  11  21  33  53  80 107 137 173 219 267 312
#     4   9  17  28  45  74 108 138 166 210 262 313
#     4   9  16  29  49  74 101 136 175 213 258 310
#     4   9  17  32  53  75 102 136 179 219 256 310
#     4   9  18  33  53  76 102 137 181 221 258 309
#     4  10  18  31  50  75 106 141 175 212 257 313
#     4  11  21  35  54  78 104 135 172 219 269 315
#
# _framework density 17.603411999999999
#
# number of rings (size 3 to 8) (size 9 to 14) (size 15 to 20)
#    0.000    2.286    1.429    2.571    0.000    4.571 
#    0.000    0.000    0.000   12.000    0.000    0.000 
#    0.000    0.000    0.000    0.000    0.000    0.000 
#
# Total GULP energy -156201.646248 kJ/mol
# GULP energy per Si atom -5578.630223 kJ/mol
# Density = 1.756335 g / cm^3
# Si number density = 17.603412 Si / 1000 Ang^3
#
#
#
# Elastic Constant Matrix: (Units=GPa)
#
#
# Indices 1 2 3 4 5 6 
#
# 1 80.1740 15.3504 37.7235 0.0000 -4.3908 0.0000
# 2 15.3504 29.4989 21.0318 0.0000 -5.0742 0.0000
# 3 37.7235 21.0318 132.4723 0.0000 0.9067 0.0000
# 4 0.0000 0.0000 0.0000 32.3082 0.0000 -1.9801
# 5 -4.3908 -5.0742 0.9067 0.0000 24.6496 0.0000
# 6 0.0000 0.0000 0.0000 -1.9801 0.0000 12.0501
#
#
#
# Elastic Compliance Matrix: (Units=1/GPa)
#
#
# Indices 1 2 3 4 5 6 
#
# 1 0.015208 -0.005085 -0.003536 0.000000 0.001792 0.000000
# 2 -0.005085 0.041612 -0.005212 0.000000 0.007852 0.000000
# 3 -0.003536 -0.005212 0.009397 0.000000 -0.002048 0.000000
# 4 0.000000 0.000000 0.000000 0.031267 0.000000 0.005138
# 5 0.001792 0.007852 -0.002048 0.000000 0.042580 0.000000
# 6 0.000000 0.000000 0.000000 0.005138 0.000000 0.083831
#
#
# Mechanical properties :
#
#
# Convention : Reuss Voigt Hill
#
# Bulk Modulus (GPa) = 25.93889 43.37296 34.65593
# Shear Modulus (GPa) = 18.90992 25.00422 21.95707
#
# Velocity S-wave (km/s) = 3.28108 3.77293 3.53557
# Velocity P-wave (km/s) = 5.39640 6.60852 6.03298
#
# Compressibility (1/GPa) = 0.03855214
#
# Stress axis : x y z
#
# Youngs Moduli (GPa) = 65.75389 24.03130 106.41519
#
# Poissons Ratio (x) = 0.12219 0.37626
# Poissons Ratio (y) = 0.33434 0.55467
# Poissons Ratio (z) = 0.23249 0.12526
#
# Static dielectric constant tensor:
#      x y z
#    x 1.584700 0.000000 0.010720 
#    y 0.000000 1.593820 0.000000 
#    z 0.010720 0.000000 1.608070 
# 
# From -- ./inp_files/280927.got.cif
#   From: 2010.05.17/outbox.cif.g08.bks.cpg/sg12_141_cif.got.tgz:280927.got - 2010.06.03 13:09:07.
