data_PCOD9173881
_publ_section_title
;
Structure prediction by ZEFSAII (Michael W. Deem and Ramdas Pophale) SiO2 
 PCOD9173881
Probable space group: C 2/M
;
_chemical_formula_sum "Si O2"
_cell_formula_units_Z 64
_cell_length_a 22.587492
_cell_length_b 14.117757
_cell_length_c 12.308608
_cell_angle_alpha 90.000000
_cell_angle_beta 109.391197
_cell_angle_gamma 90.000000
_cell_volume 3702.374717
_symmetry_space_group_name_H-M "C 2/M"
_symmetry_group_IT_number 12
_symmetry_cell_setting 'monoclinic'
loop_
_space_group_symop_operation_xyz
x,y,z
-x,y,-z
-x,-y,-z
x,-y,z
1/2+x,1/2+y,z
1/2-x,1/2+y,-z
1/2-x,1/2-y,-z
1/2+x,1/2-y,z
loop_
_atom_site_type_symbol
_atom_site_label
_atom_site_fract_x
_atom_site_fract_y
_atom_site_fract_z
Si Si1 0.065315 0.694888 0.489601
Si Si2 0.237406 0.885316 0.447900
Si Si3 0.640158 0.885374 0.342389
Si Si4 0.680990 0.780136 0.918620
Si Si5 0.680525 0.394335 0.783372
Si Si6 0.180782 0.613136 0.697136
Si Si7 0.382701 0.609331 0.492213
Si Si8 0.332036 0.888517 0.880300
O O1 0.084888 0.651196 0.385760
O O2 0.121098 0.662426 0.604478
O O3 0.066153 0.808623 0.478414
O O4 0.000000 0.662100 0.500000
O O5 0.293375 0.854659 0.562975
O O6 0.259456 0.857616 0.340768
O O7 0.169492 0.859456 0.451043
O O8 0.237353 0.000000 0.451463
O O9 0.638473 0.856800 0.215795
O O10 0.640184 0.000000 0.345042
O O11 0.653518 0.686243 0.845433
O O12 0.687000 0.854687 0.824278
O O13 0.750000 0.750000 0.000000
O O14 0.649175 0.826988 0.003886
O O15 0.668907 0.500000 0.819055
O O16 0.652015 0.388529 0.645730
O O17 0.756020 0.382395 0.820690
O O18 0.173676 0.500000 0.684550
O O19 0.402347 0.500000 0.523442
O O20 0.346013 0.000000 0.906460
#
# Coordination Sequence:
#
# PCOD9173881 Si02
#       8
#     8   8   8   8   8   8   8   8
#     4  11  23  35  51  75 102 137 181 215 254 301
#     4   8  15  28  49  75 101 128 160 200 258 317
#     4   9  17  31  51  75 102 132 165 205 255 311
#     4  10  19  29  46  74 106 139 168 198 254 313
#     4   9  16  28  45  69 101 134 165 198 242 303
#     4  10  20  34  51  77 109 136 165 211 262 308
#     4  10  18  31  51  73 101 132 166 210 257 305
#     4   9  16  28  48  73 103 132 164 199 242 309
#
# _framework density 17.286201999999999
#
# number of rings (size 3 to 8) (size 9 to 14) (size 15 to 20)
#    0.000    2.500    2.500    1.500    0.000    5.750 
#    0.000    0.000    0.000    1.500    0.000    2.625 
#    0.000    2.000    0.000    0.000    0.000    0.000 
#
# Total GULP energy -178350.508064 kJ/mol
# GULP energy per Si atom -5573.453377 kJ/mol
# Density = 1.724686 g / cm^3
# Si number density = 17.286202 Si / 1000 Ang^3
#
#
#
# Elastic Constant Matrix: (Units=GPa)
#
#
# Indices 1 2 3 4 5 6 
#
# 1 63.1776 10.1467 29.1810 0.0000 -25.9806 0.0000
# 2 10.1467 64.0097 20.1633 0.0000 -13.9409 0.0000
# 3 29.1810 20.1633 78.8344 0.0000 -36.5194 0.0000
# 4 0.0000 0.0000 0.0000 23.3806 0.0000 -8.3842
# 5 -25.9806 -13.9409 -36.5194 0.0000 23.0688 0.0000
# 6 0.0000 0.0000 0.0000 -8.3842 0.0000 15.1480
#
#
#
# Elastic Compliance Matrix: (Units=1/GPa)
#
#
# Indices 1 2 3 4 5 6 
#
# 1 0.037977 0.004549 0.021998 0.000000 0.080344 0.000000
# 2 0.004549 0.018591 0.004271 0.000000 0.023120 0.000000
# 3 0.021998 0.004271 0.060460 0.000000 0.123068 0.000000
# 4 0.000000 0.000000 0.000000 0.053362 0.000000 0.029535
# 5 0.080344 0.023120 0.123068 0.000000 0.342631 0.000000
# 6 0.000000 0.000000 0.000000 0.029535 0.000000 0.082363
#
#
# Mechanical properties :
#
#
# Convention : Reuss Voigt Hill
#
# Bulk Modulus (GPa) = 5.59708 36.11151 20.85429
# Shear Modulus (GPa) = 8.42739 22.08818 15.25779
#
# Velocity S-wave (km/s) = 2.21038 3.57850 2.97418
# Velocity P-wave (km/s) = 3.12399 6.16522 4.88719
#
# Compressibility (1/GPa) = 0.17866454
#
# Stress axis : x y z
#
# Youngs Moduli (GPa) = 26.33162 53.78816 16.53978
#
# Poissons Ratio (x) = -0.24468 -0.36384
# Poissons Ratio (y) = -0.11978 -0.07065
# Poissons Ratio (z) = -0.57923 -0.22974
#
# Static dielectric constant tensor:
#      x y z
#    x 1.573220 0.000000 -0.021120 
#    y 0.000000 1.644740 0.000000 
#    z -0.021120 0.000000 1.578120 
# 
# From -- ./inp_files/167293.got.cif
#   From: 2010.05.17/outbox.cif.g08.bks.cpg/sg12_84_cif.got.tgz:167293.got - 2010.06.03 13:09:07.
