data_PCOD9173477
_publ_section_title
;
Structure prediction by ZEFSAII (Michael W. Deem and Ramdas Pophale) SiO2 
 PCOD9173477
Probable space group: C 2/M
;
_chemical_formula_sum "Si O2"
_cell_formula_units_Z 52
_cell_length_a 11.563237
_cell_length_b 15.273926
_cell_length_c 18.782108
_cell_angle_alpha 90.000000
_cell_angle_beta 39.602095
_cell_angle_gamma 90.000000
_cell_volume 2114.569879
_symmetry_space_group_name_H-M "C 2/M"
_symmetry_group_IT_number 12
_symmetry_cell_setting 'monoclinic'
loop_
_space_group_symop_operation_xyz
x,y,z
-x,y,-z
-x,-y,-z
x,-y,z
1/2+x,1/2+y,z
1/2-x,1/2+y,-z
1/2-x,1/2-y,-z
1/2+x,1/2-y,z
loop_
_atom_site_type_symbol
_atom_site_label
_atom_site_fract_x
_atom_site_fract_y
_atom_site_fract_z
Si Si1 0.680036 0.654116 0.705408
Si Si2 0.809072 0.853443 0.960075
Si Si3 0.195595 0.346022 0.760724
Si Si4 0.904962 0.144528 0.419571
Si Si5 0.000000 0.358081 0.000000
Si Si6 0.021282 0.655802 0.617665
Si Si7 0.372037 0.093940 0.822269
O O1 0.507078 0.630087 0.835180
O O2 0.701404 0.757024 0.712601
O O3 0.632447 0.639082 0.646677
O O4 0.875285 0.614787 0.633681
O O5 0.663592 0.893477 0.972900
O O6 0.750000 0.750000 0.000000
O O7 0.793304 0.890218 0.046805
O O8 0.392793 0.390538 0.664645
O O9 0.125998 0.322615 0.874073
O O10 0.042182 0.402070 0.795042
O O11 0.927340 0.246547 0.431859
O O12 0.714936 0.110990 0.541848
O O13 0.908969 0.664060 0.744080
O O14 0.360533 0.000000 0.791864
#
# Coordination Sequence:
#
# PCOD9173477 Si02
#       7
#     8   8   8   8   4   8   8
#     4  11  19  33  61  90 122 147 205 260 308 345
#     4  11  20  34  60  89 118 155 208 249 304 358
#     4  10  20  33  59  88 121 160 200 253 305 355
#     4  10  19  36  59  90 120 149 208 264 300 341
#     4  10  18  30  53  84 119 152 188 254 302 344
#     4  10  22  35  57  88 123 161 196 252 308 361
#     4  11  24  42  58  89 129 164 201 247 312 374
#
# _framework density 24.591290000000001
#
# number of rings (size 3 to 8) (size 9 to 14) (size 15 to 20)
#    0.000    1.538    6.154    0.462    2.154    1.231 
#    0.000    9.231    0.000    3.692    0.000    0.000 
#    0.000    0.000    0.000    0.000    0.000    0.000 
#
# Total GULP energy -144882.533851 kJ/mol
# GULP energy per Si atom -5572.405148 kJ/mol
# Density = 2.453532 g / cm^3
# Si number density = 24.591290 Si / 1000 Ang^3
#
#
#
# Elastic Constant Matrix: (Units=GPa)
#
#
# Indices 1 2 3 4 5 6 
#
# 1 76.8344 -12.6118 25.4268 -0.0001 -23.6377 0.0000
# 2 -12.6118 46.3112 -6.9597 -0.0001 -1.5908 0.0000
# 3 25.4268 -6.9597 133.3908 -0.0005 -22.7926 0.0000
# 4 -0.0001 -0.0001 -0.0005 -5.6587 0.0002 6.5845
# 5 -23.6377 -1.5908 -22.7926 0.0002 50.2853 0.0000
# 6 0.0000 0.0000 0.0000 6.5845 0.0000 -5.6431
#
#
#
# Elastic Compliance Matrix: (Units=1/GPa)
#
#
# Indices 1 2 3 4 5 6 
#
# 1 0.016506 0.004486 -0.001693 0.000000 0.007133 0.000000
# 2 0.004486 0.023062 0.000903 0.000001 0.003248 0.000001
# 3 -0.001693 0.000903 0.008385 0.000001 0.003033 0.000002
# 4 0.000000 0.000001 0.000001 0.493995 0.000000 0.576408
# 5 0.007133 0.003248 0.003033 0.000000 0.024717 -0.000001
# 6 0.000000 0.000001 0.000002 0.576408 -0.000001 0.495361
#
#
# Mechanical properties :
#
#
# Convention : Reuss Voigt Hill
#
# Bulk Modulus (GPa) = 18.06888 29.80521 23.93705
# Shear Modulus (GPa) = 4.65947 24.50880 14.58413
#
# Velocity S-wave (km/s) = 1.37800 3.16039 2.43793
# Velocity P-wave (km/s) = 3.14571 5.04619 4.20473
#
# Compressibility (1/GPa) = 0.05534377
#
# Stress axis : x y z
#
# Youngs Moduli (GPa) = 60.58295 43.36160 119.26099
#
# Poissons Ratio (x) = -0.19451 0.20196
# Poissons Ratio (y) = -0.27175 -0.10771
# Poissons Ratio (z) = 0.10260 -0.03916
#
# Static dielectric constant tensor:
#      x y z
#    x 1.985770 0.000000 -0.054170 
#    y 0.000000 2.041580 0.000000 
#    z -0.054170 0.000000 2.010210 
# 
# From -- ./inp_files/306128.got.cif
#   From: 2010.05.17/outbox.cif.g08.bks.cpg/sg12_154_cif.got.tgz:306128.got - 2010.06.03 13:09:07.
