data_PCOD9173433
_publ_section_title
;
Structure prediction by ZEFSAII (Michael W. Deem and Ramdas Pophale) SiO2 
 PCOD9173433
Probable space group: C 2/M
;
_chemical_formula_sum "Si O2"
_cell_formula_units_Z 64
_cell_length_a 21.787081
_cell_length_b 20.283289
_cell_length_c 12.456202
_cell_angle_alpha 90.000000
_cell_angle_beta 38.812657
_cell_angle_gamma 90.000000
_cell_volume 3450.129509
_symmetry_space_group_name_H-M "C 2/M"
_symmetry_group_IT_number 12
_symmetry_cell_setting 'monoclinic'
loop_
_space_group_symop_operation_xyz
x,y,z
-x,y,-z
-x,-y,-z
x,-y,z
1/2+x,1/2+y,z
1/2-x,1/2+y,-z
1/2-x,1/2-y,-z
1/2+x,1/2-y,z
loop_
_atom_site_type_symbol
_atom_site_label
_atom_site_fract_x
_atom_site_fract_y
_atom_site_fract_z
Si Si1 0.376452 0.128403 0.581890
Si Si2 0.070529 0.574921 0.268225
Si Si3 0.259786 0.246867 0.855680
Si Si4 0.308744 0.576658 0.285706
Si Si5 0.104811 0.845946 0.018211
Si Si6 0.110498 0.871306 0.375608
Si Si7 0.218946 0.073984 0.040377
Si Si8 0.580427 0.423153 0.651343
O O1 0.482920 0.127505 0.380455
O O2 0.394527 0.077832 0.655153
O O3 0.334992 0.193152 0.698743
O O4 0.296998 0.102346 0.606549
O O5 0.039866 0.500000 0.282628
O O6 0.171503 0.592240 0.070664
O O7 0.309537 0.314072 0.748479
O O8 0.250000 0.250000 0.000000
O O9 0.151365 0.227107 0.959253
O O10 0.320277 0.500000 0.239298
O O11 0.334793 0.581899 0.375037
O O12 0.381912 0.621262 0.115691
O O13 0.180625 0.881373 0.996773
O O14 0.000989 0.868933 0.204696
O O15 0.140822 0.921722 0.241246
O O16 0.112892 0.904930 0.487847
O O17 0.000000 0.847390 0.500000
O O18 0.225531 0.000000 0.991148
O O19 0.543895 0.500000 0.705407
#
# Coordination Sequence:
#
# PCOD9173433 Si02
#       8
#     8   8   8   8   8   8   8   8
#     4  10  19  31  53  82 113 147 189 240 289 338
#     4  10  18  30  52  83 115 142 179 236 300 350
#     4  11  21  37  54  80 114 153 195 234 284 344
#     4  10  19  34  58  86 119 150 190 245 300 353
#     4  11  20  35  55  84 116 155 189 236 293 347
#     4  12  24  38  56  85 118 157 197 240 295 354
#     4  11  20  33  55  82 117 148 183 241 302 353
#     4  11  23  38  59  89 119 155 196 241 299 360
#
# _framework density 18.550028999999999
#
# number of rings (size 3 to 8) (size 9 to 14) (size 15 to 20)
#    0.000    1.250    5.000    3.375    1.750    1.500 
#    2.250    2.500    0.000    0.750    0.000    3.500 
#    0.000    0.000    0.000    0.000    0.000    0.000 
#
# Total GULP energy -178235.517737 kJ/mol
# GULP energy per Si atom -5569.859929 kJ/mol
# Density = 1.850781 g / cm^3
# Si number density = 18.550029 Si / 1000 Ang^3
#
#
#
# Elastic Constant Matrix: (Units=GPa)
#
#
# Indices 1 2 3 4 5 6 
#
# 1 75.0585 21.2886 26.9672 0.0000 2.5520 0.0000
# 2 21.2886 62.6188 7.8085 0.0000 -5.2992 0.0000
# 3 26.9672 7.8085 76.6947 0.0000 -7.4914 0.0000
# 4 0.0000 0.0000 0.0000 27.6382 0.0000 2.3048
# 5 2.5520 -5.2992 -7.4914 0.0000 32.3340 0.0000
# 6 0.0000 0.0000 0.0000 2.3048 0.0000 18.3770
#
#
#
# Elastic Compliance Matrix: (Units=1/GPa)
#
#
# Indices 1 2 3 4 5 6 
#
# 1 0.017052 -0.005376 -0.005797 0.000000 -0.003570 0.000000
# 2 -0.005376 0.018042 0.000393 0.000000 0.003472 0.000000
# 3 -0.005797 0.000393 0.015437 0.000000 0.004099 0.000000
# 4 0.000000 0.000000 0.000000 0.036564 0.000000 -0.004586
# 5 -0.003570 0.003472 0.004099 0.000000 0.032728 0.000000
# 6 0.000000 0.000000 0.000000 -0.004586 0.000000 0.054991
#
#
# Mechanical properties :
#
#
# Convention : Reuss Voigt Hill
#
# Bulk Modulus (GPa) = 34.51840 36.27785 35.39812
# Shear Modulus (GPa) = 24.26793 26.22368 25.24581
#
# Velocity S-wave (km/s) = 3.62089 3.76396 3.69312
# Velocity P-wave (km/s) = 6.01080 6.20396 6.10815
#
# Compressibility (1/GPa) = 0.02897006
#
# Stress axis : x y z
#
# Youngs Moduli (GPa) = 58.64406 55.42508 64.77763
#
# Poissons Ratio (x) = 0.29799 0.37552
# Poissons Ratio (y) = 0.31530 -0.02544
# Poissons Ratio (z) = 0.33997 -0.02176
#
# Static dielectric constant tensor:
#      x y z
#    x 1.633680 0.000000 -0.040820 
#    y 0.000000 1.705280 0.000000 
#    z -0.040820 0.000000 1.717230 
# 
# From -- ./inp_files/169676.got.cif
#   From: 2010.05.17/outbox.cif.g08.bks.cpg/sg12_85_cif.got.tgz:169676.got - 2010.06.03 13:09:07.
