data_PCOD9173527
_publ_section_title
;
Structure prediction by ZEFSAII (Michael W. Deem and Ramdas Pophale) SiO2 
 PCOD9173527
Probable space group: C 2/M
;
_chemical_formula_sum "Si O2"
_cell_formula_units_Z 56
_cell_length_a 21.546840
_cell_length_b 14.560137
_cell_length_c 17.932755
_cell_angle_alpha 90.000000
_cell_angle_beta 150.331152
_cell_angle_gamma 90.000000
_cell_volume 2784.769516
_symmetry_space_group_name_H-M "C 2/M"
_symmetry_group_IT_number 12
_symmetry_cell_setting 'monoclinic'
loop_
_space_group_symop_operation_xyz
x,y,z
-x,y,-z
-x,-y,-z
x,-y,z
1/2+x,1/2+y,z
1/2-x,1/2+y,-z
1/2-x,1/2-y,-z
1/2+x,1/2-y,z
loop_
_atom_site_type_symbol
_atom_site_label
_atom_site_fract_x
_atom_site_fract_y
_atom_site_fract_z
Si Si1 0.986624 0.390452 0.294122
Si Si2 0.622226 0.605447 0.530585
Si Si3 0.736586 0.606959 0.132126
Si Si4 0.733295 0.224496 0.568500
Si Si5 0.345034 0.228117 0.032208
Si Si6 0.338814 0.394535 0.251204
Si Si7 0.866556 0.107198 0.820397
O O1 0.000379 0.500000 0.295735
O O2 0.872146 0.379493 0.234302
O O3 0.113675 0.342923 0.453829
O O4 0.949446 0.334511 0.180098
O O5 0.641629 0.500000 0.527045
O O6 0.707958 0.679133 0.581603
O O7 0.646135 0.609020 0.644153
O O8 0.476368 0.629978 0.363401
O O9 0.702342 0.500000 0.087222
O O10 0.637100 0.673136 0.987322
O O11 0.733497 0.626603 0.217255
O O12 0.750000 0.250000 0.500000
O O13 0.843758 0.172287 0.726737
O O14 0.268910 0.169309 0.892208
O O15 0.250000 0.250000 0.000000
O O16 0.313100 0.500000 0.202879
O O17 0.855681 0.000000 0.787832
O O18 0.000000 0.119957 0.000000
#
# Coordination Sequence:
#
# PCOD9173527 Si02
#       7
#     8   8   8   8   8   8   8
#     4  10  22  39  59  91 127 158 202 257 317 369
#     4   9  19  36  58  86 114 151 200 249 299 359
#     4   9  19  36  62  93 122 157 207 260 305 362
#     4  12  26  41  61  87 124 166 205 254 316 372
#     4  10  18  30  54  87 127 162 192 236 306 370
#     4   9  17  33  58  86 117 150 196 249 299 358
#     4  10  23  44  68  91 121 165 213 258 306 371
#
# _framework density 20.109383000000001
#
# number of rings (size 3 to 8) (size 9 to 14) (size 15 to 20)
#    0.000    2.143    0.000    4.286    2.000    3.429 
#    0.000    2.857    0.000    0.429    0.000    0.000 
#    0.000    0.000    0.000    0.000    0.000    0.000 
#
# Total GULP energy -156270.771372 kJ/mol
# GULP energy per Si atom -5581.098978 kJ/mol
# Density = 2.006361 g / cm^3
# Si number density = 20.109383 Si / 1000 Ang^3
#
#
#
# Elastic Constant Matrix: (Units=GPa)
#
#
# Indices 1 2 3 4 5 6 
#
# 1 70.8737 42.9736 16.4553 0.0000 -6.9860 0.0000
# 2 42.9736 83.0905 35.6981 0.0000 -5.9614 0.0000
# 3 16.4553 35.6981 71.4765 0.0000 -4.4563 0.0000
# 4 0.0000 0.0000 0.0000 30.5179 0.0000 -4.4035
# 5 -6.9860 -5.9614 -4.4563 0.0000 19.8626 0.0000
# 6 0.0000 0.0000 0.0000 -4.4035 0.0000 15.5768
#
#
#
# Elastic Compliance Matrix: (Units=1/GPa)
#
#
# Indices 1 2 3 4 5 6 
#
# 1 0.020937 -0.010904 0.000894 0.000000 0.004292 0.000000
# 2 -0.010904 0.021171 -0.008018 0.000000 0.000720 0.000000
# 3 0.000894 -0.008018 0.017910 0.000000 0.001926 0.000000
# 4 0.000000 0.000000 0.000000 0.034161 0.000000 0.009657
# 5 0.004292 0.000720 0.001926 0.000000 0.052503 0.000000
# 6 0.000000 0.000000 0.000000 0.009657 0.000000 0.066928
#
#
# Mechanical properties :
#
#
# Convention : Reuss Voigt Hill
#
# Bulk Modulus (GPa) = 41.73740 46.18830 43.96285
# Shear Modulus (GPa) = 19.40574 21.87904 20.64239
#
# Velocity S-wave (km/s) = 3.10983 3.30207 3.20739
# Velocity P-wave (km/s) = 5.80474 6.12834 5.96873
#
# Compressibility (1/GPa) = 0.02395933
#
# Stress axis : x y z
#
# Youngs Moduli (GPa) = 47.76249 47.23374 55.83569
#
# Poissons Ratio (x) = 0.51505 -0.04989
# Poissons Ratio (y) = 0.52082 0.44772
# Poissons Ratio (z) = -0.04268 0.37874
#
# Static dielectric constant tensor:
#      x y z
#    x 1.726300 0.000000 0.017890 
#    y 0.000000 1.715880 0.000000 
#    z 0.017890 0.000000 1.708840 
# 
# From -- ./inp_files/284596.got.cif
#   From: 2010.05.17/outbox.cif.g08.bks.cpg/sg12_143_cif.got.tgz:284596.got - 2010.06.03 13:09:07.
