data_PCOD9173222
_publ_section_title
;
Structure prediction by ZEFSAII (Michael W. Deem and Ramdas Pophale) SiO2 
 PCOD9173222
Probable space group: C 2/M
;
_chemical_formula_sum "Si O2"
_cell_formula_units_Z 64
_cell_length_a 13.734648
_cell_length_b 13.432206
_cell_length_c 20.383969
_cell_angle_alpha 90.000000
_cell_angle_beta 108.094130
_cell_angle_gamma 90.000000
_cell_volume 3574.600212
_symmetry_space_group_name_H-M "C 2/M"
_symmetry_group_IT_number 12
_symmetry_cell_setting 'monoclinic'
loop_
_space_group_symop_operation_xyz
x,y,z
-x,y,-z
-x,-y,-z
x,-y,z
1/2+x,1/2+y,z
1/2-x,1/2+y,-z
1/2-x,1/2-y,-z
1/2+x,1/2-y,z
loop_
_atom_site_type_symbol
_atom_site_label
_atom_site_fract_x
_atom_site_fract_y
_atom_site_fract_z
Si Si1 0.212992 0.620083 0.123541
Si Si2 0.758108 0.811537 0.398543
Si Si3 0.898465 0.614295 0.024865
Si Si4 0.540251 0.114156 0.311677
Si Si5 0.965797 0.810471 0.362173
Si Si6 0.182369 0.884348 0.446531
Si Si7 0.522087 0.802893 0.165828
Si Si8 0.054545 0.114448 0.788393
O O1 0.197509 0.500000 0.122986
O O2 0.128149 0.668018 0.153019
O O3 0.327818 0.641072 0.170039
O O4 0.189281 0.650317 0.043293
O O5 0.660841 0.859802 0.342460
O O6 0.861072 0.822857 0.379051
O O7 0.771465 0.863564 0.472026
O O8 0.734163 0.695172 0.408161
O O9 0.877413 0.500000 0.039779
O O10 0.931297 0.674796 0.095433
O O11 0.000000 0.613227 0.000000
O O12 0.486080 0.195074 0.347225
O O13 0.508681 0.134748 0.229903
O O14 0.521702 0.000000 0.325805
O O15 0.961775 0.867567 0.292064
O O16 0.062875 0.853005 0.421808
O O17 0.193767 0.000000 0.431159
O O18 0.517783 0.688890 0.187213
O O19 0.037519 0.000000 0.801603
#
# Coordination Sequence:
#
# PCOD9173222 Si02
#       8
#     8   8   8   8   8   8   8   8
#     4   9  17  31  52  75  97 126 165 205 246 291
#     4  10  21  36  53  76 102 129 164 202 242 289
#     4   8  14  26  47  74  98 123 160 204 247 288
#     4  10  20  33  51  76 101 127 162 202 246 292
#     4  10  21  35  52  74 100 130 164 201 241 290
#     4  10  21  36  54  76 101 130 164 201 243 290
#     4  10  18  30  51  73  99 129 162 204 246 286
#     4  10  21  34  49  72 100 131 166 200 240 290
#
# _framework density 17.9041
#
# number of rings (size 3 to 8) (size 9 to 14) (size 15 to 20)
#    0.000    2.375    0.000    3.750    0.000    4.500 
#    0.000    0.000    0.000   16.875    0.000    0.000 
#    0.000    0.000    0.000    0.000    0.000    0.000 
#
# Total GULP energy -178518.623547 kJ/mol
# GULP energy per Si atom -5578.706986 kJ/mol
# Density = 1.786335 g / cm^3
# Si number density = 17.904100 Si / 1000 Ang^3
#
#
#
# Elastic Constant Matrix: (Units=GPa)
#
#
# Indices 1 2 3 4 5 6 
#
# 1 28.2617 -6.5920 -2.4959 0.0000 4.5346 0.0000
# 2 -6.5920 81.0594 9.6789 0.0000 -1.5159 0.0000
# 3 -2.4959 9.6789 37.8834 0.0000 2.5615 0.0000
# 4 0.0000 0.0000 0.0000 11.9846 0.0000 6.4955
# 5 4.5346 -1.5159 2.5615 0.0000 19.4133 0.0000
# 6 0.0000 0.0000 0.0000 6.4955 0.0000 14.6870
#
#
#
# Elastic Compliance Matrix: (Units=1/GPa)
#
#
# Indices 1 2 3 4 5 6 
#
# 1 0.037634 0.002605 0.002416 0.000000 -0.008906 0.000000
# 2 0.002605 0.012945 -0.003191 0.000000 0.000823 0.000000
# 3 0.002416 -0.003191 0.027673 0.000000 -0.004465 0.000000
# 4 0.000000 0.000000 0.000000 0.109747 0.000000 -0.048537
# 5 -0.008906 0.000823 -0.004465 0.000000 0.054245 0.000000
# 6 0.000000 0.000000 0.000000 -0.048537 0.000000 0.089553
#
#
# Mechanical properties :
#
#
# Convention : Reuss Voigt Hill
#
# Bulk Modulus (GPa) = 12.20825 16.48740 14.34783
# Shear Modulus (GPa) = 14.06704 18.99121 16.52913
#
# Velocity S-wave (km/s) = 2.80605 3.26040 3.04172
# Velocity P-wave (km/s) = 4.16318 4.83760 4.51300
#
# Compressibility (1/GPa) = 0.08191181
#
# Stress axis : x y z
#
# Youngs Moduli (GPa) = 26.57204 77.25002 36.13607
#
# Poissons Ratio (x) = -0.20127 -0.08730
# Poissons Ratio (y) = -0.06923 0.11532
# Poissons Ratio (z) = -0.06420 0.24653
#
# Static dielectric constant tensor:
#      x y z
#    x 1.580150 0.000000 0.021730 
#    y 0.000000 1.612330 0.000000 
#    z 0.021730 0.000000 1.624070 
# 
# From -- ./inp_files/309914.got.cif
#   From: 2010.05.17/outbox.cif.g08.bks.cpg/sg12_155_cif.got.tgz:309914.got - 2010.06.03 13:09:07.
