data_PCOD9173518
_publ_section_title
;
Structure prediction by ZEFSAII (Michael W. Deem and Ramdas Pophale) SiO2 
 PCOD9173518
Probable space group: C 2/M
;
_chemical_formula_sum "Si O2"
_cell_formula_units_Z 52
_cell_length_a 17.248465
_cell_length_b 31.908462
_cell_length_c 11.642942
_cell_angle_alpha 90.000000
_cell_angle_beta 24.082920
_cell_angle_gamma 90.000000
_cell_volume 2614.816996
_symmetry_space_group_name_H-M "C 2/M"
_symmetry_group_IT_number 12
_symmetry_cell_setting 'monoclinic'
loop_
_space_group_symop_operation_xyz
x,y,z
-x,y,-z
-x,-y,-z
x,-y,z
1/2+x,1/2+y,z
1/2-x,1/2+y,-z
1/2-x,1/2-y,-z
1/2+x,1/2-y,z
loop_
_atom_site_type_symbol
_atom_site_label
_atom_site_fract_x
_atom_site_fract_y
_atom_site_fract_z
Si Si1 0.027928 0.243264 0.325267
Si Si2 0.276330 0.000000 0.328390
Si Si3 0.333348 0.588795 0.523285
Si Si4 0.722158 0.407960 0.670863
Si Si5 0.033998 0.328327 0.696061
Si Si6 0.591884 0.346535 0.250387
Si Si7 0.774265 0.000000 0.327995
Si Si8 0.000000 0.648538 0.000000
O O1 0.992158 0.195467 0.334278
O O2 0.000000 0.244169 0.500000
O O3 0.920211 0.282079 0.413895
O O4 0.250000 0.250000 0.000000
O O5 0.179823 0.957918 0.412222
O O6 0.255495 0.000000 0.494619
O O7 0.500000 0.000000 0.000000
O O8 0.270287 0.587258 0.476842
O O9 0.533399 0.612072 0.261593
O O10 0.176059 0.618415 0.793492
O O11 0.840513 0.365440 0.529948
O O12 0.791307 0.453543 0.625918
O O13 0.500000 0.402446 0.000000
O O14 0.815137 0.338630 0.959445
O O15 0.046733 0.327779 0.818193
O O16 0.500000 0.351745 0.500000
O O17 0.000000 0.000000 0.000000
#
# Coordination Sequence:
#
# PCOD9173518 Si02
#       8
#     8   4   8   8   8   8   4   4
#     4   9  20  37  59  81 107 150 196 226 278 352
#     4  10  18  30  54  85 109 146 190 231 271 336
#     4  10  19  33  55  79 113 145 183 228 280 331
#     4   9  19  34  54  79 111 143 188 229 275 331
#     4  10  20  35  59  84 110 147 194 233 282 333
#     4  10  19  35  58  77 110 148 185 222 283 342
#     4   8  16  32  51  73 105 153 178 210 275 348
#     4  10  18  33  56  82 112 148 182 229 284 334
#
# _framework density 19.886668
#
# number of rings (size 3 to 8) (size 9 to 14) (size 15 to 20)
#    0.000    2.462    2.308    0.000    0.000    2.462 
#    0.000    4.231    3.385    0.000    0.000    7.000 
#    0.000    0.000    0.000    0.000    0.000    0.000 
#
# Total GULP energy -144738.289190 kJ/mol
# GULP energy per Si atom -5566.857277 kJ/mol
# Density = 1.984141 g / cm^3
# Si number density = 19.886668 Si / 1000 Ang^3
#
#
#
# Elastic Constant Matrix: (Units=GPa)
#
#
# Indices 1 2 3 4 5 6 
#
# 1 19.0254 36.8351 7.9810 -0.0031 -2.9214 0.0027
# 2 36.8351 183.2590 30.5363 -0.0011 -15.7324 0.0006
# 3 7.9810 30.5363 70.7708 -0.0022 8.0131 0.0023
# 4 -0.0031 -0.0011 -0.0022 13.8922 0.0005 4.5633
# 5 -2.9214 -15.7324 8.0131 0.0005 28.1432 -0.0022
# 6 0.0027 0.0006 0.0023 4.5633 -0.0022 12.9280
#
#
#
# Elastic Compliance Matrix: (Units=1/GPa)
#
#
# Indices 1 2 3 4 5 6 
#
# 1 0.086433 -0.016946 -0.002458 0.000026 0.000199 -0.000026
# 2 -0.016946 0.009710 -0.002784 -0.000006 0.004461 0.000006
# 3 -0.002458 -0.002784 0.016340 0.000004 -0.006464 -0.000005
# 4 0.000026 -0.000006 0.000004 0.081424 -0.000005 -0.028741
# 5 0.000199 0.004461 -0.006464 -0.000005 0.039887 0.000010
# 6 -0.000026 0.000006 -0.000005 -0.028741 0.000010 0.087496
#
#
# Mechanical properties :
#
#
# Convention : Reuss Voigt Hill
#
# Bulk Modulus (GPa) = 14.68273 47.08444 30.88358
# Shear Modulus (GPa) = 12.87441 24.17288 18.52365
#
# Velocity S-wave (km/s) = 2.54714 3.49023 3.05529
# Velocity P-wave (km/s) = 4.00622 6.32219 5.29244
#
# Compressibility (1/GPa) = 0.06810724
#
# Stress axis : x y z
#
# Youngs Moduli (GPa) = 11.56972 102.98836 61.19860
#
# Poissons Ratio (x) = 1.74528 0.15040
# Poissons Ratio (y) = 0.19607 0.17036
# Poissons Ratio (z) = 0.02843 0.28669
#
# Static dielectric constant tensor:
#      x y z
#    x 1.716350 0.000000 0.005620 
#    y 0.000000 1.815570 0.000000 
#    z 0.005620 0.000000 1.726890 
# 
# From -- ./inp_files/235750.got.cif
#   From: 2010.05.17/outbox.cif.g08.bks.cpg/sg12_118_cif.got.tgz:235750.got - 2010.06.03 13:09:07.
