data_PCOD9173016
_publ_section_title
;
Structure prediction by ZEFSAII (Michael W. Deem and Ramdas Pophale) SiO2 
 PCOD9173016
Probable space group: C 2/M
;
_chemical_formula_sum "Si O2"
_cell_formula_units_Z 50
_cell_length_a 18.528964
_cell_length_b 9.307349
_cell_length_c 12.308430
_cell_angle_alpha 90.000000
_cell_angle_beta 93.339627
_cell_angle_gamma 90.000000
_cell_volume 2119.052106
_symmetry_space_group_name_H-M "C 2/M"
_symmetry_group_IT_number 12
_symmetry_cell_setting 'monoclinic'
loop_
_space_group_symop_operation_xyz
x,y,z
-x,y,-z
-x,-y,-z
x,-y,z
1/2+x,1/2+y,z
1/2-x,1/2+y,-z
1/2-x,1/2-y,-z
1/2+x,1/2-y,z
loop_
_atom_site_type_symbol
_atom_site_label
_atom_site_fract_x
_atom_site_fract_y
_atom_site_fract_z
Si Si1 0.158438 0.658621 0.689888
Si Si2 0.178739 0.333834 0.456147
Si Si3 0.635497 0.664398 0.012901
Si Si4 0.740342 0.837387 0.164005
Si Si5 0.030649 0.334572 0.855307
Si Si6 0.500000 0.500000 0.500000
Si Si7 0.071453 0.841442 0.306715
O O1 0.193396 0.500000 0.702716
O O2 0.133037 0.673255 0.564487
O O3 0.216229 0.777800 0.729321
O O4 0.093073 0.662344 0.768005
O O5 0.194102 0.500000 0.434323
O O6 0.250000 0.250000 0.500000
O O7 0.134622 0.258259 0.357979
O O8 0.611833 0.500000 0.025196
O O9 0.697961 0.662291 0.924857
O O10 0.571763 0.764817 0.961617
O O11 0.676993 0.734230 0.117682
O O12 0.714566 0.000000 0.174727
O O13 0.007714 0.500000 0.871006
O O14 0.970994 0.233133 0.795233
O O15 0.520191 0.377835 0.407014
O O16 0.099055 0.000000 0.277642
#
# Coordination Sequence:
#
# PCOD9173016 Si02
#       7
#     8   8   8   8   8   2   8
#     4   9  19  32  48  70 100 134 172 212 263 316
#     4  11  23  39  55  75 101 139 183 226 268 310
#     4   9  16  26  41  66 100 135 167 202 254 315
#     4   9  16  26  42  66  96 132 168 208 252 310
#     4  10  18  30  49  75 104 136 170 213 262 319
#     4   8  20  32  54  76 104 136 168 218 266 320
#     4  10  20  34  51  75 102 135 170 215 263 319
#
# _framework density 23.595455000000001
#
# number of rings (size 3 to 8) (size 9 to 14) (size 15 to 20)
#    0.480    1.920    0.000    3.360    0.000    5.760 
#    0.000    3.200    0.000    0.000    0.000    1.120 
#    0.000    8.960    0.000    0.000    0.000    0.000 
#
# Total GULP energy -139550.786192 kJ/mol
# GULP energy per Si atom -5582.031448 kJ/mol
# Density = 2.354175 g / cm^3
# Si number density = 23.595455 Si / 1000 Ang^3
#
#
#
# Elastic Constant Matrix: (Units=GPa)
#
#
# Indices 1 2 3 4 5 6 
#
# 1 58.6245 30.8615 20.8511 0.0000 5.9898 0.0000
# 2 30.8615 209.8003 64.9175 0.0000 47.5496 0.0000
# 3 20.8511 64.9175 138.0380 0.0000 19.2683 0.0000
# 4 0.0000 0.0000 0.0000 34.7375 0.0000 11.9117
# 5 5.9898 47.5496 19.2683 0.0000 50.1992 0.0000
# 6 0.0000 0.0000 0.0000 11.9117 0.0000 25.8899
#
#
#
# Elastic Compliance Matrix: (Units=1/GPa)
#
#
# Indices 1 2 3 4 5 6 
#
# 1 0.018886 -0.002367 -0.001836 0.000000 0.000694 0.000000
# 2 -0.002367 0.007049 -0.002182 0.000000 -0.005557 0.000000
# 3 -0.001836 -0.002182 0.008695 0.000000 -0.001051 0.000000
# 4 0.000000 0.000000 0.000000 0.034180 0.000000 -0.015726
# 5 0.000694 -0.005557 -0.001051 0.000000 0.025505 0.000000
# 6 0.000000 0.000000 0.000000 -0.015726 0.000000 0.045860
#
#
# Mechanical properties :
#
#
# Convention : Reuss Voigt Hill
#
# Bulk Modulus (GPa) = 45.74722 71.08035 58.41378
# Shear Modulus (GPa) = 31.20460 41.48752 36.34606
#
# Velocity S-wave (km/s) = 3.64054 4.19774 3.92903
# Velocity P-wave (km/s) = 6.09111 7.32698 6.73744
#
# Compressibility (1/GPa) = 0.02185925
#
# Stress axis : x y z
#
# Youngs Moduli (GPa) = 52.94901 141.85842 115.01294
#
# Poissons Ratio (x) = 0.33579 0.21121
# Poissons Ratio (y) = 0.12533 0.25095
# Poissons Ratio (z) = 0.09724 0.30952
#
# Static dielectric constant tensor:
#      x y z
#    x 1.932130 0.000000 -0.105230 
#    y 0.000000 1.835070 0.000000 
#    z -0.105230 0.000000 1.869140 
# 
# From -- ./inp_files/237264.got.cif
#   From: 2010.05.17/outbox.cif.g08.bks.cpg/sg12_119_cif.got.tgz:237264.got - 2010.06.03 13:09:07.
