data_PCOD9173716
_publ_section_title
;
Structure prediction by ZEFSAII (Michael W. Deem and Ramdas Pophale) SiO2 
 PCOD9173716
Probable space group: C 2/M
;
_chemical_formula_sum "Si O2"
_cell_formula_units_Z 48
_cell_length_a 24.011937
_cell_length_b 13.672390
_cell_length_c 24.499302
_cell_angle_alpha 90.000000
_cell_angle_beta 19.599420
_cell_angle_gamma 90.000000
_cell_volume 2698.005474
_symmetry_space_group_name_H-M "C 2/M"
_symmetry_group_IT_number 12
_symmetry_cell_setting 'monoclinic'
loop_
_space_group_symop_operation_xyz
x,y,z
-x,y,-z
-x,-y,-z
x,-y,z
1/2+x,1/2+y,z
1/2-x,1/2+y,-z
1/2-x,1/2-y,-z
1/2+x,1/2-y,z
loop_
_atom_site_type_symbol
_atom_site_label
_atom_site_fract_x
_atom_site_fract_y
_atom_site_fract_z
Si Si1 0.688024 0.807466 0.424957
Si Si2 0.176194 0.607801 0.658194
Si Si3 0.144332 0.892916 0.623278
Si Si4 0.016363 0.116829 0.920671
Si Si5 0.578498 0.201820 0.172287
Si Si6 0.645610 0.116509 0.228294
O O1 0.723815 0.693438 0.404296
O O2 0.753365 0.870423 0.416615
O O3 0.491828 0.832246 0.605448
O O4 0.816393 0.836913 0.258746
O O5 0.186950 0.500000 0.673102
O O6 0.245520 0.602097 0.532427
O O7 0.989892 0.642213 0.816634
O O8 0.037494 0.796334 0.712815
O O9 0.060485 0.000000 0.706844
O O10 0.838553 0.147286 0.058630
O O11 0.030753 0.000000 0.899174
O O12 0.000000 0.136250 0.000000
O O13 0.595778 0.141234 0.212006
O O14 0.750000 0.250000 0.000000
O O15 0.636913 0.000000 0.245752
#
# Coordination Sequence:
#
# PCOD9173716 Si02
#       6
#     8   8   8   8   8   8
#     4  11  19  35  57  78 106 145 180 213 265 313
#     4  10  19  33  52  76 110 141 172 212 251 307
#     4  10  18  31  49  74 108 142 172 205 249 307
#     4  10  23  39  54  79 108 134 175 228 275 318
#     4  11  20  30  46  75 112 143 175 212 250 309
#     4  11  20  33  55  78 104 140 180 216 260 319
#
# _framework density 17.790918999999999
#
# number of rings (size 3 to 8) (size 9 to 14) (size 15 to 20)
#    0.000    1.500    3.333    5.000    0.000    3.333 
#    0.000    2.500    0.000    0.500    0.000    1.167 
#    0.000    0.000    0.000    0.000    0.000    0.000 
#
# Total GULP energy -133733.963644 kJ/mol
# GULP energy per Si atom -5572.248485 kJ/mol
# Density = 1.775043 g / cm^3
# Si number density = 17.790919 Si / 1000 Ang^3
#
#
#
# Elastic Constant Matrix: (Units=GPa)
#
#
# Indices 1 2 3 4 5 6 
#
# 1 15.1529 4.4142 -2.0691 0.0030 4.2309 0.0010
# 2 4.4142 102.2173 12.0724 0.0022 3.0459 -0.0021
# 3 -2.0691 12.0724 81.8533 0.0032 10.8767 0.0005
# 4 0.0030 0.0022 0.0032 15.3731 0.0013 -1.8403
# 5 4.2309 3.0459 10.8767 0.0013 22.4405 0.0004
# 6 0.0010 -0.0021 0.0005 -1.8403 0.0004 14.7609
#
#
#
# Elastic Compliance Matrix: (Units=1/GPa)
#
#
# Indices 1 2 3 4 5 6 
#
# 1 0.071737 -0.003153 0.004295 -0.000014 -0.015179 -0.000007
# 2 -0.003153 0.010105 -0.001568 0.000000 -0.000017 0.000002
# 3 0.004295 -0.001568 0.013506 -0.000003 -0.007143 -0.000001
# 4 -0.000014 0.000000 -0.000003 0.066034 0.000000 0.008233
# 5 -0.015179 -0.000017 -0.007143 0.000000 0.050889 0.000000
# 6 -0.000007 0.000002 -0.000001 0.008233 0.000000 0.068773
#
#
# Mechanical properties :
#
#
# Convention : Reuss Voigt Hill
#
# Bulk Modulus (GPa) = 10.58228 25.33983 17.96106
# Shear Modulus (GPa) = 15.95437 22.83531 19.39484
#
# Velocity S-wave (km/s) = 2.99786 3.58654 3.30533
# Velocity P-wave (km/s) = 4.23603 5.60580 4.96835
#
# Compressibility (1/GPa) = 0.09449756
#
# Stress axis : x y z
#
# Youngs Moduli (GPa) = 13.93975 98.96178 74.04126
#
# Poissons Ratio (x) = 0.31202 -0.31804
# Poissons Ratio (y) = 0.04395 0.11608
# Poissons Ratio (z) = -0.05988 0.15515
#
# Static dielectric constant tensor:
#      x y z
#    x 2.370530 -0.000100 -1.473680 
#    y -0.000100 1.623520 0.000200 
#    z -1.473680 0.000200 4.444420 
# 
# From -- ./inp_files/347535.got.cif
#   From: 2010.05.17/outbox.cif.g08.bks.cpg/sg12_174_cif.got.tgz:347535.got - 2010.06.03 13:09:07.
