data_PCOD9173480
_publ_section_title
;
Structure prediction by ZEFSAII (Michael W. Deem and Ramdas Pophale) SiO2 
 PCOD9173480
Probable space group: C 2/M
;
_chemical_formula_sum "Si O2"
_cell_formula_units_Z 56
_cell_length_a 28.318239
_cell_length_b 10.293695
_cell_length_c 22.329443
_cell_angle_alpha 90.000000
_cell_angle_beta 22.725114
_cell_angle_gamma 90.000000
_cell_volume 2514.500924
_symmetry_space_group_name_H-M "C 2/M"
_symmetry_group_IT_number 12
_symmetry_cell_setting 'monoclinic'
loop_
_space_group_symop_operation_xyz
x,y,z
-x,y,-z
-x,-y,-z
x,-y,z
1/2+x,1/2+y,z
1/2-x,1/2+y,-z
1/2-x,1/2-y,-z
1/2+x,1/2-y,z
loop_
_atom_site_type_symbol
_atom_site_label
_atom_site_fract_x
_atom_site_fract_y
_atom_site_fract_z
Si Si1 0.069752 0.149946 0.122765
Si Si2 0.720379 0.800839 0.633445
Si Si3 0.283008 0.651128 0.737177
Si Si4 0.209803 0.847273 0.128169
Si Si5 0.529355 0.706101 0.030209
Si Si6 0.450103 0.353219 0.443613
Si Si7 0.872229 0.362692 0.385066
O O1 0.051832 0.145064 0.070559
O O2 0.959023 0.238195 0.276726
O O3 0.072597 0.000000 0.140580
O O4 0.188286 0.236687 0.002127
O O5 0.590277 0.794572 0.817576
O O6 0.831005 0.857350 0.541541
O O7 0.773584 0.659482 0.552556
O O8 0.698135 0.865912 0.595634
O O9 0.272925 0.500000 0.731920
O O10 0.300750 0.654848 0.787138
O O11 0.395572 0.709400 0.567688
O O12 0.155668 0.719028 0.872168
O O13 0.073331 0.802086 0.268778
O O14 0.237593 0.000000 0.078281
O O15 0.500000 0.640070 0.000000
O O16 0.487939 0.500000 0.414599
O O17 0.938698 0.500000 0.314992
#
# Coordination Sequence:
#
# PCOD9173480 Si02
#       7
#     8   8   8   8   8   8   8
#     4  10  22  39  61  85 112 151 197 241 291 347
#     4  10  21  34  57  88 121 151 191 234 291 341
#     4   9  17  29  50  81 120 159 195 232 277 332
#     4   9  18  34  57  84 116 154 194 236 284 339
#     4  10  19  33  53  83 121 155 186 229 284 347
#     4  10  18  30  53  85 119 154 194 237 282 337
#     4  10  22  41  63  84 114 153 197 244 290 341
#
# _framework density 22.270821000000002
#
# number of rings (size 3 to 8) (size 9 to 14) (size 15 to 20)
#    0.000    2.286    1.429    1.286    0.000   12.000 
#    0.000    1.429    0.000    6.857    0.000    0.000 
#    0.000    0.000    0.000    0.000    0.000    0.000 
#
# Total GULP energy -155909.159353 kJ/mol
# GULP energy per Si atom -5568.184263 kJ/mol
# Density = 2.222013 g / cm^3
# Si number density = 22.270821 Si / 1000 Ang^3
#
#
#
# Elastic Constant Matrix: (Units=GPa)
#
#
# Indices 1 2 3 4 5 6 
#
# 1 74.0703 10.6709 16.4436 -0.0003 -12.7278 0.0004
# 2 10.6709 115.1471 41.3623 -0.0013 -12.9702 0.0017
# 3 16.4436 41.3623 127.4526 -0.0003 -30.0719 0.0005
# 4 -0.0003 -0.0013 -0.0003 -46.9089 0.0002 91.0419
# 5 -12.7278 -12.9702 -30.0719 0.0002 41.8287 -0.0002
# 6 0.0004 0.0017 0.0005 91.0419 -0.0002 -124.4525
#
#
#
# Elastic Compliance Matrix: (Units=1/GPa)
#
#
# Indices 1 2 3 4 5 6 
#
# 1 0.014390 -0.000641 -0.000798 0.000000 0.003606 0.000000
# 2 -0.000641 0.009888 -0.002949 0.000000 0.000751 0.000000
# 3 -0.000798 -0.002949 0.010397 0.000000 0.006317 0.000000
# 4 0.000000 0.000000 0.000000 0.050783 0.000000 0.037149
# 5 0.003606 0.000751 0.006317 0.000000 0.029779 0.000000
# 6 0.000000 0.000000 0.000000 0.037149 0.000000 0.019141
#
#
# Mechanical properties :
#
#
# Convention : Reuss Voigt Hill
#
# Bulk Modulus (GPa) = 38.61129 50.40262 44.50695
# Shear Modulus (GPa) = 32.94137 -9.36033 11.79052
#
# Velocity S-wave (km/s) = 3.85011 -2.05234 2.30340
# Velocity P-wave (km/s) = 6.09420 4.13095 5.20596
#
# Compressibility (1/GPa) = 0.02589916
#
# Stress axis : x y z
#
# Youngs Moduli (GPa) = 69.49376 101.13430 96.18569
#
# Poissons Ratio (x) = 0.06480 0.07672
# Poissons Ratio (y) = 0.04453 0.28366
# Poissons Ratio (z) = 0.05543 0.29825
#
# Static dielectric constant tensor:
#      x y z
#    x 1.907690 0.000000 0.014280 
#    y 0.000000 1.822010 0.000000 
#    z 0.014280 0.000000 1.852910 
# 
# From -- ./inp_files/353927.got.cif
#   From: 2010.05.17/outbox.cif.g08.bks.cpg/sg12_177_cif.got.tgz:353927.got - 2010.06.03 13:09:07.
