data_PCOD9173818
_publ_section_title
;
Structure prediction by ZEFSAII (Michael W. Deem and Ramdas Pophale) SiO2 
 PCOD9173818
Probable space group: C 2/M
;
_chemical_formula_sum "Si O2"
_cell_formula_units_Z 52
_cell_length_a 21.149135
_cell_length_b 12.154493
_cell_length_c 14.898328
_cell_angle_alpha 90.000000
_cell_angle_beta 57.040125
_cell_angle_gamma 90.000000
_cell_volume 3213.333131
_symmetry_space_group_name_H-M "C 2/M"
_symmetry_group_IT_number 12
_symmetry_cell_setting 'monoclinic'
loop_
_space_group_symop_operation_xyz
x,y,z
-x,y,-z
-x,-y,-z
x,-y,z
1/2+x,1/2+y,z
1/2-x,1/2+y,-z
1/2-x,1/2-y,-z
1/2+x,1/2-y,z
loop_
_atom_site_type_symbol
_atom_site_label
_atom_site_fract_x
_atom_site_fract_y
_atom_site_fract_z
Si Si1 0.890791 0.500000 0.479216
Si Si2 0.326646 0.236244 0.495738
Si Si3 0.733887 0.707992 0.734425
Si Si4 0.878792 0.627706 0.095413
Si Si5 0.681601 0.000000 0.267812
Si Si6 0.004681 0.684690 0.142145
Si Si7 0.538125 0.000000 0.261394
Si Si8 0.403101 0.369960 0.290400
O O1 0.856097 0.611318 0.464363
O O2 0.865908 0.500000 0.601970
O O3 0.978795 0.500000 0.389087
O O4 0.250000 0.250000 0.500000
O O5 0.301066 0.251881 0.618265
O O6 0.383567 0.319229 0.403267
O O7 0.694532 0.804113 0.820588
O O8 0.767147 0.608725 0.767122
O O9 0.668391 0.658032 0.719572
O O10 0.864795 0.500000 0.085475
O O11 0.936488 0.633971 0.135245
O O12 0.923492 0.683592 0.978717
O O13 0.622355 0.000000 0.233496
O O14 0.021436 0.605851 0.212670
O O15 0.974035 0.802746 0.196872
O O16 0.413376 0.500000 0.285399
#
# Coordination Sequence:
#
# PCOD9173818 Si02
#       8
#     4   8   8   8   4   8   4   8
#     4  10  19  34  49  79 107 132 182 203 253 305
#     4   9  18  27  48  74 106 136 158 212 255 311
#     4   9  19  34  47  74 105 141 173 201 259 309
#     4  10  18  33  55  76 108 130 165 223 265 310
#     4  10  21  36  51  74 108 143 172 214 243 303
#     4  10  19  32  51  83 101 132 170 214 269 309
#     4  12  19  33  58  76 103 137 179 216 249 293
#     4  10  18  31  50  75 111 131 162 215 266 320
#
# _framework density 16.182573999999999
#
# number of rings (size 3 to 8) (size 9 to 14) (size 15 to 20)
#    0.000    2.154    3.846    0.692    3.231    0.615 
#    1.385    2.308    0.000    0.923    0.000    2.154 
#    0.000    0.000    0.000    0.000    0.000    0.000 
#
# Total GULP energy -144864.536499 kJ/mol
# GULP energy per Si atom -5571.712942 kJ/mol
# Density = 1.614574 g / cm^3
# Si number density = 16.182574 Si / 1000 Ang^3
#
#
#
# Elastic Constant Matrix: (Units=GPa)
#
#
# Indices 1 2 3 4 5 6 
#
# 1 50.1925 31.9640 23.4267 0.0000 -5.3742 0.0000
# 2 31.9640 143.4728 78.4020 0.0000 -15.2223 0.0000
# 3 23.4267 78.4020 95.1220 0.0000 -22.6132 0.0000
# 4 0.0000 0.0000 0.0000 21.4346 0.0000 -7.1042
# 5 -5.3742 -15.2223 -22.6132 0.0000 16.9664 0.0000
# 6 0.0000 0.0000 0.0000 -7.1042 0.0000 14.0397
#
#
#
# Elastic Compliance Matrix: (Units=1/GPa)
#
#
# Indices 1 2 3 4 5 6 
#
# 1 0.023595 -0.003818 -0.002491 0.000000 0.000728 0.000000
# 2 -0.003818 0.013464 -0.011085 0.000000 -0.003904 0.000000
# 3 -0.002491 -0.011085 0.025925 0.000000 0.023820 0.000000
# 4 0.000000 0.000000 0.000000 0.056054 0.000000 0.028364
# 5 0.000728 -0.003904 0.023820 0.000000 0.087415 0.000000
# 6 0.000000 0.000000 0.000000 0.028364 0.000000 0.085579
#
#
# Mechanical properties :
#
#
# Convention : Reuss Voigt Hill
#
# Bulk Modulus (GPa) = 35.46542 61.81921 48.64232
# Shear Modulus (GPa) = 14.87118 20.82110 17.84614
#
# Velocity S-wave (km/s) = 3.03473 3.59086 3.32445
# Velocity P-wave (km/s) = 5.85174 7.44825 6.69773
#
# Compressibility (1/GPa) = 0.02819648
#
# Stress axis : x y z
#
# Youngs Moduli (GPa) = 42.38106 74.27226 38.57222
#
# Poissons Ratio (x) = 0.28360 0.09607
# Poissons Ratio (y) = 0.16183 0.42758
# Poissons Ratio (z) = 0.10556 0.82331
#
# Static dielectric constant tensor:
#      x y z
#    x 1.513200 0.000000 -0.003690 
#    y 0.000000 1.523740 0.000000 
#    z -0.003690 0.000000 1.582460 
# 
# From -- ./inp_files/231782.got.cif
#   From: 2010.05.17/outbox.cif.g08.bks.cpg/sg12_116_cif.got.tgz:231782.got - 2010.06.03 13:09:07.
