data_PCOD9173686
_publ_section_title
;
Structure prediction by ZEFSAII (Michael W. Deem and Ramdas Pophale) SiO2 
 PCOD9173686
Probable space group: C 2/M
;
_chemical_formula_sum "Si O2"
_cell_formula_units_Z 64
_cell_length_a 25.689319
_cell_length_b 7.298740
_cell_length_c 15.821184
_cell_angle_alpha 90.000000
_cell_angle_beta 70.868507
_cell_angle_gamma 90.000000
_cell_volume 2802.625444
_symmetry_space_group_name_H-M "C 2/M"
_symmetry_group_IT_number 12
_symmetry_cell_setting 'monoclinic'
loop_
_space_group_symop_operation_xyz
x,y,z
-x,y,-z
-x,-y,-z
x,-y,z
1/2+x,1/2+y,z
1/2-x,1/2+y,-z
1/2-x,1/2-y,-z
1/2+x,1/2-y,z
loop_
_atom_site_type_symbol
_atom_site_label
_atom_site_fract_x
_atom_site_fract_y
_atom_site_fract_z
Si Si1 0.505666 0.277140 0.266601
Si Si2 0.652111 0.723097 0.870122
Si Si3 0.128399 0.223903 0.239980
Si Si4 0.471521 0.722890 0.101109
Si Si5 0.888618 0.224302 0.401991
Si Si6 0.792246 0.220426 0.325402
Si Si7 0.332656 0.713432 0.600355
Si Si8 0.184861 0.217992 0.037029
O O1 0.505250 0.500000 0.267521
O O2 0.564259 0.221945 0.272810
O O3 0.500694 0.218959 0.171516
O O4 0.450000 0.218504 0.343444
O O5 0.653617 0.500000 0.871698
O O6 0.592297 0.775392 0.867259
O O7 0.696690 0.782019 0.776913
O O8 0.660965 0.788170 0.960808
O O9 0.156680 0.288073 0.311519
O O10 0.158036 0.287300 0.138100
O O11 0.130849 0.000000 0.236968
O O12 0.473106 0.500000 0.100098
O O13 0.500000 0.784611 0.000000
O O14 0.842258 0.281191 0.358707
O O15 0.869111 0.287978 0.504431
O O16 0.888456 0.000000 0.400999
O O17 0.731792 0.274641 0.387365
O O18 0.793627 0.000000 0.324763
O O19 0.347473 0.500000 0.597524
O O20 0.174811 0.000000 0.042067
O O21 0.250000 0.250000 0.000000
#
# Coordination Sequence:
#
# PCOD9173686 Si02
#       8
#     8   8   8   8   8   8   8   8
#     4   9  15  26  43  65  95 124 148 188 240 280
#     4   9  16  26  42  65  91 117 147 186 230 273
#     4   9  18  30  44  66  98 127 154 189 231 279
#     4   9  14  21  37  62  91 118 143 178 231 279
#     4   9  17  29  46  68  94 121 153 194 238 277
#     4  10  18  31  49  70  94 120 155 197 234 274
#     4  10  20  32  46  68  96 126 157 190 229 277
#     4  10  19  31  46  67  95 125 156 189 226 272
#
# _framework density 22.835729000000001
#
# number of rings (size 3 to 8) (size 9 to 14) (size 15 to 20)
#    0.000    2.625    1.250    1.875    0.000    3.500 
#    0.000    2.500    0.000    0.000    0.000    4.375 
#    0.000    2.000    0.000    0.000    0.000    0.000 
#
# Total GULP energy -178836.527410 kJ/mol
# GULP energy per Si atom -5588.641482 kJ/mol
# Density = 2.278375 g / cm^3
# Si number density = 22.835729 Si / 1000 Ang^3
#
#
#
# Elastic Constant Matrix: (Units=GPa)
#
#
# Indices 1 2 3 4 5 6 
#
# 1 108.6268 -8.4358 45.0454 0.0000 -7.5838 0.0000
# 2 -8.4358 94.0315 6.7025 0.0000 5.2851 0.0000
# 3 45.0454 6.7025 158.8005 0.0000 -14.2056 0.0000
# 4 0.0000 0.0000 0.0000 -15.5371 0.0000 -7.9508
# 5 -7.5838 5.2851 -14.2056 0.0000 40.7952 0.0000
# 6 0.0000 0.0000 0.0000 -7.9508 0.0000 3.9437
#
#
#
# Elastic Compliance Matrix: (Units=1/GPa)
#
#
# Indices 1 2 3 4 5 6 
#
# 1 0.010583 0.001118 -0.002979 0.000000 0.000785 0.000000
# 2 0.001118 0.010885 -0.000912 0.000000 -0.001520 0.000000
# 3 -0.002979 -0.000912 0.007371 0.000000 0.002131 0.000000
# 4 0.000000 0.000000 0.000000 -0.031679 0.000000 -0.063867
# 5 0.000785 -0.001520 0.002131 0.000000 0.025598 0.000000
# 6 0.000000 0.000000 0.000000 -0.063867 0.000000 0.124807
#
#
# Mechanical properties :
#
#
# Convention : Reuss Voigt Hill
#
# Bulk Modulus (GPa) = 42.93289 49.78701 46.35995
# Shear Modulus (GPa) = 31.07973 27.05013 29.06493
#
# Velocity S-wave (km/s) = 3.69319 3.44547 3.57148
# Velocity P-wave (km/s) = 6.08505 6.13823 6.11170
#
# Compressibility (1/GPa) = 0.02329216
#
# Stress axis : x y z
#
# Youngs Moduli (GPa) = 94.49387 91.86549 135.66044
#
# Poissons Ratio (x) = -0.10267 0.40411
# Poissons Ratio (y) = -0.10561 0.12378
# Poissons Ratio (z) = 0.28148 0.08382
#
# Static dielectric constant tensor:
#      x y z
#    x 1.793100 0.000000 0.007040 
#    y 0.000000 1.922570 0.000000 
#    z 0.007040 0.000000 1.829030 
# 
# From -- ./inp_files/232462.got.cif
#   From: 2010.05.17/outbox.cif.g08.bks.cpg/sg12_117_cif.got.tgz:232462.got - 2010.06.03 13:09:07.
