data_PCOD9173242
_publ_section_title
;
Structure prediction by ZEFSAII (Michael W. Deem and Ramdas Pophale) SiO2 
 PCOD9173242
Probable space group: C 2/M
;
_chemical_formula_sum "Si O2"
_cell_formula_units_Z 48
_cell_length_a 28.308947
_cell_length_b 9.187459
_cell_length_c 18.164640
_cell_angle_alpha 90.000000
_cell_angle_beta 28.965577
_cell_angle_gamma 90.000000
_cell_volume 2287.947762
_symmetry_space_group_name_H-M "C 2/M"
_symmetry_group_IT_number 12
_symmetry_cell_setting 'monoclinic'
loop_
_space_group_symop_operation_xyz
x,y,z
-x,y,-z
-x,-y,-z
x,-y,z
1/2+x,1/2+y,z
1/2-x,1/2+y,-z
1/2-x,1/2-y,-z
1/2+x,1/2-y,z
loop_
_atom_site_type_symbol
_atom_site_label
_atom_site_fract_x
_atom_site_fract_y
_atom_site_fract_z
Si Si1 0.155511 0.826322 0.838987
Si Si2 0.555280 0.337749 0.627096
Si Si3 0.932883 0.334811 0.910987
Si Si4 0.226827 0.335072 0.606054
Si Si5 0.227325 0.163911 0.104511
Si Si6 0.652962 0.322550 0.353235
O O1 0.156364 0.751654 0.757593
O O2 0.257793 0.771869 0.735668
O O3 0.151190 0.000000 0.839540
O O4 0.075819 0.763722 0.004450
O O5 0.512363 0.500000 0.693586
O O6 0.503599 0.229153 0.752822
O O7 0.668092 0.345328 0.497543
O O8 0.562182 0.297608 0.531510
O O9 0.957602 0.500000 0.897442
O O10 0.827285 0.337141 0.015372
O O11 0.192465 0.500000 0.639450
O O12 0.250000 0.250000 0.500000
O O13 0.148612 0.214468 0.272744
O O14 0.201582 0.000000 0.118116
O O15 0.250000 0.250000 0.000000
O O16 0.673056 0.500000 0.330076
#
# Coordination Sequence:
#
# PCOD9173242 Si02
#       6
#     8   8   8   8   8   8
#     4  10  18  30  51  75  98 130 170 204 242 296
#     4   9  18  33  53  75  99 129 165 205 247 294
#     4  10  20  34  51  73 102 132 165 207 251 295
#     4  10  20  35  54  77 105 133 165 205 247 293
#     4   9  18  32  50  72  98 130 166 206 250 295
#     4   8  16  32  50  70  99 131 165 205 247 294
#
# _framework density 20.979500000000002
#
# number of rings (size 3 to 8) (size 9 to 14) (size 15 to 20)
#    0.000    2.667    0.000    4.500    0.000    6.667 
#    0.000    1.667    0.000   10.000    0.000    0.000 
#    0.000    0.000    0.000    0.000    0.000    0.000 
#
# Total GULP energy -133812.028281 kJ/mol
# GULP energy per Si atom -5575.501178 kJ/mol
# Density = 2.093175 g / cm^3
# Si number density = 20.979500 Si / 1000 Ang^3
#
#
#
# Elastic Constant Matrix: (Units=GPa)
#
#
# Indices 1 2 3 4 5 6 
#
# 1 69.2634 39.1665 41.7873 0.0009 37.3596 -0.0006
# 2 39.1665 153.5850 78.3940 0.0025 52.0212 -0.0018
# 3 41.7873 78.3940 128.5009 0.0034 61.1825 -0.0021
# 4 0.0009 0.0025 0.0034 36.7992 -0.0017 13.7067
# 5 37.3596 52.0212 61.1825 -0.0017 63.0191 0.0009
# 6 -0.0006 -0.0018 -0.0021 13.7067 0.0009 25.1290
#
#
#
# Elastic Compliance Matrix: (Units=1/GPa)
#
#
# Indices 1 2 3 4 5 6 
#
# 1 0.021598 -0.001326 -0.001189 -0.000001 -0.010555 0.000001
# 2 -0.001326 0.010143 -0.003988 -0.000001 -0.003715 0.000001
# 3 -0.001189 -0.003988 0.016176 -0.000003 -0.011708 0.000003
# 4 -0.000001 -0.000001 -0.000003 0.034103 0.000005 -0.018602
# 5 -0.010555 -0.003715 -0.011708 0.000005 0.036559 -0.000006
# 6 0.000001 0.000001 0.000003 -0.018602 -0.000006 0.049941
#
#
# Mechanical properties :
#
#
# Convention : Reuss Voigt Hill
#
# Bulk Modulus (GPa) = 28.64387 74.44942 51.54664
# Shear Modulus (GPa) = 25.88494 37.78958 31.83726
#
# Velocity S-wave (km/s) = 3.51639 4.24873 3.89979
# Velocity P-wave (km/s) = 5.49268 7.72222 6.70083
#
# Compressibility (1/GPa) = 0.03491149
#
# Stress axis : x y z
#
# Youngs Moduli (GPa) = 46.30074 98.58932 61.82050
#
# Poissons Ratio (x) = 0.13070 0.07352
# Poissons Ratio (y) = 0.06138 0.24653
# Poissons Ratio (z) = 0.05506 0.39316
#
# Static dielectric constant tensor:
#      x y z
#    x 1.813830 0.000000 -0.009080 
#    y 0.000000 1.724110 0.000000 
#    z -0.009080 0.000000 1.813290 
# 
# From -- ./inp_files/273717.got.cif
#   From: 2010.05.17/outbox.cif.g08.bks.cpg/sg12_137_cif.got.tgz:273717.got - 2010.06.03 13:09:07.
