data_PCOD9173724
_publ_section_title
;
Structure prediction by ZEFSAII (Michael W. Deem and Ramdas Pophale) SiO2 
 PCOD9173724
Probable space group: C 2/M
;
_chemical_formula_sum "Si O2"
_cell_formula_units_Z 56
_cell_length_a 25.735411
_cell_length_b 15.912785
_cell_length_c 18.257988
_cell_angle_alpha 90.000000
_cell_angle_beta 161.243435
_cell_angle_gamma 90.000000
_cell_volume 2404.229844
_symmetry_space_group_name_H-M "C 2/M"
_symmetry_group_IT_number 12
_symmetry_cell_setting 'monoclinic'
loop_
_space_group_symop_operation_xyz
x,y,z
-x,y,-z
-x,-y,-z
x,-y,z
1/2+x,1/2+y,z
1/2-x,1/2+y,-z
1/2-x,1/2-y,-z
1/2+x,1/2-y,z
loop_
_atom_site_type_symbol
_atom_site_label
_atom_site_fract_x
_atom_site_fract_y
_atom_site_fract_z
Si Si1 0.933919 0.596965 0.491542
Si Si2 0.379127 0.200014 0.893132
Si Si3 0.354895 0.406438 0.350790
Si Si4 0.550176 0.620084 0.985215
Si Si5 0.419203 0.223069 0.599221
Si Si6 0.781978 0.591326 0.531171
Si Si7 0.068991 0.093696 0.375288
O O1 0.982405 0.500000 0.570402
O O2 0.736999 0.597846 0.223064
O O3 0.989715 0.658662 0.631968
O O4 0.000000 0.622716 0.500000
O O5 0.308218 0.144963 0.863150
O O6 0.466813 0.279906 0.043399
O O7 0.237069 0.242771 0.654955
O O8 0.500000 0.154555 0.000000
O O9 0.500000 0.364974 0.500000
O O10 0.330565 0.500000 0.288703
O O11 0.405118 0.410865 0.502763
O O12 0.500000 0.595778 0.000000
O O13 0.406455 0.587024 0.744678
O O14 0.363527 0.166142 0.593941
O O15 0.506065 0.311892 0.736387
O O16 0.858073 0.500000 0.616945
O O17 0.741763 0.599116 0.563400
O O18 0.996339 0.000000 0.260609
#
# Coordination Sequence:
#
# PCOD9173724 Si02
#       7
#     8   8   8   8   8   8   8
#     4  10  20  32  50  80 110 135 170 210 254 308
#     4   9  16  29  46  73 102 126 160 205 248 299
#     4   9  18  33  53  73  94 127 171 217 257 298
#     4  10  18  31  49  76 104 132 170 204 249 309
#     4  10  18  31  51  71 104 138 167 206 255 304
#     4  11  19  30  51  76 102 135 168 212 257 303
#     4   9  20  33  48  76 102 128 174 217 255 300
#
# _framework density 23.292283999999999
#
# number of rings (size 3 to 8) (size 9 to 14) (size 15 to 20)
#    0.000    2.286    4.286    1.286    0.000    6.000 
#    0.000    0.000    0.000    3.429    0.000    2.000 
#    0.000    0.000    0.000    0.000    0.000    0.000 
#
# Total GULP energy -155915.947427 kJ/mol
# GULP energy per Si atom -5568.426694 kJ/mol
# Density = 2.323927 g / cm^3
# Si number density = 23.292284 Si / 1000 Ang^3
#
#
#
# Elastic Constant Matrix: (Units=GPa)
#
#
# Indices 1 2 3 4 5 6 
#
# 1 131.6880 48.8853 22.4186 0.0003 28.4101 0.0001
# 2 48.8853 163.4046 10.6535 0.0002 19.4988 0.0002
# 3 22.4186 10.6535 32.7220 0.0004 7.9723 0.0005
# 4 0.0003 0.0002 0.0004 16.1143 0.0003 -2.3562
# 5 28.4101 19.4988 7.9723 0.0003 33.0116 0.0003
# 6 0.0001 0.0002 0.0005 -2.3562 0.0003 29.0922
#
#
#
# Elastic Compliance Matrix: (Units=1/GPa)
#
#
# Indices 1 2 3 4 5 6 
#
# 1 0.010665 -0.002059 -0.004990 0.000000 -0.006757 0.000000
# 2 -0.002059 0.007031 -0.000317 0.000000 -0.002305 0.000000
# 3 -0.004990 -0.000317 0.035053 -0.000001 -0.003983 -0.000001
# 4 0.000000 0.000000 -0.000001 0.062800 -0.000001 0.005086
# 5 -0.006757 -0.002305 -0.003983 -0.000001 0.038431 0.000000
# 6 0.000000 0.000000 -0.000001 0.005086 0.000000 0.034785
#
#
# Mechanical properties :
#
#
# Convention : Reuss Voigt Hill
#
# Bulk Modulus (GPa) = 26.30398 54.63661 40.47030
# Shear Modulus (GPa) = 23.12969 32.03411 27.58190
#
# Velocity S-wave (km/s) = 3.15464 3.71254 3.44490
# Velocity P-wave (km/s) = 4.95848 6.47187 5.76505
#
# Compressibility (1/GPa) = 0.03801706
#
# Stress axis : x y z
#
# Youngs Moduli (GPa) = 93.76060 142.21806 28.52803
#
# Poissons Ratio (x) = 0.29283 0.14237
# Poissons Ratio (y) = 0.19306 0.00905
# Poissons Ratio (z) = 0.46790 0.04510
#
# Static dielectric constant tensor:
#      x y z
#    x 2.018570 0.000000 -0.054490 
#    y 0.000000 2.014300 0.000000 
#    z -0.054490 0.000000 1.942480 
# 
# From -- ./inp_files/328585.got.cif
#   From: 2010.05.17/outbox.cif.g08.bks.cpg/sg12_165_cif.got.tgz:328585.got - 2010.06.03 13:09:07.
