data_PCOD9173095
_publ_section_title
;
Structure prediction by ZEFSAII (Michael W. Deem and Ramdas Pophale) SiO2 
 PCOD9173095
Probable space group: C 2/M
;
_chemical_formula_sum "Si O2"
_cell_formula_units_Z 64
_cell_length_a 31.933951
_cell_length_b 8.782574
_cell_length_c 26.790519
_cell_angle_alpha 90.000000
_cell_angle_beta 150.224797
_cell_angle_gamma 90.000000
_cell_volume 3731.306081
_symmetry_space_group_name_H-M "C 2/M"
_symmetry_group_IT_number 12
_symmetry_cell_setting 'monoclinic'
loop_
_space_group_symop_operation_xyz
x,y,z
-x,y,-z
-x,-y,-z
x,-y,z
1/2+x,1/2+y,z
1/2-x,1/2+y,-z
1/2-x,1/2-y,-z
1/2+x,1/2-y,z
loop_
_atom_site_type_symbol
_atom_site_label
_atom_site_fract_x
_atom_site_fract_y
_atom_site_fract_z
Si Si1 0.545516 0.318703 0.429901
Si Si2 0.819541 0.680916 0.361382
Si Si3 0.029775 0.315288 0.952972
Si Si4 0.279745 0.818224 0.125891
Si Si5 0.098394 0.315544 0.917793
Si Si6 0.550443 0.182337 0.759274
Si Si7 0.376748 0.317820 0.317045
Si Si8 0.864654 0.684370 0.842318
O O1 0.555566 0.500000 0.440986
O O2 0.628082 0.240108 0.537108
O O3 0.516976 0.262989 0.345932
O O4 0.466723 0.279894 0.385059
O O5 0.819855 0.500000 0.360188
O O6 0.864715 0.746104 0.358592
O O7 0.724516 0.743153 0.262049
O O8 0.030000 0.500000 0.953099
O O9 0.052002 0.264421 0.920417
O O10 0.938613 0.270800 0.880182
O O11 0.100217 0.270161 0.066610
O O12 0.357107 0.784347 0.168396
O O13 0.306269 0.744956 0.206131
O O14 0.273257 0.000000 0.124301
O O15 0.192645 0.749635 0.016669
O O16 0.103589 0.500000 0.923494
O O17 0.052188 0.271105 0.818820
O O18 0.538269 0.000000 0.743458
O O19 0.369841 0.500000 0.313499
O O20 0.856984 0.500000 0.833870
#
# Coordination Sequence:
#
# PCOD9173095 Si02
#       8
#     8   8   8   8   8   8   8   8
#     4  10  21  36  53  71  95 131 172 209 244 287
#     4  12  23  33  50  76 103 130 161 200 248 298
#     4   8  16  31  53  77  99 128 165 203 242 288
#     4  10  19  30  45  71 105 137 168 203 246 291
#     4  10  18  30  50  74 100 134 172 206 247 297
#     4   9  19  33  48  69 101 136 169 209 251 290
#     4  10  20  34  51  72  99 132 169 204 241 290
#     4   9  17  33  54  75 101 131 164 200 240 292
#
# _framework density 17.152170999999999
#
# number of rings (size 3 to 8) (size 9 to 14) (size 15 to 20)
#    0.000    2.250    0.000    4.500    0.000    5.000 
#    0.000    1.875    0.000    0.750    0.000    0.000 
#    0.000    0.000    0.000    0.000    0.000    0.000 
#
# Total GULP energy -178640.571523 kJ/mol
# GULP energy per Si atom -5582.517860 kJ/mol
# Density = 1.711313 g / cm^3
# Si number density = 17.152171 Si / 1000 Ang^3
#
#
#
# Elastic Constant Matrix: (Units=GPa)
#
#
# Indices 1 2 3 4 5 6 
#
# 1 91.2941 32.5422 70.0288 0.0000 -20.2996 0.0000
# 2 32.5422 36.4214 45.8351 0.0000 -4.2291 0.0000
# 3 70.0288 45.8351 144.7680 0.0000 -13.9857 0.0000
# 4 0.0000 0.0000 0.0000 24.1131 0.0000 -3.1951
# 5 -20.2996 -4.2291 -13.9857 0.0000 20.8044 0.0000
# 6 0.0000 0.0000 0.0000 -3.1951 0.0000 14.3835
#
#
#
# Elastic Compliance Matrix: (Units=1/GPa)
#
#
# Indices 1 2 3 4 5 6 
#
# 1 0.023277 -0.011165 -0.006149 0.000000 0.016308 0.000000
# 2 -0.011165 0.051002 -0.011548 0.000000 -0.008290 0.000000
# 3 -0.006149 -0.011548 0.013616 0.000000 0.000806 0.000000
# 4 0.000000 0.000000 0.000000 0.042729 0.000000 0.009492
# 5 0.016308 -0.008290 0.000806 0.000000 0.062836 0.000000
# 6 0.000000 0.000000 0.000000 0.009492 0.000000 0.071633
#
#
# Mechanical properties :
#
#
# Convention : Reuss Voigt Hill
#
# Bulk Modulus (GPa) = 33.14467 63.25506 48.19986
# Shear Modulus (GPa) = 15.02071 20.13203 17.57637
#
# Velocity S-wave (km/s) = 2.96249 3.42969 3.20462
# Velocity P-wave (km/s) = 5.57383 7.25552 6.46955
#
# Compressibility (1/GPa) = 0.03017077
#
# Stress axis : x y z
#
# Youngs Moduli (GPa) = 42.96177 19.60698 73.44280
#
# Poissons Ratio (x) = 0.21892 0.45160
# Poissons Ratio (y) = 0.47969 0.84809
# Poissons Ratio (z) = 0.26417 0.22641
#
# Static dielectric constant tensor:
#      x y z
#    x 1.583450 0.000000 -0.008750 
#    y 0.000000 1.569140 0.000000 
#    z -0.008750 0.000000 1.564040 
# 
# From -- ./inp_files/244241.got.cif
#   From: 2010.05.17/outbox.cif.g08.bks.cpg/sg12_123_cif.got.tgz:244241.got - 2010.06.03 13:09:07.
