data_PCOD9173189
_publ_section_title
;
Structure prediction by ZEFSAII (Michael W. Deem and Ramdas Pophale) SiO2 
 PCOD9173189
Probable space group: C 2/M
;
_chemical_formula_sum "Si O2"
_cell_formula_units_Z 44
_cell_length_a 20.978444
_cell_length_b 7.782388
_cell_length_c 13.405146
_cell_angle_alpha 90.000000
_cell_angle_beta 103.083438
_cell_angle_gamma 90.000000
_cell_volume 2131.744425
_symmetry_space_group_name_H-M "C 2/M"
_symmetry_group_IT_number 12
_symmetry_cell_setting 'monoclinic'
loop_
_space_group_symop_operation_xyz
x,y,z
-x,y,-z
-x,-y,-z
x,-y,z
1/2+x,1/2+y,z
1/2-x,1/2+y,-z
1/2-x,1/2-y,-z
1/2+x,1/2-y,z
loop_
_atom_site_type_symbol
_atom_site_label
_atom_site_fract_x
_atom_site_fract_y
_atom_site_fract_z
Si Si1 0.563856 0.209547 0.222914
Si Si2 0.345879 0.202467 0.236478
Si Si3 0.704091 0.204685 0.195477
Si Si4 0.000000 0.253216 0.000000
Si Si5 0.020891 0.290493 0.616361
Si Si6 0.131839 0.194164 0.978890
O O1 0.640687 0.249601 0.239400
O O2 0.530640 0.255133 0.315353
O O3 0.555843 0.000000 0.205412
O O4 0.526523 0.302403 0.118802
O O5 0.274339 0.232293 0.256451
O O6 0.407011 0.266500 0.323021
O O7 0.347319 0.283734 0.126971
O O8 0.355366 0.000000 0.225017
O O9 0.706678 0.000000 0.188893
O O10 0.688471 0.276631 0.079436
O O11 0.928694 0.316673 0.013480
O O12 0.022051 0.500000 0.612808
O O13 0.000000 0.228595 0.500000
O O14 0.106017 0.000000 0.983657
#
# Coordination Sequence:
#
# PCOD9173189 Si02
#       6
#     8   8   8   4   8   8
#     4   9  17  31  53  80 109 142 181 223 267 320
#     4  11  21  35  55  79 108 143 182 225 271 320
#     4  10  21  35  53  78 112 147 179 219 268 327
#     4  10  18  30  50  80 111 144 173 220 273 324
#     4   9  18  34  57  82 105 137 186 233 268 312
#     4  11  21  33  51  79 114 147 180 217 269 328
#
# _framework density 20.640374999999999
#
# number of rings (size 3 to 8) (size 9 to 14) (size 15 to 20)
#    0.000    2.000    1.818    2.727    0.000    1.455 
#    0.000    0.909    0.000    2.182    0.000    0.000 
#    0.000    0.000    0.000    0.000    0.000    0.000 
#
# Total GULP energy -122568.723876 kJ/mol
# GULP energy per Si atom -5571.305631 kJ/mol
# Density = 2.059340 g / cm^3
# Si number density = 20.640375 Si / 1000 Ang^3
#
#
#
# Elastic Constant Matrix: (Units=GPa)
#
#
# Indices 1 2 3 4 5 6 
#
# 1 162.2607 9.0956 103.1782 0.0000 13.5087 0.0000
# 2 9.0956 63.6862 15.4617 0.0000 -0.4959 0.0000
# 3 103.1782 15.4617 149.4116 0.0000 -5.7886 0.0000
# 4 0.0000 0.0000 0.0000 -0.6107 0.0000 3.2532
# 5 13.5087 -0.4959 -5.7886 0.0000 22.2404 0.0000
# 6 0.0000 0.0000 0.0000 3.2532 0.0000 4.4439
#
#
#
# Elastic Compliance Matrix: (Units=1/GPa)
#
#
# Indices 1 2 3 4 5 6 
#
# 1 0.012979 0.000348 -0.009399 0.000000 -0.010322 0.000000
# 2 0.000348 0.016116 -0.001922 0.000000 -0.000352 0.000000
# 3 -0.009399 -0.001922 0.013740 0.000000 0.009242 0.000000
# 4 0.000000 0.000000 0.000000 -0.334207 0.000000 0.244659
# 5 -0.010322 -0.000352 0.009242 0.000000 0.053631 0.000000
# 6 0.000000 0.000000 0.000000 0.244659 0.000000 0.045926
#
#
# Mechanical properties :
#
#
# Convention : Reuss Voigt Hill
#
# Bulk Modulus (GPa) = 47.86887 70.09216 58.98052
# Shear Modulus (GPa) = -30.69265 21.72293 -4.48486
#
# Velocity S-wave (km/s) = -3.86037 3.24767 -1.47566
# Velocity P-wave (km/s) = 1.83636 6.93510 5.07286
#
# Compressibility (1/GPa) = 0.02089040
#
# Stress axis : x y z
#
# Youngs Moduli (GPa) = 77.04497 62.04982 72.77767
#
# Poissons Ratio (x) = -0.02158 0.68404
# Poissons Ratio (y) = -0.02680 0.13985
# Poissons Ratio (z) = 0.72415 0.11923
#
# Static dielectric constant tensor:
#      x y z
#    x 1.756550 0.000000 -0.005100 
#    y 0.000000 1.866030 0.000000 
#    z -0.005100 0.000000 1.687110 
# 
# From -- ./inp_files/163230.got.cif
#   From: 2010.05.17/outbox.cif.g08.bks.cpg/sg12_82_cif.got.tgz:163230.got - 2010.06.03 13:09:07.
