data_PCOD9173331
_publ_section_title
;
Structure prediction by ZEFSAII (Michael W. Deem and Ramdas Pophale) SiO2 
 PCOD9173331
Probable space group: C 2/M
;
_chemical_formula_sum "Si O2"
_cell_formula_units_Z 64
_cell_length_a 22.327195
_cell_length_b 16.048936
_cell_length_c 15.429200
_cell_angle_alpha 90.000000
_cell_angle_beta 140.285600
_cell_angle_gamma 90.000000
_cell_volume 3532.631074
_symmetry_space_group_name_H-M "C 2/M"
_symmetry_group_IT_number 12
_symmetry_cell_setting 'monoclinic'
loop_
_space_group_symop_operation_xyz
x,y,z
-x,y,-z
-x,-y,-z
x,-y,z
1/2+x,1/2+y,z
1/2-x,1/2+y,-z
1/2-x,1/2-y,-z
1/2+x,1/2-y,z
loop_
_atom_site_type_symbol
_atom_site_label
_atom_site_fract_x
_atom_site_fract_y
_atom_site_fract_z
Si Si1 0.668933 0.097290 0.423964
Si Si2 0.955507 0.092803 0.814717
Si Si3 0.457190 0.750573 0.689817
Si Si4 0.779770 0.156338 0.713385
Si Si5 0.609401 0.597719 0.646524
Si Si6 0.170368 0.093384 0.058947
Si Si7 0.658674 0.697295 0.874370
Si Si8 0.707829 0.670254 0.593108
O O1 0.583929 0.163165 0.319178
O O2 0.708636 0.114962 0.565007
O O3 0.748040 0.123082 0.440771
O O4 0.645864 0.000000 0.388537
O O5 0.948468 0.171979 0.744288
O O6 0.875364 0.110269 0.794282
O O7 0.940107 0.000000 0.758002
O O8 0.061301 0.093541 0.965690
O O9 0.565155 0.752792 0.783309
O O10 0.386712 0.720683 0.536353
O O11 0.768251 0.143601 0.803149
O O12 0.779463 0.255195 0.695951
O O13 0.500000 0.616707 0.500000
O O14 0.611591 0.500000 0.673140
O O15 0.646302 0.654030 0.767155
O O16 0.676629 0.613612 0.638528
O O17 0.206351 0.000000 0.099479
O O18 0.162868 0.127111 0.953519
O O19 0.750000 0.750000 0.000000
#
# Coordination Sequence:
#
# PCOD9173331 Si02
#       8
#     8   8   8   8   8   8   8   8
#     4  11  21  35  58  88 123 160 198 241 301 371
#     4  10  18  30  51  81 116 147 179 230 295 358
#     4  10  20  37  56  86 120 151 197 245 302 361
#     4  11  19  32  53  84 121 153 188 234 292 367
#     4  11  23  39  63  93 121 157 207 264 317 365
#     4  10  21  34  53  82 114 148 191 244 303 360
#     4  11  23  42  62  84 114 163 207 254 307 366
#     4  11  20  36  58  87 121 159 196 246 305 367
#
# _framework density 18.116807999999999
#
# number of rings (size 3 to 8) (size 9 to 14) (size 15 to 20)
#    0.000    1.375    3.750    3.750    0.000    2.000 
#    0.000    1.250    0.000    0.000    0.000    7.875 
#    0.000    0.000    0.000    0.000    0.000    0.000 
#
# Total GULP energy -178212.331840 kJ/mol
# GULP energy per Si atom -5569.135370 kJ/mol
# Density = 1.807557 g / cm^3
# Si number density = 18.116808 Si / 1000 Ang^3
#
#
#
# Elastic Constant Matrix: (Units=GPa)
#
#
# Indices 1 2 3 4 5 6 
#
# 1 59.9660 30.0401 41.6961 0.0000 8.8632 0.0000
# 2 30.0401 112.9174 42.1685 0.0000 3.0165 0.0000
# 3 41.6961 42.1685 85.6405 0.0000 -11.3759 0.0000
# 4 0.0000 0.0000 0.0000 20.9170 0.0000 -1.0341
# 5 8.8632 3.0165 -11.3759 0.0000 20.9083 0.0000
# 6 0.0000 0.0000 0.0000 -1.0341 0.0000 21.5668
#
#
#
# Elastic Compliance Matrix: (Units=1/GPa)
#
#
# Indices 1 2 3 4 5 6 
#
# 1 0.034647 -0.001220 -0.019613 0.000000 -0.025182 0.000000
# 2 -0.001220 0.011365 -0.005552 0.000000 -0.004143 0.000000
# 3 -0.019613 -0.005552 0.027131 0.000000 0.023877 0.000000
# 4 0.000000 0.000000 0.000000 0.047922 0.000000 0.002298
# 5 -0.025182 -0.004143 0.023877 0.000000 0.072091 0.000000
# 6 0.000000 0.000000 0.000000 0.002298 0.000000 0.046478
#
#
# Mechanical properties :
#
#
# Convention : Reuss Voigt Hill
#
# Bulk Modulus (GPa) = 49.08627 54.03702 51.56165
# Shear Modulus (GPa) = 16.71155 22.31971 19.51563
#
# Velocity S-wave (km/s) = 3.04045 3.51378 3.28565
# Velocity P-wave (km/s) = 6.28323 6.80837 6.55107
#
# Compressibility (1/GPa) = 0.02037229
#
# Stress axis : x y z
#
# Youngs Moduli (GPa) = 28.86273 87.99125 36.85811
#
# Poissons Ratio (x) = 0.10737 0.72289
# Poissons Ratio (y) = 0.03522 0.20464
# Poissons Ratio (z) = 0.56608 0.48854
#
# Static dielectric constant tensor:
#      x y z
#    x 1.692460 0.000000 -0.037750 
#    y 0.000000 1.639710 0.000000 
#    z -0.037750 0.000000 1.664990 
# 
# From -- ./inp_files/240716.got.cif
#   From: 2010.05.17/outbox.cif.g08.bks.cpg/sg12_121_cif.got.tgz:240716.got - 2010.06.03 13:09:07.
