data_PCOD9173621
_publ_section_title
;
Structure prediction by ZEFSAII (Michael W. Deem and Ramdas Pophale) SiO2 
 PCOD9173621
Probable space group: C 2/M
;
_chemical_formula_sum "Si O2"
_cell_formula_units_Z 64
_cell_length_a 29.244410
_cell_length_b 8.800429
_cell_length_c 21.910352
_cell_angle_alpha 90.000000
_cell_angle_beta 132.962318
_cell_angle_gamma 90.000000
_cell_volume 4126.574592
_symmetry_space_group_name_H-M "C 2/M"
_symmetry_group_IT_number 12
_symmetry_cell_setting 'monoclinic'
loop_
_space_group_symop_operation_xyz
x,y,z
-x,y,-z
-x,-y,-z
x,-y,z
1/2+x,1/2+y,z
1/2-x,1/2+y,-z
1/2-x,1/2-y,-z
1/2+x,1/2-y,z
loop_
_atom_site_type_symbol
_atom_site_label
_atom_site_fract_x
_atom_site_fract_y
_atom_site_fract_z
Si Si1 0.776863 0.181715 0.169449
Si Si2 0.755860 0.682683 0.410912
Si Si3 0.802088 0.181941 0.002109
Si Si4 0.893125 0.817480 0.187254
Si Si5 0.648983 0.681330 0.404965
Si Si6 0.973414 0.681962 0.658744
Si Si7 0.194364 0.316638 0.673664
Si Si8 0.055508 0.684926 0.506090
O O1 0.839097 0.226446 0.187056
O O2 0.783959 0.241404 0.244191
O O3 0.773212 0.000000 0.164340
O O4 0.716706 0.250272 0.080061
O O5 0.764589 0.500000 0.423898
O O6 0.690021 0.721471 0.382576
O O7 0.809741 0.759466 0.500513
O O8 0.764176 0.722883 0.347829
O O9 0.866501 0.219795 0.095461
O O10 0.796674 0.000000 0.995550
O O11 0.750000 0.250000 0.000000
O O12 0.958324 0.739967 0.261332
O O13 0.899974 0.000000 0.197149
O O14 0.643733 0.500000 0.403248
O O15 0.581127 0.754730 0.347777
O O16 0.972257 0.500000 0.658543
O O17 0.957037 0.733572 0.574677
O O18 0.195063 0.500000 0.681415
O O19 0.123342 0.269589 0.592487
O O20 0.055130 0.500000 0.505505
O O21 0.000000 0.736327 0.500000
#
# Coordination Sequence:
#
# PCOD9173621 Si02
#       8
#     8   8   8   8   8   8   8   8
#     4  10  20  32  47  71 101 128 161 199 238 285
#     4   9  18  33  50  68  90 123 163 201 240 287
#     4   9  17  31  50  70  95 126 160 199 241 281
#     4   9  19  33  47  68  98 127 158 197 235 278
#     4  10  19  31  49  69  93 122 156 202 250 285
#     4  11  20  31  48  69  94 126 164 198 234 285
#     4  10  18  31  48  66  94 127 164 200 232 279
#     4   9  17  28  42  62  90 125 162 195 224 265
#
# _framework density 15.509231
#
# number of rings (size 3 to 8) (size 9 to 14) (size 15 to 20)
#    0.000    2.375    1.250    3.000    0.000    5.000 
#    0.000    0.000    0.000    2.625    0.000    0.875 
#    0.000    7.000    0.000    0.000    0.000    0.000 
#
# Total GULP energy -178394.665946 kJ/mol
# GULP energy per Si atom -5574.833311 kJ/mol
# Density = 1.547393 g / cm^3
# Si number density = 15.509231 Si / 1000 Ang^3
#
#
#
# Elastic Constant Matrix: (Units=GPa)
#
#
# Indices 1 2 3 4 5 6 
#
# 1 97.4843 32.0303 57.8398 0.0000 -12.6283 0.0000
# 2 32.0303 30.7560 38.5045 0.0000 -4.9448 0.0000
# 3 57.8398 38.5045 126.3148 0.0000 -20.1602 0.0000
# 4 0.0000 0.0000 0.0000 27.4692 0.0000 0.1794
# 5 -12.6283 -4.9448 -20.1602 0.0000 11.7741 0.0000
# 6 0.0000 0.0000 0.0000 0.1794 0.0000 19.8349
#
#
#
# Elastic Compliance Matrix: (Units=1/GPa)
#
#
# Indices 1 2 3 4 5 6 
#
# 1 0.017268 -0.013627 -0.002354 0.000000 0.008767 0.000000
# 2 -0.013627 0.063804 -0.015502 0.000000 -0.014363 0.000000
# 3 -0.002354 -0.015502 0.016895 0.000000 0.019894 0.000000
# 4 0.000000 0.000000 0.000000 0.036407 0.000000 -0.000329
# 5 0.008767 -0.014363 0.019894 0.000000 0.122367 0.000000
# 6 0.000000 0.000000 0.000000 -0.000329 0.000000 0.050419
#
#
# Mechanical properties :
#
#
# Convention : Reuss Voigt Hill
#
# Bulk Modulus (GPa) = 28.57021 56.81159 42.69090
# Shear Modulus (GPa) = 13.09616 20.22766 16.66191
#
# Velocity S-wave (km/s) = 2.90903 3.61534 3.28124
# Velocity P-wave (km/s) = 5.45387 7.35784 6.47621
#
# Compressibility (1/GPa) = 0.03500149
#
# Stress axis : x y z
#
# Youngs Moduli (GPa) = 57.91150 15.67305 59.18910
#
# Poissons Ratio (x) = 0.21358 0.13931
# Poissons Ratio (y) = 0.78916 0.91754
# Poissons Ratio (z) = 0.13631 0.24296
#
# Static dielectric constant tensor:
#      x y z
#    x 1.530340 0.000000 -0.024200 
#    y 0.000000 1.519960 0.000000 
#    z -0.024200 0.000000 1.530970 
# 
# From -- ./inp_files/326962.got.cif
#   From: 2010.05.17/outbox.cif.g08.bks.cpg/sg12_164_cif.got.tgz:326962.got - 2010.06.03 13:09:07.
