data_PCOD9173865
_publ_section_title
;
Structure prediction by ZEFSAII (Michael W. Deem and Ramdas Pophale) SiO2 
 PCOD9173865
Probable space group: C 2/M
;
_chemical_formula_sum "Si O2"
_cell_formula_units_Z 64
_cell_length_a 28.534158
_cell_length_b 7.340155
_cell_length_c 14.444794
_cell_angle_alpha 90.000000
_cell_angle_beta 106.218124
_cell_angle_gamma 90.000000
_cell_volume 2904.997634
_symmetry_space_group_name_H-M "C 2/M"
_symmetry_group_IT_number 12
_symmetry_cell_setting 'monoclinic'
loop_
_space_group_symop_operation_xyz
x,y,z
-x,y,-z
-x,-y,-z
x,-y,z
1/2+x,1/2+y,z
1/2-x,1/2+y,-z
1/2-x,1/2-y,-z
1/2+x,1/2-y,z
loop_
_atom_site_type_symbol
_atom_site_label
_atom_site_fract_x
_atom_site_fract_y
_atom_site_fract_z
Si Si1 0.589935 0.777808 0.644463
Si Si2 0.897242 0.277368 0.560444
Si Si3 0.533042 0.777841 0.932223
Si Si4 0.145882 0.277181 0.004684
Si Si5 0.704241 0.217753 0.408117
Si Si6 0.503297 0.777938 0.289377
Si Si7 0.320318 0.219130 0.177545
Si Si8 0.785219 0.714422 0.794422
O O1 0.596116 0.719848 0.542151
O O2 0.539190 0.721523 0.663173
O O3 0.635213 0.718489 0.732961
O O4 0.590050 0.000000 0.644628
O O5 0.896908 0.500000 0.559839
O O6 0.846016 0.215144 0.574481
O O7 0.943690 0.220242 0.646607
O O8 0.589352 0.721991 0.972781
O O9 0.510978 0.719828 0.821709
O O10 0.533046 0.000000 0.931862
O O11 0.500000 0.719371 0.000000
O O12 0.146543 0.500000 0.005313
O O13 0.171478 0.218596 0.923180
O O14 0.175579 0.212634 0.110490
O O15 0.750000 0.250000 0.500000
O O16 0.712481 0.288774 0.308544
O O17 0.699504 0.000000 0.399065
O O18 0.503327 0.000000 0.288988
O O19 0.268439 0.267780 0.191904
O O20 0.322802 0.000000 0.177130
O O21 0.795853 0.500000 0.792819
#
# Coordination Sequence:
#
# PCOD9173865 Si02
#       8
#     8   8   8   8   8   8   8   8
#     4   9  15  25  41  64  91 120 153 193 238 281
#     4   9  17  26  41  63  91 123 154 192 238 285
#     4   9  16  24  39  62  93 129 157 185 234 297
#     4   9  17  30  45  67  98 130 162 198 241 289
#     4  10  21  36  51  71  98 129 164 200 241 289
#     4   9  15  24  38  62  92 120 151 189 236 285
#     4  10  18  31  51  71  96 130 167 202 237 285
#     4  10  21  33  48  70  99 129 161 204 247 284
#
# _framework density 22.030998
#
# number of rings (size 3 to 8) (size 9 to 14) (size 15 to 20)
#    0.000    2.625    1.250    1.500    1.750    3.000 
#    0.000    0.000    0.000    0.000    0.000    0.875 
#    0.000    6.000    0.000    0.000    0.000    0.000 
#
# Total GULP energy -178875.559113 kJ/mol
# GULP energy per Si atom -5589.861222 kJ/mol
# Density = 2.198085 g / cm^3
# Si number density = 22.030998 Si / 1000 Ang^3
#
#
#
# Elastic Constant Matrix: (Units=GPa)
#
#
# Indices 1 2 3 4 5 6 
#
# 1 192.7288 1.5534 176.3373 0.0000 -2.5408 0.0000
# 2 1.5534 84.1285 8.4253 0.0000 -0.2893 0.0000
# 3 176.3373 8.4253 252.9715 0.0000 -1.3988 0.0000
# 4 0.0000 0.0000 0.0000 -5.2646 0.0000 0.7110
# 5 -2.5408 -0.2893 -1.3988 0.0000 48.0585 0.0000
# 6 0.0000 0.0000 0.0000 0.7110 0.0000 4.0986
#
#
#
# Elastic Compliance Matrix: (Units=1/GPa)
#
#
# Indices 1 2 3 4 5 6 
#
# 1 0.014381 0.000742 -0.010047 0.000000 0.000472 0.000000
# 2 0.000742 0.011965 -0.000915 0.000000 0.000085 0.000000
# 3 -0.010047 -0.000915 0.010985 0.000000 -0.000217 0.000000
# 4 0.000000 0.000000 0.000000 -0.185602 0.000000 0.032196
# 5 0.000472 0.000085 -0.000217 0.000000 0.020827 0.000000
# 6 0.000000 0.000000 0.000000 0.032196 0.000000 0.238401
#
#
# Mechanical properties :
#
#
# Convention : Reuss Voigt Hill
#
# Bulk Modulus (GPa) = 59.20057 100.27342 79.73700
# Shear Modulus (GPa) = 36.48900 32.27936 34.38418
#
# Velocity S-wave (km/s) = 4.07413 3.83192 3.95488
# Velocity P-wave (km/s) = 7.00437 8.07413 7.55820
#
# Compressibility (1/GPa) = 0.01689173
#
# Stress axis : x y z
#
# Youngs Moduli (GPa) = 69.53613 83.57824 91.02975
#
# Poissons Ratio (x) = -0.06203 0.91454
# Poissons Ratio (y) = -0.05161 0.08333
# Poissons Ratio (z) = 0.69860 0.07651
#
# Static dielectric constant tensor:
#      x y z
#    x 1.736960 0.000000 -0.003350 
#    y 0.000000 1.915070 0.000000 
#    z -0.003350 0.000000 1.765290 
# 
# From -- ./inp_files/174719.got.cif
#   From: 2010.05.17/outbox.cif.g08.bks.cpg/sg12_88_cif.got.tgz:174719.got - 2010.06.03 13:09:07.
