data_PCOD9173099
_publ_section_title
;
Structure prediction by ZEFSAII (Michael W. Deem and Ramdas Pophale) SiO2 
 PCOD9173099
Probable space group: C 2/M
;
_chemical_formula_sum "Si O2"
_cell_formula_units_Z 56
_cell_length_a 28.745143
_cell_length_b 13.235380
_cell_length_c 11.067516
_cell_angle_alpha 90.000000
_cell_angle_beta 128.140492
_cell_angle_gamma 90.000000
_cell_volume 3311.685497
_symmetry_space_group_name_H-M "C 2/M"
_symmetry_group_IT_number 12
_symmetry_cell_setting 'monoclinic'
loop_
_space_group_symop_operation_xyz
x,y,z
-x,y,-z
-x,-y,-z
x,-y,z
1/2+x,1/2+y,z
1/2-x,1/2+y,-z
1/2-x,1/2-y,-z
1/2+x,1/2-y,z
loop_
_atom_site_type_symbol
_atom_site_label
_atom_site_fract_x
_atom_site_fract_y
_atom_site_fract_z
Si Si1 0.050179 0.619623 0.276711
Si Si2 0.696061 0.113768 0.147935
Si Si3 0.730352 0.776770 0.832844
Si Si4 0.894905 0.381984 0.369754
Si Si5 0.335459 0.198827 0.654413
Si Si6 0.770025 0.880548 0.672843
Si Si7 0.426278 0.122005 0.157237
O O1 0.053437 0.500000 0.247440
O O2 0.070751 0.626270 0.449629
O O3 0.097020 0.682884 0.274978
O O4 0.982273 0.655783 0.168481
O O5 0.755082 0.174975 0.216613
O O6 0.680502 0.122934 0.262772
O O7 0.703175 0.000000 0.118254
O O8 0.638139 0.158577 0.988218
O O9 0.663635 0.814716 0.725144
O O10 0.768398 0.856998 0.814030
O O11 0.750000 0.750000 0.000000
O O12 0.876605 0.500000 0.328722
O O13 0.932114 0.357494 0.309145
O O14 0.292937 0.162334 0.477584
O O15 0.316704 0.308958 0.676149
O O16 0.775755 0.000000 0.659803
O O17 0.425993 0.000000 0.142848
#
# Coordination Sequence:
#
# PCOD9173099 Si02
#       7
#     8   8   8   8   8   8   8
#     4  10  18  30  50  74 101 136 174 206 248 312
#     4  10  20  32  45  70 107 134 162 211 254 300
#     4  11  20  30  50  74  98 130 170 204 258 307
#     4  10  18  31  49  72 103 133 167 212 255 308
#     4  10  20  32  50  75 101 134 174 205 244 301
#     4  10  20  35  52  73 103 137 170 211 255 300
#     4   9  18  30  46  70 102 139 169 203 258 307
#
# _framework density 16.909818999999999
#
# number of rings (size 3 to 8) (size 9 to 14) (size 15 to 20)
#    0.000    2.000    2.857    2.143    0.000    2.857 
#    0.000    2.143    0.000    0.000    0.000   10.000 
#    0.000    2.286    0.000    0.000    0.000    0.000 
#
# Total GULP energy -155964.500745 kJ/mol
# GULP energy per Si atom -5570.160741 kJ/mol
# Density = 1.687133 g / cm^3
# Si number density = 16.909819 Si / 1000 Ang^3
#
#
#
# Elastic Constant Matrix: (Units=GPa)
#
#
# Indices 1 2 3 4 5 6 
#
# 1 109.5434 39.1851 4.7977 0.0000 6.8793 0.0000
# 2 39.1851 76.8190 7.7310 0.0000 10.7618 0.0000
# 3 4.7977 7.7310 34.2012 0.0000 -7.1506 0.0000
# 4 0.0000 0.0000 0.0000 13.5005 0.0000 3.3951
# 5 6.8793 10.7618 -7.1506 0.0000 26.6419 0.0000
# 6 0.0000 0.0000 0.0000 3.3951 0.0000 21.0978
#
#
#
# Elastic Compliance Matrix: (Units=1/GPa)
#
#
# Indices 1 2 3 4 5 6 
#
# 1 0.011183 -0.005548 -0.000477 0.000000 -0.000774 0.000000
# 2 -0.005548 0.017250 -0.004533 0.000000 -0.006752 0.000000
# 3 -0.000477 -0.004533 0.032566 0.000000 0.010695 0.000000
# 4 0.000000 0.000000 0.000000 0.077195 0.000000 -0.012422
# 5 -0.000774 -0.006752 0.010695 0.000000 0.043333 0.000000
# 6 0.000000 0.000000 0.000000 -0.012422 0.000000 0.049397
#
#
# Mechanical properties :
#
#
# Convention : Reuss Voigt Hill
#
# Bulk Modulus (GPa) = 25.07234 35.99900 30.53567
# Shear Modulus (GPa) = 18.84426 23.50469 21.17447
#
# Velocity S-wave (km/s) = 3.34188 3.73232 3.54248
# Velocity P-wave (km/s) = 5.45437 6.31733 5.90164
#
# Compressibility (1/GPa) = 0.03988460
#
# Stress axis : x y z
#
# Youngs Moduli (GPa) = 89.42258 57.97238 30.70674
#
# Poissons Ratio (x) = 0.32162 0.01463
# Poissons Ratio (y) = 0.49611 0.13918
# Poissons Ratio (z) = 0.04262 0.26276
#
# Static dielectric constant tensor:
#      x y z
#    x 1.601270 0.000000 -0.029180 
#    y 0.000000 1.562300 0.000000 
#    z -0.029180 0.000000 1.639700 
# 
# From -- ./inp_files/181933.got.cif
#   From: 2010.05.17/outbox.cif.g08.bks.cpg/sg12_91_cif.got.tgz:181933.got - 2010.06.03 13:09:07.
