data_PCOD9173448
_publ_section_title
;
Structure prediction by ZEFSAII (Michael W. Deem and Ramdas Pophale) SiO2 
 PCOD9173448
Probable space group: C 2/M
;
_chemical_formula_sum "Si O2"
_cell_formula_units_Z 56
_cell_length_a 20.446553
_cell_length_b 18.011522
_cell_length_c 9.746906
_cell_angle_alpha 90.000000
_cell_angle_beta 46.717171
_cell_angle_gamma 90.000000
_cell_volume 2613.098027
_symmetry_space_group_name_H-M "C 2/M"
_symmetry_group_IT_number 12
_symmetry_cell_setting 'monoclinic'
loop_
_space_group_symop_operation_xyz
x,y,z
-x,y,-z
-x,-y,-z
x,-y,z
1/2+x,1/2+y,z
1/2-x,1/2+y,-z
1/2-x,1/2-y,-z
1/2+x,1/2-y,z
loop_
_atom_site_type_symbol
_atom_site_label
_atom_site_fract_x
_atom_site_fract_y
_atom_site_fract_z
Si Si1 0.414851 0.814098 0.722249
Si Si2 0.822645 0.584283 0.641015
Si Si3 0.349287 0.217986 0.398305
Si Si4 0.097295 0.918211 0.338294
Si Si5 0.611321 0.417878 0.992869
Si Si6 0.401655 0.247591 0.027930
Si Si7 0.694153 0.293367 0.285367
O O1 0.500000 0.812401 0.500000
O O2 0.358287 0.882054 0.735184
O O3 0.352386 0.743735 0.778094
O O4 0.437958 0.803406 0.849493
O O5 0.855387 0.500000 0.577063
O O6 0.847634 0.639129 0.479184
O O7 0.714879 0.584148 0.797572
O O8 0.250000 0.250000 0.500000
O O9 0.408388 0.221457 0.176860
O O10 0.369123 0.273625 0.494462
O O11 0.183647 0.879761 0.279371
O O12 0.000000 0.880323 0.500000
O O13 0.089147 0.000000 0.411224
O O14 0.110344 0.921025 0.158133
O O15 0.574920 0.500000 0.999731
O O16 0.573499 0.335401 0.012875
O O17 0.293117 0.238260 0.159247
#
# Coordination Sequence:
#
# PCOD9173448 Si02
#       7
#     8   8   8   8   8   8   8
#     4  11  21  33  56  82 107 141 183 222 266 312
#     4  10  20  37  57  79 110 143 176 221 273 325
#     4   9  18  34  54  81 106 137 178 221 267 314
#     4  10  20  32  49  77 112 144 179 225 270 312
#     4  10  18  30  53  79 105 142 179 215 270 314
#     4  11  19  35  57  80 111 138 179 230 260 316
#     4  10  18  33  53  77 104 139 179 224 260 319
#
# _framework density 21.430502000000001
#
# number of rings (size 3 to 8) (size 9 to 14) (size 15 to 20)
#    0.000    1.857    5.714    1.714    0.000    0.286 
#    0.000    7.143    0.000    0.857    0.000    3.000 
#    0.000    0.000    0.000    0.000    0.000    0.000 
#
# Total GULP energy -155878.830689 kJ/mol
# GULP energy per Si atom -5567.101096 kJ/mol
# Density = 2.138173 g / cm^3
# Si number density = 21.430502 Si / 1000 Ang^3
#
#
#
# Elastic Constant Matrix: (Units=GPa)
#
#
# Indices 1 2 3 4 5 6 
#
# 1 50.6561 25.5015 10.7167 0.0000 24.9694 0.0000
# 2 25.5015 151.7152 29.0007 0.0000 20.8200 0.0000
# 3 10.7167 29.0007 144.5294 0.0000 32.5221 0.0000
# 4 0.0000 0.0000 0.0000 23.7007 0.0000 5.3949
# 5 24.9694 20.8200 32.5221 0.0000 36.3859 0.0000
# 6 0.0000 0.0000 0.0000 5.3949 0.0000 9.6412
#
#
#
# Elastic Compliance Matrix: (Units=1/GPa)
#
#
# Indices 1 2 3 4 5 6 
#
# 1 0.031976 -0.002823 0.003467 0.000000 -0.023427 0.000000
# 2 -0.002823 0.007450 -0.000954 0.000000 -0.001473 0.000000
# 3 0.003467 -0.000954 0.009095 0.000000 -0.009962 0.000000
# 4 0.000000 0.000000 0.000000 0.048351 0.000000 -0.027056
# 5 -0.023427 -0.001473 -0.009962 0.000000 0.053307 0.000000
# 6 0.000000 0.000000 0.000000 -0.027056 0.000000 0.118861
#
#
# Mechanical properties :
#
#
# Convention : Reuss Voigt Hill
#
# Bulk Modulus (GPa) = 20.87607 53.03762 36.95684
# Shear Modulus (GPa) = 17.50527 32.72435 25.11481
#
# Velocity S-wave (km/s) = 2.86114 3.91192 3.42704
# Velocity P-wave (km/s) = 4.54723 6.72358 5.73950
#
# Compressibility (1/GPa) = 0.04790175
#
# Stress axis : x y z
#
# Youngs Moduli (GPa) = 31.27343 134.22270 109.94862
#
# Poissons Ratio (x) = 0.37886 -0.38118
# Poissons Ratio (y) = 0.08827 0.10491
# Poissons Ratio (z) = -0.10842 0.12807
#
# Static dielectric constant tensor:
#      x y z
#    x 1.894660 0.000000 -0.021000 
#    y 0.000000 1.848440 0.000000 
#    z -0.021000 0.000000 1.853390 
# 
# From -- ./inp_files/98082.got.cif
#   From: 2010.05.17/outbox.cif.g08.bks.cpg/sg12_50_cif.got.tgz:98082.got - 2010.06.03 13:09:07.
