data_PCOD9173490
_publ_section_title
;
Structure prediction by ZEFSAII (Michael W. Deem and Ramdas Pophale) SiO2 
 PCOD9173490
Probable space group: C 2/M
;
_chemical_formula_sum "Si O2"
_cell_formula_units_Z 56
_cell_length_a 13.815566
_cell_length_b 21.280771
_cell_length_c 17.080159
_cell_angle_alpha 90.000000
_cell_angle_beta 34.099233
_cell_angle_gamma 90.000000
_cell_volume 2815.286928
_symmetry_space_group_name_H-M "C 2/M"
_symmetry_group_IT_number 12
_symmetry_cell_setting 'monoclinic'
loop_
_space_group_symop_operation_xyz
x,y,z
-x,y,-z
-x,-y,-z
x,-y,z
1/2+x,1/2+y,z
1/2-x,1/2+y,-z
1/2-x,1/2-y,-z
1/2+x,1/2-y,z
loop_
_atom_site_type_symbol
_atom_site_label
_atom_site_fract_x
_atom_site_fract_y
_atom_site_fract_z
Si Si1 0.815429 0.830916 0.941147
Si Si2 0.707806 0.299721 0.458923
Si Si3 0.035268 0.721237 0.850149
Si Si4 0.841978 0.224428 0.751086
Si Si5 0.912170 0.928394 0.228686
Si Si6 0.812176 0.428656 0.463938
Si Si7 0.391832 0.141238 0.650804
O O1 0.863678 0.802250 0.823511
O O2 0.915688 0.783707 0.933122
O O3 0.900008 0.898082 0.894571
O O4 0.608791 0.828413 0.081615
O O5 0.750000 0.250000 0.500000
O O6 0.814620 0.272715 0.314952
O O7 0.500857 0.302222 0.593802
O O8 0.771790 0.370067 0.434929
O O9 0.152101 0.707354 0.847058
O O10 0.863155 0.299332 0.726022
O O11 0.827982 0.925664 0.371774
O O12 0.787233 0.886977 0.258448
O O13 0.911758 0.000000 0.202910
O O14 0.811939 0.500000 0.432751
O O15 0.993677 0.411454 0.383449
O O16 0.500000 0.160440 0.500000
#
# Coordination Sequence:
#
# PCOD9173490 Si02
#       7
#     8   8   8   8   8   8   8
#     4  11  22  38  56  87 117 155 196 232 297 350
#     4  12  20  36  59  86 115 153 195 241 296 344
#     4  11  23  37  57  85 119 151 189 249 293 340
#     4  12  21  35  61  86 120 148 192 247 289 346
#     4  10  19  35  57  82 119 159 195 236 286 353
#     4  10  19  32  55  85 120 153 194 243 292 351
#     4  10  18  30  53  90 120 150 190 242 302 346
#
# _framework density 19.891399
#
# number of rings (size 3 to 8) (size 9 to 14) (size 15 to 20)
#    0.000    1.143    5.714    2.143    0.000    1.714 
#    0.000    0.714    0.000    5.143    0.000    4.000 
#    0.000    0.000    0.000    0.000    0.000    0.000 
#
# Total GULP energy -156342.805280 kJ/mol
# GULP energy per Si atom -5583.671617 kJ/mol
# Density = 1.984613 g / cm^3
# Si number density = 19.891399 Si / 1000 Ang^3
#
#
#
# Elastic Constant Matrix: (Units=GPa)
#
#
# Indices 1 2 3 4 5 6 
#
# 1 58.7187 13.6290 16.4491 0.0040 -29.8656 -0.0037
# 2 13.6290 92.3538 5.7338 -0.0150 -8.4950 0.0026
# 3 16.4491 5.7338 84.8723 -0.0306 -30.6804 -0.0004
# 4 0.0040 -0.0150 -0.0306 17.5714 -0.0016 -2.6359
# 5 -29.8656 -8.4950 -30.6804 -0.0016 38.2561 0.0023
# 6 -0.0037 0.0026 -0.0004 -2.6359 0.0023 18.9888
#
#
#
# Elastic Compliance Matrix: (Units=1/GPa)
#
#
# Indices 1 2 3 4 5 6 
#
# 1 0.029456 -0.002235 0.003627 0.000000 0.025408 0.000003
# 2 -0.002235 0.011226 -0.000077 0.000010 0.000686 -0.000001
# 3 0.003627 -0.000077 0.017043 0.000031 0.016482 0.000003
# 4 0.000000 0.000010 0.000031 0.058121 0.000029 0.008068
# 5 0.025408 0.000686 0.016482 0.000029 0.059346 0.000002
# 6 0.000003 -0.000001 0.000003 0.008068 0.000002 0.053783
#
#
# Mechanical properties :
#
#
# Convention : Reuss Voigt Hill
#
# Bulk Modulus (GPa) = 16.56898 34.17430 25.37164
# Shear Modulus (GPa) = 20.28705 28.30546 24.29626
#
# Velocity S-wave (km/s) = 3.19704 3.77636 3.49871
# Velocity P-wave (km/s) = 4.68784 6.01932 5.39482
#
# Compressibility (1/GPa) = 0.06035373
#
# Stress axis : x y z
#
# Youngs Moduli (GPa) = 33.94875 89.08166 58.67574
#
# Poissons Ratio (x) = 0.19910 -0.21281
# Poissons Ratio (y) = 0.07588 0.00453
# Poissons Ratio (z) = -0.12313 0.00688
#
# Static dielectric constant tensor:
#      x y z
#    x 1.752490 0.000000 0.012680 
#    y 0.000000 1.682900 0.000000 
#    z 0.012680 0.000000 1.746560 
# 
# From -- ./inp_files/217650.got.cif
#   From: 2010.05.17/outbox.cif.g08.bks.cpg/sg12_109_cif.got.tgz:217650.got - 2010.06.03 13:09:07.
