data_PCOD9173031
_publ_section_title
;
Structure prediction by ZEFSAII (Michael W. Deem and Ramdas Pophale) SiO2 
 PCOD9173031
Probable space group: C 2/M
;
_chemical_formula_sum "Si O2"
_cell_formula_units_Z 44
_cell_length_a 8.497671
_cell_length_b 21.085269
_cell_length_c 12.511433
_cell_angle_alpha 90.000000
_cell_angle_beta 112.220900
_cell_angle_gamma 90.000000
_cell_volume 2075.256183
_symmetry_space_group_name_H-M "C 2/M"
_symmetry_group_IT_number 12
_symmetry_cell_setting 'monoclinic'
loop_
_space_group_symop_operation_xyz
x,y,z
-x,y,-z
-x,-y,-z
x,-y,z
1/2+x,1/2+y,z
1/2-x,1/2+y,-z
1/2-x,1/2-y,-z
1/2+x,1/2-y,z
loop_
_atom_site_type_symbol
_atom_site_label
_atom_site_fract_x
_atom_site_fract_y
_atom_site_fract_z
Si Si1 0.527458 0.108922 0.775381
Si Si2 0.504621 0.500000 0.829205
Si Si3 0.500000 0.745267 0.500000
Si Si4 0.644942 0.627796 0.294723
Si Si5 0.174190 0.429848 0.475529
Si Si6 0.704280 0.000000 0.933449
Si Si7 0.354404 0.224804 0.679799
O O1 0.693419 0.119015 0.742908
O O2 0.383675 0.079890 0.660352
O O3 0.446458 0.176578 0.782504
O O4 0.588231 0.061421 0.882086
O O5 0.477143 0.568184 0.763949
O O6 0.352293 0.500000 0.879302
O O7 0.688527 0.500000 0.931349
O O8 0.573440 0.786120 0.421476
O O9 0.655464 0.713481 0.604371
O O10 0.700221 0.616891 0.431443
O O11 0.606040 0.702670 0.277461
O O12 0.248861 0.500000 0.506818
O O13 0.000000 0.429187 0.500000
#
# Coordination Sequence:
#
# PCOD9173031 Si02
#       7
#     8   4   4   8   8   4   8
#     4  10  18  30  49  76 106 140 172 216 265 312
#     4   9  18  33  53  77 102 131 180 238 273 294
#     4  10  20  32  48  76 116 152 170 204 256 314
#     4  10  18  30  49  76 106 140 172 216 265 312
#     4   9  14  22  40  69  99 124 162 206 258 306
#     4   9  18  33  53  77 102 131 180 238 273 294
#     4  11  20  32  49  78 114 146 175 207 256 322
#
# _framework density 21.202202
#
# number of rings (size 3 to 8) (size 9 to 14) (size 15 to 20)
#    0.000    2.182    3.636    2.182    2.545    0.000 
#    0.000    0.909    0.000    2.182    0.000    1.273 
#    0.000    0.000    0.000    0.000    0.000    0.000 
#
# Total GULP energy -122527.414464 kJ/mol
# GULP energy per Si atom -5569.427930 kJ/mol
# Density = 2.115394 g / cm^3
# Si number density = 21.202202 Si / 1000 Ang^3
#
#
#
# Elastic Constant Matrix: (Units=GPa)
#
#
# Indices 1 2 3 4 5 6 
#
# 1 37.4366 13.7320 19.3221 0.0000 16.1129 0.0000
# 2 13.7320 204.3400 88.7325 0.0000 38.6895 0.0000
# 3 19.3221 88.7325 112.3605 0.0000 41.4727 0.0000
# 4 0.0000 0.0000 0.0000 23.6474 0.0000 13.5232
# 5 16.1129 38.6895 41.4727 0.0000 25.8239 0.0000
# 6 0.0000 0.0000 0.0000 13.5232 0.0000 24.6845
#
#
#
# Elastic Compliance Matrix: (Units=1/GPa)
#
#
# Indices 1 2 3 4 5 6 
#
# 1 0.038298 0.001930 0.004364 0.000000 -0.033797 0.000000
# 2 0.001930 0.007736 -0.004220 0.000000 -0.006017 0.000000
# 3 0.004364 -0.004220 0.024933 0.000000 -0.036443 0.000000
# 4 0.000000 0.000000 0.000000 0.061581 0.000000 -0.033737
# 5 -0.033797 -0.006017 -0.036443 0.000000 0.127353 0.000000
# 6 0.000000 0.000000 0.000000 -0.033737 0.000000 0.058994
#
#
# Mechanical properties :
#
#
# Convention : Reuss Voigt Hill
#
# Bulk Modulus (GPa) = 13.31281 66.41228 39.86254
# Shear Modulus (GPa) = 14.71522 30.32118 22.51820
#
# Velocity S-wave (km/s) = 2.63733 3.78576 3.26248
# Velocity P-wave (km/s) = 3.94545 7.10638 5.74749
#
# Compressibility (1/GPa) = 0.07511564
#
# Stress axis : x y z
#
# Youngs Moduli (GPa) = 26.11127 129.26763 40.10672
#
# Poissons Ratio (x) = -0.24951 -0.17504
# Poissons Ratio (y) = -0.05040 0.16926
# Poissons Ratio (z) = -0.11396 0.54555
#
# Static dielectric constant tensor:
#      x y z
#    x 1.820370 0.000000 0.020860 
#    y 0.000000 1.862540 0.000000 
#    z 0.020860 0.000000 1.726520 
# 
# From -- ./inp_files/197279.got.cif
#   From: 2010.05.17/outbox.cif.g08.bks.cpg/sg12_99_cif.got.tgz:197279.got - 2010.06.03 13:09:07.
