data_PCOD9173778
_publ_section_title
;
Structure prediction by ZEFSAII (Michael W. Deem and Ramdas Pophale) SiO2 
 PCOD9173778
Probable space group: C 2/M
;
_chemical_formula_sum "Si O2"
_cell_formula_units_Z 56
_cell_length_a 27.233856
_cell_length_b 7.509336
_cell_length_c 17.786256
_cell_angle_alpha 90.000000
_cell_angle_beta 134.448164
_cell_angle_gamma 90.000000
_cell_volume 2596.707480
_symmetry_space_group_name_H-M "C 2/M"
_symmetry_group_IT_number 12
_symmetry_cell_setting 'monoclinic'
loop_
_space_group_symop_operation_xyz
x,y,z
-x,y,-z
-x,-y,-z
x,-y,z
1/2+x,1/2+y,z
1/2-x,1/2+y,-z
1/2-x,1/2-y,-z
1/2+x,1/2-y,z
loop_
_atom_site_type_symbol
_atom_site_label
_atom_site_fract_x
_atom_site_fract_y
_atom_site_fract_z
Si Si1 0.161052 0.718519 0.050156
Si Si2 0.354082 0.207573 0.373573
Si Si3 0.327115 0.787352 0.609777
Si Si4 0.699968 0.216103 0.255444
Si Si5 0.311494 0.703062 0.164261
Si Si6 0.573774 0.797604 0.824875
Si Si7 0.436052 0.218917 0.602292
O O1 0.161513 0.500000 0.049040
O O2 0.161728 0.771870 0.138023
O O3 0.234684 0.775258 0.094584
O O4 0.099545 0.782002 0.931171
O O5 0.279291 0.223930 0.333058
O O6 0.346263 0.295078 0.283985
O O7 0.410125 0.277810 0.492533
O O8 0.368030 0.000000 0.373874
O O9 0.250000 0.750000 0.500000
O O10 0.332404 0.721174 0.701106
O O11 0.381361 0.721984 0.606728
O O12 0.336311 0.000000 0.622314
O O13 0.701616 0.000000 0.257688
O O14 0.305697 0.500000 0.131914
O O15 0.359658 0.800176 0.157090
O O16 0.510621 0.719893 0.710176
O O17 0.552318 0.000000 0.819262
O O18 0.435035 0.000000 0.597227
#
# Coordination Sequence:
#
# PCOD9173778 Si02
#       7
#     8   8   8   8   8   8   8
#     4   8  16  31  51  73  97 126 163 203 244 288
#     4  10  18  31  50  73 100 129 164 200 243 295
#     4  10  18  31  51  75 102 130 162 200 242 287
#     4   9  17  30  50  76 102 126 158 206 249 281
#     4  10  20  34  51  74 100 124 163 211 249 287
#     4  10  19  34  52  69  96 135 169 199 241 293
#     4   9  19  32  48  73 103 130 163 203 240 289
#
# _framework density 21.565771999999999
#
# number of rings (size 3 to 8) (size 9 to 14) (size 15 to 20)
#    0.000    2.571    1.429    2.143    0.000    0.571 
#    0.000    8.571    0.000    4.286    0.000    0.000 
#    0.000    6.857    0.000    0.000    0.000    0.000 
#
# Total GULP energy -156281.607495 kJ/mol
# GULP energy per Si atom -5581.485982 kJ/mol
# Density = 2.151669 g / cm^3
# Si number density = 21.565772 Si / 1000 Ang^3
#
#
#
# Elastic Constant Matrix: (Units=GPa)
#
#
# Indices 1 2 3 4 5 6 
#
# 1 24.7463 -6.1589 12.7081 0.0000 -13.6668 0.0000
# 2 -6.1589 59.1448 -2.1263 0.0000 1.4461 0.0000
# 3 12.7081 -2.1263 168.8485 0.0000 -14.0234 0.0000
# 4 0.0000 0.0000 0.0000 8.6373 0.0000 0.9053
# 5 -13.6668 1.4461 -14.0234 0.0000 19.2686 0.0000
# 6 0.0000 0.0000 0.0000 0.9053 0.0000 12.8184
#
#
#
# Elastic Compliance Matrix: (Units=1/GPa)
#
#
# Indices 1 2 3 4 5 6 
#
# 1 0.068674 0.005950 -0.001155 0.000000 0.047422 0.000000
# 2 0.005950 0.017456 0.000015 0.000000 0.002921 0.000000
# 3 -0.001155 0.000015 0.006324 0.000000 0.003782 0.000000
# 4 0.000000 0.000000 0.000000 0.116640 0.000000 -0.008238
# 5 0.047422 0.002921 0.003782 0.000000 0.088066 0.000000
# 6 0.000000 0.000000 0.000000 -0.008238 0.000000 0.078595
#
#
# Mechanical properties :
#
#
# Convention : Reuss Voigt Hill
#
# Bulk Modulus (GPa) = 9.79684 29.06504 19.43094
# Shear Modulus (GPa) = 12.49496 24.69930 18.59713
#
# Velocity S-wave (km/s) = 2.40966 3.38790 2.93976
# Velocity P-wave (km/s) = 3.50636 5.36754 4.53349
#
# Compressibility (1/GPa) = 0.10207377
#
# Stress axis : x y z
#
# Youngs Moduli (GPa) = 14.56149 57.28564 158.13552
#
# Poissons Ratio (x) = -0.34087 0.18268
# Poissons Ratio (y) = -0.08665 -0.00231
# Poissons Ratio (z) = 0.01682 -0.00084
#
# Static dielectric constant tensor:
#      x y z
#    x 1.729830 0.000000 -0.022620 
#    y 0.000000 1.820430 0.000000 
#    z -0.022620 0.000000 1.802650 
# 
# From -- ./inp_files/288397.got.cif
#   From: 2010.05.17/outbox.cif.g08.bks.cpg/sg12_145_cif.got.tgz:288397.got - 2010.06.03 13:09:07.
