data_PCOD9173834
_publ_section_title
;
Structure prediction by ZEFSAII (Michael W. Deem and Ramdas Pophale) SiO2 
 PCOD9173834
Probable space group: C 2/M
;
_chemical_formula_sum "Si O2"
_cell_formula_units_Z 48
_cell_length_a 25.351874
_cell_length_b 7.454906
_cell_length_c 11.454852
_cell_angle_alpha 90.000000
_cell_angle_beta 99.903208
_cell_angle_gamma 90.000000
_cell_volume 2132.661397
_symmetry_space_group_name_H-M "C 2/M"
_symmetry_group_IT_number 12
_symmetry_cell_setting 'monoclinic'
loop_
_space_group_symop_operation_xyz
x,y,z
-x,y,-z
-x,-y,-z
x,-y,z
1/2+x,1/2+y,z
1/2-x,1/2+y,-z
1/2-x,1/2-y,-z
1/2+x,1/2-y,z
loop_
_atom_site_type_symbol
_atom_site_label
_atom_site_fract_x
_atom_site_fract_y
_atom_site_fract_z
Si Si1 0.186750 0.784872 0.476897
Si Si2 0.013856 0.218488 0.640616
Si Si3 0.864094 0.218968 0.301476
Si Si4 0.850638 0.790839 0.778831
Si Si5 0.965102 0.781200 0.874368
Si Si6 0.740874 0.288385 0.862928
O O1 0.250000 0.750000 0.500000
O O2 0.158121 0.721574 0.581990
O O3 0.158362 0.709562 0.351899
O O4 0.181249 0.000000 0.474405
O O5 0.074984 0.274625 0.689869
O O6 0.000000 0.274687 0.500000
O O7 0.981726 0.272108 0.747018
O O8 0.010144 0.000000 0.635858
O O9 0.817558 0.279737 0.196341
O O10 0.865617 0.000000 0.298382
O O11 0.902983 0.723235 0.865299
O O12 0.792893 0.782556 0.816615
O O13 0.862758 0.000000 0.766148
O O14 0.969681 0.000000 0.878057
O O15 0.000000 0.720014 0.000000
O O16 0.740726 0.500000 0.839094
O O17 0.750000 0.250000 0.000000
#
# Coordination Sequence:
#
# PCOD9173834 Si02
#       6
#     8   8   8   8   8   8
#     4  10  18  31  50  77 109 137 171 214 264 318
#     4   9  16  28  47  72 103 138 174 217 269 318
#     4   9  18  31  50  76 107 138 173 218 267 319
#     4  10  20  34  55  81 110 139 174 222 271 324
#     4   9  18  30  48  76 106 136 175 223 274 319
#     4  11  23  37  54  78 109 144 181 219 266 320
#
# _framework density 22.507088
#
# number of rings (size 3 to 8) (size 9 to 14) (size 15 to 20)
#    0.000    2.333    1.667    1.500    2.333    4.000 
#    0.000    0.000    0.000    0.500    0.000    0.000 
#    0.000    6.667    0.000    0.000    0.000    0.000 
#
# Total GULP energy -133855.053985 kJ/mol
# GULP energy per Si atom -5577.293916 kJ/mol
# Density = 2.245586 g / cm^3
# Si number density = 22.507088 Si / 1000 Ang^3
#
#
#
# Elastic Constant Matrix: (Units=GPa)
#
#
# Indices 1 2 3 4 5 6 
#
# 1 115.6638 -3.0779 50.6156 0.0000 32.4932 0.0000
# 2 -3.0779 63.3331 0.9711 0.0000 5.4773 0.0000
# 3 50.6156 0.9711 161.5003 0.0000 31.7986 0.0000
# 4 0.0000 0.0000 0.0000 -1.8820 0.0000 4.0366
# 5 32.4932 5.4773 31.7986 0.0000 44.2776 0.0000
# 6 0.0000 0.0000 0.0000 4.0366 0.0000 14.1249
#
#
#
# Elastic Compliance Matrix: (Units=1/GPa)
#
#
# Indices 1 2 3 4 5 6 
#
# 1 0.011659 0.001213 -0.002268 0.000000 -0.007077 0.000000
# 2 0.001213 0.016103 0.000105 0.000000 -0.002958 0.000000
# 3 -0.002268 0.000105 0.007660 0.000000 -0.003850 0.000000
# 4 0.000000 0.000000 0.000000 -0.329427 0.000000 0.094143
# 5 -0.007077 -0.002958 -0.003850 0.000000 0.030909 0.000000
# 6 0.000000 0.000000 0.000000 0.094143 0.000000 0.043893
#
#
# Mechanical properties :
#
#
# Convention : Reuss Voigt Hill
#
# Bulk Modulus (GPa) = 29.82991 48.61274 39.22132
# Shear Modulus (GPa) = -24.25644 30.77000 3.25678
#
# Velocity S-wave (km/s) = -3.28643 3.70148 1.20422
# Velocity P-wave (km/s) = 1.05760 6.31772 4.40427
#
# Compressibility (1/GPa) = 0.03352340
#
# Stress axis : x y z
#
# Youngs Moduli (GPa) = 85.77350 62.10137 130.54680
#
# Poissons Ratio (x) = -0.07536 0.29605
# Poissons Ratio (y) = -0.10408 -0.01375
# Poissons Ratio (z) = 0.19451 -0.00654
#
# Static dielectric constant tensor:
#      x y z
#    x 1.842520 0.000000 0.030010 
#    y 0.000000 1.901620 0.000000 
#    z 0.030010 0.000000 1.804320 
# 
# From -- ./inp_files/164288.got.cif
#   From: 2010.05.17/outbox.cif.g08.bks.cpg/sg12_83_cif.got.tgz:164288.got - 2010.06.03 13:09:07.
