data_PCOD9173245
_publ_section_title
;
Structure prediction by ZEFSAII (Michael W. Deem and Ramdas Pophale) SiO2 
 PCOD9173245
Probable space group: C 2/M
;
_chemical_formula_sum "Si O2"
_cell_formula_units_Z 64
_cell_length_a 19.488167
_cell_length_b 7.423295
_cell_length_c 20.985934
_cell_angle_alpha 90.000000
_cell_angle_beta 83.515771
_cell_angle_gamma 90.000000
_cell_volume 3016.538686
_symmetry_space_group_name_H-M "C 2/M"
_symmetry_group_IT_number 12
_symmetry_cell_setting 'monoclinic'
loop_
_space_group_symop_operation_xyz
x,y,z
-x,y,-z
-x,-y,-z
x,-y,z
1/2+x,1/2+y,z
1/2-x,1/2+y,-z
1/2-x,1/2-y,-z
1/2+x,1/2-y,z
loop_
_atom_site_type_symbol
_atom_site_label
_atom_site_fract_x
_atom_site_fract_y
_atom_site_fract_z
Si Si1 0.437022 0.220239 0.367696
Si Si2 0.584055 0.779677 0.406752
Si Si3 0.450174 0.210946 0.221701
Si Si4 0.830834 0.284662 0.479545
Si Si5 0.700223 0.717888 0.810132
Si Si6 0.088602 0.283280 0.153565
Si Si7 0.829967 0.283263 0.723871
Si Si8 0.720535 0.784569 0.072589
O O1 0.505005 0.272480 0.401105
O O2 0.445337 0.284855 0.294168
O O3 0.366877 0.279501 0.410399
O O4 0.436221 0.000000 0.365937
O O5 0.620826 0.719357 0.467532
O O6 0.631669 0.717973 0.342800
O O7 0.583697 0.000000 0.407477
O O8 0.376732 0.225117 0.196183
O O9 0.511288 0.286420 0.171079
O O10 0.467157 0.000000 0.228773
O O11 0.837004 0.500000 0.478425
O O12 0.750000 0.250000 0.500000
O O13 0.701602 0.500000 0.809930
O O14 0.753275 0.780206 0.749440
O O15 0.730298 0.780019 0.874992
O O16 0.084830 0.500000 0.144521
O O17 0.124743 0.248519 0.218008
O O18 0.142929 0.215885 0.095253
O O19 0.826616 0.500000 0.717875
O O20 0.717921 0.000000 0.080100
O O21 0.750000 0.750000 0.000000
#
# Coordination Sequence:
#
# PCOD9173245 Si02
#       8
#     8   8   8   8   8   8   8   8
#     4   9  17  30  48  72  98 124 164 214 250 280
#     4   9  15  27  49  71  91 122 167 207 241 284
#     4  10  18  30  51  75  99 128 161 204 252 287
#     4  10  21  33  47  71 100 129 163 206 253 299
#     4   9  19  32  48  73 105 131 157 196 241 290
#     4   8  14  28  49  73  97 122 160 203 237 274
#     4   8  13  25  46  70  91 120 162 202 235 276
#     4   9  18  34  55  76  99 130 165 200 236 281
#
# _framework density 21.216370000000001
#
# number of rings (size 3 to 8) (size 9 to 14) (size 15 to 20)
#    0.000    3.000    1.250    1.875    1.750    2.000 
#    0.000    1.250    0.000    6.750    0.000    0.000 
#    0.000    0.000    0.000    0.000    0.000    0.000 
#
# Total GULP energy -178480.659220 kJ/mol
# GULP energy per Si atom -5577.520601 kJ/mol
# Density = 2.116808 g / cm^3
# Si number density = 21.216370 Si / 1000 Ang^3
#
#
#
# Elastic Constant Matrix: (Units=GPa)
#
#
# Indices 1 2 3 4 5 6 
#
# 1 192.5596 -1.1571 74.9256 0.0000 -34.3472 0.0000
# 2 -1.1571 63.5414 3.0883 0.0000 -4.4316 0.0000
# 3 74.9256 3.0883 107.4842 0.0000 -35.8826 0.0000
# 4 0.0000 0.0000 0.0000 0.9961 0.0000 -1.1713
# 5 -34.3472 -4.4316 -35.8826 0.0000 34.5198 0.0000
# 6 0.0000 0.0000 0.0000 -1.1713 0.0000 17.1518
#
#
#
# Elastic Compliance Matrix: (Units=1/GPa)
#
#
# Indices 1 2 3 4 5 6 
#
# 1 0.007347 0.000551 -0.004094 0.000000 0.003125 0.000000
# 2 0.000551 0.015930 0.000037 0.000000 0.002631 0.000000
# 3 -0.004094 0.000037 0.016537 0.000000 0.013121 0.000000
# 4 0.000000 0.000000 0.000000 1.091580 0.000000 0.074542
# 5 0.003125 0.002631 0.013121 0.000000 0.046055 0.000000
# 6 0.000000 0.000000 0.000000 0.074542 0.000000 0.063393
#
#
# Mechanical properties :
#
#
# Convention : Reuss Voigt Hill
#
# Bulk Modulus (GPa) = 30.48734 57.47765 43.98249
# Shear Modulus (GPa) = 3.97207 29.64878 16.81043
#
# Velocity S-wave (km/s) = 1.36976 3.74230 2.81789
# Velocity P-wave (km/s) = 4.11127 6.76928 5.60025
#
# Compressibility (1/GPa) = 0.03280050
#
# Stress axis : x y z
#
# Youngs Moduli (GPa) = 136.11128 62.77646 60.47162
#
# Poissons Ratio (x) = -0.03457 0.24756
# Poissons Ratio (y) = -0.07496 -0.00223
# Poissons Ratio (z) = 0.55722 -0.00231
#
# Static dielectric constant tensor:
#      x y z
#    x 1.766820 0.000000 -0.042460 
#    y 0.000000 1.783610 0.000000 
#    z -0.042460 0.000000 1.751470 
# 
# From -- ./inp_files/314015.got.cif
#   From: 2010.05.17/outbox.cif.g08.bks.cpg/sg12_158_cif.got.tgz:314015.got - 2010.06.03 13:09:07.
