data_PCOD9173941
_publ_section_title
;
Structure prediction by ZEFSAII (Michael W. Deem and Ramdas Pophale) SiO2 
 PCOD9173941
Probable space group: C 2/M
;
_chemical_formula_sum "Si O2"
_cell_formula_units_Z 56
_cell_length_a 30.921374
_cell_length_b 7.317381
_cell_length_c 13.131435
_cell_angle_alpha 90.000000
_cell_angle_beta 131.981441
_cell_angle_gamma 90.000000
_cell_volume 2208.649094
_symmetry_space_group_name_H-M "C 2/M"
_symmetry_group_IT_number 12
_symmetry_cell_setting 'monoclinic'
loop_
_space_group_symop_operation_xyz
x,y,z
-x,y,-z
-x,-y,-z
x,-y,z
1/2+x,1/2+y,z
1/2-x,1/2+y,-z
1/2-x,1/2-y,-z
1/2+x,1/2-y,z
loop_
_atom_site_type_symbol
_atom_site_label
_atom_site_fract_x
_atom_site_fract_y
_atom_site_fract_z
Si Si1 0.109249 0.276724 0.054648
Si Si2 0.430195 0.796613 0.795403
Si Si3 0.307412 0.284135 0.527389
Si Si4 0.346891 0.780630 0.281106
Si Si5 0.072951 0.278072 0.773173
Si Si6 0.053770 0.723121 0.406361
Si Si7 0.758078 0.715441 0.765518
O O1 0.109195 0.500000 0.060890
O O2 0.071531 0.214809 0.093334
O O3 0.177017 0.214908 0.153618
O O4 0.083053 0.222886 0.905327
O O5 0.361073 0.809431 0.665141
O O6 0.448703 0.713830 0.715760
O O7 0.456702 0.000000 0.841604
O O8 0.320645 0.500000 0.543793
O O9 0.250000 0.250000 0.500000
O O10 0.288547 0.209366 0.388472
O O11 0.376764 0.716079 0.223709
O O12 0.391148 0.714728 0.440561
O O13 0.278927 0.733706 0.189509
O O14 0.349873 0.000000 0.286168
O O15 0.074874 0.500000 0.775700
O O16 0.007520 0.227541 0.639474
O O17 0.057195 0.500000 0.407072
O O18 0.762965 0.500000 0.753250
#
# Coordination Sequence:
#
# PCOD9173941 Si02
#       7
#     8   8   8   8   8   8   8
#     4   9  18  32  48  71 106 139 166 202 253 309
#     4  10  18  31  51  77 106 132 165 208 253 303
#     4  11  20  31  50  76 106 136 167 208 257 304
#     4  10  19  32  53  78 102 129 170 218 255 295
#     4   9  18  32  50  74 103 136 170 211 259 296
#     4   9  17  29  50  78 103 128 167 216 257 297
#     4  10  20  33  50  74 105 136 165 205 256 304
#
# _framework density 25.354866999999999
#
# number of rings (size 3 to 8) (size 9 to 14) (size 15 to 20)
#    0.000    2.286    2.857    0.857    0.000    3.429 
#    0.000    2.857    0.000    3.429    0.000    1.000 
#    0.000    0.000    0.000    0.000    0.000    0.000 
#
# Total GULP energy -156324.734403 kJ/mol
# GULP energy per Si atom -5583.026229 kJ/mol
# Density = 2.529716 g / cm^3
# Si number density = 25.354867 Si / 1000 Ang^3
#
#
#
# Elastic Constant Matrix: (Units=GPa)
#
#
# Indices 1 2 3 4 5 6 
#
# 1 110.2174 -8.0666 13.6385 0.0000 -22.8682 0.0000
# 2 -8.0666 112.5775 2.7701 0.0000 -0.0307 0.0000
# 3 13.6385 2.7701 71.8716 0.0000 -16.6521 0.0000
# 4 0.0000 0.0000 0.0000 14.1572 0.0000 5.5405
# 5 -22.8682 -0.0307 -16.6521 0.0000 36.1349 0.0000
# 6 0.0000 0.0000 0.0000 5.5405 0.0000 10.2926
#
#
#
# Elastic Compliance Matrix: (Units=1/GPa)
#
#
# Indices 1 2 3 4 5 6 
#
# 1 0.010527 0.000769 -0.000541 0.000000 0.006413 0.000000
# 2 0.000769 0.008948 -0.000421 0.000000 0.000300 0.000000
# 3 -0.000541 -0.000421 0.015621 0.000000 0.006856 0.000000
# 4 0.000000 0.000000 0.000000 0.089487 0.000000 -0.048171
# 5 0.006413 0.000300 0.006856 0.000000 0.034892 0.000000
# 6 0.000000 0.000000 0.000000 -0.048171 0.000000 0.123087
#
#
# Mechanical properties :
#
#
# Convention : Reuss Voigt Hill
#
# Bulk Modulus (GPa) = 28.81037 34.59451 31.70244
# Shear Modulus (GPa) = 16.97678 31.20525 24.09102
#
# Velocity S-wave (km/s) = 2.59041 3.51200 3.08580
# Velocity P-wave (km/s) = 4.50938 5.48810 5.02263
#
# Compressibility (1/GPa) = 0.03470972
#
# Stress axis : x y z
#
# Youngs Moduli (GPa) = 94.99475 111.75251 64.01595
#
# Poissons Ratio (x) = -0.08598 0.03466
# Poissons Ratio (y) = -0.07309 0.02697
# Poissons Ratio (z) = 0.05143 0.04708
#
# Static dielectric constant tensor:
#      x y z
#    x 2.047650 0.000000 -0.075030 
#    y 0.000000 2.046960 0.000000 
#    z -0.075030 0.000000 2.024610 
# 
# From -- ./inp_files/187749.got.cif
#   From: 2010.05.17/outbox.cif.g08.bks.cpg/sg12_94_cif.got.tgz:187749.got - 2010.06.03 13:09:07.
