data_PCOD9173184
_publ_section_title
;
Structure prediction by ZEFSAII (Michael W. Deem and Ramdas Pophale) SiO2 
 PCOD9173184
Probable space group: C 2/M
;
_chemical_formula_sum "Si O2"
_cell_formula_units_Z 56
_cell_length_a 19.992970
_cell_length_b 8.106187
_cell_length_c 20.870679
_cell_angle_alpha 90.000000
_cell_angle_beta 127.977111
_cell_angle_gamma 90.000000
_cell_volume 2666.233304
_symmetry_space_group_name_H-M "C 2/M"
_symmetry_group_IT_number 12
_symmetry_cell_setting 'monoclinic'
loop_
_space_group_symop_operation_xyz
x,y,z
-x,y,-z
-x,-y,-z
x,-y,z
1/2+x,1/2+y,z
1/2-x,1/2+y,-z
1/2-x,1/2-y,-z
1/2+x,1/2-y,z
loop_
_atom_site_type_symbol
_atom_site_label
_atom_site_fract_x
_atom_site_fract_y
_atom_site_fract_z
Si Si1 0.976017 0.806599 0.222811
Si Si2 0.938037 0.800072 0.595734
Si Si3 0.212777 0.192147 0.568895
Si Si4 0.399974 0.805260 0.381885
Si Si5 0.636938 0.195518 0.256924
Si Si6 0.213492 0.306256 0.911033
Si Si7 0.255755 0.302751 0.799451
O O1 0.022121 0.739750 0.314155
O O2 0.046151 0.778987 0.209734
O O3 0.886600 0.726784 0.154190
O O4 0.960509 0.000000 0.223364
O O5 0.843343 0.737265 0.522594
O O6 0.006104 0.747811 0.582086
O O7 0.933900 0.000000 0.594820
O O8 0.145902 0.206740 0.588566
O O9 0.298487 0.265400 0.650001
O O10 0.229137 0.000000 0.565501
O O11 0.339211 0.778095 0.284449
O O12 0.398198 0.000000 0.396740
O O13 0.681252 0.225019 0.214958
O O14 0.627924 0.000000 0.261400
O O15 0.227190 0.500000 0.915509
O O16 0.257548 0.235620 0.872679
O O17 0.250000 0.250000 0.000000
O O18 0.270854 0.500000 0.807549
#
# Coordination Sequence:
#
# PCOD9173184 Si02
#       7
#     8   8   8   8   8   8   8
#     4  11  23  39  60  86 118 157 197 240 293 348
#     4  10  20  33  51  76 112 155 199 242 287 340
#     4   9  19  34  50  75 112 156 200 242 287 337
#     4  10  18  30  50  79 112 148 193 242 290 339
#     4  10  21  37  59  84 117 159 201 242 287 341
#     4  11  23  42  67  95 122 148 184 235 291 351
#     4   9  19  37  60  85 117 153 189 234 288 344
#
# _framework density 21.003413999999999
#
# number of rings (size 3 to 8) (size 9 to 14) (size 15 to 20)
#    0.000    2.000    1.429    2.143    0.000    5.714 
#    0.000    0.714    0.000    4.286    0.000    0.000 
#    0.000    0.000    0.000    0.000    0.000    0.000 
#
# Total GULP energy -156373.154441 kJ/mol
# GULP energy per Si atom -5584.755516 kJ/mol
# Density = 2.095561 g / cm^3
# Si number density = 21.003414 Si / 1000 Ang^3
#
#
#
# Elastic Constant Matrix: (Units=GPa)
#
#
# Indices 1 2 3 4 5 6 
#
# 1 69.2565 -12.9062 28.7355 0.0000 -0.9207 0.0000
# 2 -12.9062 25.3633 11.5743 0.0000 -5.5874 0.0000
# 3 28.7355 11.5743 115.4546 0.0000 -15.7984 0.0000
# 4 0.0000 0.0000 0.0000 21.1543 0.0000 1.0284
# 5 -0.9207 -5.5874 -15.7984 0.0000 18.0506 0.0000
# 6 0.0000 0.0000 0.0000 1.0284 0.0000 21.6753
#
#
#
# Elastic Compliance Matrix: (Units=1/GPa)
#
#
# Indices 1 2 3 4 5 6 
#
# 1 0.019306 0.012509 -0.006129 0.000000 -0.000507 0.000000
# 2 0.012509 0.051219 -0.006806 0.000000 0.010535 0.000000
# 3 -0.006129 -0.006806 0.011972 0.000000 0.008059 0.000000
# 4 0.000000 0.000000 0.000000 0.047381 0.000000 -0.002248
# 5 -0.000507 0.010535 0.008059 0.000000 0.065688 0.000000
# 6 0.000000 0.000000 0.000000 -0.002248 0.000000 0.046242
#
#
# Mechanical properties :
#
#
# Convention : Reuss Voigt Hill
#
# Bulk Modulus (GPa) = 12.24812 29.43130 20.83971
# Shear Modulus (GPa) = 18.52706 24.35410 21.44058
#
# Velocity S-wave (km/s) = 2.97323 3.40888 3.19848
# Velocity P-wave (km/s) = 4.19893 5.43480 4.85634
#
# Compressibility (1/GPa) = 0.08164519
#
# Stress axis : x y z
#
# Youngs Moduli (GPa) = 51.79671 19.52396 83.52956
#
# Poissons Ratio (x) = -0.24422 0.51191
# Poissons Ratio (y) = -0.64792 0.56854
# Poissons Ratio (z) = 0.31744 0.13289
#
# Static dielectric constant tensor:
#      x y z
#    x 1.789760 0.000000 -0.061760 
#    y 0.000000 1.733650 0.000000 
#    z -0.061760 0.000000 1.810060 
# 
# From -- ./inp_files/320260.got.cif
#   From: 2010.05.17/outbox.cif.g08.bks.cpg/sg12_161_cif.got.tgz:320260.got - 2010.06.03 13:09:07.
