data_PCOD9173739
_publ_section_title
;
Structure prediction by ZEFSAII (Michael W. Deem and Ramdas Pophale) SiO2 
 PCOD9173739
Probable space group: C 2/M
;
_chemical_formula_sum "Si O2"
_cell_formula_units_Z 56
_cell_length_a 9.824464
_cell_length_b 22.378367
_cell_length_c 18.428490
_cell_angle_alpha 90.000000
_cell_angle_beta 125.665335
_cell_angle_gamma 90.000000
_cell_volume 3291.670828
_symmetry_space_group_name_H-M "C 2/M"
_symmetry_group_IT_number 12
_symmetry_cell_setting 'monoclinic'
loop_
_space_group_symop_operation_xyz
x,y,z
-x,y,-z
-x,-y,-z
x,-y,z
1/2+x,1/2+y,z
1/2-x,1/2+y,-z
1/2-x,1/2-y,-z
1/2+x,1/2-y,z
loop_
_atom_site_type_symbol
_atom_site_label
_atom_site_fract_x
_atom_site_fract_y
_atom_site_fract_z
Si Si1 0.948018 0.255878 0.063777
Si Si2 0.714664 0.930494 0.846567
Si Si3 0.640073 0.572865 0.486383
Si Si4 0.888466 0.389451 0.030295
Si Si5 0.508420 0.363850 0.862325
Si Si6 0.854533 0.928014 0.677352
Si Si7 0.509493 0.928012 0.642922
O O1 0.979844 0.326465 0.079591
O O2 0.016372 0.207863 0.141859
O O3 0.750000 0.250000 0.000000
O O4 0.000000 0.235720 0.000000
O O5 0.641336 0.923592 0.903993
O O6 0.579572 0.910633 0.743864
O O7 0.882285 0.893054 0.882111
O O8 0.754550 0.000000 0.845208
O O9 0.500000 0.592655 0.500000
O O10 0.642885 0.500000 0.489029
O O11 0.601977 0.588659 0.391273
O O12 0.825881 0.594570 0.565794
O O13 0.701486 0.376990 0.941707
O O14 0.000000 0.416651 0.000000
O O15 0.459622 0.393633 0.770968
O O16 0.658738 0.914252 0.633032
O O17 0.875630 0.000000 0.692897
O O18 0.496307 0.000000 0.639454
#
# Coordination Sequence:
#
# PCOD9173739 Si02
#       7
#     8   8   8   8   8   8   8
#     4   9  17  31  49  67  89 121 163 205 238 273
#     4  10  20  33  50  72  98 132 169 201 242 295
#     4   9  16  26  42  64  92 127 159 188 230 286
#     4  10  21  33  46  68  98 130 161 199 247 292
#     4  10  18  31  50  69  92 125 165 208 242 281
#     4   9  17  28  44  67  92 120 157 199 243 287
#     4   8  15  28  44  63  90 123 160 197 230 275
#
# _framework density 17.012637000000002
#
# number of rings (size 3 to 8) (size 9 to 14) (size 15 to 20)
#    0.000    2.714    0.000    3.857    0.000    4.857 
#    0.000    1.429    0.000    0.000    0.000    1.000 
#    0.000    4.571    0.000    2.000    0.000    0.000 
#
# Total GULP energy -155876.199894 kJ/mol
# GULP energy per Si atom -5567.007139 kJ/mol
# Density = 1.697392 g / cm^3
# Si number density = 17.012637 Si / 1000 Ang^3
#
#
#
# Elastic Constant Matrix: (Units=GPa)
#
#
# Indices 1 2 3 4 5 6 
#
# 1 119.2184 20.0422 55.1509 0.0000 -24.4155 0.0000
# 2 20.0422 44.1379 30.3906 0.0000 3.3399 0.0000
# 3 55.1509 30.3906 80.5978 0.0000 -11.3097 0.0000
# 4 0.0000 0.0000 0.0000 -4.1127 0.0000 7.0828
# 5 -24.4155 3.3399 -11.3097 0.0000 18.4892 0.0000
# 6 0.0000 0.0000 0.0000 7.0828 0.0000 14.5100
#
#
#
# Elastic Compliance Matrix: (Units=1/GPa)
#
#
# Indices 1 2 3 4 5 6 
#
# 1 0.015756 -0.003635 -0.007000 0.000000 0.017181 0.000000
# 2 -0.003635 0.035018 -0.013431 0.000000 -0.019341 0.000000
# 3 -0.007000 -0.013431 0.023305 0.000000 0.007438 0.000000
# 4 0.000000 0.000000 0.000000 -0.132100 0.000000 0.064482
# 5 0.017181 -0.019341 0.007438 0.000000 0.084817 0.000000
# 6 0.000000 0.000000 0.000000 0.064482 0.000000 0.037442
#
#
# Mechanical properties :
#
#
# Convention : Reuss Voigt Hill
#
# Bulk Modulus (GPa) = 38.53883 50.56908 44.55395
# Shear Modulus (GPa) = 41.31609 15.00200 28.15904
#
# Velocity S-wave (km/s) = 4.93338 2.97276 4.07281
# Velocity P-wave (km/s) = 7.42652 6.44764 6.95432
#
# Compressibility (1/GPa) = 0.02594786
#
# Stress axis : x y z
#
# Youngs Moduli (GPa) = 63.46908 28.55683 42.90905
#
# Poissons Ratio (x) = 0.10380 0.30035
# Poissons Ratio (y) = 0.23070 0.57630
# Poissons Ratio (z) = 0.44427 0.38354
#
# Static dielectric constant tensor:
#      x y z
#    x 1.590520 0.000000 -0.005590 
#    y 0.000000 1.593080 0.000000 
#    z -0.005590 0.000000 1.573430 
# 
# From -- ./inp_files/259232.got.cif
#   From: 2010.05.17/outbox.cif.g08.bks.cpg/sg12_130_cif.got.tgz:259232.got - 2010.06.03 13:09:07.
