data_PCOD9173934
_publ_section_title
;
Structure prediction by ZEFSAII (Michael W. Deem and Ramdas Pophale) SiO2 
 PCOD9173934
Probable space group: C 2/M
;
_chemical_formula_sum "Si O2"
_cell_formula_units_Z 64
_cell_length_a 21.056888
_cell_length_b 8.704541
_cell_length_c 20.259520
_cell_angle_alpha 90.000000
_cell_angle_beta 101.884063
_cell_angle_gamma 90.000000
_cell_volume 3633.787034
_symmetry_space_group_name_H-M "C 2/M"
_symmetry_group_IT_number 12
_symmetry_cell_setting 'monoclinic'
loop_
_space_group_symop_operation_xyz
x,y,z
-x,y,-z
-x,-y,-z
x,-y,z
1/2+x,1/2+y,z
1/2-x,1/2+y,-z
1/2-x,1/2-y,-z
1/2+x,1/2-y,z
loop_
_atom_site_type_symbol
_atom_site_label
_atom_site_fract_x
_atom_site_fract_y
_atom_site_fract_z
Si Si1 0.535608 0.683878 0.207125
Si Si2 0.159990 0.187122 0.150026
Si Si3 0.528926 0.817790 0.348281
Si Si4 0.320705 0.684750 0.997034
Si Si5 0.397347 0.184460 0.135116
Si Si6 0.884323 0.684671 0.370425
Si Si7 0.074058 0.822634 0.488462
Si Si8 0.700991 0.812873 0.768461
O O1 0.530030 0.500000 0.201194
O O2 0.595995 0.736117 0.175212
O O3 0.546553 0.731345 0.285236
O O4 0.468759 0.758816 0.168645
O O5 0.161428 0.232673 0.073650
O O6 0.226525 0.239153 0.199237
O O7 0.160783 0.000000 0.151266
O O8 0.454215 0.778998 0.351955
O O9 0.572675 0.770160 0.420042
O O10 0.531758 0.000000 0.338205
O O11 0.318258 0.500000 0.998615
O O12 0.250000 0.750000 0.000000
O O13 0.371360 0.745960 0.061493
O O14 0.347682 0.231774 0.182914
O O15 0.396245 0.000000 0.131265
O O16 0.881881 0.500000 0.376448
O O17 0.883234 0.756839 0.442754
O O18 0.828954 0.736833 0.307776
O O19 0.000000 0.813552 0.500000
O O20 0.089211 0.000000 0.478999
O O21 0.701233 0.000000 0.767560
#
# Coordination Sequence:
#
# PCOD9173934 Si02
#       8
#     8   8   8   8   8   8   8   8
#     4  11  22  36  55  81 111 145 185 226 272 327
#     4   9  20  37  57  79 109 147 182 220 273 337
#     4  10  18  31  51  76 107 144 180 220 272 326
#     4  11  21  37  60  85 111 143 184 229 277 329
#     4  11  21  37  59  82 110 145 184 228 275 325
#     4   9  16  28  50  77 103 136 178 222 268 322
#     4   9  17  28  44  73 110 142 173 218 270 319
#     4   9  16  32  56  79 103 140 184 220 265 326
#
# _framework density 17.612480000000001
#
# number of rings (size 3 to 8) (size 9 to 14) (size 15 to 20)
#    0.000    2.125    2.500    1.875    0.000    2.500 
#    0.000    5.000    0.000    0.750    0.000    0.000 
#    0.000    0.000    0.000    0.000    0.000    0.000 
#
# Total GULP energy -178552.289343 kJ/mol
# GULP energy per Si atom -5579.759042 kJ/mol
# Density = 1.757239 g / cm^3
# Si number density = 17.612480 Si / 1000 Ang^3
#
#
#
# Elastic Constant Matrix: (Units=GPa)
#
#
# Indices 1 2 3 4 5 6 
#
# 1 94.6987 19.0454 54.0762 0.0000 1.8942 0.0000
# 2 19.0454 33.3415 25.5736 0.0000 -1.2385 0.0000
# 3 54.0762 25.5736 128.7098 0.0000 19.3799 0.0000
# 4 0.0000 0.0000 0.0000 32.1652 0.0000 3.9273
# 5 1.8942 -1.2385 19.3799 0.0000 26.4380 0.0000
# 6 0.0000 0.0000 0.0000 3.9273 0.0000 19.1341
#
#
#
# Elastic Compliance Matrix: (Units=1/GPa)
#
#
# Indices 1 2 3 4 5 6 
#
# 1 0.014590 -0.003733 -0.005850 0.000000 0.003068 0.000000
# 2 -0.003733 0.037775 -0.007019 0.000000 0.007182 0.000000
# 3 -0.005850 -0.007019 0.013048 0.000000 -0.009474 0.000000
# 4 0.000000 0.000000 0.000000 0.031889 0.000000 -0.006545
# 5 0.003068 0.007182 -0.009474 0.000000 0.044886 0.000000
# 6 0.000000 0.000000 0.000000 -0.006545 0.000000 0.053606
#
#
# Mechanical properties :
#
#
# Convention : Reuss Voigt Hill
#
# Bulk Modulus (GPa) = 31.04613 50.46004 40.75309
# Shear Modulus (GPa) = 20.85644 26.08444 23.47044
#
# Velocity S-wave (km/s) = 3.44493 3.85258 3.65444
# Velocity P-wave (km/s) = 5.78697 6.96435 6.40278
#
# Compressibility (1/GPa) = 0.03221013
#
# Stress axis : x y z
#
# Youngs Moduli (GPa) = 68.54131 26.47238 76.63808
#
# Poissons Ratio (x) = 0.09882 0.44833
# Poissons Ratio (y) = 0.25586 0.53789
# Poissons Ratio (z) = 0.40097 0.18580
#
# Static dielectric constant tensor:
#      x y z
#    x 1.583050 0.000000 0.008790 
#    y 0.000000 1.595670 0.000000 
#    z 0.008790 0.000000 1.595490 
# 
# From -- ./inp_files/281259.got.cif
#   From: 2010.05.17/outbox.cif.g08.bks.cpg/sg12_141_cif.got.tgz:281259.got - 2010.06.03 13:09:07.
