data_PCOD9173137
_publ_section_title
;
Structure prediction by ZEFSAII (Michael W. Deem and Ramdas Pophale) SiO2 
 PCOD9173137
Probable space group: C 2/M
;
_chemical_formula_sum "Si O2"
_cell_formula_units_Z 64
_cell_length_a 23.946526
_cell_length_b 8.841668
_cell_length_c 22.000569
_cell_angle_alpha 90.000000
_cell_angle_beta 51.089921
_cell_angle_gamma 90.000000
_cell_volume 3624.635036
_symmetry_space_group_name_H-M "C 2/M"
_symmetry_group_IT_number 12
_symmetry_cell_setting 'monoclinic'
loop_
_space_group_symop_operation_xyz
x,y,z
-x,y,-z
-x,-y,-z
x,-y,z
1/2+x,1/2+y,z
1/2-x,1/2+y,-z
1/2-x,1/2-y,-z
1/2+x,1/2-y,z
loop_
_atom_site_type_symbol
_atom_site_label
_atom_site_fract_x
_atom_site_fract_y
_atom_site_fract_z
Si Si1 0.843531 0.819365 0.086368
Si Si2 0.327680 0.682191 0.961953
Si Si3 0.930904 0.682618 0.274298
Si Si4 0.778954 0.818986 0.417816
Si Si5 0.104638 0.673723 0.831303
Si Si6 0.682346 0.180975 0.242608
Si Si7 0.730379 0.675576 0.330345
Si Si8 0.574589 0.318842 0.220467
O O1 0.893915 0.756236 0.105210
O O2 0.760531 0.781974 0.159861
O O3 0.849942 0.000000 0.083384
O O4 0.855046 0.765688 0.009538
O O5 0.320515 0.500000 0.969415
O O6 0.381126 0.719883 0.870947
O O7 0.250000 0.750000 0.000000
O O8 0.924507 0.500000 0.278669
O O9 0.858387 0.754664 0.350082
O O10 0.938499 0.732711 0.197956
O O11 0.998276 0.738811 0.266307
O O12 0.750000 0.750000 0.500000
O O13 0.731368 0.761476 0.393520
O O14 0.780016 0.000000 0.419172
O O15 0.084704 0.500000 0.855156
O O16 0.187183 0.678876 0.750603
O O17 0.684725 0.243762 0.309365
O O18 0.621166 0.258390 0.244635
O O19 0.674874 0.000000 0.247087
O O20 0.710694 0.500000 0.351211
O O21 0.566710 0.500000 0.229202
#
# Coordination Sequence:
#
# PCOD9173137 Si02
#       8
#     8   8   8   8   8   8   8   8
#     4   9  17  29  47  71  98 130 174 224 272 316
#     4  10  20  33  48  71 102 137 180 228 276 322
#     4  10  21  38  56  77 107 141 179 220 265 320
#     4  11  21  36  60  89 116 142 174 212 260 311
#     4   8  16  30  49  71  96 130 171 216 266 313
#     4  10  18  30  50  75 104 140 182 224 270 317
#     4   9  17  31  51  79 111 139 175 219 261 307
#     4  11  22  34  51  75 105 143 183 225 276 327
#
# _framework density 17.656949999999998
#
# number of rings (size 3 to 8) (size 9 to 14) (size 15 to 20)
#    0.000    2.250    1.250    3.375    0.000    5.000 
#    0.000    0.625    0.000    4.500    0.000    5.250 
#    0.000    0.000    0.000    0.000    0.000    0.000 
#
# Total GULP energy -178511.081041 kJ/mol
# GULP energy per Si atom -5578.471283 kJ/mol
# Density = 1.761676 g / cm^3
# Si number density = 17.656950 Si / 1000 Ang^3
#
#
#
# Elastic Constant Matrix: (Units=GPa)
#
#
# Indices 1 2 3 4 5 6 
#
# 1 106.7759 48.1352 49.8617 -0.0006 27.7408 0.0015
# 2 48.1352 70.3185 42.4277 -0.0008 14.0405 0.0013
# 3 49.8617 42.4277 81.9545 -0.0002 29.9016 0.0006
# 4 -0.0006 -0.0008 -0.0002 21.0680 -0.0001 8.3008
# 5 27.7408 14.0405 29.9016 -0.0001 29.1438 0.0001
# 6 0.0015 0.0013 0.0006 8.3008 0.0001 30.5771
#
#
#
# Elastic Compliance Matrix: (Units=1/GPa)
#
#
# Indices 1 2 3 4 5 6 
#
# 1 0.016556 -0.007920 -0.002581 0.000000 -0.009295 0.000000
# 2 -0.007920 0.024518 -0.010094 0.000001 0.006083 -0.000001
# 3 -0.002581 -0.010094 0.026096 0.000000 -0.019455 0.000000
# 4 0.000000 0.000001 0.000000 0.053150 0.000000 -0.014429
# 5 -0.009295 0.006083 -0.019455 0.000000 0.060190 0.000000
# 6 0.000000 -0.000001 0.000000 -0.014429 0.000000 0.036621
#
#
# Mechanical properties :
#
#
# Convention : Reuss Voigt Hill
#
# Bulk Modulus (GPa) = 38.49082 59.98867 49.23974
# Shear Modulus (GPa) = 18.72786 24.06605 21.39696
#
# Velocity S-wave (km/s) = 3.26030 3.69586 3.48489
# Velocity P-wave (km/s) = 6.00161 7.22916 6.64380
#
# Compressibility (1/GPa) = 0.02598022
#
# Stress axis : x y z
#
# Youngs Moduli (GPa) = 60.40133 40.78639 38.31963
#
# Poissons Ratio (x) = 0.32301 0.09892
# Poissons Ratio (y) = 0.47835 0.38680
# Poissons Ratio (z) = 0.15593 0.41170
#
# Static dielectric constant tensor:
#      x y z
#    x 1.603530 0.000000 0.012800 
#    y 0.000000 1.593830 0.000000 
#    z 0.012800 0.000000 1.598750 
# 
# From -- ./inp_files/319799.got.cif
#   From: 2010.05.17/outbox.cif.g08.bks.cpg/sg12_160_cif.got.tgz:319799.got - 2010.06.03 13:09:07.
