data_PCOD9173307
_publ_section_title
;
Structure prediction by ZEFSAII (Michael W. Deem and Ramdas Pophale) SiO2 
 PCOD9173307
Probable space group: C 2/M
;
_chemical_formula_sum "Si O2"
_cell_formula_units_Z 64
_cell_length_a 22.651063
_cell_length_b 7.796616
_cell_length_c 21.529501
_cell_angle_alpha 90.000000
_cell_angle_beta 52.891404
_cell_angle_gamma 90.000000
_cell_volume 3032.185776
_symmetry_space_group_name_H-M "C 2/M"
_symmetry_group_IT_number 12
_symmetry_cell_setting 'monoclinic'
loop_
_space_group_symop_operation_xyz
x,y,z
-x,y,-z
-x,-y,-z
x,-y,z
1/2+x,1/2+y,z
1/2-x,1/2+y,-z
1/2-x,1/2-y,-z
1/2+x,1/2-y,z
loop_
_atom_site_type_symbol
_atom_site_label
_atom_site_fract_x
_atom_site_fract_y
_atom_site_fract_z
Si Si1 0.687484 0.209377 0.162975
Si Si2 0.118624 0.792875 0.411501
Si Si3 0.899425 0.697329 0.104308
Si Si4 0.013094 0.300191 0.126135
Si Si5 0.243448 0.797874 0.749142
Si Si6 0.482413 0.294024 0.413521
Si Si7 0.665030 0.696916 0.984917
Si Si8 0.019980 0.293609 0.254103
O O1 0.713117 0.258534 0.215911
O O2 0.751723 0.268332 0.074775
O O3 0.604549 0.270850 0.205840
O O4 0.687984 0.000000 0.159998
O O5 0.200508 0.734174 0.342505
O O6 0.059386 0.733080 0.396561
O O7 0.083876 0.736073 0.499225
O O8 0.118672 0.000000 0.410506
O O9 0.911142 0.500000 0.076103
O O10 0.834998 0.704632 0.197290
O O11 0.867005 0.793930 0.065374
O O12 0.971941 0.772129 0.091722
O O13 0.992350 0.500000 0.137315
O O14 0.989377 0.227640 0.207821
O O15 0.101843 0.288292 0.064601
O O16 0.228894 0.000000 0.763000
O O17 0.483903 0.500000 0.415934
O O18 0.478841 0.245689 0.344060
O O19 0.668130 0.500000 0.002760
O O20 0.023705 0.500000 0.246670
#
# Coordination Sequence:
#
# PCOD9173307 Si02
#       8
#     8   8   8   8   8   8   8   8
#     4   8  16  30  47  71 101 128 157 199 249 294
#     4   9  17  30  49  75 108 137 162 199 246 296
#     4  10  20  35  53  73  99 131 168 212 257 299
#     4  10  22  36  51  72  98 134 175 208 250 303
#     4  10  18  30  51  79 104 128 165 209 251 298
#     4   9  18  31  48  75 107 136 167 200 240 295
#     4  10  20  34  53  76 100 126 165 216 259 296
#     4  10  19  34  52  70 101 139 170 205 246 297
#
# _framework density 21.106885999999999
#
# number of rings (size 3 to 8) (size 9 to 14) (size 15 to 20)
#    0.000    2.500    1.250    3.000    0.000    4.000 
#    0.000    1.875    0.000    0.750    0.000    0.000 
#    0.000    0.000    0.000    0.000    0.000    0.000 
#
# Total GULP energy -178564.426372 kJ/mol
# GULP energy per Si atom -5580.138324 kJ/mol
# Density = 2.105885 g / cm^3
# Si number density = 21.106886 Si / 1000 Ang^3
#
#
#
# Elastic Constant Matrix: (Units=GPa)
#
#
# Indices 1 2 3 4 5 6 
#
# 1 19.6051 3.3390 9.7073 0.0012 2.7723 -0.0012
# 2 3.3390 37.6511 -5.7000 0.0031 0.3108 -0.0122
# 3 9.7073 -5.7000 119.4145 0.0013 3.1432 -0.0010
# 4 0.0012 0.0031 0.0013 24.9676 -0.0012 -0.4187
# 5 2.7723 0.3108 3.1432 -0.0012 33.0164 0.0014
# 6 -0.0012 -0.0122 -0.0010 -0.4187 0.0014 6.2897
#
#
#
# Elastic Compliance Matrix: (Units=1/GPa)
#
#
# Indices 1 2 3 4 5 6 
#
# 1 0.054813 -0.005525 -0.004611 -0.000002 -0.004112 0.000000
# 2 -0.005525 0.027315 0.001752 -0.000002 0.000040 0.000052
# 3 -0.004611 0.001752 0.008845 0.000000 -0.000471 0.000004
# 4 -0.000002 -0.000002 0.000000 0.040097 0.000002 0.002669
# 5 -0.004112 0.000040 -0.000471 0.000002 0.030678 -0.000008
# 6 0.000000 0.000052 0.000004 0.002669 -0.000008 0.159167
#
#
# Mechanical properties :
#
#
# Convention : Reuss Voigt Hill
#
# Bulk Modulus (GPa) = 13.47648 21.26260 17.36954
# Shear Modulus (GPa) = 13.79628 24.14305 18.96966
#
# Velocity S-wave (km/s) = 2.55941 3.38575 3.00116
# Velocity P-wave (km/s) = 3.89009 5.03786 4.50072
#
# Compressibility (1/GPa) = 0.07420337
#
# Stress axis : x y z
#
# Youngs Moduli (GPa) = 18.24397 36.61056 113.05727
#
# Poissons Ratio (x) = 0.20227 0.52134
# Poissons Ratio (y) = 0.10080 -0.19806
# Poissons Ratio (z) = 0.08413 -0.06414
#
# Static dielectric constant tensor:
#      x y z
#    x 1.780670 0.000000 0.011900 
#    y 0.000000 1.764400 0.000000 
#    z 0.011900 0.000000 1.803130 
# 
# From -- ./inp_files/324147.got.cif
#   From: 2010.05.17/outbox.cif.g08.bks.cpg/sg12_163_cif.got.tgz:324147.got - 2010.06.03 13:09:07.
