data_PCOD9173190
_publ_section_title
;
Structure prediction by ZEFSAII (Michael W. Deem and Ramdas Pophale) SiO2 
 PCOD9173190
Probable space group: C 2/M
;
_chemical_formula_sum "Si O2"
_cell_formula_units_Z 56
_cell_length_a 16.195310
_cell_length_b 14.733101
_cell_length_c 17.255364
_cell_angle_alpha 90.000000
_cell_angle_beta 43.371855
_cell_angle_gamma 90.000000
_cell_volume 2827.443297
_symmetry_space_group_name_H-M "C 2/M"
_symmetry_group_IT_number 12
_symmetry_cell_setting 'monoclinic'
loop_
_space_group_symop_operation_xyz
x,y,z
-x,y,-z
-x,-y,-z
x,-y,z
1/2+x,1/2+y,z
1/2-x,1/2+y,-z
1/2-x,1/2-y,-z
1/2+x,1/2-y,z
loop_
_atom_site_type_symbol
_atom_site_label
_atom_site_fract_x
_atom_site_fract_y
_atom_site_fract_z
Si Si1 0.985999 0.101741 0.299101
Si Si2 0.762054 0.605978 0.110864
Si Si3 0.603251 0.290460 0.495873
Si Si4 0.114081 0.897166 0.802064
Si Si5 0.805494 0.393374 0.265202
Si Si6 0.021614 0.715064 0.072885
Si Si7 0.859278 0.600619 0.572193
O O1 0.124127 0.115078 0.180504
O O2 0.947597 0.170816 0.390514
O O3 0.908180 0.105935 0.274976
O O4 0.978035 0.000000 0.338238
O O5 0.801191 0.500000 0.071116
O O6 0.764666 0.620291 0.202837
O O7 0.842816 0.679838 0.010591
O O8 0.500000 0.290017 0.500000
O O9 0.708536 0.351544 0.388776
O O10 0.648952 0.187935 0.476055
O O11 0.259097 0.881963 0.708545
O O12 0.026621 0.818487 0.893016
O O13 0.086778 0.000000 0.847860
O O14 0.819955 0.500000 0.267170
O O15 0.930489 0.340135 0.188906
O O16 0.000000 0.680942 0.000000
O O17 0.831193 0.500000 0.560345
O O18 0.000000 0.597485 0.500000
#
# Coordination Sequence:
#
# PCOD9173190 Si02
#       7
#     8   8   8   8   8   8   8
#     4  10  21  34  52  81 113 145 172 212 272 323
#     4   9  18  33  53  77 110 144 172 210 267 324
#     4  11  19  31  57  82 107 138 181 215 254 319
#     4  10  21  38  54  76 108 139 180 225 272 318
#     4  10  18  30  50  81 110 135 171 221 266 313
#     4  10  20  34  54  76 102 136 185 226 264 310
#     4   9  19  35  55  75 103 141 179 219 265 311
#
# _framework density 19.805879999999998
#
# number of rings (size 3 to 8) (size 9 to 14) (size 15 to 20)
#    0.000    2.143    2.857    0.857    0.000    3.714 
#    0.000    0.000    0.000    1.714    0.000    0.000 
#    0.000    0.000    0.000    0.000    0.000    0.000 
#
# Total GULP energy -155962.231899 kJ/mol
# GULP energy per Si atom -5570.079711 kJ/mol
# Density = 1.976080 g / cm^3
# Si number density = 19.805880 Si / 1000 Ang^3
#
#
#
# Elastic Constant Matrix: (Units=GPa)
#
#
# Indices 1 2 3 4 5 6 
#
# 1 28.3684 -1.3760 12.9517 0.0000 -12.3246 0.0000
# 2 -1.3760 120.2317 58.0704 0.0000 -20.8695 0.0000
# 3 12.9517 58.0704 82.2685 0.0000 -22.3630 0.0000
# 4 0.0000 0.0000 0.0000 43.5838 0.0000 -9.0580
# 5 -12.3246 -20.8695 -22.3630 0.0000 19.1516 0.0000
# 6 0.0000 0.0000 0.0000 -9.0580 0.0000 2.0640
#
#
#
# Elastic Compliance Matrix: (Units=1/GPa)
#
#
# Indices 1 2 3 4 5 6 
#
# 1 0.055915 0.010090 -0.004622 0.000000 0.041581 0.000000
# 2 0.010090 0.014763 -0.008601 0.000000 0.012537 0.000000
# 3 -0.004622 -0.008601 0.022851 0.000000 0.014336 0.000000
# 4 0.000000 0.000000 0.000000 0.260892 0.000000 1.144919
# 5 0.041581 0.012537 0.014336 0.000000 0.109375 0.000001
# 6 0.000000 0.000000 0.000000 1.144919 0.000001 5.508936
#
#
# Mechanical properties :
#
#
# Convention : Reuss Voigt Hill
#
# Bulk Modulus (GPa) = 11.45972 41.12897 26.29434
# Shear Modulus (GPa) = 0.83221 23.70804 12.27013
#
# Velocity S-wave (km/s) = 0.64892 3.46355 2.49172
# Velocity P-wave (km/s) = 2.52191 6.06680 4.64576
#
# Compressibility (1/GPa) = 0.08726217
#
# Stress axis : x y z
#
# Youngs Moduli (GPa) = 17.88436 67.73590 43.76123
#
# Poissons Ratio (x) = -0.68343 0.20226
# Poissons Ratio (y) = -0.18045 0.37641
# Poissons Ratio (z) = 0.08266 0.58262
#
# Static dielectric constant tensor:
#      x y z
#    x 1.749430 0.000000 -0.065270 
#    y 0.000000 1.728320 0.000000 
#    z -0.065270 0.000000 1.706590 
# 
# From -- ./inp_files/155965.got.cif
#   From: 2010.05.17/outbox.cif.g08.bks.cpg/sg12_78_cif.got.tgz:155965.got - 2010.06.03 13:09:07.
