data_PCOD9173009
_publ_section_title
;
Structure prediction by ZEFSAII (Michael W. Deem and Ramdas Pophale) SiO2 
 PCOD9173009
Probable space group: C 2/M
;
_chemical_formula_sum "Si O2"
_cell_formula_units_Z 48
_cell_length_a 14.144868
_cell_length_b 14.380442
_cell_length_c 11.147629
_cell_angle_alpha 90.000000
_cell_angle_beta 88.798941
_cell_angle_gamma 90.000000
_cell_volume 2267.034941
_symmetry_space_group_name_H-M "C 2/M"
_symmetry_group_IT_number 12
_symmetry_cell_setting 'monoclinic'
loop_
_space_group_symop_operation_xyz
x,y,z
-x,y,-z
-x,-y,-z
x,-y,z
1/2+x,1/2+y,z
1/2-x,1/2+y,-z
1/2-x,1/2-y,-z
1/2+x,1/2-y,z
loop_
_atom_site_type_symbol
_atom_site_label
_atom_site_fract_x
_atom_site_fract_y
_atom_site_fract_z
Si Si1 0.062005 0.397664 0.875748
Si Si2 0.873010 0.897448 0.836501
Si Si3 0.886741 0.748301 0.501499
Si Si4 0.896764 0.701368 0.766094
Si Si5 0.751314 0.606770 0.400856
Si Si6 0.277900 0.111047 0.970974
O O1 0.091603 0.500000 0.834517
O O2 0.154959 0.349320 0.923976
O O3 0.989875 0.358726 0.782743
O O4 0.000000 0.403140 0.000000
O O5 0.929061 0.804586 0.805832
O O6 0.794928 0.896136 0.730900
O O7 0.824945 0.885000 0.967938
O O8 0.918071 0.000000 0.830409
O O9 0.865005 0.701876 0.630970
O O10 0.840225 0.677264 0.407780
O O11 0.828869 0.845137 0.511766
O O12 0.000000 0.761045 0.500000
O O13 0.812243 0.664619 0.852915
O O14 0.772883 0.500000 0.433912
O O15 0.298623 0.000000 0.953242
#
# Coordination Sequence:
#
# PCOD9173009 Si02
#       6
#     8   8   8   8   8   8
#     4   8  15  27  44  69  96 121 153 197 245 298
#     4   9  18  32  51  72  97 132 169 203 248 308
#     4  10  22  36  54  82 108 137 182 224 261 312
#     4  10  18  30  49  75 100 130 162 209 255 301
#     4   9  20  39  56  76 110 143 174 219 268 315
#     4   9  17  30  50  75 100 127 161 203 254 311
#
# _framework density 21.173030000000001
#
# number of rings (size 3 to 8) (size 9 to 14) (size 15 to 20)
#    0.000    2.833    0.000    2.000    2.333    2.000 
#    0.000    0.000    0.000    4.500    0.000    0.000 
#    0.000    0.000    0.000    0.000    0.000    0.000 
#
# Total GULP energy -133618.872049 kJ/mol
# GULP energy per Si atom -5567.453002 kJ/mol
# Density = 2.112484 g / cm^3
# Si number density = 21.173030 Si / 1000 Ang^3
#
#
#
# Elastic Constant Matrix: (Units=GPa)
#
#
# Indices 1 2 3 4 5 6 
#
# 1 49.4046 4.9489 -8.9412 0.0000 -12.6460 0.0000
# 2 4.9489 66.7304 15.5449 0.0000 -11.9175 0.0000
# 3 -8.9412 15.5449 44.1017 0.0000 -4.9317 0.0000
# 4 0.0000 0.0000 0.0000 19.4118 0.0000 7.8038
# 5 -12.6460 -11.9175 -4.9317 0.0000 14.9071 0.0000
# 6 0.0000 0.0000 0.0000 7.8038 0.0000 9.0821
#
#
#
# Elastic Compliance Matrix: (Units=1/GPa)
#
#
# Indices 1 2 3 4 5 6 
#
# 1 0.028923 0.000843 0.008708 0.000000 0.028091 0.000000
# 2 0.000843 0.018532 -0.004802 0.000000 0.013942 0.000000
# 3 0.008708 -0.004802 0.027549 0.000000 0.012662 0.000000
# 4 0.000000 0.000000 0.000000 0.078700 0.000000 -0.067623
# 5 0.028091 0.013942 0.012662 0.000000 0.106247 0.000000
# 6 0.000000 0.000000 0.000000 -0.067623 0.000000 0.168211
#
#
# Mechanical properties :
#
#
# Convention : Reuss Voigt Hill
#
# Bulk Modulus (GPa) = 11.83411 20.37134 16.10272
# Shear Modulus (GPa) = 11.18992 18.59247 14.89119
#
# Velocity S-wave (km/s) = 2.30140 2.96652 2.65488
# Velocity P-wave (km/s) = 3.55856 4.62341 4.12549
#
# Compressibility (1/GPa) = 0.08450150
#
# Stress axis : x y z
#
# Youngs Moduli (GPa) = 34.57482 53.96156 36.29919
#
# Poissons Ratio (x) = -0.04551 -0.31609
# Poissons Ratio (y) = -0.02916 0.17431
# Poissons Ratio (z) = -0.30107 0.25912
#
# Static dielectric constant tensor:
#      x y z
#    x 1.800300 0.000000 -0.018770 
#    y 0.000000 1.814660 0.000000 
#    z -0.018770 0.000000 1.774370 
# 
# From -- ./inp_files/143006.got.cif
#   From: 2010.05.17/outbox.cif.g08.bks.cpg/sg12_72_cif.got.tgz:143006.got - 2010.06.03 13:09:07.
