data_PCOD9173576
_publ_section_title
;
Structure prediction by ZEFSAII (Michael W. Deem and Ramdas Pophale) SiO2 
 PCOD9173576
Probable space group: C 2/M
;
_chemical_formula_sum "Si O2"
_cell_formula_units_Z 40
_cell_length_a 9.350056
_cell_length_b 24.666654
_cell_length_c 8.911892
_cell_angle_alpha 90.000000
_cell_angle_beta 132.360698
_cell_angle_gamma 90.000000
_cell_volume 1518.764513
_symmetry_space_group_name_H-M "C 2/M"
_symmetry_group_IT_number 12
_symmetry_cell_setting 'monoclinic'
loop_
_space_group_symop_operation_xyz
x,y,z
-x,y,-z
-x,-y,-z
x,-y,z
1/2+x,1/2+y,z
1/2-x,1/2+y,-z
1/2-x,1/2-y,-z
1/2+x,1/2-y,z
loop_
_atom_site_type_symbol
_atom_site_label
_atom_site_fract_x
_atom_site_fract_y
_atom_site_fract_z
Si Si1 0.216613 0.719443 0.799606
Si Si2 0.377994 0.328812 0.207590
Si Si3 0.552822 0.439132 0.863224
Si Si4 0.620657 0.057782 0.430365
Si Si5 0.680051 0.173883 0.446402
O O1 0.249821 0.783649 0.795309
O O2 0.208166 0.682471 0.647330
O O3 0.993772 0.715776 0.703228
O O4 0.355135 0.695844 0.023336
O O5 0.332864 0.391991 0.143939
O O6 0.592977 0.326973 0.428654
O O7 0.637480 0.500000 0.922384
O O8 0.345513 0.442034 0.635204
O O9 0.500000 0.425718 0.000000
O O10 0.500000 0.058808 0.500000
O O11 0.592358 0.115934 0.335694
O O12 0.578860 0.000000 0.324803
#
# Coordination Sequence:
#
# PCOD9173576 Si02
#       5
#     8   8   8   8   8
#     4  10  19  29  44  64  85 119 149 173 219 258
#     4  10  19  30  44  64  92 113 143 185 212 255
#     4   9  17  27  42  62  85 114 139 169 219 264
#     4   9  15  24  39  59  83 111 140 170 206 254
#     4  10  18  31  44  62  89 118 148 180 215 261
#
# _framework density 26.337198999999998
#
# number of rings (size 3 to 8) (size 9 to 14) (size 15 to 20)
#    0.000    2.400    2.000    3.600    0.000    0.000 
#    0.000    0.000    0.000    0.000    0.000    2.800 
#    0.000   16.000    0.000    0.000    0.000    6.400 
#
# Total GULP energy -111526.650303 kJ/mol
# GULP energy per Si atom -5576.332515 kJ/mol
# Density = 2.627725 g / cm^3
# Si number density = 26.337199 Si / 1000 Ang^3
#
#
#
# Elastic Constant Matrix: (Units=GPa)
#
#
# Indices 1 2 3 4 5 6 
#
# 1 88.3425 9.6541 6.6599 0.0000 6.2643 0.0000
# 2 9.6541 240.3056 3.3976 0.0000 6.8605 0.0000
# 3 6.6599 3.3976 113.0688 0.0000 13.8566 0.0000
# 4 0.0000 0.0000 0.0000 35.2817 0.0000 7.2921
# 5 6.2643 6.8605 13.8566 0.0000 24.5990 0.0000
# 6 0.0000 0.0000 0.0000 7.2921 0.0000 17.0758
#
#
#
# Elastic Compliance Matrix: (Units=1/GPa)
#
#
# Indices 1 2 3 4 5 6 
#
# 1 0.011575 -0.000385 -0.000346 0.000000 -0.002646 0.000000
# 2 -0.000385 0.004208 0.000030 0.000000 -0.001092 0.000000
# 3 -0.000346 0.000030 0.009510 0.000000 -0.005277 0.000000
# 4 0.000000 0.000000 0.000000 0.031087 0.000000 -0.013276
# 5 -0.002646 -0.001092 -0.005277 0.000000 0.044603 0.000000
# 6 0.000000 0.000000 0.000000 -0.013276 0.000000 0.064232
#
#
# Mechanical properties :
#
#
# Convention : Reuss Voigt Hill
#
# Bulk Modulus (GPa) = 41.85463 53.46002 47.65732
# Shear Modulus (GPa) = 28.64009 43.52499 36.08254
#
# Velocity S-wave (km/s) = 3.30121 4.06963 3.70540
# Velocity P-wave (km/s) = 5.51879 6.51344 6.03663
#
# Compressibility (1/GPa) = 0.02389222
#
# Stress axis : x y z
#
# Youngs Moduli (GPa) = 86.39086 237.66614 105.14799
#
# Poissons Ratio (x) = 0.09141 0.03638
# Poissons Ratio (y) = 0.03323 -0.00317
# Poissons Ratio (z) = 0.02989 -0.00715
#
# Static dielectric constant tensor:
#      x y z
#    x 2.352930 0.000000 -0.093420 
#    y 0.000000 2.122160 0.000000 
#    z -0.093420 0.000000 2.069510 
# 
# From -- ./inp_files/50120.got.cif
#   From: 2010.05.17/outbox.cif.g08.bks.cpg/sg12_26_cif.got.tgz:50120.got - 2010.06.03 13:09:07.
