data_PCOD9173721
_publ_section_title
;
Structure prediction by ZEFSAII (Michael W. Deem and Ramdas Pophale) SiO2 
 PCOD9173721
Probable space group: C 2/M
;
_chemical_formula_sum "Si O2"
_cell_formula_units_Z 64
_cell_length_a 23.064583
_cell_length_b 23.709285
_cell_length_c 5.066430
_cell_angle_alpha 90.000000
_cell_angle_beta 84.389414
_cell_angle_gamma 90.000000
_cell_volume 2757.278028
_symmetry_space_group_name_H-M "C 2/M"
_symmetry_group_IT_number 12
_symmetry_cell_setting 'monoclinic'
loop_
_space_group_symop_operation_xyz
x,y,z
-x,y,-z
-x,-y,-z
x,-y,z
1/2+x,1/2+y,z
1/2-x,1/2+y,-z
1/2-x,1/2-y,-z
1/2+x,1/2-y,z
loop_
_atom_site_type_symbol
_atom_site_label
_atom_site_fract_x
_atom_site_fract_y
_atom_site_fract_z
Si Si1 0.852462 0.562989 0.767531
Si Si2 0.772146 0.412826 0.304317
Si Si3 0.113959 0.683561 0.202515
Si Si4 0.833742 0.060795 0.983892
Si Si5 0.337895 0.321063 0.198129
Si Si6 0.308164 0.793780 0.334767
Si Si7 0.415593 0.297743 0.667263
Si Si8 0.035793 0.913138 0.238034
O O1 0.877620 0.500000 0.734584
O O2 0.803655 0.570360 0.560617
O O3 0.895687 0.617045 0.742468
O O4 0.817809 0.569322 0.056690
O O5 0.711660 0.437331 0.235132
O O6 0.679429 0.386284 0.817585
O O7 0.764934 0.344858 0.299144
O O8 0.138568 0.692840 0.896446
O O9 0.165393 0.698673 0.386972
O O10 0.067601 0.732362 0.296295
O O11 0.898099 0.067996 0.834533
O O12 0.829314 0.000000 0.120405
O O13 0.292576 0.271147 0.284977
O O14 0.389087 0.312369 0.392245
O O15 0.363336 0.307336 0.899256
O O16 0.460946 0.345116 0.731955
O O17 0.000000 0.935382 0.500000
O O18 0.000000 0.928657 0.000000
#
# Coordination Sequence:
#
# PCOD9173721 Si02
#       8
#     8   8   8   8   8   8   8   8
#     4  10  18  31  49  75 113 149 177 199 230 284
#     4  10  21  34  51  75 104 142 180 213 245 284
#     4   8  15  27  49  76 103 135 165 201 241 288
#     4  11  24  40  57  77 103 135 173 215 262 315
#     4   9  18  33  54  77 102 132 163 204 252 299
#     4   8  15  30  50  74 102 132 169 205 242 286
#     4   9  17  35  57  77  99 122 161 213 264 311
#     4  11  24  42  61  77  94 123 166 222 282 326
#
# _framework density 23.211300000000001
#
# number of rings (size 3 to 8) (size 9 to 14) (size 15 to 20)
#    0.000    2.500    0.000    2.625    0.000    4.000 
#    0.000    8.750    0.000   15.750    0.000    0.000 
#    0.000    1.000    0.000    0.000    0.000   14.000 
#
# Total GULP energy -178773.712549 kJ/mol
# GULP energy per Si atom -5586.678517 kJ/mol
# Density = 2.315847 g / cm^3
# Si number density = 23.211300 Si / 1000 Ang^3
#
#
#
# Elastic Constant Matrix: (Units=GPa)
#
#
# Indices 1 2 3 4 5 6 
#
# 1 14.0609 7.0201 2.4912 0.0000 -4.5390 0.0000
# 2 7.0201 233.4735 17.0658 0.0000 -5.6166 0.0000
# 3 2.4912 17.0658 100.1497 0.0000 14.7200 0.0000
# 4 0.0000 0.0000 0.0000 17.8944 0.0000 -7.0591
# 5 -4.5390 -5.6166 14.7200 0.0000 15.2281 0.0000
# 6 0.0000 0.0000 0.0000 -7.0591 0.0000 -11.3504
#
#
#
# Elastic Compliance Matrix: (Units=1/GPa)
#
#
# Indices 1 2 3 4 5 6 
#
# 1 0.082634 -0.001299 -0.006275 0.000000 0.030217 0.000000
# 2 -0.001299 0.004455 -0.001062 0.000000 0.002283 0.000000
# 3 -0.006275 -0.001062 0.012419 0.000000 -0.014267 0.000000
# 4 0.000000 0.000000 0.000000 0.044874 0.000000 -0.027908
# 5 0.030217 0.002283 -0.014267 0.000000 0.089308 0.000000
# 6 0.000000 0.000000 0.000000 -0.027908 0.000000 -0.070746
#
#
# Mechanical properties :
#
#
# Convention : Reuss Voigt Hill
#
# Bulk Modulus (GPa) = 12.16039 44.53759 28.34899
# Shear Modulus (GPa) = 24.08141 25.76155 24.92148
#
# Velocity S-wave (km/s) = 3.22450 3.33509 3.28026
# Velocity P-wave (km/s) = 4.37190 5.83609 5.15623
#
# Compressibility (1/GPa) = 0.08223418
#
# Stress axis : x y z
#
# Youngs Moduli (GPa) = 12.10158 224.47875 80.52071
#
# Poissons Ratio (x) = 0.29160 0.50531
# Poissons Ratio (y) = 0.01572 0.08554
# Poissons Ratio (z) = 0.07594 0.23847
#
# Static dielectric constant tensor:
#      x y z
#    x 1.799960 0.000000 -0.039490 
#    y 0.000000 2.015100 0.000000 
#    z -0.039490 0.000000 1.866310 
# 
# From -- ./inp_files/26061.got.cif
#   From: 2010.05.17/outbox.cif.g08.bks.cpg/sg12_14_cif.got.tgz:26061.got - 2010.06.03 13:09:07.
