data_PCOD9173380
_publ_section_title
;
Structure prediction by ZEFSAII (Michael W. Deem and Ramdas Pophale) SiO2 
 PCOD9173380
Probable space group: C 2/M
;
_chemical_formula_sum "Si O2"
_cell_formula_units_Z 36
_cell_length_a 16.318466
_cell_length_b 18.495828
_cell_length_c 7.552067
_cell_angle_alpha 90.000000
_cell_angle_beta 43.586056
_cell_angle_gamma 90.000000
_cell_volume 1571.511226
_symmetry_space_group_name_H-M "C 2/M"
_symmetry_group_IT_number 12
_symmetry_cell_setting 'monoclinic'
loop_
_space_group_symop_operation_xyz
x,y,z
-x,y,-z
-x,-y,-z
x,-y,z
1/2+x,1/2+y,z
1/2-x,1/2+y,-z
1/2-x,1/2-y,-z
1/2+x,1/2-y,z
loop_
_atom_site_type_symbol
_atom_site_label
_atom_site_fract_x
_atom_site_fract_y
_atom_site_fract_z
Si Si1 0.500000 0.306253 0.500000
Si Si2 0.084308 0.082830 0.604296
Si Si3 0.151892 0.274025 0.007760
Si Si4 0.328500 0.370845 0.173606
Si Si5 0.629065 0.917912 0.205721
O O1 0.401513 0.361380 0.578749
O O2 0.467658 0.255210 0.711776
O O3 0.172157 0.097648 0.628955
O O4 0.088305 0.000000 0.542031
O O5 0.952174 0.101206 0.890121
O O6 0.140073 0.359643 0.030195
O O7 0.250000 0.250000 0.000000
O O8 0.170583 0.217129 0.820928
O O9 0.223720 0.397229 0.210541
O O10 0.500000 0.913170 0.500000
O O11 0.649543 0.000000 0.114840
#
# Coordination Sequence:
#
# PCOD9173380 Si02
#       5
#     4   8   8   8   8
#     4  10  19  32  51  76 106 136 178 218 271 320
#     4  10  18  31  53  80 109 136 172 222 271 321
#     4   9  18  33  51  74 106 140 176 218 258 315
#     4   9  18  32  53  78 109 139 173 215 267 320
#     4  10  18  30  52  78 105 141 182 219 254 307
#
# _framework density 22.907886000000001
#
# number of rings (size 3 to 8) (size 9 to 14) (size 15 to 20)
#    0.000    2.444    1.111    3.000    0.000    0.000 
#    0.000    5.556    4.889    0.000    0.000   14.000 
#    0.000    2.000    0.000    0.000    0.000    0.000 
#
# Total GULP energy -100438.347784 kJ/mol
# GULP energy per Si atom -5579.908210 kJ/mol
# Density = 2.285575 g / cm^3
# Si number density = 22.907886 Si / 1000 Ang^3
#
#
#
# Elastic Constant Matrix: (Units=GPa)
#
#
# Indices 1 2 3 4 5 6 
#
# 1 64.0933 25.0890 12.6619 0.0000 -8.0953 0.0000
# 2 25.0890 229.6966 18.8338 0.0000 0.1440 0.0000
# 3 12.6619 18.8338 42.0440 0.0000 -6.5046 0.0000
# 4 0.0000 0.0000 0.0000 14.3840 0.0000 9.1014
# 5 -8.0953 0.1440 -6.5046 0.0000 25.0446 0.0000
# 6 0.0000 0.0000 0.0000 9.1014 0.0000 28.6353
#
#
#
# Elastic Compliance Matrix: (Units=1/GPa)
#
#
# Indices 1 2 3 4 5 6 
#
# 1 0.017585 -0.001608 -0.003849 0.000000 0.004694 0.000000
# 2 -0.001608 0.004675 -0.001765 0.000000 -0.001005 0.000000
# 3 -0.003849 -0.001765 0.026613 0.000000 0.005678 0.000000
# 4 0.000000 0.000000 0.000000 0.087023 0.000000 -0.027659
# 5 0.004694 -0.001005 0.005678 0.000000 0.042926 0.000000
# 6 0.000000 0.000000 0.000000 -0.027659 0.000000 0.043713
#
#
# Mechanical properties :
#
#
# Convention : Reuss Voigt Hill
#
# Bulk Modulus (GPa) = 29.04674 49.88925 39.46799
# Shear Modulus (GPa) = 20.12428 32.22939 26.17684
#
# Velocity S-wave (km/s) = 2.96714 3.75495 3.38405
# Velocity P-wave (km/s) = 4.94428 6.37378 5.70399
#
# Compressibility (1/GPa) = 0.03442727
#
# Stress axis : x y z
#
# Youngs Moduli (GPa) = 56.86660 213.92290 37.57560
#
# Poissons Ratio (x) = 0.34400 0.14464
# Poissons Ratio (y) = 0.09145 0.06633
# Poissons Ratio (z) = 0.21890 0.37762
#
# Static dielectric constant tensor:
#      x y z
#    x 1.867050 0.000000 -0.049080 
#    y 0.000000 1.881410 0.000000 
#    z -0.049080 0.000000 2.029280 
# 
# From -- ./inp_files/48996.got.cif
#   From: 2010.05.17/outbox.cif.g08.bks.cpg/sg12_25_cif.got.tgz:48996.got - 2010.06.03 13:09:07.
