data_PCOD9173264
_publ_section_title
;
Structure prediction by ZEFSAII (Michael W. Deem and Ramdas Pophale) SiO2 
 PCOD9173264
Probable space group: C 2/M
;
_chemical_formula_sum "Si O2"
_cell_formula_units_Z 48
_cell_length_a 22.699367
_cell_length_b 13.893991
_cell_length_c 7.075284
_cell_angle_alpha 90.000000
_cell_angle_beta 120.619840
_cell_angle_gamma 90.000000
_cell_volume 1920.298192
_symmetry_space_group_name_H-M "C 2/M"
_symmetry_group_IT_number 12
_symmetry_cell_setting 'monoclinic'
loop_
_space_group_symop_operation_xyz
x,y,z
-x,y,-z
-x,-y,-z
x,-y,z
1/2+x,1/2+y,z
1/2-x,1/2+y,-z
1/2-x,1/2-y,-z
1/2+x,1/2-y,z
loop_
_atom_site_type_symbol
_atom_site_label
_atom_site_fract_x
_atom_site_fract_y
_atom_site_fract_z
Si Si1 0.224904 0.248945 0.173499
Si Si2 0.393425 0.603124 0.957630
Si Si3 0.022330 0.321512 0.340855
Si Si4 0.339437 0.891504 0.425985
Si Si5 0.452190 0.393604 0.638786
Si Si6 0.120378 0.389507 0.959067
O O1 0.158573 0.181946 0.064654
O O2 0.285518 0.193527 0.380146
O O3 0.250000 0.250000 0.000000
O O4 0.190289 0.350375 0.170037
O O5 0.361359 0.500000 0.946967
O O6 0.409342 0.609620 0.761452
O O7 0.467580 0.604332 0.175893
O O8 0.087015 0.373839 0.356526
O O9 0.052339 0.215069 0.446433
O O10 0.000000 0.371252 0.500000
O O11 0.949408 0.327597 0.116077
O O12 0.358926 0.885237 0.232207
O O13 0.314389 0.000000 0.420650
O O14 0.436482 0.500000 0.524647
O O15 0.106263 0.500000 0.981451
#
# Coordination Sequence:
#
# PCOD9173264 Si02
#       6
#     8   8   8   8   8   8
#     4  10  18  30  51  77 101 128 169 220 260 299
#     4   9  17  32  54  76 100 133 176 219 255 302
#     4  10  18  31  51  74 106 136 172 214 259 309
#     4   9  18  30  47  74 102 133 170 206 255 312
#     4   9  18  32  52  77 101 133 178 218 256 305
#     4   9  17  30  48  71 100 134 171 212 254 302
#
# _framework density 24.996119
#
# number of rings (size 3 to 8) (size 9 to 14) (size 15 to 20)
#    0.000    2.667    1.667    2.000    0.000    3.000 
#    0.000    1.667    0.000    3.000    0.000    0.000 
#    0.000    0.000    0.000    0.000    0.000    0.000 
#
# Total GULP energy -133847.279281 kJ/mol
# GULP energy per Si atom -5576.969970 kJ/mol
# Density = 2.493923 g / cm^3
# Si number density = 24.996119 Si / 1000 Ang^3
#
#
#
# Elastic Constant Matrix: (Units=GPa)
#
#
# Indices 1 2 3 4 5 6 
#
# 1 85.7148 33.2050 37.5515 0.0000 29.7918 0.0000
# 2 33.2050 133.5717 16.0928 0.0000 30.4248 0.0000
# 3 37.5515 16.0928 74.9635 0.0000 15.1647 0.0000
# 4 0.0000 0.0000 0.0000 26.1115 0.0000 8.6405
# 5 29.7918 30.4248 15.1647 0.0000 46.0120 0.0000
# 6 0.0000 0.0000 0.0000 8.6405 0.0000 32.6844
#
#
#
# Elastic Compliance Matrix: (Units=1/GPa)
#
#
# Indices 1 2 3 4 5 6 
#
# 1 0.018402 -0.001809 -0.007137 0.000000 -0.008367 0.000000
# 2 -0.001809 0.009033 -0.000066 0.000000 -0.004780 0.000000
# 3 -0.007137 -0.000066 0.017128 0.000000 -0.000980 0.000000
# 4 0.000000 0.000000 0.000000 0.041969 0.000000 -0.011095
# 5 -0.008367 -0.004780 -0.000980 0.000000 0.030634 0.000000
# 6 0.000000 0.000000 0.000000 -0.011095 0.000000 0.033529
#
#
# Mechanical properties :
#
#
# Convention : Reuss Voigt Hill
#
# Bulk Modulus (GPa) = 37.68184 51.99427 44.83805
# Shear Modulus (GPa) = 28.15865 34.78829 31.47347
#
# Velocity S-wave (km/s) = 3.36001 3.73466 3.55228
# Velocity P-wave (km/s) = 5.49187 6.28037 5.89931
#
# Compressibility (1/GPa) = 0.02653798
#
# Stress axis : x y z
#
# Youngs Moduli (GPa) = 54.34131 110.70461 58.38543
#
# Poissons Ratio (x) = 0.20027 0.41672
# Poissons Ratio (y) = 0.09830 0.00385
# Poissons Ratio (z) = 0.38785 0.00731
#
# Static dielectric constant tensor:
#      x y z
#    x 1.910630 0.000000 -0.035190 
#    y 0.000000 2.021170 0.000000 
#    z -0.035190 0.000000 2.027250 
# 
# From -- ./inp_files/155483.got.cif
#   From: 2010.05.17/outbox.cif.g08.bks.cpg/sg12_78_cif.got.tgz:155483.got - 2010.06.03 13:09:07.
