data_PCOD9173253
_publ_section_title
;
Structure prediction by ZEFSAII (Michael W. Deem and Ramdas Pophale) SiO2 
 PCOD9173253
Probable space group: C 2/M
;
_chemical_formula_sum "Si O2"
_cell_formula_units_Z 56
_cell_length_a 30.299295
_cell_length_b 7.420888
_cell_length_c 15.450421
_cell_angle_alpha 90.000000
_cell_angle_beta 46.254252
_cell_angle_gamma 90.000000
_cell_volume 2509.664344
_symmetry_space_group_name_H-M "C 2/M"
_symmetry_group_IT_number 12
_symmetry_cell_setting 'monoclinic'
loop_
_space_group_symop_operation_xyz
x,y,z
-x,y,-z
-x,-y,-z
x,-y,z
1/2+x,1/2+y,z
1/2-x,1/2+y,-z
1/2-x,1/2-y,-z
1/2+x,1/2-y,z
loop_
_atom_site_type_symbol
_atom_site_label
_atom_site_fract_x
_atom_site_fract_y
_atom_site_fract_z
Si Si1 0.598778 0.780149 0.342969
Si Si2 0.407131 0.779490 0.338007
Si Si3 0.933131 0.713772 0.111159
Si Si4 0.775215 0.285093 0.561538
Si Si5 0.315667 0.716919 0.166450
Si Si6 0.987529 0.719024 0.381018
Si Si7 0.235441 0.715449 0.119469
O O1 0.563454 0.727563 0.478625
O O2 0.553609 0.723471 0.326257
O O3 0.668058 0.716935 0.237897
O O4 0.600179 0.000000 0.341662
O O5 0.409067 0.716784 0.236311
O O6 0.344663 0.718897 0.468375
O O7 0.464747 0.723885 0.317761
O O8 0.405704 0.000000 0.339566
O O9 0.939841 0.500000 0.114229
O O10 0.884088 0.737954 0.101963
O O11 0.000000 0.787697 0.000000
O O12 0.777823 0.500000 0.570708
O O13 0.750000 0.250000 0.500000
O O14 0.729651 0.214932 0.696309
O O15 0.313364 0.500000 0.169456
O O16 0.288288 0.781694 0.112648
O O17 0.988520 0.500000 0.380070
O O18 0.232924 0.500000 0.133556
O O19 0.250000 0.750000 0.000000
#
# Coordination Sequence:
#
# PCOD9173253 Si02
#       7
#     8   8   8   8   8   8   8
#     4   8  14  26  45  71 100 126 160 208 256 302
#     4   9  16  27  44  69 100 130 162 204 252 302
#     4  10  21  35  51  74 104 137 174 215 260 310
#     4  10  18  30  51  76 102 134 169 212 259 306
#     4  10  21  36  54  76 104 138 176 218 265 315
#     4   8  13  23  44  72  98 125 159 206 260 299
#     4  10  21  36  53  76 104 137 177 216 258 308
#
# _framework density 22.313739999999999
#
# number of rings (size 3 to 8) (size 9 to 14) (size 15 to 20)
#    0.000    2.714    1.429    1.714    0.000    5.429 
#    0.000    2.857    0.000    0.000    0.000    2.000 
#    0.000    0.000    0.000    0.000    0.000    0.000 
#
# Total GULP energy -156338.917243 kJ/mol
# GULP energy per Si atom -5583.532759 kJ/mol
# Density = 2.226295 g / cm^3
# Si number density = 22.313740 Si / 1000 Ang^3
#
#
#
# Elastic Constant Matrix: (Units=GPa)
#
#
# Indices 1 2 3 4 5 6 
#
# 1 191.4007 -8.5037 65.0331 -0.0001 -9.5124 0.0002
# 2 -8.5037 69.0383 0.7721 -0.0001 -4.6047 0.0006
# 3 65.0331 0.7721 87.2462 0.0001 -17.5840 0.0000
# 4 -0.0001 -0.0001 0.0001 -14.0052 0.0000 11.6114
# 5 -9.5124 -4.6047 -17.5840 0.0000 34.8563 0.0000
# 6 0.0002 0.0006 0.0000 11.6114 0.0000 5.4848
#
#
#
# Elastic Compliance Matrix: (Units=1/GPa)
#
#
# Indices 1 2 3 4 5 6 
#
# 1 0.007070 0.000886 -0.005416 0.000000 -0.000686 0.000000
# 2 0.000886 0.014731 -0.000389 0.000000 0.001991 0.000000
# 3 -0.005416 -0.000389 0.016914 0.000000 0.007003 0.000000
# 4 0.000000 0.000000 0.000000 -0.025916 0.000000 0.054864
# 5 -0.000686 0.001991 0.007003 0.000000 0.032298 0.000000
# 6 0.000000 0.000000 0.000000 0.054864 0.000000 0.066175
#
#
# Mechanical properties :
#
#
# Convention : Reuss Voigt Hill
#
# Bulk Modulus (GPa) = 34.63120 51.36536 42.99828
# Shear Modulus (GPa) = 38.24486 24.62610 31.43548
#
# Velocity S-wave (km/s) = 4.14449 3.32570 3.75746
# Velocity P-wave (km/s) = 6.20131 6.14952 6.17547
#
# Compressibility (1/GPa) = 0.02887570
#
# Stress axis : x y z
#
# Youngs Moduli (GPa) = 141.43907 67.88416 59.12299
#
# Poissons Ratio (x) = -0.06012 0.32022
# Poissons Ratio (y) = -0.12527 0.02301
# Poissons Ratio (z) = 0.76606 0.02642
#
# Static dielectric constant tensor:
#      x y z
#    x 1.826020 0.000000 -0.003420 
#    y 0.000000 1.869460 0.000000 
#    z -0.003420 0.000000 1.789850 
# 
# From -- ./inp_files/250540.got.cif
#   From: 2010.05.17/outbox.cif.g08.bks.cpg/sg12_126_cif.got.tgz:250540.got - 2010.06.03 13:09:07.
