data_PCOD9173413
_publ_section_title
;
Structure prediction by ZEFSAII (Michael W. Deem and Ramdas Pophale) SiO2 
 PCOD9173413
Probable space group: C 2/M
;
_chemical_formula_sum "Si O2"
_cell_formula_units_Z 64
_cell_length_a 15.315935
_cell_length_b 25.787946
_cell_length_c 7.228312
_cell_angle_alpha 90.000000
_cell_angle_beta 90.586904
_cell_angle_gamma 90.000000
_cell_volume 2854.791346
_symmetry_space_group_name_H-M "C 2/M"
_symmetry_group_IT_number 12
_symmetry_cell_setting 'monoclinic'
loop_
_space_group_symop_operation_xyz
x,y,z
-x,y,-z
-x,-y,-z
x,-y,z
1/2+x,1/2+y,z
1/2-x,1/2+y,-z
1/2-x,1/2-y,-z
1/2+x,1/2-y,z
loop_
_atom_site_type_symbol
_atom_site_label
_atom_site_fract_x
_atom_site_fract_y
_atom_site_fract_z
Si Si1 0.347808 0.558436 0.707163
Si Si2 0.198803 0.941786 0.860110
Si Si3 0.990317 0.779702 0.717937
Si Si4 0.305993 0.864683 0.346660
Si Si5 0.283100 0.261169 0.713197
Si Si6 0.483653 0.833488 0.275415
Si Si7 0.523242 0.394201 0.792609
Si Si8 0.677512 0.152109 0.216121
O O1 0.355256 0.500000 0.636573
O O2 0.262024 0.588827 0.643671
O O3 0.437601 0.589649 0.676186
O O4 0.331499 0.555571 0.927898
O O5 0.114577 0.920893 0.745432
O O6 0.273169 0.898344 0.853191
O O7 0.224388 0.000000 0.802953
O O8 0.886413 0.772712 0.738451
O O9 0.000000 0.785469 0.500000
O O10 0.036779 0.726358 0.778007
O O11 0.029885 0.832086 0.799002
O O12 0.263650 0.815176 0.243705
O O13 0.400750 0.870938 0.255773
O O14 0.320530 0.850553 0.560513
O O15 0.250000 0.250000 0.500000
O O16 0.273417 0.206775 0.821464
O O17 0.500000 0.831184 0.500000
O O18 0.573734 0.847067 0.175306
O O19 0.500000 0.411609 0.000000
#
# Coordination Sequence:
#
# PCOD9173413 Si02
#       8
#     8   8   8   8   8   8   8   8
#     4  10  21  39  55  74 104 142 182 220 264 319
#     4  10  22  38  56  74 103 144 182 221 269 312
#     4  10  18  30  52  81 110 140 174 209 255 317
#     4  10  18  33  56  80 106 139 176 218 260 315
#     4   9  17  29  51  80 110 137 169 209 265 314
#     4   8  17  33  53  78 111 143 169 205 265 325
#     4  10  21  35  52  76 107 142 177 214 263 319
#     4   9  19  34  55  81 106 136 178 218 262 313
#
# _framework density 22.418448999999999
#
# number of rings (size 3 to 8) (size 9 to 14) (size 15 to 20)
#    0.000    2.500    1.250    2.625    5.250    2.000 
#    0.000    4.375    0.000    6.000    0.000    0.000 
#    0.000    0.000    0.000    0.000    0.000    0.000 
#
# Total GULP energy -178602.440518 kJ/mol
# GULP energy per Si atom -5581.326266 kJ/mol
# Density = 2.236742 g / cm^3
# Si number density = 22.418449 Si / 1000 Ang^3
#
#
#
# Elastic Constant Matrix: (Units=GPa)
#
#
# Indices 1 2 3 4 5 6 
#
# 1 88.8328 56.3061 -22.5326 0.0000 -1.6469 0.0000
# 2 56.3061 131.9659 -18.5908 0.0000 -10.4178 0.0000
# 3 -22.5326 -18.5908 39.8912 0.0000 -3.8250 0.0000
# 4 0.0000 0.0000 0.0000 27.3450 0.0000 2.3429
# 5 -1.6469 -10.4178 -3.8250 0.0000 19.4041 0.0000
# 6 0.0000 0.0000 0.0000 2.3429 0.0000 30.8338
#
#
#
# Elastic Compliance Matrix: (Units=1/GPa)
#
#
# Indices 1 2 3 4 5 6 
#
# 1 0.016932 -0.006358 0.006535 0.000000 -0.000688 0.000000
# 2 -0.006358 0.011047 0.002114 0.000000 0.005808 0.000000
# 3 0.006535 0.002114 0.030483 0.000000 0.007698 0.000000
# 4 0.000000 0.000000 0.000000 0.036809 0.000000 -0.002797
# 5 -0.000688 0.005808 0.007698 0.000000 0.056113 0.000000
# 6 0.000000 0.000000 0.000000 -0.002797 0.000000 0.032644
#
#
# Mechanical properties :
#
#
# Convention : Reuss Voigt Hill
#
# Bulk Modulus (GPa) = 15.86228 32.33945 24.10087
# Shear Modulus (GPa) = 24.94249 31.88374 28.41312
#
# Velocity S-wave (km/s) = 3.33917 3.77531 3.56392
# Velocity P-wave (km/s) = 4.68590 5.78452 5.26395
#
# Compressibility (1/GPa) = 0.06304262
#
# Stress axis : x y z
#
# Youngs Moduli (GPa) = 59.05979 90.52385 32.80548
#
# Poissons Ratio (x) = 0.57556 -0.21438
# Poissons Ratio (y) = 0.37551 -0.06934
# Poissons Ratio (z) = -0.38595 -0.19134
#
# Static dielectric constant tensor:
#      x y z
#    x 1.813660 0.000000 -0.000460 
#    y 0.000000 1.813180 0.000000 
#    z -0.000460 0.000000 1.911290 
# 
# From -- ./inp_files/65901.got.cif
#   From: 2010.05.17/outbox.cif.g08.bks.cpg/sg12_33_cif.got.tgz:65901.got - 2010.06.03 13:09:07.
