data_PCOD9173188
_publ_section_title
;
Structure prediction by ZEFSAII (Michael W. Deem and Ramdas Pophale) SiO2 
 PCOD9173188
Probable space group: C 2/M
;
_chemical_formula_sum "Si O2"
_cell_formula_units_Z 56
_cell_length_a 20.549717
_cell_length_b 8.227032
_cell_length_c 30.001446
_cell_angle_alpha 90.000000
_cell_angle_beta 144.819987
_cell_angle_gamma 90.000000
_cell_volume 2922.299318
_symmetry_space_group_name_H-M "C 2/M"
_symmetry_group_IT_number 12
_symmetry_cell_setting 'monoclinic'
loop_
_space_group_symop_operation_xyz
x,y,z
-x,y,-z
-x,-y,-z
x,-y,z
1/2+x,1/2+y,z
1/2-x,1/2+y,-z
1/2-x,1/2-y,-z
1/2+x,1/2-y,z
loop_
_atom_site_type_symbol
_atom_site_label
_atom_site_fract_x
_atom_site_fract_y
_atom_site_fract_z
Si Si1 0.239941 0.810962 0.585722
Si Si2 0.974538 0.197321 0.843877
Si Si3 0.596376 0.195107 0.820643
Si Si4 0.766285 0.303657 0.316330
Si Si5 0.544337 0.313464 0.341816
Si Si6 0.991343 0.689181 0.582308
Si Si7 0.688403 0.695853 0.010975
O O1 0.249004 0.750943 0.641420
O O2 0.328980 0.716877 0.604836
O O3 0.113230 0.782306 0.497988
O O4 0.269932 0.000000 0.600384
O O5 0.844533 0.250337 0.773020
O O6 0.026617 0.258307 0.826165
O O7 0.976669 0.000000 0.843684
O O8 0.059298 0.250223 0.930974
O O9 0.537886 0.273538 0.745322
O O10 0.726190 0.249604 0.902347
O O11 0.593274 0.000000 0.814105
O O12 0.767972 0.500000 0.316132
O O13 0.886919 0.247603 0.365515
O O14 0.532052 0.500000 0.348529
O O15 0.518285 0.205105 0.370020
O O16 0.981177 0.500000 0.563273
O O17 0.687778 0.500000 0.012452
O O18 0.750000 0.750000 0.000000
#
# Coordination Sequence:
#
# PCOD9173188 Si02
#       7
#     8   8   8   8   8   8   8
#     4  12  24  39  60  84 110 141 182 229 275 327
#     4   9  16  30  52  79 110 145 179 217 266 322
#     4  10  18  30  50  80 111 142 179 224 272 320
#     4  10  21  37  59  84 113 147 183 223 270 323
#     4  12  24  39  58  80 109 145 186 230 277 329
#     4  11  24  41  58  80 111 146 184 227 275 326
#     4   8  15  26  45  75 110 140 174 218 265 316
#
# _framework density 19.162994000000001
#
# number of rings (size 3 to 8) (size 9 to 14) (size 15 to 20)
#    0.000    1.714    1.429    4.286    0.000    3.429 
#    0.000    0.000    0.000    0.857    0.000    6.000 
#    0.000    0.000    0.000    0.000    0.000    0.000 
#
# Total GULP energy -156277.645483 kJ/mol
# GULP energy per Si atom -5581.344482 kJ/mol
# Density = 1.911938 g / cm^3
# Si number density = 19.162994 Si / 1000 Ang^3
#
#
#
# Elastic Constant Matrix: (Units=GPa)
#
#
# Indices 1 2 3 4 5 6 
#
# 1 12.7594 -6.3851 -12.4265 0.0000 -15.4418 -0.0002
# 2 -6.3851 15.4812 -0.6932 0.0000 0.9780 -0.0003
# 3 -12.4265 -0.6932 109.5619 0.0000 5.3559 0.0000
# 4 0.0000 0.0000 0.0000 20.3087 0.0000 -0.2898
# 5 -15.4418 0.9780 5.3559 0.0000 -17.8749 -0.0001
# 6 -0.0002 -0.0003 0.0000 -0.2898 -0.0001 16.4522
#
#
#
# Elastic Compliance Matrix: (Units=1/GPa)
#
#
# Indices 1 2 3 4 5 6 
#
# 1 0.049849 0.023399 0.007731 0.000000 -0.039467 0.000001
# 2 0.023399 0.075362 0.003861 0.000000 -0.014934 0.000002
# 3 0.007731 0.003861 0.010195 0.000000 -0.003413 0.000000
# 4 0.000000 0.000000 0.000000 0.049252 0.000000 0.000867
# 5 -0.039467 -0.014934 -0.003413 0.000000 -0.023689 -0.000001
# 6 0.000001 0.000002 0.000000 0.000867 -0.000001 0.060798
#
#
# Mechanical properties :
#
#
# Convention : Reuss Voigt Hill
#
# Bulk Modulus (GPa) = 4.86881 10.97699 7.92290
# Shear Modulus (GPa) = 22.70182 14.26435 18.48308
#
# Velocity S-wave (km/s) = 3.44564 2.73127 3.10904
# Velocity P-wave (km/s) = 4.28674 3.96070 4.12694
#
# Compressibility (1/GPa) = 0.20538898
#
# Stress axis : x y z
#
# Youngs Moduli (GPa) = 20.06056 13.26935 98.08353
#
# Poissons Ratio (x) = -0.31049 -0.75831
# Poissons Ratio (y) = -0.46940 -0.37868
# Poissons Ratio (z) = -0.15509 -0.05123
#
# Static dielectric constant tensor:
#      x y z
#    x 1.624350 0.000000 0.033210 
#    y 0.000000 1.664930 0.000000 
#    z 0.033210 0.000000 1.716430 
# 
# From -- ./inp_files/363219.got.cif
#   From: 2010.05.17/outbox.cif.g08.bks.cpg/sg12_182_cif.got.tgz:363219.got - 2010.06.03 13:09:07.
