data_PCOD9173482
_publ_section_title
;
Structure prediction by ZEFSAII (Michael W. Deem and Ramdas Pophale) SiO2 
 PCOD9173482
Probable space group: C 2/M
;
_chemical_formula_sum "Si O2"
_cell_formula_units_Z 64
_cell_length_a 15.834667
_cell_length_b 27.427981
_cell_length_c 12.491021
_cell_angle_alpha 90.000000
_cell_angle_beta 140.349592
_cell_angle_gamma 90.000000
_cell_volume 3461.709076
_symmetry_space_group_name_H-M "C 2/M"
_symmetry_group_IT_number 12
_symmetry_cell_setting 'monoclinic'
loop_
_space_group_symop_operation_xyz
x,y,z
-x,y,-z
-x,-y,-z
x,-y,z
1/2+x,1/2+y,z
1/2-x,1/2+y,-z
1/2-x,1/2-y,-z
1/2+x,1/2-y,z
loop_
_atom_site_type_symbol
_atom_site_label
_atom_site_fract_x
_atom_site_fract_y
_atom_site_fract_z
Si Si1 0.341349 0.289383 0.862040
Si Si2 0.268731 0.555023 0.660978
Si Si3 0.319154 0.658580 0.621581
Si Si4 0.318771 0.819593 0.898032
Si Si5 0.703719 0.555742 0.060215
Si Si6 0.993425 0.555067 0.715473
Si Si7 0.882318 0.153932 0.114500
Si Si8 0.594338 0.852209 0.237837
O O1 0.287885 0.315962 0.704375
O O2 0.292720 0.234506 0.829170
O O3 0.500000 0.288168 0.000000
O O4 0.318820 0.318997 0.949391
O O5 0.310538 0.500000 0.670309
O O6 0.322332 0.600388 0.646687
O O7 0.305695 0.561751 0.820899
O O8 0.110689 0.557466 0.484434
O O9 0.466701 0.671958 0.727868
O O10 0.204257 0.668984 0.424891
O O11 0.205352 0.836153 0.867392
O O12 0.341920 0.854035 0.817888
O O13 0.461196 0.820167 0.097137
O O14 0.666283 0.500000 0.998153
O O15 0.857471 0.562673 0.178283
O O16 0.622563 0.596954 0.920547
O O17 0.983617 0.500000 0.749791
O O18 0.951233 0.595924 0.759117
#
# Coordination Sequence:
#
# PCOD9173482 Si02
#       8
#     8   8   8   8   8   8   8   8
#     4  10  20  39  60  83 111 149 186 235 291 337
#     4   9  17  31  54  84 120 154 183 228 287 344
#     4  10  22  37  60  87 118 147 187 236 286 344
#     4  11  22  41  61  79 112 153 196 236 282 332
#     4  10  18  30  53  86 119 150 187 229 284 345
#     4   9  17  32  55  86 116 148 192 238 282 328
#     4  11  22  37  57  83 119 151 184 230 287 341
#     4  10  21  39  62  84 110 153 192 238 279 334
#
# _framework density 18.487977999999998
#
# number of rings (size 3 to 8) (size 9 to 14) (size 15 to 20)
#    0.000    2.000    3.750    0.750    0.000    3.000 
#    0.000    3.750    2.750    0.000    0.000    4.375 
#    0.000    0.000    0.000    0.000    0.000    0.000 
#
# Total GULP energy -178510.189517 kJ/mol
# GULP energy per Si atom -5578.443422 kJ/mol
# Density = 1.844590 g / cm^3
# Si number density = 18.487978 Si / 1000 Ang^3
#
#
#
# Elastic Constant Matrix: (Units=GPa)
#
#
# Indices 1 2 3 4 5 6 
#
# 1 44.2809 -2.2579 16.2940 0.0000 -4.4535 0.0000
# 2 -2.2579 41.2627 12.4387 0.0000 -8.2451 0.0000
# 3 16.2940 12.4387 84.9409 0.0000 -0.9450 0.0000
# 4 0.0000 0.0000 0.0000 14.1271 0.0000 3.0364
# 5 -4.4535 -8.2451 -0.9450 0.0000 19.9216 0.0000
# 6 0.0000 0.0000 0.0000 3.0364 0.0000 14.6806
#
#
#
# Elastic Compliance Matrix: (Units=1/GPa)
#
#
# Indices 1 2 3 4 5 6 
#
# 1 0.025568 0.004516 -0.005485 0.000000 0.007325 0.000000
# 2 0.004516 0.028467 -0.004895 0.000000 0.012559 0.000000
# 3 -0.005485 -0.004895 0.013513 0.000000 -0.002611 0.000000
# 4 0.000000 0.000000 0.000000 0.074079 0.000000 -0.015322
# 5 0.007325 0.012559 -0.002611 0.000000 0.056909 0.000000
# 6 0.000000 0.000000 0.000000 -0.015322 0.000000 0.071286
#
#
# Mechanical properties :
#
#
# Convention : Reuss Voigt Hill
#
# Bulk Modulus (GPa) = 17.91447 24.82602 21.37025
# Shear Modulus (GPa) = 16.65798 19.34652 18.00225
#
# Velocity S-wave (km/s) = 3.00495 3.23838 3.12385
# Velocity P-wave (km/s) = 4.66374 5.23833 4.95937
#
# Compressibility (1/GPa) = 0.05582079
#
# Stress axis : x y z
#
# Youngs Moduli (GPa) = 39.11110 35.12788 74.00388
#
# Poissons Ratio (x) = -0.15864 0.40588
# Poissons Ratio (y) = -0.17663 0.36228
# Poissons Ratio (z) = 0.21451 0.17196
#
# Static dielectric constant tensor:
#      x y z
#    x 1.612370 0.000000 0.014410 
#    y 0.000000 1.656720 0.000000 
#    z 0.014410 0.000000 1.643270 
# 
# From -- ./inp_files/150290.got.cif
#   From: 2010.05.17/outbox.cif.g08.bks.cpg/sg12_76_cif.got.tgz:150290.got - 2010.06.03 13:09:07.
