data_PCOD9173787
_publ_section_title
;
Structure prediction by ZEFSAII (Michael W. Deem and Ramdas Pophale) SiO2 
 PCOD9173787
Probable space group: C 2/M
;
_chemical_formula_sum "Si O2"
_cell_formula_units_Z 64
_cell_length_a 23.163258
_cell_length_b 9.359693
_cell_length_c 14.692435
_cell_angle_alpha 90.000000
_cell_angle_beta 74.163465
_cell_angle_gamma 90.000000
_cell_volume 3064.432374
_symmetry_space_group_name_H-M "C 2/M"
_symmetry_group_IT_number 12
_symmetry_cell_setting 'monoclinic'
loop_
_space_group_symop_operation_xyz
x,y,z
-x,y,-z
-x,-y,-z
x,-y,z
1/2+x,1/2+y,z
1/2-x,1/2+y,-z
1/2-x,1/2-y,-z
1/2+x,1/2-y,z
loop_
_atom_site_type_symbol
_atom_site_label
_atom_site_fract_x
_atom_site_fract_y
_atom_site_fract_z
Si Si1 0.881217 0.334884 0.618929
Si Si2 0.296286 0.660809 0.540390
Si Si3 0.300181 0.156405 0.264465
Si Si4 0.570842 0.663731 0.952660
Si Si5 0.881705 0.671818 0.903464
Si Si6 0.777814 0.337976 0.821903
Si Si7 0.594035 0.665838 0.728232
Si Si8 0.463432 0.672392 0.717865
O O1 0.896756 0.500000 0.593235
O O2 0.854147 0.252876 0.543573
O O3 0.828800 0.339558 0.719685
O O4 0.934565 0.244570 0.641459
O O5 0.308840 0.500000 0.500536
O O6 0.250000 0.750000 0.500000
O O7 0.259439 0.642660 0.649820
O O8 0.277709 0.244473 0.187266
O O9 0.348062 0.236836 0.307007
O O10 0.323037 0.000000 0.229900
O O11 0.587130 0.500000 0.970282
O O12 0.580278 0.682480 0.841594
O O13 0.500000 0.680532 0.000000
O O14 0.605809 0.773401 0.001117
O O15 0.889039 0.500000 0.891123
O O16 0.815540 0.708535 0.893660
O O17 0.928746 0.754911 0.817841
O O18 0.756787 0.500000 0.842633
O O19 0.608214 0.500000 0.706385
O O20 0.534082 0.701716 0.699088
O O21 0.454742 0.500000 0.722959
#
# Coordination Sequence:
#
# PCOD9173787 Si02
#       8
#     8   8   8   8   8   8   8   8
#     4   9  17  30  50  79 108 134 168 213 256 299
#     4  10  20  35  57  85 111 138 168 206 254 304
#     4  10  21  35  53  78 105 132 170 212 253 303
#     4  10  19  34  50  70 100 135 177 220 263 311
#     4  10  19  30  48  75 100 129 171 223 271 307
#     4   8  16  31  49  69  98 132 168 208 256 309
#     4  10  21  35  52  72 101 142 177 210 260 313
#     4  10  18  31  50  73 102 138 177 215 255 306
#
# _framework density 20.884782000000001
#
# number of rings (size 3 to 8) (size 9 to 14) (size 15 to 20)
#    0.000    2.375    1.250    2.625    0.000    6.750 
#    0.000    0.625    0.000    0.750    0.000    5.250 
#    0.000    0.000    0.000    0.000    0.000    0.000 
#
# Total GULP energy -178589.920680 kJ/mol
# GULP energy per Si atom -5580.935021 kJ/mol
# Density = 2.083725 g / cm^3
# Si number density = 20.884782 Si / 1000 Ang^3
#
#
#
# Elastic Constant Matrix: (Units=GPa)
#
#
# Indices 1 2 3 4 5 6 
#
# 1 121.1718 82.9738 26.3442 0.0000 44.1001 0.0000
# 2 82.9738 128.3417 23.2056 0.0000 42.2454 0.0000
# 3 26.3442 23.2056 42.3237 0.0000 22.1808 0.0000
# 4 0.0000 0.0000 0.0000 19.4827 0.0000 8.6470
# 5 44.1001 42.2454 22.1808 0.0000 45.3722 0.0000
# 6 0.0000 0.0000 0.0000 8.6470 0.0000 24.6755
#
#
#
# Elastic Compliance Matrix: (Units=1/GPa)
#
#
# Indices 1 2 3 4 5 6 
#
# 1 0.017193 -0.008040 -0.001961 0.000000 -0.008266 0.000000
# 2 -0.008040 0.015021 0.000004 0.000000 -0.006173 0.000000
# 3 -0.001961 0.000004 0.032064 0.000000 -0.013772 0.000000
# 4 0.000000 0.000000 0.000000 0.060781 0.000000 -0.021299
# 5 -0.008266 -0.006173 -0.013772 0.000000 0.042555 0.000000
# 6 0.000000 0.000000 0.000000 -0.021299 0.000000 0.047990
#
#
# Mechanical properties :
#
#
# Convention : Reuss Voigt Hill
#
# Bulk Modulus (GPa) = 22.58216 61.87607 42.22911
# Shear Modulus (GPa) = 19.97134 28.52699 24.24917
#
# Velocity S-wave (km/s) = 3.09570 3.69985 3.41118
# Velocity P-wave (km/s) = 4.85943 6.92412 5.98154
#
# Compressibility (1/GPa) = 0.04428274
#
# Stress axis : x y z
#
# Youngs Moduli (GPa) = 58.16300 66.57463 31.18792
#
# Poissons Ratio (x) = 0.53525 0.06117
# Poissons Ratio (y) = 0.46762 -0.00012
# Poissons Ratio (z) = 0.11408 -0.00025
#
# Static dielectric constant tensor:
#      x y z
#    x 1.745030 0.000000 -0.034030 
#    y 0.000000 1.745890 0.000000 
#    z -0.034030 0.000000 1.795550 
# 
# From -- ./inp_files/287624.got.cif
#   From: 2010.05.17/outbox.cif.g08.bks.cpg/sg12_144_cif.got.tgz:287624.got - 2010.06.03 13:09:07.
