data_PCOD9173281
_publ_section_title
;
Structure prediction by ZEFSAII (Michael W. Deem and Ramdas Pophale) SiO2 
 PCOD9173281
Probable space group: C 2/M
;
_chemical_formula_sum "Si O2"
_cell_formula_units_Z 64
_cell_length_a 26.151720
_cell_length_b 7.471641
_cell_length_c 21.990997
_cell_angle_alpha 90.000000
_cell_angle_beta 43.563315
_cell_angle_gamma 90.000000
_cell_volume 2961.273687
_symmetry_space_group_name_H-M "C 2/M"
_symmetry_group_IT_number 12
_symmetry_cell_setting 'monoclinic'
loop_
_space_group_symop_operation_xyz
x,y,z
-x,y,-z
-x,-y,-z
x,-y,z
1/2+x,1/2+y,z
1/2-x,1/2+y,-z
1/2-x,1/2-y,-z
1/2+x,1/2-y,z
loop_
_atom_site_type_symbol
_atom_site_label
_atom_site_fract_x
_atom_site_fract_y
_atom_site_fract_z
Si Si1 0.684587 0.697089 0.601280
Si Si2 0.970727 0.717955 0.590135
Si Si3 0.565964 0.711145 0.067388
Si Si4 0.960990 0.283573 0.344109
Si Si5 0.398088 0.720170 0.212989
Si Si6 0.882321 0.285463 0.849322
Si Si7 0.155613 0.781053 0.874353
Si Si8 0.684448 0.781354 0.216726
O O1 0.706886 0.500000 0.601936
O O2 0.750000 0.750000 0.500000
O O3 0.610274 0.700926 0.625161
O O4 0.657932 0.788609 0.686691
O O5 0.968623 0.500000 0.590241
O O6 0.888348 0.774134 0.682293
O O7 0.000000 0.780776 0.500000
O O8 0.026098 0.766595 0.597042
O O9 0.556794 0.500000 0.065879
O O10 0.482906 0.781269 0.151445
O O11 0.620397 0.731941 0.078169
O O12 0.601655 0.781923 0.974765
O O13 0.954589 0.500000 0.346154
O O14 0.035942 0.230285 0.244503
O O15 0.398683 0.500000 0.215357
O O16 0.371977 0.772187 0.168351
O O17 0.879781 0.500000 0.850637
O O18 0.826583 0.223528 0.844266
O O19 0.238909 0.723905 0.819355
O O20 0.155352 0.000000 0.875045
O O21 0.684207 0.000000 0.216459
#
# Coordination Sequence:
#
# PCOD9173281 Si02
#       8
#     8   8   8   8   8   8   8   8
#     4  11  22  35  52  76 103 131 167 208 254 303
#     4   8  14  25  45  72  98 126 165 211 252 297
#     4  10  18  30  51  77  99 127 171 210 250 302
#     4   9  17  31  50  72  98 130 166 206 253 299
#     4   9  18  32  49  72 101 131 167 210 252 296
#     4   9  17  30  49  71 100 133 164 201 246 300
#     4   9  17  29  48  73 102 132 163 212 262 296
#     4   8  15  27  42  67 100 130 162 203 255 300
#
# _framework density 21.612321999999999
#
# number of rings (size 3 to 8) (size 9 to 14) (size 15 to 20)
#    0.000    2.875    1.250    2.250    0.000    3.000 
#    0.000    3.750    0.000    3.375    0.000    3.500 
#    0.000    0.000    0.000    0.000    0.000    0.000 
#
# Total GULP energy -178503.093894 kJ/mol
# GULP energy per Si atom -5578.221684 kJ/mol
# Density = 2.156313 g / cm^3
# Si number density = 21.612322 Si / 1000 Ang^3
#
#
#
# Elastic Constant Matrix: (Units=GPa)
#
#
# Indices 1 2 3 4 5 6 
#
# 1 107.2500 -5.2447 53.5808 -0.0064 27.8053 0.0429
# 2 -5.2447 54.7865 7.1335 -0.0210 -0.8766 0.0430
# 3 53.5808 7.1335 133.5848 -0.0043 38.4714 0.0938
# 4 -0.0064 -0.0210 -0.0043 -0.7081 0.0002 -0.8755
# 5 27.8053 -0.8766 38.4714 0.0002 37.6738 -0.0361
# 6 0.0429 0.0430 0.0938 -0.8755 -0.0361 11.2737
#
#
#
# Elastic Compliance Matrix: (Units=1/GPa)
#
#
# Indices 1 2 3 4 5 6 
#
# 1 0.012633 0.001575 -0.003508 -0.000081 -0.005705 -0.000049
# 2 0.001575 0.018686 -0.002012 -0.000444 0.001326 -0.000091
# 3 -0.003508 -0.002012 0.011713 0.000136 -0.009419 -0.000096
# 4 -0.000081 -0.000444 0.000136 -1.288528 -0.000178 -0.100066
# 5 -0.005705 0.001326 -0.009419 -0.000178 0.040403 0.000210
# 6 -0.000049 -0.000091 -0.000096 -0.100066 0.000210 0.080933
#
#
# Mechanical properties :
#
#
# Convention : Reuss Voigt Hill
#
# Bulk Modulus (GPa) = 28.45559 45.17338 36.81448
# Shear Modulus (GPa) = -4.52671 25.65799 10.56564
#
# Velocity S-wave (km/s) = -1.44881 3.44930 2.21344
# Velocity P-wave (km/s) = 3.22432 6.06718 4.85834
#
# Compressibility (1/GPa) = 0.03514248
#
# Stress axis : x y z
#
# Youngs Moduli (GPa) = 79.16027 53.51464 85.37544
#
# Poissons Ratio (x) = -0.08428 0.29951
# Poissons Ratio (y) = -0.12466 0.17173
# Poissons Ratio (z) = 0.27770 0.10764
#
# Static dielectric constant tensor:
#      x y z
#    x 1.749720 0.000000 0.012560 
#    y 0.000000 1.823140 0.000000 
#    z 0.012560 0.000000 1.789740 
# 
# From -- ./inp_files/324170.got.cif
#   From: 2010.05.17/outbox.cif.g08.bks.cpg/sg12_163_cif.got.tgz:324170.got - 2010.06.03 13:09:07.
