data_PCOD9173001
_publ_section_title
;
Structure prediction by ZEFSAII (Michael W. Deem and Ramdas Pophale) SiO2 
 PCOD9173001
Probable space group: C 2/M
;
_chemical_formula_sum "Si O2"
_cell_formula_units_Z 60
_cell_length_a 21.477579
_cell_length_b 9.413599
_cell_length_c 22.469865
_cell_angle_alpha 90.000000
_cell_angle_beta 134.262245
_cell_angle_gamma 90.000000
_cell_volume 3253.472767
_symmetry_space_group_name_H-M "C 2/M"
_symmetry_group_IT_number 12
_symmetry_cell_setting 'monoclinic'
loop_
_space_group_symop_operation_xyz
x,y,z
-x,y,-z
-x,-y,-z
x,-y,z
1/2+x,1/2+y,z
1/2-x,1/2+y,-z
1/2-x,1/2-y,-z
1/2+x,1/2-y,z
loop_
_atom_site_type_symbol
_atom_site_label
_atom_site_fract_x
_atom_site_fract_y
_atom_site_fract_z
Si Si1 0.685551 0.667728 0.678840
Si Si2 0.500000 0.754566 0.000000
Si Si3 0.984408 0.832901 0.353654
Si Si4 0.251127 0.835302 0.082051
Si Si5 0.913818 0.337428 0.484318
Si Si6 0.080995 0.337144 0.932068
Si Si7 0.819224 0.845937 0.832276
Si Si8 0.431519 0.669732 0.184903
O O1 0.687490 0.500000 0.670334
O O2 0.609886 0.695781 0.678214
O O3 0.656153 0.749589 0.600038
O O4 0.777157 0.724834 0.764068
O O5 0.537706 0.836409 0.968300
O O6 0.419173 0.669703 0.918155
O O7 0.979927 0.808587 0.280004
O O8 0.055096 0.739231 0.434951
O O9 0.001663 0.000000 0.375670
O O10 0.231919 0.840884 0.139457
O O11 0.339893 0.750920 0.131902
O O12 0.251511 0.000000 0.061340
O O13 0.172358 0.745046 0.001741
O O14 0.887466 0.500000 0.476435
O O15 0.000000 0.337850 0.500000
O O16 0.091227 0.500000 0.919810
O O17 0.030243 0.245205 0.848451
O O18 0.804541 0.000000 0.794182
O O19 0.420845 0.500000 0.169135
#
# Coordination Sequence:
#
# PCOD9173001 Si02
#       8
#     8   4   8   8   8   8   8   8
#     4  10  18  30  49  74 106 142 178 213 257 311
#     4  10  24  42  58  76 100 136 178 228 272 314
#     4   9  18  31  47  72 107 143 173 208 255 311
#     4  10  20  34  52  75 104 137 172 215 263 314
#     4   9  17  28  45  71 104 141 177 213 253 303
#     4  11  23  38  55  74  98 133 176 222 267 315
#     4  10  20  34  55  78 104 137 178 223 267 311
#     4  11  21  34  52  77 107 139 174 212 260 318
#
# _framework density 18.441832999999999
#
# number of rings (size 3 to 8) (size 9 to 14) (size 15 to 20)
#    0.000    2.000    1.333    2.800    0.000    7.467 
#    0.000    0.000    0.000    0.000    0.000    0.933 
#    0.000    0.000    0.000    0.000    0.000    0.000 
#
# Total GULP energy -167289.788339 kJ/mol
# GULP energy per Si atom -5576.326278 kJ/mol
# Density = 1.839986 g / cm^3
# Si number density = 18.441833 Si / 1000 Ang^3
#
#
#
# Elastic Constant Matrix: (Units=GPa)
#
#
# Indices 1 2 3 4 5 6 
#
# 1 44.1272 23.6642 25.7803 0.0000 -10.0680 0.0000
# 2 23.6642 140.5801 81.4517 0.0000 -17.8280 0.0000
# 3 25.7803 81.4517 123.4175 0.0000 -18.6187 0.0000
# 4 0.0000 0.0000 0.0000 22.5666 0.0000 -12.9309
# 5 -10.0680 -17.8280 -18.6187 0.0000 23.9998 0.0000
# 6 0.0000 0.0000 0.0000 -12.9309 0.0000 -6.2244
#
#
#
# Elastic Compliance Matrix: (Units=1/GPa)
#
#
# Indices 1 2 3 4 5 6 
#
# 1 0.027290 -0.001609 -0.003502 0.000000 0.007536 0.000000
# 2 -0.001609 0.011808 -0.007062 0.000000 0.002618 0.000000
# 3 -0.003502 -0.007062 0.014136 0.000000 0.004252 0.000000
# 4 0.000000 0.000000 0.000000 0.020231 0.000000 -0.042028
# 5 0.007536 0.002618 0.004252 0.000000 0.050072 0.000000
# 6 0.000000 0.000000 0.000000 -0.042028 0.000000 -0.073347
#
#
# Mechanical properties :
#
#
# Convention : Reuss Voigt Hill
#
# Bulk Modulus (GPa) = 34.61568 63.32415 48.96991
# Shear Modulus (GPa) = 59.40793 19.88364 39.64579
#
# Velocity S-wave (km/s) = 5.68187 3.28713 4.64160
# Velocity P-wave (km/s) = 7.86484 6.98704 7.43890
#
# Compressibility (1/GPa) = 0.02888864
#
# Stress axis : x y z
#
# Youngs Moduli (GPa) = 36.64362 84.68983 70.74167
#
# Poissons Ratio (x) = 0.13629 0.24770
# Poissons Ratio (y) = 0.05897 0.49956
# Poissons Ratio (z) = 0.12831 0.59805
#
# Static dielectric constant tensor:
#      x y z
#    x 1.665330 0.000000 -0.016470 
#    y 0.000000 1.629240 0.000000 
#    z -0.016470 0.000000 1.630120 
# 
# From -- ./inp_files/348845.got.cif
#   From: 2010.05.17/outbox.cif.g08.bks.cpg/sg12_175_cif.got.tgz:348845.got - 2010.06.03 13:09:07.
