data_PCOD9173580
_publ_section_title
;
Structure prediction by ZEFSAII (Michael W. Deem and Ramdas Pophale) SiO2 
 PCOD9173580
Probable space group: C 2/M
;
_chemical_formula_sum "Si O2"
_cell_formula_units_Z 32
_cell_length_a 16.621613
_cell_length_b 16.150336
_cell_length_c 7.480516
_cell_angle_alpha 90.000000
_cell_angle_beta 129.419768
_cell_angle_gamma 90.000000
_cell_volume 1551.289826
_symmetry_space_group_name_H-M "C 2/M"
_symmetry_group_IT_number 12
_symmetry_cell_setting 'monoclinic'
loop_
_space_group_symop_operation_xyz
x,y,z
-x,y,-z
-x,-y,-z
x,-y,z
1/2+x,1/2+y,z
1/2-x,1/2+y,-z
1/2-x,1/2-y,-z
1/2+x,1/2-y,z
loop_
_atom_site_type_symbol
_atom_site_label
_atom_site_fract_x
_atom_site_fract_y
_atom_site_fract_z
Si Si1 0.920944 0.089482 0.656652
Si Si2 0.298906 0.792910 0.279893
Si Si3 0.142554 0.135486 0.813346
Si Si4 0.612308 0.231217 0.229308
O O1 0.859194 0.091721 0.381106
O O2 0.892569 0.170811 0.726531
O O3 0.041949 0.102308 0.774588
O O4 0.904913 0.000000 0.720428
O O5 0.370282 0.732763 0.260620
O O6 0.356129 0.815579 0.544161
O O7 0.204730 0.732223 0.215984
O O8 0.243364 0.862656 0.082768
O O9 0.500000 0.206075 0.000000
#
# Coordination Sequence:
#
# PCOD9173580 Si02
#       4
#     8   8   8   8
#     4  10  19  30  48  72 104 134 151 186 250 300
#     4   9  18  29  46  64  94 134 165 194 237 280
#     4   9  16  30  44  65  94 129 161 196 226 286
#     4  10  18  31  45  68 101 134 156 196 236 289
#
# _framework density 20.627994999999999
#
# number of rings (size 3 to 8) (size 9 to 14) (size 15 to 20)
#    0.000    2.500    2.500    1.500    0.000    0.500 
#    0.000    0.000    0.000    0.000    0.000    0.000 
#    0.000  176.000    0.000    1.000    0.000    0.000 
#
# Total GULP energy -89168.102505 kJ/mol
# GULP energy per Si atom -5573.006407 kJ/mol
# Density = 2.058105 g / cm^3
# Si number density = 20.627995 Si / 1000 Ang^3
#
#
#
# Elastic Constant Matrix: (Units=GPa)
#
#
# Indices 1 2 3 4 5 6 
#
# 1 26.8106 7.2132 7.5841 0.0000 3.7778 0.0000
# 2 7.2132 51.7436 13.2186 0.0000 4.0561 0.0000
# 3 7.5841 13.2186 189.0655 0.0000 -0.7241 0.0000
# 4 0.0000 0.0000 0.0000 9.0215 0.0000 -1.6861
# 5 3.7778 4.0561 -0.7241 0.0000 31.5814 0.0000
# 6 0.0000 0.0000 0.0000 -1.6861 0.0000 9.4893
#
#
#
# Elastic Compliance Matrix: (Units=1/GPa)
#
#
# Indices 1 2 3 4 5 6 
#
# 1 0.039548 -0.004867 -0.001262 0.000000 -0.004135 0.000000
# 2 -0.004867 0.020485 -0.001245 0.000000 -0.002077 0.000000
# 3 -0.001262 -0.001245 0.005429 0.000000 0.000435 0.000000
# 4 0.000000 0.000000 0.000000 0.114654 0.000000 0.020372
# 5 -0.004135 -0.002077 0.000435 0.000000 0.032436 0.000000
# 6 0.000000 0.000000 0.000000 0.020372 0.000000 0.109002
#
#
# Mechanical properties :
#
#
# Convention : Reuss Voigt Hill
#
# Bulk Modulus (GPa) = 19.71827 35.96127 27.83977
# Shear Modulus (GPa) = 14.15609 25.99203 20.07406
#
# Velocity S-wave (km/s) = 2.62249 3.55355 3.12291
# Velocity P-wave (km/s) = 4.33009 5.85731 5.15062
#
# Compressibility (1/GPa) = 0.05071438
#
# Stress axis : x y z
#
# Youngs Moduli (GPa) = 25.28599 48.81538 184.21276
#
# Poissons Ratio (x) = 0.23756 0.23247
# Poissons Ratio (y) = 0.12306 0.22934
# Poissons Ratio (z) = 0.03191 0.06077
#
# Static dielectric constant tensor:
#      x y z
#    x 1.775140 0.000000 -0.033820 
#    y 0.000000 1.717640 0.000000 
#    z -0.033820 0.000000 1.843200 
# 
# From -- ./inp_files/47506.got.cif
#   From: 2010.05.17/outbox.cif.g08.bks.cpg/sg12_24_cif.got.tgz:47506.got - 2010.06.03 13:09:07.
