data_PCOD9173047
_publ_section_title
;
Structure prediction by ZEFSAII (Michael W. Deem and Ramdas Pophale) SiO2 
 PCOD9173047
Probable space group: C 2/M
;
_chemical_formula_sum "Si O2"
_cell_formula_units_Z 64
_cell_length_a 20.157056
_cell_length_b 18.478652
_cell_length_c 17.695911
_cell_angle_alpha 90.000000
_cell_angle_beta 28.818679
_cell_angle_gamma 90.000000
_cell_volume 3177.260265
_symmetry_space_group_name_H-M "C 2/M"
_symmetry_group_IT_number 12
_symmetry_cell_setting 'monoclinic'
loop_
_space_group_symop_operation_xyz
x,y,z
-x,y,-z
-x,-y,-z
x,-y,z
1/2+x,1/2+y,z
1/2-x,1/2+y,-z
1/2-x,1/2-y,-z
1/2+x,1/2-y,z
loop_
_atom_site_type_symbol
_atom_site_label
_atom_site_fract_x
_atom_site_fract_y
_atom_site_fract_z
Si Si1 0.893835 0.759372 0.760484
Si Si2 0.599354 0.207836 0.787788
Si Si3 0.849696 0.580033 0.621832
Si Si4 0.428230 0.083001 0.282559
Si Si5 0.229600 0.630773 0.015163
Si Si6 0.150429 0.766144 0.904775
Si Si7 0.632862 0.578081 0.970720
Si Si8 0.817508 0.310260 0.523170
O O1 0.840171 0.699156 0.872944
O O2 0.808739 0.737888 0.770547
O O3 0.055663 0.745395 0.591126
O O4 0.839310 0.836263 0.846173
O O5 0.622678 0.125451 0.741309
O O6 0.636169 0.232718 0.835939
O O7 0.680630 0.262057 0.651129
O O8 0.435004 0.217905 0.950346
O O9 0.856109 0.500000 0.578893
O O10 0.759538 0.573211 0.786474
O O11 0.796056 0.639711 0.618302
O O12 0.000000 0.599816 0.500000
O O13 0.595514 0.087024 0.121149
O O14 0.363415 0.132616 0.413719
O O15 0.385603 0.000000 0.329737
O O16 0.312845 0.589303 0.998540
O O17 0.079229 0.844324 0.994145
O O18 0.556472 0.500000 0.040761
#
# Coordination Sequence:
#
# PCOD9173047 Si02
#       8
#     8   8   8   8   8   8   8   8
#     4   9  18  33  60  83 111 143 197 242 288 332
#     4  11  23  38  59  85 118 157 196 236 283 346
#     4  10  18  30  49  83 120 148 184 229 283 345
#     4  11  22  39  60  84 118 157 197 242 289 338
#     4   9  17  33  57  85 111 143 190 244 283 335
#     4  10  20  39  59  82 116 152 198 242 281 344
#     4  10  19  32  55  84 116 150 184 236 295 343
#     4  11  22  35  59  90 116 152 193 240 292 343
#
# _framework density 20.143141
#
# number of rings (size 3 to 8) (size 9 to 14) (size 15 to 20)
#    0.000    1.875    2.500    3.375    1.750    1.000 
#    0.000    3.750    0.000    0.750    0.000    0.875 
#    0.000    0.000    0.000    0.000    0.000    0.000 
#
# Total GULP energy -178270.391388 kJ/mol
# GULP energy per Si atom -5570.949731 kJ/mol
# Density = 2.009729 g / cm^3
# Si number density = 20.143141 Si / 1000 Ang^3
#
#
#
# Elastic Constant Matrix: (Units=GPa)
#
#
# Indices 1 2 3 4 5 6 
#
# 1 78.1443 43.8595 10.6729 0.0009 10.8612 0.0006
# 2 43.8595 121.2147 31.2837 0.0006 13.3686 0.0004
# 3 10.6729 31.2837 56.1614 0.0006 0.5015 0.0018
# 4 0.0009 0.0006 0.0006 -15.0072 -0.0006 -46.0739
# 5 10.8612 13.3686 0.5015 -0.0006 14.1402 -0.0006
# 6 0.0006 0.0004 0.0018 -46.0739 -0.0006 -36.1740
#
#
#
# Elastic Compliance Matrix: (Units=1/GPa)
#
#
# Indices 1 2 3 4 5 6 
#
# 1 0.016836 -0.005132 -0.000268 0.000000 -0.008070 0.000000
# 2 -0.005132 0.012474 -0.005905 0.000000 -0.007641 0.000000
# 3 -0.000268 -0.005905 0.021101 0.000001 0.005040 0.000000
# 4 0.000000 0.000000 0.000001 0.022896 0.000000 -0.029162
# 5 -0.008070 -0.007641 0.005040 0.000000 0.083964 -0.000001
# 6 0.000000 0.000000 0.000000 -0.029162 -0.000001 0.009499
#
#
# Mechanical properties :
#
#
# Convention : Reuss Voigt Hill
#
# Bulk Modulus (GPa) = 35.97221 47.46137 41.71679
# Shear Modulus (GPa) = 25.17042 3.90544 14.53793
#
# Velocity S-wave (km/s) = 3.53877 1.39393 2.68942
# Velocity P-wave (km/s) = 5.88169 5.11898 5.51354
#
# Compressibility (1/GPa) = 0.02779924
#
# Stress axis : x y z
#
# Youngs Moduli (GPa) = 59.39737 80.16991 47.39149
#
# Poissons Ratio (x) = 0.41147 0.01272
# Poissons Ratio (y) = 0.30485 0.27982
# Poissons Ratio (z) = 0.01595 0.47337
#
# Static dielectric constant tensor:
#      x y z
#    x 1.755250 0.000000 -0.024760 
#    y 0.000000 1.789930 0.000000 
#    z -0.024760 0.000000 1.699180 
# 
# From -- ./inp_files/285174.got.cif
#   From: 2010.05.17/outbox.cif.g08.bks.cpg/sg12_143_cif.got.tgz:285174.got - 2010.06.03 13:09:07.
