data_PCOD9173271
_publ_section_title
;
Structure prediction by ZEFSAII (Michael W. Deem and Ramdas Pophale) SiO2 
 PCOD9173271
Probable space group: C 2/M
;
_chemical_formula_sum "Si O2"
_cell_formula_units_Z 48
_cell_length_a 16.799474
_cell_length_b 13.878340
_cell_length_c 26.088642
_cell_angle_alpha 90.000000
_cell_angle_beta 156.668950
_cell_angle_gamma 90.000000
_cell_volume 2408.946815
_symmetry_space_group_name_H-M "C 2/M"
_symmetry_group_IT_number 12
_symmetry_cell_setting 'monoclinic'
loop_
_space_group_symop_operation_xyz
x,y,z
-x,y,-z
-x,-y,-z
x,-y,z
1/2+x,1/2+y,z
1/2-x,1/2+y,-z
1/2-x,1/2-y,-z
1/2+x,1/2-y,z
loop_
_atom_site_type_symbol
_atom_site_label
_atom_site_fract_x
_atom_site_fract_y
_atom_site_fract_z
Si Si1 0.887868 0.708278 0.277781
Si Si2 0.012670 0.891066 0.089657
Si Si3 0.066891 0.789267 0.858161
Si Si4 0.956657 0.890424 0.256304
Si Si5 0.962891 0.390113 0.218068
Si Si6 0.567065 0.888223 0.482742
O O1 0.653450 0.680587 0.141751
O O2 0.918328 0.818460 0.280257
O O3 0.987246 0.645273 0.290801
O O4 0.979812 0.677388 0.386134
O O5 0.038683 0.861913 0.164843
O O6 0.083158 0.000000 0.122081
O O7 0.778355 0.888536 0.935840
O O8 0.145215 0.845775 0.854677
O O9 0.953227 0.694531 0.769252
O O10 0.250000 0.750000 0.000000
O O11 0.192171 0.886911 0.380608
O O12 0.898098 0.000000 0.231325
O O13 0.031806 0.500000 0.250925
O O14 0.500000 0.858825 0.500000
O O15 0.502451 0.000000 0.437141
#
# Coordination Sequence:
#
# PCOD9173271 Si02
#       6
#     8   8   8   8   8   8
#     4  11  20  32  52  76 105 137 174 215 258 310
#     4  10  18  30  51  77 103 132 171 219 264 303
#     4   9  18  32  52  75 101 134 171 209 254 308
#     4  10  21  36  52  74 108 143 173 211 262 314
#     4   9  18  31  49  75 104 134 168 211 262 310
#     4  10  20  34  55  81 103 129 170 219 266 309
#
# _framework density 19.925719000000001
#
# number of rings (size 3 to 8) (size 9 to 14) (size 15 to 20)
#    0.000    2.167    0.000    4.000    0.000    3.333 
#    0.000    0.833    0.000   14.500    0.000    0.000 
#    0.000    0.000    0.000    0.000    0.000    0.000 
#
# Total GULP energy -133919.369030 kJ/mol
# GULP energy per Si atom -5579.973710 kJ/mol
# Density = 1.988037 g / cm^3
# Si number density = 19.925719 Si / 1000 Ang^3
#
#
#
# Elastic Constant Matrix: (Units=GPa)
#
#
# Indices 1 2 3 4 5 6 
#
# 1 88.6343 57.4569 20.8024 0.0013 -33.4425 0.0001
# 2 57.4569 169.8632 20.7166 0.0077 -21.8661 0.0025
# 3 20.8024 20.7166 48.4538 0.0281 -20.0574 0.0061
# 4 0.0013 0.0077 0.0281 14.2099 0.0015 -1.4935
# 5 -33.4425 -21.8661 -20.0574 0.0015 37.0839 -0.0009
# 6 0.0001 0.0025 0.0061 -1.4935 -0.0009 28.1540
#
#
#
# Elastic Compliance Matrix: (Units=1/GPa)
#
#
# Indices 1 2 3 4 5 6 
#
# 1 0.020245 -0.004849 -0.000315 0.000000 0.015228 0.000001
# 2 -0.004849 0.007619 -0.001451 -0.000001 -0.000666 0.000000
# 3 -0.000315 -0.001451 0.026958 -0.000055 0.013441 -0.000008
# 4 0.000000 -0.000001 -0.000055 0.070768 -0.000033 0.003754
# 5 0.015228 -0.000666 0.013441 -0.000033 0.047575 -0.000003
# 6 0.000001 0.000000 -0.000008 0.003754 -0.000003 0.035718
#
#
# Mechanical properties :
#
#
# Convention : Reuss Voigt Hill
#
# Bulk Modulus (GPa) = 24.04372 56.10036 40.07204
# Shear Modulus (GPa) = 21.18841 29.75458 25.47150
#
# Velocity S-wave (km/s) = 3.26447 3.86848 3.57924
# Velocity P-wave (km/s) = 5.12854 6.94042 6.10210
#
# Compressibility (1/GPa) = 0.04159090
#
# Stress axis : x y z
#
# Youngs Moduli (GPa) = 49.39388 131.25602 37.09518
#
# Poissons Ratio (x) = 0.63652 0.01168
# Poissons Ratio (y) = 0.23953 0.05383
# Poissons Ratio (z) = 0.01556 0.19045
#
# Static dielectric constant tensor:
#      x y z
#    x 1.719480 0.000000 0.001770 
#    y 0.000000 1.726180 0.000000 
#    z 0.001770 0.000000 1.758730 
# 
# From -- ./inp_files/340217.got.cif
#   From: 2010.05.17/outbox.cif.g08.bks.cpg/sg12_171_cif.got.tgz:340217.got - 2010.06.03 13:09:07.
