data_PCOD9173703
_publ_section_title
;
Structure prediction by ZEFSAII (Michael W. Deem and Ramdas Pophale) SiO2 
 PCOD9173703
Probable space group: C 2/M
;
_chemical_formula_sum "Si O2"
_cell_formula_units_Z 64
_cell_length_a 29.786181
_cell_length_b 7.944953
_cell_length_c 14.693205
_cell_angle_alpha 90.000000
_cell_angle_beta 86.961266
_cell_angle_gamma 90.000000
_cell_volume 3472.255020
_symmetry_space_group_name_H-M "C 2/M"
_symmetry_group_IT_number 12
_symmetry_cell_setting 'monoclinic'
loop_
_space_group_symop_operation_xyz
x,y,z
-x,y,-z
-x,-y,-z
x,-y,z
1/2+x,1/2+y,z
1/2-x,1/2+y,-z
1/2-x,1/2-y,-z
1/2+x,1/2-y,z
loop_
_atom_site_type_symbol
_atom_site_label
_atom_site_fract_x
_atom_site_fract_y
_atom_site_fract_z
Si Si1 0.847677 0.705617 0.338248
Si Si2 0.817571 0.797721 0.727816
Si Si3 0.277049 0.796638 0.188827
Si Si4 0.352915 0.301100 0.054329
Si Si5 0.077242 0.303813 0.800372
Si Si6 0.199448 0.299178 0.477373
Si Si7 0.609579 0.294484 0.143865
Si Si8 0.987774 0.801261 0.901444
O O1 0.848903 0.500000 0.338072
O O2 0.808146 0.753282 0.271802
O O3 0.894533 0.763506 0.288943
O O4 0.834053 0.764134 0.439820
O O5 0.773209 0.736082 0.786362
O O6 0.812460 0.759037 0.622265
O O7 0.862739 0.734717 0.771576
O O8 0.817025 0.000000 0.736208
O O9 0.303165 0.733878 0.097133
O O10 0.276854 0.000000 0.185357
O O11 0.361949 0.500000 0.060091
O O12 0.388150 0.213847 0.118785
O O13 0.362704 0.250028 0.950217
O O14 0.067938 0.500000 0.786718
O O15 0.030706 0.219323 0.832459
O O16 0.197319 0.500000 0.478529
O O17 0.250000 0.250000 0.500000
O O18 0.608200 0.500000 0.148898
O O19 0.558650 0.233004 0.134895
O O20 0.979769 0.000000 0.916336
O O21 0.000000 0.729028 0.000000
#
# Coordination Sequence:
#
# PCOD9173703 Si02
#       8
#     8   8   8   8   8   8   8   8
#     4   8  16  31  49  71 101 131 160 202 256 304
#     4  10  20  36  53  72 103 142 176 210 259 311
#     4   9  17  31  48  70 102 139 169 205 254 301
#     4  10  18  31  49  73 102 138 177 210 246 303
#     4  10  19  32  51  77 103 132 167 209 261 310
#     4  11  20  34  55  79 103 134 172 214 259 305
#     4   9  19  34  52  72 102 142 174 208 263 313
#     4  10  18  33  54  76 102 134 173 215 258 304
#
# _framework density 18.431826999999998
#
# number of rings (size 3 to 8) (size 9 to 14) (size 15 to 20)
#    0.000    2.375    2.500    1.875    0.000    1.250 
#    0.000    3.750    0.000    0.750    0.000    5.250 
#    0.000    0.000    0.000    0.000    0.000    0.000 
#
# Total GULP energy -178469.838558 kJ/mol
# GULP energy per Si atom -5577.182455 kJ/mol
# Density = 1.838988 g / cm^3
# Si number density = 18.431827 Si / 1000 Ang^3
#
#
#
# Elastic Constant Matrix: (Units=GPa)
#
#
# Indices 1 2 3 4 5 6 
#
# 1 143.6301 6.1078 86.4966 0.0000 0.0025 0.0000
# 2 6.1078 12.5491 -3.1873 0.0000 3.2032 0.0000
# 3 86.4966 -3.1873 111.3584 0.0000 -2.2902 0.0000
# 4 0.0000 0.0000 0.0000 18.9597 0.0000 -7.3874
# 5 0.0025 3.2032 -2.2902 0.0000 24.2592 0.0000
# 6 0.0000 0.0000 0.0000 -7.3874 0.0000 13.7056
#
#
#
# Elastic Compliance Matrix: (Units=1/GPa)
#
#
# Indices 1 2 3 4 5 6 
#
# 1 0.014179 -0.009828 -0.011290 0.000000 0.000230 0.000000
# 2 -0.009828 0.089790 0.009979 0.000000 -0.010913 0.000000
# 3 -0.011290 0.009979 0.018043 0.000000 0.000387 0.000000
# 4 0.000000 0.000000 0.000000 0.066765 0.000000 0.035987
# 5 0.000230 -0.010913 0.000387 0.000000 0.042699 0.000000
# 6 0.000000 0.000000 0.000000 0.035987 0.000000 0.092360
#
#
# Mechanical properties :
#
#
# Convention : Reuss Voigt Hill
#
# Bulk Modulus (GPa) = 10.02657 49.59689 29.81173
# Shear Modulus (GPa) = 13.18010 23.25959 18.21984
#
# Velocity S-wave (km/s) = 2.67699 3.55621 3.14745
# Velocity P-wave (km/s) = 3.87384 6.62034 5.42381
#
# Compressibility (1/GPa) = 0.09973505
#
# Stress axis : x y z
#
# Youngs Moduli (GPa) = 70.52442 11.13707 55.42242
#
# Poissons Ratio (x) = 0.10945 0.62574
# Poissons Ratio (y) = 0.69310 -0.55307
# Poissons Ratio (z) = 0.79624 -0.11114
#
# Static dielectric constant tensor:
#      x y z
#    x 1.634190 0.000000 -0.023140 
#    y 0.000000 1.685170 0.000000 
#    z -0.023140 0.000000 1.619470 
# 
# From -- ./inp_files/248426.got.cif
#   From: 2010.05.17/outbox.cif.g08.bks.cpg/sg12_125_cif.got.tgz:248426.got - 2010.06.03 13:09:07.
