data_PCOD9173848
_publ_section_title
;
Structure prediction by ZEFSAII (Michael W. Deem and Ramdas Pophale) SiO2 
 PCOD9173848
Probable space group: C 2/M
;
_chemical_formula_sum "Si O2"
_cell_formula_units_Z 64
_cell_length_a 23.436564
_cell_length_b 14.651277
_cell_length_c 11.518857
_cell_angle_alpha 90.000000
_cell_angle_beta 40.341904
_cell_angle_gamma 90.000000
_cell_volume 2560.449477
_symmetry_space_group_name_H-M "C 2/M"
_symmetry_group_IT_number 12
_symmetry_cell_setting 'monoclinic'
loop_
_space_group_symop_operation_xyz
x,y,z
-x,y,-z
-x,-y,-z
x,-y,z
1/2+x,1/2+y,z
1/2-x,1/2+y,-z
1/2-x,1/2-y,-z
1/2+x,1/2-y,z
loop_
_atom_site_type_symbol
_atom_site_label
_atom_site_fract_x
_atom_site_fract_y
_atom_site_fract_z
Si Si1 0.339602 0.861671 0.188702
Si Si2 0.860701 0.895710 0.733004
Si Si3 0.142474 0.845515 0.507748
Si Si4 0.202688 0.151045 0.790046
Si Si5 0.454055 0.852397 0.792972
Si Si6 0.958643 0.866559 0.817279
Si Si7 0.638031 0.137789 0.590989
Si Si8 0.805204 0.608714 0.855530
O O1 0.237699 0.891623 0.354332
O O2 0.328828 0.751408 0.198334
O O3 0.382901 0.884977 0.244059
O O4 0.394724 0.891170 0.991194
O O5 0.883121 0.834057 0.588752
O O6 0.926517 0.895024 0.739452
O O7 0.856802 0.000000 0.697052
O O8 0.766300 0.868621 0.933330
O O9 0.148977 0.747591 0.559505
O O10 0.057716 0.894747 0.692074
O O11 0.265319 0.105060 0.597865
O O12 0.269267 0.157749 0.796996
O O13 0.115659 0.104538 0.976099
O O14 0.458810 0.744004 0.810207
O O15 0.553733 0.888650 0.644562
O O16 0.400460 0.867724 0.758112
O O17 0.799237 0.500000 0.844037
#
# Coordination Sequence:
#
# PCOD9173848 Si02
#       8
#     8   8   8   8   8   8   8   8
#     4  10  19  35  58  81 112 144 189 243 285 325
#     4  10  20  34  53  81 118 150 179 224 286 347
#     4  10  18  31  50  80 108 142 183 228 274 337
#     4   9  19  34  53  78 114 149 178 233 284 337
#     4  10  20  35  58  83 112 147 193 242 285 331
#     4   9  20  30  50  81 112 145 182 220 283 342
#     4  10  21  35  55  83 110 148 195 236 279 330
#     4  10  21  37  58  84 117 153 190 234 292 350
#
# _framework density 24.995611
#
# number of rings (size 3 to 8) (size 9 to 14) (size 15 to 20)
#    0.000    2.250    1.250    2.250    3.500    3.000 
#    0.000    3.125    0.000    6.000    0.000    0.000 
#    0.000   29.000    0.000    0.000    0.000    0.000 
#
# Total GULP energy -178889.671696 kJ/mol
# GULP energy per Si atom -5590.302241 kJ/mol
# Density = 2.493872 g / cm^3
# Si number density = 24.995611 Si / 1000 Ang^3
#
#
#
# Elastic Constant Matrix: (Units=GPa)
#
#
# Indices 1 2 3 4 5 6 
#
# 1 42.2580 1.0252 17.4518 0.0000 -4.9194 0.0000
# 2 1.0252 93.0493 8.2363 0.0000 3.6528 0.0000
# 3 17.4518 8.2363 96.1845 0.0000 -10.4716 0.0000
# 4 0.0000 0.0000 0.0000 -164.5284 0.0000 726.8578
# 5 -4.9194 3.6528 -10.4716 0.0000 48.6141 0.0000
# 6 0.0000 0.0000 0.0000 726.8578 0.0000-3474.8446
#
#
#
# Elastic Compliance Matrix: (Units=1/GPa)
#
#
# Indices 1 2 3 4 5 6 
#
# 1 0.025708 0.000050 -0.004491 0.000000 0.001630 0.000000
# 2 0.000050 0.010881 -0.001054 0.000000 -0.001040 0.000000
# 3 -0.004491 -0.001054 0.011531 0.000000 0.002109 0.000000
# 4 0.000000 0.000000 0.000000 -0.080087 0.000000 -0.016752
# 5 0.001630 -0.001040 0.002109 0.000000 0.021267 0.000000
# 6 0.000000 0.000000 0.000000 -0.016752 0.000000 -0.003792
#
#
# Mechanical properties :
#
#
# Convention : Reuss Voigt Hill
#
# Bulk Modulus (GPa) = 26.93268 31.65761 29.29515
# Shear Modulus (GPa) = 563.42873 -704.49987 -70.53557
#
# Velocity S-wave (km/s) = 15.02998 -16.80658 -5.31794
# Velocity P-wave (km/s) = 17.66349 19.07675 5.09526
#
# Compressibility (1/GPa) = 0.03712961
#
# Stress axis : x y z
#
# Youngs Moduli (GPa) = 38.89915 91.90724 86.71979
#
# Poissons Ratio (x) = -0.00462 0.38948
# Poissons Ratio (y) = -0.00196 0.09140
# Poissons Ratio (z) = 0.17470 0.09687
#
# Static dielectric constant tensor:
#      x y z
#    x 1.959070 0.000000 -0.018220 
#    y 0.000000 1.993180 0.000000 
#    z -0.018220 0.000000 2.009420 
# 
# From -- ./inp_files/177737.got.cif
#   From: 2010.05.17/outbox.cif.g08.bks.cpg/sg12_89_cif.got.tgz:177737.got - 2010.06.03 13:09:07.
