data_PCOD9173343
_publ_section_title
;
Structure prediction by ZEFSAII (Michael W. Deem and Ramdas Pophale) SiO2 
 PCOD9173343
Probable space group: C 2/M
;
_chemical_formula_sum "Si O2"
_cell_formula_units_Z 36
_cell_length_a 7.938577
_cell_length_b 18.642864
_cell_length_c 12.381991
_cell_angle_alpha 90.000000
_cell_angle_beta 67.909881
_cell_angle_gamma 90.000000
_cell_volume 1697.989600
_symmetry_space_group_name_H-M "C 2/M"
_symmetry_group_IT_number 12
_symmetry_cell_setting 'monoclinic'
loop_
_space_group_symop_operation_xyz
x,y,z
-x,y,-z
-x,-y,-z
x,-y,z
1/2+x,1/2+y,z
1/2-x,1/2+y,-z
1/2-x,1/2-y,-z
1/2+x,1/2-y,z
loop_
_atom_site_type_symbol
_atom_site_label
_atom_site_fract_x
_atom_site_fract_y
_atom_site_fract_z
Si Si1 0.500000 0.612328 0.000000
Si Si2 0.748141 0.419768 0.738328
Si Si3 0.171422 0.415792 0.687529
Si Si4 0.711404 0.913507 0.921399
Si Si5 0.784760 0.669319 0.528541
O O1 0.614575 0.578707 0.872606
O O2 0.330071 0.638045 0.968996
O O3 0.751390 0.500000 0.688170
O O4 0.696898 0.361967 0.659132
O O5 0.952435 0.404610 0.731944
O O6 0.201335 0.500000 0.670760
O O7 0.237623 0.394747 0.790082
O O8 0.261371 0.377213 0.565169
O O9 0.754881 0.000000 0.928016
O O10 0.500000 0.907372 0.000000
O O11 0.750000 0.750000 0.500000
O O12 0.000000 0.660795 0.500000
#
# Coordination Sequence:
#
# PCOD9173343 Si02
#       5
#     4   8   8   8   8
#     4  12  21  32  56  92 126 154 189 240 299 356
#     4  10  19  34  59  89 118 151 196 245 293 349
#     4   9  18  35  59  85 114 151 198 245 293 346
#     4  10  18  30  51  82 120 153 184 232 290 347
#     4  10  22  39  60  81 115 157 198 244 297 348
#
# _framework density 21.201543000000001
#
# number of rings (size 3 to 8) (size 9 to 14) (size 15 to 20)
#    0.000    2.000    2.222    2.667    0.000    4.444 
#    0.000    0.000    2.444    9.333    0.000    0.000 
#    0.000    0.000    0.000    0.000    0.000    0.000 
#
# Total GULP energy -100239.999741 kJ/mol
# GULP energy per Si atom -5568.888874 kJ/mol
# Density = 2.115329 g / cm^3
# Si number density = 21.201543 Si / 1000 Ang^3
#
#
#
# Elastic Constant Matrix: (Units=GPa)
#
#
# Indices 1 2 3 4 5 6 
#
# 1 82.0564 23.6046 41.9574 0.0000 18.6684 0.0000
# 2 23.6046 29.8773 57.6237 0.0000 17.8523 0.0000
# 3 41.9574 57.6237 162.5979 0.0000 31.0221 0.0000
# 4 0.0000 0.0000 0.0000 -2.0422 0.0000 6.0555
# 5 18.6684 17.8523 31.0221 0.0000 40.0259 0.0000
# 6 0.0000 0.0000 0.0000 6.0555 0.0000 16.8300
#
#
#
# Elastic Compliance Matrix: (Units=1/GPa)
#
#
# Indices 1 2 3 4 5 6 
#
# 1 0.015996 -0.013053 0.000952 0.000000 -0.002376 0.000000
# 2 -0.013053 0.134463 -0.039905 0.000000 -0.022957 0.000000
# 3 0.000952 -0.039905 0.019640 0.000000 0.002133 0.000000
# 4 0.000000 0.000000 0.000000 -0.236910 0.000000 0.085241
# 5 -0.002376 -0.022957 0.002133 0.000000 0.034678 0.000000
# 6 0.000000 0.000000 0.000000 0.085241 0.000000 0.028748
#
#
# Mechanical properties :
#
#
# Convention : Reuss Voigt Hill
#
# Bulk Modulus (GPa) = 15.13166 57.87811 36.50488
# Shear Modulus (GPa) = 40.76429 21.05246 30.90837
#
# Velocity S-wave (km/s) = 4.38962 3.15456 3.82230
# Velocity P-wave (km/s) = 5.73099 6.37390 6.06098
#
# Compressibility (1/GPa) = 0.06608661
#
# Stress axis : x y z
#
# Youngs Moduli (GPa) = 62.51726 7.43697 50.91741
#
# Poissons Ratio (x) = 0.09707 -0.04846
# Poissons Ratio (y) = 0.81604 2.03185
# Poissons Ratio (z) = -0.05950 0.29677
#
# Static dielectric constant tensor:
#      x y z
#    x 1.844900 0.000000 -0.007830 
#    y 0.000000 1.771790 0.000000 
#    z -0.007830 0.000000 1.755920 
# 
# From -- ./inp_files/118762.got.cif
#   From: 2010.05.17/outbox.cif.g08.bks.cpg/sg12_60_cif.got.tgz:118762.got - 2010.06.03 13:09:07.
