data_PCOD9173919
_publ_section_title
;
Structure prediction by ZEFSAII (Michael W. Deem and Ramdas Pophale) SiO2 
 PCOD9173919
Probable space group: C 2/M
;
_chemical_formula_sum "Si O2"
_cell_formula_units_Z 56
_cell_length_a 35.230945
_cell_length_b 14.236474
_cell_length_c 10.193886
_cell_angle_alpha 90.000000
_cell_angle_beta 140.341907
_cell_angle_gamma 90.000000
_cell_volume 3263.071844
_symmetry_space_group_name_H-M "C 2/M"
_symmetry_group_IT_number 12
_symmetry_cell_setting 'monoclinic'
loop_
_space_group_symop_operation_xyz
x,y,z
-x,y,-z
-x,-y,-z
x,-y,z
1/2+x,1/2+y,z
1/2-x,1/2+y,-z
1/2-x,1/2-y,-z
1/2+x,1/2-y,z
loop_
_atom_site_type_symbol
_atom_site_label
_atom_site_fract_x
_atom_site_fract_y
_atom_site_fract_z
Si Si1 0.048083 0.699972 0.246347
Si Si2 0.533002 0.779732 0.724771
Si Si3 0.929714 0.102164 0.778178
Si Si4 0.660396 0.107743 0.430432
Si Si5 0.229157 0.775140 0.297826
Si Si6 0.388887 0.609627 0.964892
Si Si7 0.649966 0.109208 0.086472
O O1 0.076491 0.804710 0.323079
O O2 0.100591 0.629599 0.349973
O O3 0.012610 0.686055 0.285244
O O4 0.000000 0.697100 0.000000
O O5 0.500000 0.771088 0.500000
O O6 0.561438 0.679840 0.845233
O O7 0.587874 0.852130 0.866945
O O8 0.913507 0.000000 0.678426
O O9 0.895390 0.115584 0.824138
O O10 0.000000 0.097812 0.000000
O O11 0.713520 0.177017 0.613136
O O12 0.647737 0.121484 0.240132
O O13 0.678936 0.000000 0.495784
O O14 0.250000 0.750000 0.500000
O O15 0.201541 0.678259 0.171345
O O16 0.174811 0.849000 0.162638
O O17 0.396430 0.500000 0.020192
O O18 0.659872 0.000000 0.085714
#
# Coordination Sequence:
#
# PCOD9173919 Si02
#       7
#     8   8   8   8   8   8   8
#     4  11  18  33  52  73 105 139 168 213 264 309
#     4  11  22  34  50  76 107 140 178 215 254 306
#     4   9  15  25  46  71  97 131 168 205 249 300
#     4  10  19  31  52  80 104 131 170 215 259 310
#     4   9  17  30  49  77 109 132 166 215 262 309
#     4  10  18  31  51  75 105 143 174 210 263 309
#     4   9  18  33  52  74 104 139 172 211 257 308
#
# _framework density 17.161740999999999
#
# number of rings (size 3 to 8) (size 9 to 14) (size 15 to 20)
#    0.000    2.143    4.286    2.143    0.000    2.000 
#    0.000    0.714    0.000    3.429    0.000    2.000 
#    0.000    0.000    0.000    0.000    0.000    0.000 
#
# Total GULP energy -156017.593124 kJ/mol
# GULP energy per Si atom -5572.056897 kJ/mol
# Density = 1.712268 g / cm^3
# Si number density = 17.161741 Si / 1000 Ang^3
#
#
#
# Elastic Constant Matrix: (Units=GPa)
#
#
# Indices 1 2 3 4 5 6 
#
# 1 61.3574 17.5576 32.1380 0.0000 19.2584 0.0000
# 2 17.5576 92.2236 25.2491 0.0000 20.6928 0.0000
# 3 32.1380 25.2491 49.1104 0.0000 13.4038 0.0000
# 4 0.0000 0.0000 0.0000 10.3496 0.0000 3.4938
# 5 19.2584 20.6928 13.4038 0.0000 20.7880 0.0000
# 6 0.0000 0.0000 0.0000 3.4938 0.0000 18.1731
#
#
#
# Elastic Compliance Matrix: (Units=1/GPa)
#
#
# Indices 1 2 3 4 5 6 
#
# 1 0.030212 0.003289 -0.015690 0.000000 -0.021146 0.000000
# 2 0.003289 0.015037 -0.006027 0.000000 -0.014129 0.000000
# 3 -0.015690 -0.006027 0.034130 0.000000 -0.001472 0.000000
# 4 0.000000 0.000000 0.000000 0.103328 0.000000 -0.019865
# 5 -0.021146 -0.014129 -0.001472 0.000000 0.082708 0.000000
# 6 0.000000 0.000000 0.000000 -0.019865 0.000000 0.058846
#
#
# Mechanical properties :
#
#
# Convention : Reuss Voigt Hill
#
# Bulk Modulus (GPa) = 23.51693 39.17565 31.34629
# Shear Modulus (GPa) = 13.32290 18.37858 15.85074
#
# Velocity S-wave (km/s) = 2.78926 3.27602 3.04239
# Velocity P-wave (km/s) = 4.90981 6.09808 5.53592
#
# Compressibility (1/GPa) = 0.04252256
#
# Stress axis : x y z
#
# Youngs Moduli (GPa) = 33.09903 66.50078 29.29942
#
# Poissons Ratio (x) = -0.21869 0.45972
# Poissons Ratio (y) = -0.10885 0.17659
# Poissons Ratio (z) = 0.51934 0.40079
#
# Static dielectric constant tensor:
#      x y z
#    x 1.580210 0.000000 0.010050 
#    y 0.000000 1.626150 0.000000 
#    z 0.010050 0.000000 1.604820 
# 
# From -- ./inp_files/111712.got.cif
#   From: 2010.05.17/outbox.cif.g08.bks.cpg/sg12_56_cif.got.tgz:111712.got - 2010.06.03 13:09:07.
