data_PCOD9173910
_publ_section_title
;
Structure prediction by ZEFSAII (Michael W. Deem and Ramdas Pophale) SiO2 
 PCOD9173910
Probable space group: C 2/M
;
_chemical_formula_sum "Si O2"
_cell_formula_units_Z 56
_cell_length_a 8.570968
_cell_length_b 29.751204
_cell_length_c 13.850328
_cell_angle_alpha 90.000000
_cell_angle_beta 71.976053
_cell_angle_gamma 90.000000
_cell_volume 3358.472400
_symmetry_space_group_name_H-M "C 2/M"
_symmetry_group_IT_number 12
_symmetry_cell_setting 'monoclinic'
loop_
_space_group_symop_operation_xyz
x,y,z
-x,y,-z
-x,-y,-z
x,-y,z
1/2+x,1/2+y,z
1/2-x,1/2+y,-z
1/2-x,1/2-y,-z
1/2+x,1/2-y,z
loop_
_atom_site_type_symbol
_atom_site_label
_atom_site_fract_x
_atom_site_fract_y
_atom_site_fract_z
Si Si1 0.690178 0.051668 0.500000
Si Si2 0.618968 0.948229 0.888594
Si Si3 0.588939 0.106851 0.699833
Si Si4 0.747094 0.798154 0.381762
Si Si5 0.628856 0.798154 0.618238
Si Si6 0.711228 0.393149 0.699833
Si Si7 0.507562 0.551771 0.111406
O O1 0.500000 0.051680 0.500000
O O2 0.688088 0.077863 0.601435
O O3 0.789524 0.077863 0.398565
O O4 0.742380 0.000000 0.500000
O O5 0.600861 0.915790 0.801267
O O6 0.804776 0.947158 0.890447
O O7 0.579482 0.000000 0.867411
O O8 0.500000 0.936283 0.000000
O O9 0.648327 0.158325 0.681304
O O10 0.398798 0.106119 0.702404
O O11 0.736351 0.804081 0.500000
O O12 0.559647 0.797107 0.380706
O O13 0.826843 0.750000 0.346315
O O14 0.829631 0.841675 0.318696
O O15 0.597873 0.415790 0.801267
O O16 0.446893 0.500000 0.132589
O O17 0.500000 0.563717 0.000000
#
# Coordination Sequence:
#
# PCOD9173910 Si02
#       7
#     8   8   8   8   8   8   8
#     4   9  16  26  44  71 101 133 165 197 240 295
#     4  10  21  36  53  74 100 132 171 211 251 298
#     4  10  18  31  51  75 102 133 170 209 248 295
#     4   9  17  30  48  72 102 134 170 208 246 295
#     4   9  17  30  48  72 102 134 170 208 246 295
#     4  10  18  31  51  75 102 133 170 209 248 295
#     4  10  21  36  53  74 100 132 171 211 251 298
#
# _framework density 16.674247000000001
#
# number of rings (size 3 to 8) (size 9 to 14) (size 15 to 20)
#    0.000    2.429    1.429    1.714    0.000    4.000 
#    0.000    0.714    0.000    3.429    0.000    6.000 
#    0.000    0.000    0.000    0.000    0.000    0.000 
#
# Total GULP energy -156184.322470 kJ/mol
# GULP energy per Si atom -5578.011517 kJ/mol
# Density = 1.663630 g / cm^3
# Si number density = 16.674247 Si / 1000 Ang^3
#
#
#
# Elastic Constant Matrix: (Units=GPa)
#
#
# Indices 1 2 3 4 5 6 
#
# 1 16.0360 33.0236 27.6991 0.0000 3.3613 0.0000
# 2 33.0236 178.0776 108.5926 0.0000 4.6977 0.0000
# 3 27.6991 108.5926 133.2695 0.0000 3.9267 0.0000
# 4 0.0000 0.0000 0.0000 22.1902 0.0000 -0.1650
# 5 3.3613 4.6977 3.9267 0.0000 21.2381 0.0000
# 6 0.0000 0.0000 0.0000 -0.1650 0.0000 24.8453
#
#
#
# Elastic Compliance Matrix: (Units=1/GPa)
#
#
# Indices 1 2 3 4 5 6 
#
# 1 0.113727 -0.013056 -0.012623 0.000000 -0.012777 0.000000
# 2 -0.013056 0.012674 -0.007633 0.000000 0.000674 0.000000
# 3 -0.012623 -0.007633 0.016327 0.000000 0.000667 0.000000
# 4 0.000000 0.000000 0.000000 0.045067 0.000000 0.000299
# 5 -0.012777 0.000674 0.000667 0.000000 0.048835 0.000000
# 6 0.000000 0.000000 0.000000 0.000299 0.000000 0.040251
#
#
# Mechanical properties :
#
#
# Convention : Reuss Voigt Hill
#
# Bulk Modulus (GPa) = 13.13976 74.00153 43.57064
# Shear Modulus (GPa) = 13.55479 24.19255 18.87367
#
# Velocity S-wave (km/s) = 2.85426 3.81319 3.36803
# Velocity P-wave (km/s) = 4.33126 7.99152 6.42745
#
# Compressibility (1/GPa) = 0.07610491
#
# Stress axis : x y z
#
# Youngs Moduli (GPa) = 8.79297 78.90377 61.24709
#
# Poissons Ratio (x) = 1.03015 0.77310
# Poissons Ratio (y) = 0.11480 0.46752
# Poissons Ratio (z) = 0.11099 0.60229
#
# Static dielectric constant tensor:
#      x y z
#    x 1.572280 0.000000 -0.002770 
#    y 0.000000 1.565670 0.000000 
#    z -0.002770 0.000000 1.527690 
# 
# From -- ./inp_files/125626.got.cif
#   From: 2010.05.17/outbox.cif.g08.bks.cpg/sg12_63_cif.got.tgz:125626.got - 2010.06.03 13:09:07.
