data_PCOD9173869
_publ_section_title
;
Structure prediction by ZEFSAII (Michael W. Deem and Ramdas Pophale) SiO2 
 PCOD9173869
Probable space group: C 2/M
;
_chemical_formula_sum "Si O2"
_cell_formula_units_Z 56
_cell_length_a 10.060743
_cell_length_b 14.575120
_cell_length_c 24.774158
_cell_angle_alpha 90.000000
_cell_angle_beta 37.574119
_cell_angle_gamma 90.000000
_cell_volume 2215.233006
_symmetry_space_group_name_H-M "C 2/M"
_symmetry_group_IT_number 12
_symmetry_cell_setting 'monoclinic'
loop_
_space_group_symop_operation_xyz
x,y,z
-x,y,-z
-x,-y,-z
x,-y,z
1/2+x,1/2+y,z
1/2-x,1/2+y,-z
1/2-x,1/2-y,-z
1/2+x,1/2-y,z
loop_
_atom_site_type_symbol
_atom_site_label
_atom_site_fract_x
_atom_site_fract_y
_atom_site_fract_z
Si Si1 0.748899 0.611735 0.072863
Si Si2 0.157190 0.099569 0.500614
Si Si3 0.711011 0.393625 0.204030
Si Si4 0.169849 0.201365 0.326070
Si Si5 0.662907 0.103204 0.307923
Si Si6 0.631498 0.109061 0.194653
Si Si7 0.261280 0.893199 0.953834
O O1 0.744812 0.500000 0.070851
O O2 0.644438 0.632148 0.164356
O O3 0.000000 0.639228 0.000000
O O4 0.672862 0.647430 0.038842
O O5 0.400594 0.106068 0.400137
O O6 0.000000 0.099761 0.500000
O O7 0.052856 0.173858 0.573136
O O8 0.137620 0.000000 0.534831
O O9 0.649167 0.500000 0.235190
O O10 0.636861 0.324005 0.273780
O O11 0.976025 0.393421 0.122005
O O12 0.382971 0.144125 0.274432
O O13 0.224848 0.306388 0.319871
O O14 0.721268 0.118645 0.226179
O O15 0.731936 0.000000 0.300833
O O16 0.760133 0.146223 0.100096
O O17 0.621097 0.000000 0.188717
O O18 0.188364 0.000000 0.976633
#
# Coordination Sequence:
#
# PCOD9173869 Si02
#       7
#     8   8   8   8   8   8   8
#     4   7   9  15  28  53  88 117 136 166 218 267
#     4  10  18  31  51  72  91 112 144 185 224 264
#     4   8  13  20  35  62  91 113 141 181 221 261
#     4  11  18  28  48  69  90 117 151 183 222 263
#     4  10  21  33  46  67  93 120 149 184 222 264
#     4   9  16  29  48  71  93 116 151 189 221 261
#     4   7  10  17  34  58  86 116 141 171 217 264
#
# _framework density 25.279506999999999
#
# number of rings (size 3 to 8) (size 9 to 14) (size 15 to 20)
#    0.000    3.143    1.429    4.286    0.000    0.000 
#    0.000    0.000    0.000    3.857    0.000    0.000 
#    0.000   14.286    0.000    0.000    0.000    0.000 
#
# Total GULP energy -156430.748599 kJ/mol
# GULP energy per Si atom -5586.812450 kJ/mol
# Density = 2.522197 g / cm^3
# Si number density = 25.279507 Si / 1000 Ang^3
#
#
#
# Elastic Constant Matrix: (Units=GPa)
#
#
# Indices 1 2 3 4 5 6 
#
# 1 70.8177 6.0181 22.3091 -0.0005 3.5984 0.0005
# 2 6.0181 97.2775 45.2747 -0.0010 4.4123 0.0002
# 3 22.3091 45.2747 132.1561 -0.0033 0.0656 0.0008
# 4 -0.0005 -0.0010 -0.0033 -31.2758 0.0007 -11.2467
# 5 3.5984 4.4123 0.0656 0.0007 40.9620 0.0000
# 6 0.0005 0.0002 0.0008 -11.2467 0.0000 5.5686
#
#
#
# Elastic Compliance Matrix: (Units=1/GPa)
#
#
# Indices 1 2 3 4 5 6 
#
# 1 0.014995 0.000371 -0.002658 0.000000 -0.001353 -0.000001
# 2 0.000371 0.012310 -0.004279 0.000000 -0.001352 0.000000
# 3 -0.002658 -0.004279 0.009481 0.000000 0.000679 -0.000001
# 4 0.000000 0.000000 0.000000 -0.018522 0.000000 -0.037408
# 5 -0.001353 -0.001352 0.000679 0.000000 0.024676 0.000001
# 6 -0.000001 0.000000 -0.000001 -0.037408 0.000001 0.104027
#
#
# Mechanical properties :
#
#
# Convention : Reuss Voigt Hill
#
# Bulk Modulus (GPa) = 42.27631 49.71725 45.99678
# Shear Modulus (GPa) = 29.76468 18.16091 23.96279
#
# Velocity S-wave (km/s) = 3.43508 2.68321 3.08216
# Velocity P-wave (km/s) = 5.70026 5.41380 5.55887
#
# Compressibility (1/GPa) = 0.02365391
#
# Stress axis : x y z
#
# Youngs Moduli (GPa) = 66.68794 81.23615 105.47371
#
# Poissons Ratio (x) = -0.03010 0.28031
# Poissons Ratio (y) = -0.02471 0.45133
# Poissons Ratio (z) = 0.17723 0.34761
#
# Static dielectric constant tensor:
#      x y z
#    x 2.065090 0.000000 0.026050 
#    y 0.000000 1.977580 0.000000 
#    z 0.026050 0.000000 1.991520 
# 
# From -- ./inp_files/269614.got.cif
#   From: 2010.05.17/outbox.cif.g08.bks.cpg/sg12_135_cif.got.tgz:269614.got - 2010.06.03 13:09:07.
