data_PCOD9173506
_publ_section_title
;
Structure prediction by ZEFSAII (Michael W. Deem and Ramdas Pophale) SiO2 
 PCOD9173506
Probable space group: C 2/M
;
_chemical_formula_sum "Si O2"
_cell_formula_units_Z 56
_cell_length_a 30.689080
_cell_length_b 8.858831
_cell_length_c 12.868813
_cell_angle_alpha 90.000000
_cell_angle_beta 74.775532
_cell_angle_gamma 90.000000
_cell_volume 3375.849529
_symmetry_space_group_name_H-M "C 2/M"
_symmetry_group_IT_number 12
_symmetry_cell_setting 'monoclinic'
loop_
_space_group_symop_operation_xyz
x,y,z
-x,y,-z
-x,-y,-z
x,-y,z
1/2+x,1/2+y,z
1/2-x,1/2+y,-z
1/2-x,1/2-y,-z
1/2+x,1/2-y,z
loop_
_atom_site_type_symbol
_atom_site_label
_atom_site_fract_x
_atom_site_fract_y
_atom_site_fract_z
Si Si1 0.700331 0.320190 0.147258
Si Si2 0.452206 0.183988 0.481243
Si Si3 0.384307 0.181337 0.701605
Si Si4 0.392609 0.320570 0.102862
Si Si5 0.803911 0.679941 0.078555
Si Si6 0.941931 0.680733 0.873251
Si Si7 0.545716 0.817801 0.759384
O O1 0.696123 0.500000 0.136745
O O2 0.663504 0.259820 0.250481
O O3 0.752333 0.286547 0.143328
O O4 0.691094 0.241324 0.042143
O O5 0.500000 0.233494 0.500000
O O6 0.411600 0.230142 0.582289
O O7 0.448067 0.229934 0.364234
O O8 0.453081 0.000000 0.481650
O O9 0.415446 0.213941 0.783007
O O10 0.378314 0.000000 0.701810
O O11 0.391598 0.500000 0.105569
O O12 0.342135 0.255723 0.123994
O O13 0.418745 0.256271 0.185786
O O14 0.419299 0.264276 0.983700
O O15 0.810314 0.500000 0.073453
O O16 0.938615 0.500000 0.893104
O O17 0.994563 0.718938 0.826436
O O18 0.549974 0.000000 0.761758
#
# Coordination Sequence:
#
# PCOD9173506 Si02
#       7
#     8   8   8   8   8   8   8
#     4  10  20  33  52  80 108 135 167 211 266 317
#     4   9  16  31  55  81 103 133 180 223 253 293
#     4  10  18  30  54  82 109 138 171 214 258 306
#     4  12  24  35  50  75 109 143 177 217 264 314
#     4  10  20  35  54  75 103 137 175 214 258 314
#     4  10  19  32  52  78 106 142 178 210 256 312
#     4  10  20  35  55  76 105 143 183 219 254 305
#
# _framework density 16.588415999999999
#
# number of rings (size 3 to 8) (size 9 to 14) (size 15 to 20)
#    0.000    1.857    2.857    2.571    0.000    4.000 
#    0.000    0.714    0.000    1.714    0.000    0.000 
#    0.000    0.000    0.000    0.000    0.000    0.000 
#
# Total GULP energy -156326.351154 kJ/mol
# GULP energy per Si atom -5583.083970 kJ/mol
# Density = 1.655066 g / cm^3
# Si number density = 16.588416 Si / 1000 Ang^3
#
#
#
# Elastic Constant Matrix: (Units=GPa)
#
#
# Indices 1 2 3 4 5 6 
#
# 1 146.4019 57.9455 77.3421 0.0000 -6.2917 0.0000
# 2 57.9455 43.3411 41.8138 0.0000 0.4820 0.0000
# 3 77.3421 41.8138 93.7594 0.0000 -4.2970 0.0000
# 4 0.0000 0.0000 0.0000 5.6637 0.0000 -7.0841
# 5 -6.2917 0.4820 -4.2970 0.0000 28.8508 0.0000
# 6 0.0000 0.0000 0.0000 -7.0841 0.0000 23.3853
#
#
#
# Elastic Compliance Matrix: (Units=1/GPa)
#
#
# Indices 1 2 3 4 5 6 
#
# 1 0.016824 -0.016268 -0.006487 0.000000 0.002975 0.000000
# 2 -0.016268 0.056559 -0.012092 0.000000 -0.006294 0.000000
# 3 -0.006487 -0.012092 0.021501 0.000000 0.001990 0.000000
# 4 0.000000 0.000000 0.000000 0.284270 0.000000 0.086113
# 5 0.002975 -0.006294 0.001990 0.000000 0.035711 0.000000
# 6 0.000000 0.000000 0.000000 0.086113 0.000000 0.068848
#
#
# Mechanical properties :
#
#
# Convention : Reuss Voigt Hill
#
# Bulk Modulus (GPa) = 39.69983 70.85614 55.27798
# Shear Modulus (GPa) = 8.89989 18.67338 13.78663
#
# Velocity S-wave (km/s) = 2.31879 3.35877 2.88601
# Velocity P-wave (km/s) = 5.58151 7.60583 6.67091
#
# Compressibility (1/GPa) = 0.02518902
#
# Stress axis : x y z
#
# Youngs Moduli (GPa) = 59.43846 17.68060 46.51035
#
# Poissons Ratio (x) = 0.28763 0.30170
# Poissons Ratio (y) = 0.96695 0.56243
# Poissons Ratio (z) = 0.38556 0.21380
#
# Static dielectric constant tensor:
#      x y z
#    x 1.554960 0.000000 -0.012350 
#    y 0.000000 1.554050 0.000000 
#    z -0.012350 0.000000 1.538930 
# 
# From -- ./inp_files/186441.got.cif
#   From: 2010.05.17/outbox.cif.g08.bks.cpg/sg12_94_cif.got.tgz:186441.got - 2010.06.03 13:09:07.
