data_PCOD9173878
_publ_section_title
;
Structure prediction by ZEFSAII (Michael W. Deem and Ramdas Pophale) SiO2 
 PCOD9173878
Probable space group: C 2/M
;
_chemical_formula_sum "Si O2"
_cell_formula_units_Z 48
_cell_length_a 14.051096
_cell_length_b 8.433990
_cell_length_c 28.081290
_cell_angle_alpha 90.000000
_cell_angle_beta 37.309550
_cell_angle_gamma 90.000000
_cell_volume 2017.063889
_symmetry_space_group_name_H-M "C 2/M"
_symmetry_group_IT_number 12
_symmetry_cell_setting 'monoclinic'
loop_
_space_group_symop_operation_xyz
x,y,z
-x,y,-z
-x,-y,-z
x,-y,z
1/2+x,1/2+y,z
1/2-x,1/2+y,-z
1/2-x,1/2-y,-z
1/2+x,1/2-y,z
loop_
_atom_site_type_symbol
_atom_site_label
_atom_site_fract_x
_atom_site_fract_y
_atom_site_fract_z
Si Si1 0.145609 0.816831 0.331120
Si Si2 0.363192 0.674648 0.829971
Si Si3 0.367227 0.172005 0.329673
Si Si4 0.989023 0.500000 0.585320
Si Si5 0.109041 0.321230 0.845945
Si Si6 0.237233 0.000000 0.597794
Si Si7 0.630836 0.321973 0.990183
O O1 0.214122 0.831091 0.357143
O O2 0.031004 0.665820 0.378511
O O3 0.289261 0.765006 0.239289
O O4 0.099264 0.000000 0.336103
O O5 0.437738 0.500000 0.803192
O O6 0.487501 0.804501 0.764247
O O7 0.234905 0.672962 0.838903
O O8 0.268617 0.712712 0.915315
O O9 0.358992 0.335542 0.362051
O O10 0.378630 0.000000 0.349192
O O11 0.849949 0.500000 0.600116
O O12 0.150869 0.500000 0.492256
O O13 0.058969 0.500000 0.855117
O O14 0.961836 0.229336 0.925965
O O15 0.689225 0.500000 0.971683
O O16 0.500000 0.320123 0.000000
#
# Coordination Sequence:
#
# PCOD9173878 Si02
#       7
#     8   8   8   4   8   4   8
#     4   9  19  34  52  77 104 131 166 208 251 299
#     4  10  18  31  51  73 100 136 171 211 250 296
#     4  10  19  33  53  76 104 133 165 208 251 299
#     4   9  18  32  56  78 101 130 163 207 252 303
#     4   9  18  32  50  73  99 134 171 211 251 295
#     4   9  18  34  52  80 103 126 167 205 252 303
#     4   9  17  28  44  70 101 128 172 215 245 288
#
# _framework density 23.796966000000001
#
# number of rings (size 3 to 8) (size 9 to 14) (size 15 to 20)
#    0.000    2.667    0.833    1.000    1.167    3.333 
#    0.000    4.167    0.000    1.000    0.000    0.000 
#    0.000    0.000    0.000    0.000    0.000    0.000 
#
# Total GULP energy -134037.213639 kJ/mol
# GULP energy per Si atom -5584.883902 kJ/mol
# Density = 2.374280 g / cm^3
# Si number density = 23.796966 Si / 1000 Ang^3
#
#
#
# Elastic Constant Matrix: (Units=GPa)
#
#
# Indices 1 2 3 4 5 6 
#
# 1 69.2535 19.4473 4.3937 0.0000 8.6722 -0.0003
# 2 19.4473 188.7431 86.6751 0.0000 4.8200 -0.0007
# 3 4.3937 86.6751 121.5152 0.0000 8.7021 0.0000
# 4 0.0000 0.0000 0.0000 28.4595 0.0000 3.1606
# 5 8.6722 4.8200 8.7021 0.0000 20.1750 0.0000
# 6 -0.0003 -0.0007 0.0000 3.1606 0.0000 18.4517
#
#
#
# Elastic Compliance Matrix: (Units=1/GPa)
#
#
# Indices 1 2 3 4 5 6 
#
# 1 0.015806 -0.002107 0.001426 0.000000 -0.006906 0.000000
# 2 -0.002107 0.008166 -0.005855 0.000000 0.001480 0.000000
# 3 0.001426 -0.005855 0.012690 0.000000 -0.004688 0.000000
# 4 0.000000 0.000000 0.000000 0.035819 0.000000 -0.006136
# 5 -0.006906 0.001480 -0.004688 0.000000 0.054203 0.000000
# 6 0.000000 0.000000 0.000000 -0.006136 0.000000 0.055247
#
#
# Mechanical properties :
#
#
# Convention : Reuss Voigt Hill
#
# Bulk Modulus (GPa) = 42.39076 66.72713 54.55894
# Shear Modulus (GPa) = 24.64699 31.35027 27.99863
#
# Velocity S-wave (km/s) = 3.22175 3.63355 3.43383
# Velocity P-wave (km/s) = 5.62954 6.76052 6.22079
#
# Compressibility (1/GPa) = 0.02359005
#
# Stress axis : x y z
#
# Youngs Moduli (GPa) = 63.26835 122.45826 78.80517
#
# Poissons Ratio (x) = 0.25802 -0.11237
# Poissons Ratio (y) = 0.13331 0.46137
# Poissons Ratio (z) = -0.09022 0.71694
#
# Static dielectric constant tensor:
#      x y z
#    x 1.977010 0.000000 0.005080 
#    y 0.000000 1.884050 0.000000 
#    z 0.005080 0.000000 1.849420 
# 
# From -- ./inp_files/280557.got.cif
#   From: 2010.05.17/outbox.cif.g08.bks.cpg/sg12_141_cif.got.tgz:280557.got - 2010.06.03 13:09:07.
