data_PCOD9173323
_publ_section_title
;
Structure prediction by ZEFSAII (Michael W. Deem and Ramdas Pophale) SiO2 
 PCOD9173323
Probable space group: C 2/M
;
_chemical_formula_sum "Si O2"
_cell_formula_units_Z 64
_cell_length_a 24.600349
_cell_length_b 8.984370
_cell_length_c 20.218740
_cell_angle_alpha 90.000000
_cell_angle_beta 51.852973
_cell_angle_gamma 90.000000
_cell_volume 3514.326628
_symmetry_space_group_name_H-M "C 2/M"
_symmetry_group_IT_number 12
_symmetry_cell_setting 'monoclinic'
loop_
_space_group_symop_operation_xyz
x,y,z
-x,y,-z
-x,-y,-z
x,-y,z
1/2+x,1/2+y,z
1/2-x,1/2+y,-z
1/2-x,1/2-y,-z
1/2+x,1/2-y,z
loop_
_atom_site_type_symbol
_atom_site_label
_atom_site_fract_x
_atom_site_fract_y
_atom_site_fract_z
Si Si1 0.454010 0.677298 0.187721
Si Si2 0.843756 0.821635 0.800601
Si Si3 0.698184 0.324630 0.949441
Si Si4 0.160405 0.174576 0.829449
Si Si5 0.811144 0.677120 0.543321
Si Si6 0.694904 0.322981 0.315944
Si Si7 0.343909 0.676662 0.385990
Si Si8 0.592938 0.823087 0.128051
O O1 0.470105 0.500000 0.173037
O O2 0.408861 0.716541 0.157121
O O3 0.403581 0.703940 0.288078
O O4 0.523080 0.769601 0.145468
O O5 0.771299 0.753073 0.880513
O O6 0.846372 0.786382 0.720489
O O7 0.901608 0.748725 0.803143
O O8 0.843380 0.000000 0.808607
O O9 0.707781 0.500000 0.956848
O O10 0.656678 0.312426 0.911252
O O11 0.656091 0.244116 0.038232
O O12 0.226866 0.265682 0.755292
O O13 0.173831 0.000000 0.803201
O O14 0.815712 0.500000 0.543565
O O15 0.832082 0.748121 0.597092
O O16 0.730401 0.717876 0.590020
O O17 0.851323 0.737919 0.449320
O O18 0.695592 0.500000 0.322997
O O19 0.341440 0.500000 0.401260
O O20 0.597730 0.000000 0.127893
#
# Coordination Sequence:
#
# PCOD9173323 Si02
#       8
#     8   8   8   8   8   8   8   8
#     4  10  20  37  56  75 107 145 180 216 258 316
#     4  10  21  38  58  80 105 136 177 225 271 313
#     4  10  20  36  59  82 106 136 173 223 271 315
#     4   9  18  34  55  79 106 139 177 213 263 319
#     4  10  18  30  51  80 112 142 175 212 256 312
#     4  10  19  31  53  82 110 137 171 218 268 314
#     4   9  18  32  51  77 109 143 176 213 255 308
#     4  12  25  38  53  76 105 141 183 222 265 317
#
# _framework density 18.211169999999999
#
# number of rings (size 3 to 8) (size 9 to 14) (size 15 to 20)
#    0.000    2.000    1.250    3.000    0.000    4.000 
#    0.000    2.500    0.000    0.750    0.000    5.250 
#    0.000    0.000    0.000    0.000    0.000    0.000 
#
# Total GULP energy -178679.542716 kJ/mol
# GULP energy per Si atom -5583.735710 kJ/mol
# Density = 1.816972 g / cm^3
# Si number density = 18.211170 Si / 1000 Ang^3
#
#
#
# Elastic Constant Matrix: (Units=GPa)
#
#
# Indices 1 2 3 4 5 6 
#
# 1 82.6971 29.2882 10.8654 -0.0005 24.2395 0.0007
# 2 29.2882 62.2698 20.8925 0.0005 18.0833 -0.0004
# 3 10.8654 20.8925 29.5533 -0.0004 22.1775 0.0004
# 4 -0.0005 0.0005 -0.0004 27.2315 0.0000 2.0257
# 5 24.2395 18.0833 22.1775 0.0000 25.1413 0.0002
# 6 0.0007 -0.0004 0.0004 2.0257 0.0002 25.6925
#
#
#
# Elastic Compliance Matrix: (Units=1/GPa)
#
#
# Indices 1 2 3 4 5 6 
#
# 1 0.023785 -0.008664 0.029322 0.000001 -0.042565 -0.000001
# 2 -0.008664 0.024515 -0.021245 -0.000001 0.009461 0.000001
# 3 0.029322 -0.021245 0.141471 0.000003 -0.137783 -0.000003
# 4 0.000001 -0.000001 0.000003 0.036939 -0.000003 -0.002912
# 5 -0.042565 0.009461 -0.137783 -0.000003 0.195549 0.000002
# 6 -0.000001 0.000001 -0.000003 -0.002912 0.000002 0.039152
#
#
# Mechanical properties :
#
#
# Convention : Reuss Voigt Hill
#
# Bulk Modulus (GPa) = 5.30230 32.95693 19.12961
# Shear Modulus (GPa) = 9.51570 23.17799 16.34684
#
# Velocity S-wave (km/s) = 2.28835 3.57141 2.99929
# Velocity P-wave (km/s) = 3.14642 5.92816 4.74568
#
# Compressibility (1/GPa) = 0.18859747
#
# Stress axis : x y z
#
# Youngs Moduli (GPa) = 42.04415 40.79187 7.06859
#
# Poissons Ratio (x) = 0.35342 -0.20727
# Poissons Ratio (y) = 0.36427 0.15017
# Poissons Ratio (z) = -1.23283 0.86661
#
# Static dielectric constant tensor:
#      x y z
#    x 1.648110 0.000000 0.024890 
#    y 0.000000 1.606510 0.000000 
#    z 0.024890 0.000000 1.611740 
# 
# From -- ./inp_files/324079.got.cif
#   From: 2010.05.17/outbox.cif.g08.bks.cpg/sg12_163_cif.got.tgz:324079.got - 2010.06.03 13:09:07.
