data_PCOD9173688
_publ_section_title
;
Structure prediction by ZEFSAII (Michael W. Deem and Ramdas Pophale) SiO2 
 PCOD9173688
Probable space group: C 2/M
;
_chemical_formula_sum "Si O2"
_cell_formula_units_Z 64
_cell_length_a 32.042095
_cell_length_b 9.076708
_cell_length_c 12.668094
_cell_angle_alpha 90.000000
_cell_angle_beta 104.731894
_cell_angle_gamma 90.000000
_cell_volume 3563.229212
_symmetry_space_group_name_H-M "C 2/M"
_symmetry_group_IT_number 12
_symmetry_cell_setting 'monoclinic'
loop_
_space_group_symop_operation_xyz
x,y,z
-x,y,-z
-x,-y,-z
x,-y,z
1/2+x,1/2+y,z
1/2-x,1/2+y,-z
1/2-x,1/2-y,-z
1/2+x,1/2-y,z
loop_
_atom_site_type_symbol
_atom_site_label
_atom_site_fract_x
_atom_site_fract_y
_atom_site_fract_z
Si Si1 0.779161 0.329193 0.366997
Si Si2 0.492798 0.179337 0.869991
Si Si3 0.346265 0.669037 0.258718
Si Si4 0.793755 0.831827 0.004471
Si Si5 0.867939 0.665061 0.971981
Si Si6 0.425287 0.323434 0.177496
Si Si7 0.193283 0.326836 0.370251
Si Si8 0.398777 0.833635 0.753688
O O1 0.773604 0.500000 0.336097
O O2 0.816611 0.260413 0.318821
O O3 0.794579 0.318263 0.498577
O O4 0.732571 0.249528 0.333113
O O5 0.529912 0.243147 0.818187
O O6 0.446855 0.231112 0.792120
O O7 0.493560 0.000000 0.869510
O O8 0.500000 0.220381 0.000000
O O9 0.348917 0.500000 0.298080
O O10 0.320877 0.667778 0.130841
O O11 0.394846 0.719517 0.258041
O O12 0.787791 0.000000 0.966351
O O13 0.750000 0.750000 0.000000
O O14 0.820887 0.735264 0.940300
O O15 0.867270 0.500000 0.018783
O O16 0.886689 0.654226 0.868586
O O17 0.897232 0.773356 0.058740
O O18 0.430175 0.500000 0.183361
O O19 0.191960 0.500000 0.338259
O O20 0.144637 0.265073 0.323945
O O21 0.402857 0.000000 0.710847
#
# Coordination Sequence:
#
# PCOD9173688 Si02
#       8
#     8   8   8   8   8   8   8   8
#     4  10  20  34  55  81 102 129 174 220 260 305
#     4  10  18  32  53  77 103 136 176 211 250 305
#     4   9  20  36  52  69  98 138 173 206 256 311
#     4  10  21  34  46  68 100 136 172 211 255 306
#     4  10  18  31  49  70  99 136 174 208 245 299
#     4  10  20  34  50  74 104 137 174 210 254 304
#     4   9  19  36  55  76 106 137 167 210 264 317
#     4   9  18  32  52  75 101 137 170 203 255 312
#
# _framework density 17.961237000000001
#
# number of rings (size 3 to 8) (size 9 to 14) (size 15 to 20)
#    0.000    2.375    1.250    2.250    1.750    3.750 
#    0.000    1.250    0.000    0.750    0.000    5.250 
#    0.000    0.000    0.000    0.000    0.000    0.000 
#
# Total GULP energy -178170.173476 kJ/mol
# GULP energy per Si atom -5567.817921 kJ/mol
# Density = 1.792036 g / cm^3
# Si number density = 17.961237 Si / 1000 Ang^3
#
#
#
# Elastic Constant Matrix: (Units=GPa)
#
#
# Indices 1 2 3 4 5 6 
#
# 1 187.3766 50.1268 31.0324 0.0000 4.9498 0.0000
# 2 50.1268 48.0537 16.2063 0.0000 -10.3692 0.0000
# 3 31.0324 16.2063 24.9684 0.0000 -0.5624 0.0000
# 4 0.0000 0.0000 0.0000 15.3888 0.0000 -3.6874
# 5 4.9498 -10.3692 -0.5624 0.0000 28.3090 0.0000
# 6 0.0000 0.0000 0.0000 -3.6874 0.0000 27.4824
#
#
#
# Elastic Compliance Matrix: (Units=1/GPa)
#
#
# Indices 1 2 3 4 5 6 
#
# 1 0.008504 -0.008000 -0.005479 0.000000 -0.004526 0.000000
# 2 -0.008000 0.036939 -0.013703 0.000000 0.014657 0.000000
# 3 -0.005479 -0.013703 0.055688 0.000000 -0.002955 0.000000
# 4 0.000000 0.000000 0.000000 0.067141 0.000000 0.009009
# 5 -0.004526 0.014657 -0.002955 0.000000 0.041426 0.000000
# 6 0.000000 0.000000 0.000000 0.009009 0.000000 0.037596
#
#
# Mechanical properties :
#
#
# Convention : Reuss Voigt Hill
#
# Bulk Modulus (GPa) = 21.38255 50.56997 35.97626
# Shear Modulus (GPa) = 15.76066 25.10490 20.43278
#
# Velocity S-wave (km/s) = 2.96545 3.74267 3.37650
# Velocity P-wave (km/s) = 4.86373 6.84785 5.93923
#
# Compressibility (1/GPa) = 0.04676711
#
# Stress axis : x y z
#
# Youngs Moduli (GPa) = 117.59445 27.07173 17.95723
#
# Poissons Ratio (x) = 0.21656 0.09838
# Poissons Ratio (y) = 0.94070 0.24608
# Poissons Ratio (z) = 0.64427 0.37098
#
# Static dielectric constant tensor:
#      x y z
#    x 1.663600 0.000000 0.011970 
#    y 0.000000 1.622100 0.000000 
#    z 0.011970 0.000000 1.612660 
# 
# From -- ./inp_files/248464.got.cif
#   From: 2010.05.17/outbox.cif.g08.bks.cpg/sg12_125_cif.got.tgz:248464.got - 2010.06.03 13:09:07.
