data_PCOD9173550
_publ_section_title
;
Structure prediction by ZEFSAII (Michael W. Deem and Ramdas Pophale) SiO2 
 PCOD9173550
Probable space group: C 2/M
;
_chemical_formula_sum "Si O2"
_cell_formula_units_Z 34
_cell_length_a 14.897269
_cell_length_b 7.292539
_cell_length_c 16.759697
_cell_angle_alpha 90.000000
_cell_angle_beta 135.660995
_cell_angle_gamma 90.000000
_cell_volume 1272.530145
_symmetry_space_group_name_H-M "C 2/M"
_symmetry_group_IT_number 12
_symmetry_cell_setting 'monoclinic'
loop_
_space_group_symop_operation_xyz
x,y,z
-x,y,-z
-x,-y,-z
x,-y,z
1/2+x,1/2+y,z
1/2-x,1/2+y,-z
1/2-x,1/2-y,-z
1/2+x,1/2-y,z
loop_
_atom_site_type_symbol
_atom_site_label
_atom_site_fract_x
_atom_site_fract_y
_atom_site_fract_z
Si Si1 0.934637 0.208174 0.593526
Si Si2 0.367636 0.723625 0.721421
Si Si3 0.276841 0.223769 0.218021
Si Si4 0.500000 0.000000 0.500000
Si Si5 0.876331 0.217172 0.027976
O O1 0.084627 0.205375 0.718419
O O2 0.859947 0.278188 0.624646
O O3 0.941409 0.342499 0.523480
O O4 0.899997 0.000000 0.551570
O O5 0.368762 0.500000 0.720087
O O6 0.259747 0.778458 0.715970
O O7 0.499978 0.787872 0.847142
O O8 0.164816 0.280933 0.086176
O O9 0.286589 0.000000 0.224365
O O10 0.898101 0.000000 0.033082
O O11 0.750000 0.250000 0.000000
#
# Coordination Sequence:
#
# PCOD9173550 Si02
#       5
#     8   8   8   2   8
#     4  11  23  43  69  93 123 164 209 269 324 375
#     4   9  19  36  61  91 130 169 212 254 307 376
#     4  10  19  36  62  92 130 172 208 254 310 374
#     4  12  26  48  72  90 120 162 214 272 336 384
#     4  10  18  30  55  90 129 175 211 242 299 371
#
# _framework density 26.718425
#
# number of rings (size 3 to 8) (size 9 to 14) (size 15 to 20)
#    0.000    1.882    3.529    1.059    0.000    2.824 
#    2.118    1.176    0.000    2.824    0.000    0.000 
#    0.000    0.000    0.000    0.000    0.000    0.000 
#
# Total GULP energy -95014.278744 kJ/mol
# GULP energy per Si atom -5589.075220 kJ/mol
# Density = 2.665761 g / cm^3
# Si number density = 26.718425 Si / 1000 Ang^3
#
#
#
# Elastic Constant Matrix: (Units=GPa)
#
#
# Indices 1 2 3 4 5 6 
#
# 1 137.7308 25.2489 44.2450 0.0000 -58.4644 0.0000
# 2 25.2489 162.4936 25.7380 0.0000 -25.1404 0.0000
# 3 44.2450 25.7380 155.3094 0.0000 -18.3594 0.0000
# 4 0.0000 0.0000 0.0000 13.3267 0.0000 6.3921
# 5 -58.4644 -25.1404 -18.3594 0.0000 60.4664 0.0000
# 6 0.0000 0.0000 0.0000 6.3921 0.0000 -5.4124
#
#
#
# Elastic Compliance Matrix: (Units=1/GPa)
#
#
# Indices 1 2 3 4 5 6 
#
# 1 0.013075 0.000197 -0.002337 0.000000 0.012015 0.000000
# 2 0.000197 0.006676 -0.000842 0.000000 0.002711 0.000000
# 3 -0.002337 -0.000842 0.007194 0.000000 -0.000426 0.000000
# 4 0.000000 0.000000 0.000000 0.047902 0.000000 0.056573
# 5 0.012015 0.002711 -0.000426 0.000000 0.029153 0.000000
# 6 0.000000 0.000000 0.000000 0.056573 0.000000 -0.117946
#
#
# Mechanical properties :
#
#
# Convention : Reuss Voigt Hill
#
# Bulk Modulus (GPa) = 47.66179 71.77752 59.71965
# Shear Modulus (GPa) = -5061.73415 37.69625 -2512.01895
#
# Velocity S-wave (km/s) = -43.57277 3.76023 -30.69566
# Velocity P-wave (km/s) = 50.13552 6.76574 35.12688
#
# Compressibility (1/GPa) = 0.02098117
#
# Stress axis : x y z
#
# Youngs Moduli (GPa) = 76.48023 149.78487 139.00755
#
# Poissons Ratio (x) = -0.02957 0.32491
# Poissons Ratio (y) = -0.01510 0.11707
# Poissons Ratio (z) = 0.17876 0.12614
#
# Static dielectric constant tensor:
#      x y z
#    x 2.002490 0.000000 0.026870 
#    y 0.000000 1.992910 0.000000 
#    z 0.026870 0.000000 2.190610 
# 
# From -- ./inp_files/210632.got.cif
#   From: 2010.05.17/outbox.cif.g08.bks.cpg/sg12_106_cif.got.tgz:210632.got - 2010.06.03 13:09:07.
