data_PCOD9173428
_publ_section_title
;
Structure prediction by ZEFSAII (Michael W. Deem and Ramdas Pophale) SiO2 
 PCOD9173428
Probable space group: C 2/M
;
_chemical_formula_sum "Si O2"
_cell_formula_units_Z 64
_cell_length_a 15.067983
_cell_length_b 15.237292
_cell_length_c 13.631863
_cell_angle_alpha 90.000000
_cell_angle_beta 65.546224
_cell_angle_gamma 90.000000
_cell_volume 2849.053051
_symmetry_space_group_name_H-M "C 2/M"
_symmetry_group_IT_number 12
_symmetry_cell_setting 'monoclinic'
loop_
_space_group_symop_operation_xyz
x,y,z
-x,y,-z
-x,-y,-z
x,-y,z
1/2+x,1/2+y,z
1/2-x,1/2+y,-z
1/2-x,1/2-y,-z
1/2+x,1/2-y,z
loop_
_atom_site_type_symbol
_atom_site_label
_atom_site_fract_x
_atom_site_fract_y
_atom_site_fract_z
Si Si1 0.643463 0.101661 0.148575
Si Si2 0.608168 0.847143 0.461190
Si Si3 0.446055 0.099047 0.322235
Si Si4 0.863753 0.903207 0.111888
Si Si5 0.793705 0.660494 0.263466
Si Si6 0.389366 0.788158 0.027465
Si Si7 0.179831 0.144048 0.661161
Si Si8 0.390382 0.356565 0.534197
O O1 0.557379 0.127340 0.262480
O O2 0.747106 0.100821 0.151833
O O3 0.622026 0.000000 0.127227
O O4 0.639332 0.170800 0.062922
O O5 0.500000 0.887419 0.500000
O O6 0.615388 0.843907 0.575307
O O7 0.708619 0.891776 0.384767
O O8 0.602661 0.745649 0.434319
O O9 0.391052 0.107024 0.245396
O O10 0.441318 0.000000 0.358416
O O11 0.895540 0.817623 0.036463
O O12 0.883175 0.894667 0.220083
O O13 0.894246 0.000000 0.063110
O O14 0.806665 0.680349 0.142786
O O15 0.806917 0.755228 0.309985
O O16 0.699093 0.613788 0.354243
O O17 0.500000 0.819266 0.000000
O O18 0.139786 0.135244 0.567834
O O19 0.500000 0.392887 0.500000
#
# Coordination Sequence:
#
# PCOD9173428 Si02
#       8
#     8   8   8   8   8   8   8   8
#     4  10  22  40  61  91 127 160 205 260 317 378
#     4  10  18  30  52  82 117 154 195 243 302 372
#     4  11  20  31  53  83 121 157 190 246 309 371
#     4  10  23  41  60  88 122 160 210 263 309 368
#     4  10  19  37  53  85 119 151 206 250 295 368
#     4  11  22  38  66  89 121 168 209 256 317 373
#     4  10  18  35  57  80 118 158 198 251 308 355
#     4  10  19  34  60  86 116 158 204 255 302 357
#
# _framework density 22.463604
#
# number of rings (size 3 to 8) (size 9 to 14) (size 15 to 20)
#    0.000    1.750    3.750    1.875    0.000    2.750 
#    0.000    1.250    0.000    1.500    0.000    0.000 
#    0.000    0.000    0.000    0.000    0.000    0.500 
#
# Total GULP energy -178249.459359 kJ/mol
# GULP energy per Si atom -5570.295605 kJ/mol
# Density = 2.241248 g / cm^3
# Si number density = 22.463604 Si / 1000 Ang^3
#
#
#
# Elastic Constant Matrix: (Units=GPa)
#
#
# Indices 1 2 3 4 5 6 
#
# 1 87.9284 7.4192 16.5125 0.0000 -11.5912 0.0000
# 2 7.4192 60.8193 25.3677 0.0000 5.2396 0.0000
# 3 16.5125 25.3677 81.0226 0.0000 -5.0780 0.0000
# 4 0.0000 0.0000 0.0000 5.4303 0.0000 6.0177
# 5 -11.5912 5.2396 -5.0780 0.0000 29.7336 0.0000
# 6 0.0000 0.0000 0.0000 6.0177 0.0000 13.3038
#
#
#
# Elastic Compliance Matrix: (Units=1/GPa)
#
#
# Indices 1 2 3 4 5 6 
#
# 1 0.012446 -0.001141 -0.001883 0.000000 0.004731 0.000000
# 2 -0.001141 0.019601 -0.006215 0.000000 -0.004960 0.000000
# 3 -0.001883 -0.006215 0.014854 0.000000 0.002898 0.000000
# 4 0.000000 0.000000 0.000000 0.369233 0.000000 -0.167014
# 5 0.004731 -0.004960 0.002898 0.000000 0.036845 0.000000
# 6 0.000000 0.000000 0.000000 -0.167014 0.000000 0.150712
#
#
# Mechanical properties :
#
#
# Convention : Reuss Voigt Hill
#
# Bulk Modulus (GPa) = 35.18239 36.48545 35.83392
# Shear Modulus (GPa) = 7.91585 21.72494 14.82040
#
# Velocity S-wave (km/s) = 1.87923 3.11322 2.57135
# Velocity P-wave (km/s) = 4.51715 5.40372 4.98020
#
# Compressibility (1/GPa) = 0.02842331
#
# Stress axis : x y z
#
# Youngs Moduli (GPa) = 80.34412 51.01772 67.32364
#
# Poissons Ratio (x) = 0.05819 0.12677
# Poissons Ratio (y) = 0.09164 0.41844
# Poissons Ratio (z) = 0.15128 0.31710
#
# Static dielectric constant tensor:
#      x y z
#    x 1.882320 0.000000 0.007640 
#    y 0.000000 1.857870 0.000000 
#    z 0.007640 0.000000 1.888160 
# 
# From -- ./inp_files/216362.got.cif
#   From: 2010.05.17/outbox.cif.g08.bks.cpg/sg12_109_cif.got.tgz:216362.got - 2010.06.03 13:09:07.
