data_PCOD9173893
_publ_section_title
;
Structure prediction by ZEFSAII (Michael W. Deem and Ramdas Pophale) SiO2 
 PCOD9173893
Probable space group: C 2/M
;
_chemical_formula_sum "Si O2"
_cell_formula_units_Z 56
_cell_length_a 19.756683
_cell_length_b 9.101487
_cell_length_c 25.059287
_cell_angle_alpha 90.000000
_cell_angle_beta 46.615932
_cell_angle_gamma 90.000000
_cell_volume 3274.835701
_symmetry_space_group_name_H-M "C 2/M"
_symmetry_group_IT_number 12
_symmetry_cell_setting 'monoclinic'
loop_
_space_group_symop_operation_xyz
x,y,z
-x,y,-z
-x,-y,-z
x,-y,z
1/2+x,1/2+y,z
1/2-x,1/2+y,-z
1/2-x,1/2-y,-z
1/2+x,1/2-y,z
loop_
_atom_site_type_symbol
_atom_site_label
_atom_site_fract_x
_atom_site_fract_y
_atom_site_fract_z
Si Si1 0.892474 0.826663 0.403107
Si Si2 0.040507 0.324938 0.815542
Si Si3 0.693905 0.173370 0.451094
Si Si4 0.739542 0.674781 0.317762
Si Si5 0.556871 0.323270 0.917324
Si Si6 0.228594 0.324202 0.212557
Si Si7 0.047619 0.323437 0.246755
O O1 0.797643 0.807426 0.419935
O O2 0.874460 0.749323 0.469501
O O3 0.975878 0.753153 0.325650
O O4 0.907593 0.000000 0.402006
O O5 0.031328 0.500000 0.828115
O O6 0.148658 0.296197 0.741526
O O7 0.020829 0.244576 0.881616
O O8 0.977001 0.278439 0.800215
O O9 0.693824 0.248697 0.393523
O O10 0.675421 0.000000 0.457207
O O11 0.725697 0.500000 0.326978
O O12 0.706206 0.741761 0.279797
O O13 0.666468 0.284334 0.861447
O O14 0.050402 0.000000 0.917736
O O15 0.500000 0.273985 0.000000
O O16 0.227052 0.500000 0.223233
O O17 0.151735 0.290695 0.209741
O O18 0.033542 0.500000 0.257342
#
# Coordination Sequence:
#
# PCOD9173893 Si02
#       7
#     8   8   8   8   8   8   8
#     4  10  20  31  48  74 103 134 169 214 259 298
#     4   9  18  31  51  76 100 131 168 206 250 299
#     4  10  19  31  49  73 101 134 173 213 255 302
#     4  10  18  31  51  74 101 131 171 218 255 296
#     4   9  18  34  55  78 103 132 168 207 246 295
#     4   9  19  34  53  74 101 137 171 204 252 308
#     4  10  19  34  52  73 103 136 170 209 254 307
#
# _framework density 17.100093999999999
#
# number of rings (size 3 to 8) (size 9 to 14) (size 15 to 20)
#    0.000    2.429    1.429    1.286    0.000    3.143 
#    0.000    1.429    0.000    4.286    0.000    0.000 
#    0.000    0.000    0.000    0.000    0.000    0.000 
#
# Total GULP energy -156200.311083 kJ/mol
# GULP energy per Si atom -5578.582539 kJ/mol
# Density = 1.706117 g / cm^3
# Si number density = 17.100094 Si / 1000 Ang^3
#
#
#
# Elastic Constant Matrix: (Units=GPa)
#
#
# Indices 1 2 3 4 5 6 
#
# 1 120.4508 44.4594 65.3788 0.0000 20.9035 0.0001
# 2 44.4594 35.0535 48.1226 0.0000 9.4487 0.0002
# 3 65.3788 48.1226 136.0804 0.0000 29.9521 0.0000
# 4 0.0000 0.0000 0.0000 26.6739 0.0000 7.1489
# 5 20.9035 9.4487 29.9521 0.0000 20.3431 0.0000
# 6 0.0001 0.0002 0.0000 7.1489 0.0000 22.8228
#
#
#
# Elastic Compliance Matrix: (Units=1/GPa)
#
#
# Indices 1 2 3 4 5 6 
#
# 1 0.016872 -0.020578 0.001307 0.000000 -0.009703 0.000000
# 2 -0.020578 0.080837 -0.022325 0.000000 0.016469 -0.000001
# 3 0.001307 -0.022325 0.018684 0.000000 -0.018483 0.000000
# 4 0.000000 0.000000 0.000000 0.040925 0.000000 -0.012819
# 5 -0.009703 0.016469 -0.018483 0.000000 0.078691 0.000000
# 6 0.000000 -0.000001 0.000000 -0.012819 0.000000 0.047831
#
#
# Mechanical properties :
#
#
# Convention : Reuss Voigt Hill
#
# Bulk Modulus (GPa) = 30.12034 67.50071 48.81052
# Shear Modulus (GPa) = 13.22402 22.87621 18.05011
#
# Velocity S-wave (km/s) = 2.78390 3.66154 3.25246
# Velocity P-wave (km/s) = 5.29016 7.57861 6.53534
#
# Compressibility (1/GPa) = 0.03320015
#
# Stress axis : x y z
#
# Youngs Moduli (GPa) = 59.26853 12.37061 53.52203
#
# Poissons Ratio (x) = 0.25456 -0.06993
# Poissons Ratio (y) = 1.21962 1.19488
# Poissons Ratio (z) = -0.07744 0.27617
#
# Static dielectric constant tensor:
#      x y z
#    x 1.581050 0.000000 -0.007540 
#    y 0.000000 1.566270 0.000000 
#    z -0.007540 0.000000 1.547570 
# 
# From -- ./inp_files/280216.got.cif
#   From: 2010.05.17/outbox.cif.g08.bks.cpg/sg12_141_cif.got.tgz:280216.got - 2010.06.03 13:09:07.
