data_PCOD9173556
_publ_section_title
;
Structure prediction by ZEFSAII (Michael W. Deem and Ramdas Pophale) SiO2 
 PCOD9173556
Probable space group: C 2/M
;
_chemical_formula_sum "Si O2"
_cell_formula_units_Z 40
_cell_length_a 16.748915
_cell_length_b 14.030645
_cell_length_c 8.187482
_cell_angle_alpha 90.000000
_cell_angle_beta 64.986883
_cell_angle_gamma 90.000000
_cell_volume 1743.588549
_symmetry_space_group_name_H-M "C 2/M"
_symmetry_group_IT_number 12
_symmetry_cell_setting 'monoclinic'
loop_
_space_group_symop_operation_xyz
x,y,z
-x,y,-z
-x,-y,-z
x,-y,z
1/2+x,1/2+y,z
1/2-x,1/2+y,-z
1/2-x,1/2-y,-z
1/2+x,1/2-y,z
loop_
_atom_site_type_symbol
_atom_site_label
_atom_site_fract_x
_atom_site_fract_y
_atom_site_fract_z
Si Si1 0.755522 0.361399 0.439904
Si Si2 0.417395 0.318536 0.968823
Si Si3 0.627131 0.105106 0.984940
Si Si4 0.220153 0.353103 0.234738
Si Si5 0.399589 0.664724 0.630927
O O1 0.750000 0.250000 0.500000
O O2 0.820055 0.381469 0.231578
O O3 0.790106 0.402870 0.581100
O O4 0.658177 0.388392 0.456374
O O5 0.428188 0.202581 0.939528
O O6 0.323466 0.330123 0.134999
O O7 0.500000 0.352921 0.000000
O O8 0.407955 0.373961 0.806526
O O9 0.584242 0.000000 0.020697
O O10 0.692447 0.103327 0.085110
O O11 0.159491 0.259022 0.292973
O O12 0.500000 0.686360 0.500000
#
# Coordination Sequence:
#
# PCOD9173556 Si02
#       5
#     8   8   8   8   8
#     4  10  18  34  60  82 111 146 204 238 280 336
#     4  11  20  35  60  88 115 156 201 240 282 344
#     4  11  22  38  57  86 125 156 187 241 299 349
#     4  10  20  38  59  85 112 154 202 240 282 344
#     4  10  18  30  56  91 110 140 192 254 284 324
#
# _framework density 22.941192999999998
#
# number of rings (size 3 to 8) (size 9 to 14) (size 15 to 20)
#    0.000    1.600    6.000    2.400    2.800    1.200 
#    0.000    0.000    0.000    3.600    0.000    0.000 
#    0.000    0.000    0.000    0.000    0.000    0.000 
#
# Total GULP energy -111335.739309 kJ/mol
# GULP energy per Si atom -5566.786965 kJ/mol
# Density = 2.288898 g / cm^3
# Si number density = 22.941193 Si / 1000 Ang^3
#
#
#
# Elastic Constant Matrix: (Units=GPa)
#
#
# Indices 1 2 3 4 5 6 
#
# 1 174.9173 -15.0210 48.3436 0.0000 40.0014 0.0000
# 2 -15.0210 73.2059 -12.6055 0.0000 14.8213 0.0000
# 3 48.3436 -12.6055 117.8817 0.0000 40.4737 0.0000
# 4 0.0000 0.0000 0.0000 -45.2693 0.0000 -28.5336
# 5 40.0014 14.8213 40.4737 0.0000 62.0467 0.0000
# 6 0.0000 0.0000 0.0000 -28.5336 0.0000 -27.9051
#
#
#
# Elastic Compliance Matrix: (Units=1/GPa)
#
#
# Indices 1 2 3 4 5 6 
#
# 1 0.007246 0.002161 -0.001236 0.000000 -0.004381 0.000000
# 2 0.002161 0.016211 0.003421 0.000000 -0.007497 0.000000
# 3 -0.001236 0.003421 0.012065 0.000000 -0.007890 0.000000
# 4 0.000000 0.000000 0.000000 -0.062139 0.000000 0.063538
# 5 -0.004381 -0.007497 -0.007890 0.000000 0.025879 0.000000
# 6 0.000000 0.000000 0.000000 0.063538 0.000000 -0.100805
#
#
# Mechanical properties :
#
#
# Convention : Reuss Voigt Hill
#
# Bulk Modulus (GPa) = 22.61733 45.27101 33.94417
# Shear Modulus (GPa) = -52.35762 20.79364 -15.78199
#
# Velocity S-wave (km/s) = -4.78248 3.01390 -2.62569
# Velocity P-wave (km/s) = 4.54047 5.64693 2.37401
#
# Compressibility (1/GPa) = 0.04421388
#
# Stress axis : x y z
#
# Youngs Moduli (GPa) = 138.00291 61.68829 82.88415
#
# Poissons Ratio (x) = -0.13331 0.10247
# Poissons Ratio (y) = -0.29823 -0.28357
# Poissons Ratio (z) = 0.17061 -0.21106
#
# Static dielectric constant tensor:
#      x y z
#    x 1.879970 0.000000 0.067300 
#    y 0.000000 2.024780 0.000000 
#    z 0.067300 0.000000 1.908910 
# 
# From -- ./inp_files/60871.got.cif
#   From: 2010.05.17/outbox.cif.g08.bks.cpg/sg12_31_cif.got.tgz:60871.got - 2010.06.03 13:09:07.
