data_PCOD9173830
_publ_section_title
;
Structure prediction by ZEFSAII (Michael W. Deem and Ramdas Pophale) SiO2 
 PCOD9173830
Probable space group: C 2/M
;
_chemical_formula_sum "Si O2"
_cell_formula_units_Z 56
_cell_length_a 28.106551
_cell_length_b 8.769513
_cell_length_c 15.308620
_cell_angle_alpha 90.000000
_cell_angle_beta 50.933417
_cell_angle_gamma 90.000000
_cell_volume 2929.628106
_symmetry_space_group_name_H-M "C 2/M"
_symmetry_group_IT_number 12
_symmetry_cell_setting 'monoclinic'
loop_
_space_group_symop_operation_xyz
x,y,z
-x,y,-z
-x,-y,-z
x,-y,z
1/2+x,1/2+y,z
1/2-x,1/2+y,-z
1/2-x,1/2-y,-z
1/2+x,1/2-y,z
loop_
_atom_site_type_symbol
_atom_site_label
_atom_site_fract_x
_atom_site_fract_y
_atom_site_fract_z
Si Si1 0.811176 0.685153 0.697403
Si Si2 0.812522 0.680537 0.083658
Si Si3 0.632611 0.669577 0.815817
Si Si4 0.978873 0.318813 0.124518
Si Si5 0.922587 0.686135 0.845129
Si Si6 0.264264 0.830917 0.573409
Si Si7 0.442135 0.813984 0.624935
O O1 0.807706 0.500000 0.699024
O O2 0.752599 0.741337 0.821115
O O3 0.804959 0.740476 0.603882
O O4 0.876437 0.730243 0.660917
O O5 0.802733 0.500000 0.089395
O O6 0.856701 0.717981 0.115206
O O7 0.853781 0.732942 0.953683
O O8 0.614127 0.500000 0.867696
O O9 0.585307 0.732392 0.799919
O O10 0.698748 0.657611 0.696105
O O11 0.970109 0.500000 0.146023
O O12 0.028051 0.266189 0.138874
O O13 0.000000 0.293236 0.000000
O O14 0.921782 0.500000 0.847397
O O15 0.942334 0.735186 0.725843
O O16 0.250000 0.750000 0.500000
O O17 0.288825 0.000000 0.525706
O O18 0.500000 0.762619 0.500000
O O19 0.443740 0.000000 0.623066
#
# Coordination Sequence:
#
# PCOD9173830 Si02
#       7
#     8   8   8   8   8   8   8
#     4   9  19  35  54  79 108 135 173 224 268 312
#     4  10  18  32  53  78 107 138 172 213 267 323
#     4  10  20  33  49  75 109 141 173 215 264 314
#     4  10  18  31  50  76 109 142 173 211 259 312
#     4   9  18  31  50  77 106 138 181 220 256 315
#     4   9  19  33  49  73 103 133 171 217 260 310
#     4   9  18  34  55  77 104 140 179 222 265 308
#
# _framework density 19.115055999999999
#
# number of rings (size 3 to 8) (size 9 to 14) (size 15 to 20)
#    0.000    2.571    1.429    1.714    0.000    4.857 
#    0.000    2.857    0.000    2.143    0.000    0.000 
#    0.000    0.000    0.000    0.000    0.000    0.000 
#
# Total GULP energy -155956.291740 kJ/mol
# GULP energy per Si atom -5569.867562 kJ/mol
# Density = 1.907155 g / cm^3
# Si number density = 19.115056 Si / 1000 Ang^3
#
#
#
# Elastic Constant Matrix: (Units=GPa)
#
#
# Indices 1 2 3 4 5 6 
#
# 1 143.1271 16.5508 64.3012 0.0000 -5.9836 0.0000
# 2 16.5508 11.0633 13.8805 0.0000 4.2693 0.0000
# 3 64.3012 13.8805 107.4261 0.0000 8.2080 0.0000
# 4 0.0000 0.0000 0.0000 29.0987 0.0000 -7.5611
# 5 -5.9836 4.2693 8.2080 0.0000 22.8453 0.0000
# 6 0.0000 0.0000 0.0000 -7.5611 0.0000 18.8525
#
#
#
# Elastic Compliance Matrix: (Units=1/GPa)
#
#
# Indices 1 2 3 4 5 6 
#
# 1 0.011318 -0.012616 -0.005708 0.000000 0.007373 0.000000
# 2 -0.012616 0.127617 -0.007057 0.000000 -0.024618 0.000000
# 3 -0.005708 -0.007057 0.014036 0.000000 -0.005219 0.000000
# 4 0.000000 0.000000 0.000000 0.038364 0.000000 0.015387
# 5 0.007373 -0.024618 -0.005219 0.000000 0.052179 0.000000
# 6 0.000000 0.000000 0.000000 0.015387 0.000000 0.059214
#
#
# Mechanical properties :
#
#
# Convention : Reuss Voigt Hill
#
# Bulk Modulus (GPa) = 9.78387 50.12016 29.95201
# Shear Modulus (GPa) = 12.90124 25.28490 19.09307
#
# Velocity S-wave (km/s) = 2.60075 3.64094 3.16389
# Velocity P-wave (km/s) = 3.76139 6.62966 5.38983
#
# Compressibility (1/GPa) = 0.10220907
#
# Stress axis : x y z
#
# Youngs Moduli (GPa) = 88.35313 7.83597 71.24627
#
# Poissons Ratio (x) = 0.09886 0.40666
# Poissons Ratio (y) = 1.11466 0.50278
# Poissons Ratio (z) = 0.50431 0.05530
#
# Static dielectric constant tensor:
#      x y z
#    x 1.696320 0.000000 -0.000250 
#    y 0.000000 1.688970 0.000000 
#    z -0.000250 0.000000 1.691870 
# 
# From -- ./inp_files/248913.got.cif
#   From: 2010.05.17/outbox.cif.g08.bks.cpg/sg12_125_cif.got.tgz:248913.got - 2010.06.03 13:09:07.
