data_PCOD9173382
_publ_section_title
;
Structure prediction by ZEFSAII (Michael W. Deem and Ramdas Pophale) SiO2 
 PCOD9173382
Probable space group: C 2/M
;
_chemical_formula_sum "Si O2"
_cell_formula_units_Z 48
_cell_length_a 14.566863
_cell_length_b 22.752508
_cell_length_c 13.482481
_cell_angle_alpha 90.000000
_cell_angle_beta 31.664800
_cell_angle_gamma 90.000000
_cell_volume 2345.752123
_symmetry_space_group_name_H-M "C 2/M"
_symmetry_group_IT_number 12
_symmetry_cell_setting 'monoclinic'
loop_
_space_group_symop_operation_xyz
x,y,z
-x,y,-z
-x,-y,-z
x,-y,z
1/2+x,1/2+y,z
1/2-x,1/2+y,-z
1/2-x,1/2-y,-z
1/2+x,1/2-y,z
loop_
_atom_site_type_symbol
_atom_site_label
_atom_site_fract_x
_atom_site_fract_y
_atom_site_fract_z
Si Si1 0.419062 0.837143 0.186476
Si Si2 0.741320 0.285974 0.642243
Si Si3 0.139581 0.271879 0.240862
Si Si4 0.202416 0.061380 0.334715
Si Si5 0.314304 0.066333 0.007401
Si Si6 0.414124 0.336106 0.843554
O O1 0.360785 0.775450 0.284376
O O2 0.247445 0.877125 0.340202
O O3 0.500000 0.827975 0.000000
O O4 0.545620 0.880938 0.130875
O O5 0.776203 0.281228 0.728360
O O6 0.604320 0.330739 0.719127
O O7 0.939438 0.293999 0.422695
O O8 0.115350 0.203734 0.228608
O O9 0.274130 0.305119 0.045735
O O10 0.298107 0.060876 0.140927
O O11 0.000000 0.059326 0.500000
O O12 0.254327 0.000000 0.339600
O O13 0.139288 0.096877 0.127664
O O14 0.345206 0.000000 0.940752
#
# Coordination Sequence:
#
# PCOD9173382 Si02
#       6
#     8   8   8   8   8   8
#     4  10  18  30  52  78 109 144 178 223 274 337
#     4  11  22  36  60  86 113 151 187 226 288 344
#     4  10  22  37  58  87 116 147 184 230 284 342
#     4   9  18  31  48  75 109 147 187 222 263 328
#     4  10  21  35  52  75 107 149 190 230 280 332
#     4  11  21  38  57  82 118 147 187 235 281 335
#
# _framework density 20.462520999999999
#
# number of rings (size 3 to 8) (size 9 to 14) (size 15 to 20)
#    0.000    1.833    0.000    6.500    4.667    2.000 
#    0.000    0.000    0.000    2.000    0.000    2.333 
#    0.000    0.000    0.000    0.000    0.000    0.000 
#
# Total GULP energy -133792.458017 kJ/mol
# GULP energy per Si atom -5574.685751 kJ/mol
# Density = 2.041595 g / cm^3
# Si number density = 20.462521 Si / 1000 Ang^3
#
#
#
# Elastic Constant Matrix: (Units=GPa)
#
#
# Indices 1 2 3 4 5 6 
#
# 1 104.1291 22.9583 13.9802 -0.0144 -21.6597 0.0057
# 2 22.9583 63.5437 8.7844 0.0156 -29.9259 -0.0132
# 3 13.9802 8.7844 58.4717 0.2289 -28.8955 -0.1922
# 4 -0.0144 0.0156 0.2289 -8.6586 -0.0521 7.0129
# 5 -21.6597 -29.9259 -28.8955 -0.0521 33.7209 0.0523
# 6 0.0057 -0.0132 -0.1922 7.0129 0.0523 16.6566
#
#
#
# Elastic Compliance Matrix: (Units=1/GPa)
#
#
# Indices 1 2 3 4 5 6 
#
# 1 0.011171 -0.000565 0.001235 -0.000034 0.007731 0.000000
# 2 -0.000565 0.035049 0.017450 0.000239 0.045694 -0.000015
# 3 0.001235 0.017450 0.038554 0.000744 0.049318 -0.000010
# 4 -0.000034 0.000239 0.000744 -0.086107 0.000639 0.036260
# 5 0.007731 0.045694 0.049318 0.000639 0.117434 -0.000035
# 6 0.000000 -0.000015 -0.000010 0.036260 -0.000035 0.044769
#
#
# Mechanical properties :
#
#
# Convention : Reuss Voigt Hill
#
# Bulk Modulus (GPa) = 8.26361 35.28781 21.77571
# Shear Modulus (GPa) = 30.30869 20.37190 25.34030
#
# Velocity S-wave (km/s) = 3.85279 3.15869 3.52287
# Velocity P-wave (km/s) = 4.88253 5.53043 5.21655
#
# Compressibility (1/GPa) = 0.12101247
#
# Stress axis : x y z
#
# Youngs Moduli (GPa) = 89.52123 28.53158 25.93752
#
# Poissons Ratio (x) = 0.01613 -0.03203
# Poissons Ratio (y) = 0.05062 -0.45261
# Poissons Ratio (z) = -0.11056 -0.49787
#
# Static dielectric constant tensor:
#      x y z
#    x 1.801810 -0.000010 -0.013300 
#    y -0.000010 1.765270 0.000010 
#    z -0.013300 0.000010 1.827320 
# 
# From -- ./inp_files/218420.got.cif
#   From: 2010.05.17/outbox.cif.g08.bks.cpg/sg12_110_cif.got.tgz:218420.got - 2010.06.03 13:09:07.
