data_PCOD9173842
_publ_section_title
;
Structure prediction by ZEFSAII (Michael W. Deem and Ramdas Pophale) SiO2 
 PCOD9173842
Probable space group: C 2/M
;
_chemical_formula_sum "Si O2"
_cell_formula_units_Z 60
_cell_length_a 27.095133
_cell_length_b 13.557562
_cell_length_c 22.255150
_cell_angle_alpha 90.000000
_cell_angle_beta 24.429592
_cell_angle_gamma 90.000000
_cell_volume 3381.095201
_symmetry_space_group_name_H-M "C 2/M"
_symmetry_group_IT_number 12
_symmetry_cell_setting 'monoclinic'
loop_
_space_group_symop_operation_xyz
x,y,z
-x,y,-z
-x,-y,-z
x,-y,z
1/2+x,1/2+y,z
1/2-x,1/2+y,-z
1/2-x,1/2-y,-z
1/2+x,1/2-y,z
loop_
_atom_site_type_symbol
_atom_site_label
_atom_site_fract_x
_atom_site_fract_y
_atom_site_fract_z
Si Si1 0.938124 0.697545 0.325740
Si Si2 0.054040 0.615143 0.087679
Si Si3 0.064930 0.613821 0.541870
Si Si4 0.500000 0.753242 0.500000
Si Si5 0.103033 0.326641 0.841958
Si Si6 0.728155 0.616643 0.244870
Si Si7 0.681762 0.389573 0.580964
Si Si8 0.149082 0.108917 0.758205
O O1 0.974112 0.661089 0.351518
O O2 0.821960 0.634845 0.432864
O O3 0.886823 0.808239 0.381541
O O4 0.038945 0.679090 0.164240
O O5 0.063808 0.500000 0.092361
O O6 0.933734 0.632027 0.181717
O O7 0.166087 0.641082 0.920351
O O8 0.025307 0.500000 0.581367
O O9 0.024580 0.677790 0.530187
O O10 0.209461 0.612655 0.385041
O O11 0.613509 0.683658 0.361850
O O12 0.222636 0.359766 0.742496
O O13 0.097428 0.208137 0.843606
O O14 0.000000 0.365351 0.000000
O O15 0.704141 0.500000 0.266645
O O16 0.665960 0.500000 0.575958
O O17 0.634784 0.383554 0.701915
O O18 0.105015 0.000000 0.825889
#
# Coordination Sequence:
#
# PCOD9173842 Si02
#       8
#     8   8   8   4   8   8   8   8
#     4  10  18  32  53  77 110 144 179 216 265 321
#     4  10  19  33  55  82 112 145 176 213 264 331
#     4  10  21  36  56  79 101 136 183 228 264 311
#     4  12  22  40  60  74 102 140 182 238 282 312
#     4  10  18  31  50  78 111 142 175 209 259 321
#     4  10  22  37  55  80 108 140 183 228 272 320
#     4   9  17  28  48  79 114 145 172 209 261 320
#     4   9  16  30  48  74 110 139 170 214 259 311
#
# _framework density 17.745729999999998
#
# number of rings (size 3 to 8) (size 9 to 14) (size 15 to 20)
#    0.000    2.133    2.667    2.800    0.000    1.867 
#    0.000    2.000    0.000    1.600    0.000    0.000 
#    0.000    0.000    0.000    0.000    0.000    0.000 
#
# Total GULP energy -167248.475459 kJ/mol
# GULP energy per Si atom -5574.949182 kJ/mol
# Density = 1.770534 g / cm^3
# Si number density = 17.745730 Si / 1000 Ang^3
#
#
#
# Elastic Constant Matrix: (Units=GPa)
#
#
# Indices 1 2 3 4 5 6 
#
# 1 79.8012 44.5574 34.7215 0.0000 14.5441 0.0000
# 2 44.5574 121.0438 31.3870 0.0000 3.9988 0.0000
# 3 34.7215 31.3870 50.6939 0.0000 7.1954 0.0000
# 4 0.0000 0.0000 0.0000 22.1160 0.0000 4.1351
# 5 14.5441 3.9988 7.1954 0.0000 21.3960 0.0000
# 6 0.0000 0.0000 0.0000 4.1351 0.0000 22.8286
#
#
#
# Elastic Compliance Matrix: (Units=1/GPa)
#
#
# Indices 1 2 3 4 5 6 
#
# 1 0.021669 -0.004964 -0.010301 0.000000 -0.010338 0.000000
# 2 -0.004964 0.010980 -0.003766 0.000000 0.002589 0.000000
# 3 -0.010301 -0.003766 0.029424 0.000000 -0.002189 0.000000
# 4 0.000000 0.000000 0.000000 0.046801 0.000000 -0.008477
# 5 -0.010338 0.002589 -0.002189 0.000000 0.054017 0.000000
# 6 0.000000 0.000000 0.000000 -0.008477 0.000000 0.045340
#
#
# Mechanical properties :
#
#
# Convention : Reuss Voigt Hill
#
# Bulk Modulus (GPa) = 41.64649 52.54119 47.09384
# Shear Modulus (GPa) = 19.66223 22.65966 21.16095
#
# Velocity S-wave (km/s) = 3.33227 3.57726 3.45694
# Velocity P-wave (km/s) = 6.19070 6.83626 6.52147
#
# Compressibility (1/GPa) = 0.02401163
#
# Stress axis : x y z
#
# Youngs Moduli (GPa) = 46.14961 91.07770 33.98638
#
# Poissons Ratio (x) = 0.45210 0.35008
# Poissons Ratio (y) = 0.22908 0.12798
# Poissons Ratio (z) = 0.47537 0.34295
#
# Static dielectric constant tensor:
#      x y z
#    x 1.597200 0.000000 0.016600 
#    y 0.000000 1.618110 0.000000 
#    z 0.016600 0.000000 1.613580 
# 
# From -- ./inp_files/325253.got.cif
#   From: 2010.05.17/outbox.cif.g08.bks.cpg/sg12_163_cif.got.tgz:325253.got - 2010.06.03 13:09:07.
