data_PCOD9173844
_publ_section_title
;
Structure prediction by ZEFSAII (Michael W. Deem and Ramdas Pophale) SiO2 
 PCOD9173844
Probable space group: C 2/M
;
_chemical_formula_sum "Si O2"
_cell_formula_units_Z 48
_cell_length_a 14.283755
_cell_length_b 26.458613
_cell_length_c 12.176898
_cell_angle_alpha 90.000000
_cell_angle_beta 30.877280
_cell_angle_gamma 90.000000
_cell_volume 2361.748189
_symmetry_space_group_name_H-M "C 2/M"
_symmetry_group_IT_number 12
_symmetry_cell_setting 'monoclinic'
loop_
_space_group_symop_operation_xyz
x,y,z
-x,y,-z
-x,-y,-z
x,-y,z
1/2+x,1/2+y,z
1/2-x,1/2+y,-z
1/2-x,1/2-y,-z
1/2+x,1/2-y,z
loop_
_atom_site_type_symbol
_atom_site_label
_atom_site_fract_x
_atom_site_fract_y
_atom_site_fract_z
Si Si1 0.711041 0.942164 0.885977
Si Si2 0.466030 0.664897 0.871501
Si Si3 0.514019 0.442523 0.755792
Si Si4 0.155594 0.402154 0.698218
Si Si5 0.607579 0.310009 0.497410
Si Si6 0.798842 0.302085 0.678922
O O1 0.904102 0.938750 0.751140
O O2 0.706279 0.928346 0.763324
O O3 0.648786 0.000000 0.960833
O O4 0.559653 0.907968 0.097962
O O5 0.433889 0.604391 0.904957
O O6 0.481435 0.685464 0.732032
O O7 0.664415 0.671868 0.727619
O O8 0.317325 0.694880 0.091892
O O9 0.494340 0.500000 0.816525
O O10 0.722486 0.428804 0.516984
O O11 0.220345 0.344809 0.647206
O O12 0.500000 0.331105 0.500000
O O13 0.666905 0.254019 0.403402
O O14 0.000000 0.323895 0.500000
#
# Coordination Sequence:
#
# PCOD9173844 Si02
#       6
#     8   8   8   8   8   8
#     4  10  19  29  47  78 113 153 192 227 284 351
#     4  10  22  40  61  88 116 150 199 239 287 350
#     4  10  20  35  55  79 112 149 189 241 289 335
#     4  10  18  31  50  78 116 150 187 231 281 349
#     4  10  21  37  60  90 119 153 192 233 291 351
#     4  10  23  42  62  83 115 155 196 245 291 334
#
# _framework density 20.323927000000001
#
# number of rings (size 3 to 8) (size 9 to 14) (size 15 to 20)
#    0.000    2.000    0.000    5.000    0.000    9.333 
#    0.000    1.667    0.000    1.000    0.000    0.000 
#    0.000    0.000    0.000    0.000    0.000    0.000 
#
# Total GULP energy -133886.870367 kJ/mol
# GULP energy per Si atom -5578.619599 kJ/mol
# Density = 2.027767 g / cm^3
# Si number density = 20.323927 Si / 1000 Ang^3
#
#
#
# Elastic Constant Matrix: (Units=GPa)
#
#
# Indices 1 2 3 4 5 6 
#
# 1 61.7339 9.7971 35.5615 0.0000 5.1337 0.0003
# 2 9.7971 101.3423 22.1496 0.0000 10.5218 -0.0001
# 3 35.5615 22.1496 98.4003 -0.0009 3.3257 0.0002
# 4 0.0000 0.0000 -0.0009 14.1782 0.0002 -6.6677
# 5 5.1337 10.5218 3.3257 0.0002 34.2540 -0.0002
# 6 0.0003 -0.0001 0.0002 -6.6677 -0.0002 25.7146
#
#
#
# Elastic Compliance Matrix: (Units=1/GPa)
#
#
# Indices 1 2 3 4 5 6 
#
# 1 0.020651 -0.000147 -0.007351 -0.000001 -0.002336 0.000000
# 2 -0.000147 0.010690 -0.002250 0.000000 -0.003043 0.000000
# 3 -0.007351 -0.002250 0.013309 0.000001 0.000501 0.000000
# 4 -0.000001 0.000000 0.000001 0.080326 0.000000 0.020828
# 5 -0.002336 -0.003043 0.000501 0.000000 0.030430 0.000000
# 6 0.000000 0.000000 0.000000 0.020828 0.000000 0.044289
#
#
# Mechanical properties :
#
#
# Convention : Reuss Voigt Hill
#
# Bulk Modulus (GPa) = 39.75778 44.05477 41.90627
# Shear Modulus (GPa) = 21.97080 27.76058 24.86569
#
# Velocity S-wave (km/s) = 3.29147 3.69983 3.50161
# Velocity P-wave (km/s) = 5.83520 6.32258 6.08377
#
# Compressibility (1/GPa) = 0.02515231
#
# Stress axis : x y z
#
# Youngs Moduli (GPa) = 48.42458 93.54974 75.13843
#
# Poissons Ratio (x) = 0.01377 0.55234
# Poissons Ratio (y) = 0.00713 0.16907
# Poissons Ratio (z) = 0.35597 0.21050
#
# Static dielectric constant tensor:
#      x y z
#    x 1.739310 0.000000 -0.003450 
#    y 0.000000 1.743620 0.000000 
#    z -0.003450 0.000000 1.741990 
# 
# From -- ./inp_files/149614.got.cif
#   From: 2010.05.17/outbox.cif.g08.bks.cpg/sg12_75_cif.got.tgz:149614.got - 2010.06.03 13:09:07.
