data_PCOD9173970
_publ_section_title
;
Structure prediction by ZEFSAII (Michael W. Deem and Ramdas Pophale) SiO2 
 PCOD9173970
Probable space group: C 2/M
;
_chemical_formula_sum "Si O2"
_cell_formula_units_Z 48
_cell_length_a 20.562030
_cell_length_b 26.646719
_cell_length_c 9.514727
_cell_angle_alpha 90.000000
_cell_angle_beta 20.715208
_cell_angle_gamma 90.000000
_cell_volume 1844.036516
_symmetry_space_group_name_H-M "C 2/M"
_symmetry_group_IT_number 12
_symmetry_cell_setting 'monoclinic'
loop_
_space_group_symop_operation_xyz
x,y,z
-x,y,-z
-x,-y,-z
x,-y,z
1/2+x,1/2+y,z
1/2-x,1/2+y,-z
1/2-x,1/2-y,-z
1/2+x,1/2-y,z
loop_
_atom_site_type_symbol
_atom_site_label
_atom_site_fract_x
_atom_site_fract_y
_atom_site_fract_z
Si Si1 0.708318 0.120578 0.326243
Si Si2 0.867631 0.781537 0.147650
Si Si3 0.223986 0.555392 0.049467
Si Si4 0.275882 0.055943 0.456002
Si Si5 0.735916 0.118078 0.775529
Si Si6 0.152922 0.713688 0.082800
O O1 0.775078 0.172382 0.254725
O O2 0.775529 0.102963 0.039627
O O3 0.770491 0.073963 0.295857
O O4 0.486903 0.122597 0.776264
O O5 0.750000 0.750000 0.500000
O O6 0.918802 0.743952 0.912467
O O7 0.000000 0.803743 0.000000
O O8 0.284875 0.500000 0.969797
O O9 0.285716 0.570906 0.770908
O O10 0.000000 0.553868 0.500000
O O11 0.214258 0.000000 0.544925
O O12 0.500000 0.055071 0.000000
O O13 0.211025 0.100127 0.484890
O O14 0.784730 0.171078 0.747863
O O15 0.000000 0.690803 0.500000
O O16 0.250000 0.750000 0.000000
#
# Coordination Sequence:
#
# PCOD9173970 Si02
#       6
#     8   8   8   8   8   8
#     4  10  19  33  52  78 112 149 190 240 296 355
#     4  12  25  42  63  89 122 163 210 258 312 374
#     4   9  16  27  47  75 107 143 185 235 290 348
#     4   9  17  29  50  81 115 150 188 235 291 351
#     4  10  18  31  51  79 114 149 190 240 296 350
#     4  12  24  40  60  86 120 159 202 252 308 364
#
# _framework density 26.029854
#
# number of rings (size 3 to 8) (size 9 to 14) (size 15 to 20)
#    0.000    1.667    0.000    7.500    0.000    5.333 
#    0.000    0.000    0.000    2.000    0.000    0.000 
#    0.000   10.667    0.000    0.000    0.000    0.000 
#
# Total GULP energy -134006.816966 kJ/mol
# GULP energy per Si atom -5583.617374 kJ/mol
# Density = 2.597061 g / cm^3
# Si number density = 26.029854 Si / 1000 Ang^3
#
#
#
# Elastic Constant Matrix: (Units=GPa)
#
#
# Indices 1 2 3 4 5 6 
#
# 1 121.3782 60.6991 32.9212 -0.0204 31.6972 0.0105
# 2 60.6991 183.8580 15.8129 0.0137 8.3328 -0.0085
# 3 32.9212 15.8129 51.4849 -0.0640 3.5991 0.0279
# 4 -0.0204 0.0137 -0.0640 7.7596 0.0324 14.5412
# 5 31.6972 8.3328 3.5991 0.0324 37.1345 -0.0126
# 6 0.0105 -0.0085 0.0279 14.5412 -0.0126 61.5040
#
#
#
# Elastic Compliance Matrix: (Units=1/GPa)
#
#
# Indices 1 2 3 4 5 6 
#
# 1 0.015248 -0.003849 -0.007771 0.000061 -0.011398 -0.000016
# 2 -0.003849 0.006603 0.000309 -0.000054 0.001774 0.000015
# 3 -0.007771 0.000309 0.024001 0.000315 0.004237 -0.000083
# 4 0.000061 -0.000054 0.000315 0.231399 -0.000291 -0.054709
# 5 -0.011398 0.001774 0.004237 -0.000291 0.035850 0.000076
# 6 -0.000016 0.000015 -0.000083 -0.054709 0.000076 0.029194
#
#
# Mechanical properties :
#
#
# Convention : Reuss Voigt Hill
#
# Bulk Modulus (GPa) = 43.04683 63.95415 53.50049
# Shear Modulus (GPa) = 13.41704 37.76549 25.59127
#
# Velocity S-wave (km/s) = 2.27281 3.81314 3.13892
# Velocity P-wave (km/s) = 4.84365 6.63397 5.80821
#
# Compressibility (1/GPa) = 0.02323051
#
# Stress axis : x y z
#
# Youngs Moduli (GPa) = 65.58301 151.45294 41.66419
#
# Poissons Ratio (x) = 0.58294 0.32377
# Poissons Ratio (y) = 0.25243 -0.01288
# Poissons Ratio (z) = 0.50964 -0.04682
#
# Static dielectric constant tensor:
#      x y z
#    x 2.157510 -0.000110 -0.269950 
#    y -0.000110 1.995330 0.000190 
#    z -0.269950 0.000190 2.275380 
# 
# From -- ./inp_files/91197.got.cif
#   From: 2010.05.17/outbox.cif.g08.bks.cpg/sg12_46_cif.got.tgz:91197.got - 2010.06.03 13:09:07.
