data_PCOD9173611
_publ_section_title
;
Structure prediction by ZEFSAII (Michael W. Deem and Ramdas Pophale) SiO2 
 PCOD9173611
Probable space group: C 2/M
;
_chemical_formula_sum "Si O2"
_cell_formula_units_Z 36
_cell_length_a 18.308125
_cell_length_b 19.707414
_cell_length_c 11.198603
_cell_angle_alpha 90.000000
_cell_angle_beta 148.123103
_cell_angle_gamma 90.000000
_cell_volume 2133.782791
_symmetry_space_group_name_H-M "C 2/M"
_symmetry_group_IT_number 12
_symmetry_cell_setting 'monoclinic'
loop_
_space_group_symop_operation_xyz
x,y,z
-x,y,-z
-x,-y,-z
x,-y,z
1/2+x,1/2+y,z
1/2-x,1/2+y,-z
1/2-x,1/2-y,-z
1/2+x,1/2-y,z
loop_
_atom_site_type_symbol
_atom_site_label
_atom_site_fract_x
_atom_site_fract_y
_atom_site_fract_z
Si Si1 0.720772 0.147153 0.641676
Si Si2 0.800058 0.500000 0.100906
Si Si3 0.000000 0.217686 0.000000
Si Si4 0.120070 0.500000 0.505829
Si Si5 0.217056 0.147206 0.988978
Si Si6 0.458547 0.232384 0.202702
O O1 0.680138 0.071425 0.543982
O O2 0.735888 0.148424 0.806576
O O3 0.600111 0.199615 0.442939
O O4 0.865966 0.171430 0.789904
O O5 0.837792 0.500000 0.294930
O O6 0.716768 0.568225 0.955650
O O7 0.954319 0.500000 0.259498
O O8 0.965947 0.260401 0.070415
O O9 0.333477 0.184524 0.072336
O O10 0.079628 0.193359 0.796765
#
# Coordination Sequence:
#
# PCOD9173611 Si02
#       6
#     8   4   4   4   8   8
#     4  10  18  32  49  73  97 123 157 196 237 280
#     4   9  14  28  46  76  98 112 147 199 249 284
#     4  10  22  31  44  67 100 134 160 186 228 279
#     4   9  16  25  50  72  95 121 146 195 250 279
#     4   9  18  29  52  77  93 117 157 199 241 278
#     4  10  18  31  47  72  98 126 156 193 232 281
#
# _framework density 16.871445999999999
#
# number of rings (size 3 to 8) (size 9 to 14) (size 15 to 20)
#    0.000    2.444    2.222    1.333    0.000    0.444 
#    0.000    1.111    0.000    2.667    0.000   34.222 
#    0.000    0.000    0.000    0.000    0.000    0.000 
#
# Total GULP energy -100243.705771 kJ/mol
# GULP energy per Si atom -5569.094765 kJ/mol
# Density = 1.683305 g / cm^3
# Si number density = 16.871446 Si / 1000 Ang^3
#
#
#
# Elastic Constant Matrix: (Units=GPa)
#
#
# Indices 1 2 3 4 5 6 
#
# 1 62.2216 23.6736 5.0149 0.0000 13.6858 0.0000
# 2 23.6736 152.6757 51.2696 0.0000 16.8918 0.0000
# 3 5.0149 51.2696 62.2420 0.0000 26.0398 0.0000
# 4 0.0000 0.0000 0.0000 20.9410 0.0000 -4.2370
# 5 13.6858 16.8918 26.0398 0.0000 17.6816 0.0000
# 6 0.0000 0.0000 0.0000 -4.2370 0.0000 6.9584
#
#
#
# Elastic Compliance Matrix: (Units=1/GPa)
#
#
# Indices 1 2 3 4 5 6 
#
# 1 0.028504 -0.007253 0.026074 0.000000 -0.053533 0.000000
# 2 -0.007253 0.011158 -0.016921 0.000000 0.019874 0.000000
# 3 0.026074 -0.016921 0.077067 0.000000 -0.117513 0.000000
# 4 0.000000 0.000000 0.000000 0.054463 0.000000 0.033163
# 5 -0.053533 0.019874 -0.117513 0.000000 0.252068 0.000000
# 6 0.000000 0.000000 0.000000 0.033163 0.000000 0.163905
#
#
# Mechanical properties :
#
#
# Convention : Reuss Voigt Hill
#
# Bulk Modulus (GPa) = 8.29674 48.56172 28.42923
# Shear Modulus (GPa) = 8.01872 22.26160 15.14016
#
# Velocity S-wave (km/s) = 2.18246 3.63641 2.99889
# Velocity P-wave (km/s) = 3.35845 6.81742 5.37384
#
# Compressibility (1/GPa) = 0.12052924
#
# Stress axis : x y z
#
# Youngs Moduli (GPa) = 35.08232 89.62332 12.97574
#
# Poissons Ratio (x) = 0.65002 -0.33833
# Poissons Ratio (y) = 0.25445 0.21956
# Poissons Ratio (z) = -0.91474 1.51652
#
# Static dielectric constant tensor:
#      x y z
#    x 1.565860 0.000000 0.001350 
#    y 0.000000 1.598970 0.000000 
#    z 0.001350 0.000000 1.559230 
# 
# From -- ./inp_files/47257.got.cif
#   From: 2010.05.17/outbox.cif.g08.bks.cpg/sg12_24_cif.got.tgz:47257.got - 2010.06.03 13:09:07.
