data_PCOD9173471
_publ_section_title
;
Structure prediction by ZEFSAII (Michael W. Deem and Ramdas Pophale) SiO2 
 PCOD9173471
Probable space group: C 2/M
;
_chemical_formula_sum "Si O2"
_cell_formula_units_Z 36
_cell_length_a 8.111021
_cell_length_b 26.960386
_cell_length_c 8.394728
_cell_angle_alpha 90.000000
_cell_angle_beta 56.904469
_cell_angle_gamma 90.000000
_cell_volume 1537.901640
_symmetry_space_group_name_H-M "C 2/M"
_symmetry_group_IT_number 12
_symmetry_cell_setting 'monoclinic'
loop_
_space_group_symop_operation_xyz
x,y,z
-x,y,-z
-x,-y,-z
x,-y,z
1/2+x,1/2+y,z
1/2-x,1/2+y,-z
1/2-x,1/2-y,-z
1/2+x,1/2-y,z
loop_
_atom_site_type_symbol
_atom_site_label
_atom_site_fract_x
_atom_site_fract_y
_atom_site_fract_z
Si Si1 0.318679 0.176221 0.840299
Si Si2 0.313005 0.500000 0.905006
Si Si3 0.929039 0.500000 0.301248
Si Si4 0.685428 0.890518 0.580358
Si Si5 0.500000 0.749098 0.000000
Si Si6 0.919762 0.108187 0.793227
O O1 0.166009 0.213337 0.835787
O O2 0.187076 0.138516 0.013508
O O3 0.494707 0.144080 0.674435
O O4 0.419028 0.214757 0.908870
O O5 0.430881 0.550791 0.838171
O O6 0.190302 0.500000 0.803616
O O7 0.156538 0.500000 0.130274
O O8 0.871677 0.448290 0.412866
O O9 0.782489 0.887653 0.707127
O O10 0.861020 0.875905 0.369514
#
# Coordination Sequence:
#
# PCOD9173471 Si02
#       6
#     8   4   4   8   4   8
#     4  11  20  41  55  80 105 142 178 230 269 322
#     4   9  15  25  47  82 116 143 171 212 261 313
#     4   9  15  25  47  82 116 143 171 212 261 313
#     4  10  18  30  53  83 114 144 175 216 266 321
#     4  10  24  38  62  74 104 140 186 230 278 306
#     4  10  18  30  53  83 114 144 175 216 266 321
#
# _framework density 23.408518000000001
#
# number of rings (size 3 to 8) (size 9 to 14) (size 15 to 20)
#    0.000    2.000    4.444    0.667    0.000    2.667 
#    0.000    7.778    0.000    2.667    0.000    3.111 
#    0.000    0.000    0.000    0.000    0.000    0.000 
#
# Total GULP energy -100699.562019 kJ/mol
# GULP energy per Si atom -5594.420112 kJ/mol
# Density = 2.335524 g / cm^3
# Si number density = 23.408518 Si / 1000 Ang^3
#
#
#
# Elastic Constant Matrix: (Units=GPa)
#
#
# Indices 1 2 3 4 5 6 
#
# 1 63.9266 39.1561 37.7859 0.0000 -18.0442 0.0000
# 2 39.1561 182.8788 85.1386 0.0000 -22.0419 0.0000
# 3 37.7859 85.1386 176.5814 0.0000 -30.8638 0.0000
# 4 0.0000 0.0000 0.0000 48.1433 0.0000 -47.2756
# 5 -18.0442 -22.0419 -30.8638 0.0000 32.8678 0.0000
# 6 0.0000 0.0000 0.0000 -47.2756 0.0000 22.3242
#
#
#
# Elastic Compliance Matrix: (Units=1/GPa)
#
#
# Indices 1 2 3 4 5 6 
#
# 1 0.020503 -0.002630 -0.001747 0.000000 0.007852 0.000000
# 2 -0.002630 0.007482 -0.002895 0.000000 0.000855 0.000000
# 3 -0.001747 -0.002895 0.008286 0.000000 0.004880 0.000000
# 4 0.000000 0.000000 0.000000 -0.019241 0.000000 -0.040747
# 5 0.007852 0.000855 0.004880 0.000000 0.039891 0.000000
# 6 0.000000 0.000000 0.000000 -0.040747 0.000000 -0.041495
#
#
# Mechanical properties :
#
#
# Convention : Reuss Voigt Hill
#
# Bulk Modulus (GPa) = 46.02751 83.06088 64.54419
# Shear Modulus (GPa) = 134.36440 38.08748 86.22594
#
# Velocity S-wave (km/s) = 7.58448 4.03808 6.07579
# Velocity P-wave (km/s) = 9.81858 7.56979 8.76659
#
# Compressibility (1/GPa) = 0.02172614
#
# Stress axis : x y z
#
# Youngs Moduli (GPa) = 48.77398 133.65055 120.68869
#
# Poissons Ratio (x) = 0.35154 0.21081
# Poissons Ratio (y) = 0.12829 0.34942
# Poissons Ratio (z) = 0.08520 0.38695
#
# Static dielectric constant tensor:
#      x y z
#    x 1.946920 0.000000 0.007720 
#    y 0.000000 1.827410 0.000000 
#    z 0.007720 0.000000 1.848970 
# 
# From -- ./inp_files/123395.got.cif
#   From: 2010.05.17/outbox.cif.g08.bks.cpg/sg12_62_cif.got.tgz:123395.got - 2010.06.03 13:09:07.
