data_PCOD9173897
_publ_section_title
;
Structure prediction by ZEFSAII (Michael W. Deem and Ramdas Pophale) SiO2 
 PCOD9173897
Probable space group: C 2/M
;
_chemical_formula_sum "Si O2"
_cell_formula_units_Z 64
_cell_length_a 25.373179
_cell_length_b 8.770764
_cell_length_c 24.169012
_cell_angle_alpha 90.000000
_cell_angle_beta 133.321661
_cell_angle_gamma 90.000000
_cell_volume 3913.021370
_symmetry_space_group_name_H-M "C 2/M"
_symmetry_group_IT_number 12
_symmetry_cell_setting 'monoclinic'
loop_
_space_group_symop_operation_xyz
x,y,z
-x,y,-z
-x,-y,-z
x,-y,z
1/2+x,1/2+y,z
1/2-x,1/2+y,-z
1/2-x,1/2-y,-z
1/2+x,1/2-y,z
loop_
_atom_site_type_symbol
_atom_site_label
_atom_site_fract_x
_atom_site_fract_y
_atom_site_fract_z
Si Si1 0.386542 0.181591 0.180972
Si Si2 0.095997 0.818416 0.924834
Si Si3 0.186729 0.314726 0.184803
Si Si4 0.833447 0.183112 0.345727
Si Si5 0.272577 0.183896 0.911537
Si Si6 0.476717 0.817344 0.919550
Si Si7 0.452039 0.680940 0.335973
Si Si8 0.439443 0.175856 0.505112
O O1 0.414398 0.249682 0.143459
O O2 0.306911 0.251575 0.134384
O O3 0.436184 0.231844 0.268104
O O4 0.381709 0.000000 0.174186
O O5 0.030827 0.768113 0.917897
O O6 0.102047 0.000000 0.926505
O O7 0.169449 0.748869 0.003648
O O8 0.187009 0.500000 0.185337
O O9 0.253268 0.264515 0.271117
O O10 0.202509 0.271371 0.132578
O O11 0.106823 0.267399 0.145724
O O12 0.886668 0.216619 0.332089
O O13 0.868044 0.256950 0.425033
O O14 0.833684 0.000000 0.352477
O O15 0.271220 0.000000 0.913670
O O16 0.482016 0.000000 0.913079
O O17 0.500000 0.793378 0.000000
O O18 0.450942 0.500000 0.325659
O O19 0.525690 0.730807 0.419515
O O20 0.500000 0.182998 0.500000
O O21 0.429822 0.000000 0.513665
#
# Coordination Sequence:
#
# PCOD9173897 Si02
#       8
#     8   8   8   8   8   8   8   8
#     4  12  24  37  53  77 106 140 177 218 263 315
#     4  12  25  39  53  75 104 139 180 224 264 309
#     4   9  17  31  54  79 103 136 175 213 260 314
#     4   9  16  29  48  73 103 137 174 209 252 310
#     4  11  20  37  57  77 104 139 177 216 262 316
#     4  10  19  36  59  78 100 136 177 220 268 314
#     4  10  18  31  51  74 103 139 174 210 255 311
#     4   9  17  28  43  69 104 139 172 209 253 303
#
# _framework density 16.355649
#
# number of rings (size 3 to 8) (size 9 to 14) (size 15 to 20)
#    0.000    1.750    2.500    3.750    0.000    2.250 
#    0.000    0.625    0.000    0.000    0.000    0.875 
#    0.000    0.000    0.000    0.000    0.000    0.000 
#
# Total GULP energy -178649.345766 kJ/mol
# GULP energy per Si atom -5582.792055 kJ/mol
# Density = 1.631842 g / cm^3
# Si number density = 16.355649 Si / 1000 Ang^3
#
#
#
# Elastic Constant Matrix: (Units=GPa)
#
#
# Indices 1 2 3 4 5 6 
#
# 1 48.9174 33.4876 39.5379 0.0000 -11.5103 0.0000
# 2 33.4876 81.8582 49.0190 0.0000 -7.4887 0.0000
# 3 39.5379 49.0190 126.0773 0.0000 5.7188 0.0000
# 4 0.0000 0.0000 0.0000 29.1155 0.0000 -0.3120
# 5 -11.5103 -7.4887 5.7188 0.0000 18.1832 0.0000
# 6 0.0000 0.0000 0.0000 -0.3120 0.0000 20.7140
#
#
#
# Elastic Compliance Matrix: (Units=1/GPa)
#
#
# Indices 1 2 3 4 5 6 
#
# 1 0.040690 -0.007713 -0.010942 0.000000 0.026022 0.000000
# 2 -0.007713 0.018842 -0.005111 0.000000 0.004485 0.000000
# 3 -0.010942 -0.005111 0.013959 0.000000 -0.013421 0.000000
# 4 0.000000 0.000000 0.000000 0.034352 0.000000 0.000517
# 5 0.026022 0.004485 -0.013421 0.000000 0.077537 0.000000
# 6 0.000000 0.000000 0.000000 0.000517 0.000000 0.048284
#
#
# Mechanical properties :
#
#
# Convention : Reuss Voigt Hill
#
# Bulk Modulus (GPa) = 38.52086 55.66023 47.09055
# Shear Modulus (GPa) = 17.25049 22.58976 19.92012
#
# Velocity S-wave (km/s) = 3.25116 3.72043 3.49368
# Velocity P-wave (km/s) = 6.13975 7.24986 6.71778
#
# Compressibility (1/GPa) = 0.02595996
#
# Stress axis : x y z
#
# Youngs Moduli (GPa) = 24.57633 53.07242 71.63956
#
# Poissons Ratio (x) = 0.40934 0.78387
# Poissons Ratio (y) = 0.18956 0.36612
# Poissons Ratio (z) = 0.26891 0.27123
#
# Static dielectric constant tensor:
#      x y z
#    x 1.527240 0.000000 0.007890 
#    y 0.000000 1.547240 0.000000 
#    z 0.007890 0.000000 1.548570 
# 
# From -- ./inp_files/324318.got.cif
#   From: 2010.05.17/outbox.cif.g08.bks.cpg/sg12_163_cif.got.tgz:324318.got - 2010.06.03 13:09:07.
