data_PCOD9173616
_publ_section_title
;
Structure prediction by ZEFSAII (Michael W. Deem and Ramdas Pophale) SiO2 
 PCOD9173616
Probable space group: C 2/M
;
_chemical_formula_sum "Si O2"
_cell_formula_units_Z 48
_cell_length_a 25.097364
_cell_length_b 8.568018
_cell_length_c 32.907371
_cell_angle_alpha 90.000000
_cell_angle_beta 155.095460
_cell_angle_gamma 90.000000
_cell_volume 2979.852955
_symmetry_space_group_name_H-M "C 2/M"
_symmetry_group_IT_number 12
_symmetry_cell_setting 'monoclinic'
loop_
_space_group_symop_operation_xyz
x,y,z
-x,y,-z
-x,-y,-z
x,-y,z
1/2+x,1/2+y,z
1/2-x,1/2+y,-z
1/2-x,1/2-y,-z
1/2+x,1/2-y,z
loop_
_atom_site_type_symbol
_atom_site_label
_atom_site_fract_x
_atom_site_fract_y
_atom_site_fract_z
Si Si1 0.425159 0.688692 0.010251
Si Si2 0.038179 0.310158 0.663787
Si Si3 0.185030 0.189585 0.154705
Si Si4 0.236078 0.687572 0.536408
Si Si5 0.001051 0.313131 0.268869
Si Si6 0.734464 0.685259 0.944075
O O1 0.421493 0.500000 0.011183
O O2 0.354978 0.728835 0.919233
O O3 0.350320 0.760321 0.995782
O O4 0.570842 0.739924 0.104961
O O5 0.040302 0.500000 0.665003
O O6 0.172241 0.254962 0.739023
O O7 0.907314 0.264185 0.551330
O O8 0.029261 0.264316 0.705312
O O9 0.185434 0.000000 0.156671
O O10 0.242971 0.500000 0.541163
O O11 0.250000 0.750000 0.500000
O O12 0.357564 0.754724 0.643420
O O13 0.998725 0.500000 0.266456
O O14 0.893527 0.248489 0.165246
O O15 0.729744 0.500000 0.941933
O O16 0.750000 0.750000 0.000000
#
# Coordination Sequence:
#
# PCOD9173616 Si02
#       6
#     8   8   8   8   8   8
#     4   9  16  29  49  70  94 125 162 195 231 278
#     4   8  13  23  43  69  96 126 157 187 224 276
#     4   8  13  24  47  73  96 127 159 189 228 280
#     4   9  16  25  40  65  96 128 161 194 233 280
#     4  10  18  31  48  65  92 125 160 200 240 283
#     4  12  24  36  50  68  93 125 163 202 241 286
#
# _framework density 16.108177999999999
#
# number of rings (size 3 to 8) (size 9 to 14) (size 15 to 20)
#    0.000    2.667    1.667    4.500    0.000    0.000 
#    0.000    1.667    0.000    0.000    0.000    1.167 
#    0.000    9.333    0.000    0.000    0.000    0.000 
#
# Total GULP energy -133643.203665 kJ/mol
# GULP energy per Si atom -5568.466819 kJ/mol
# Density = 1.607152 g / cm^3
# Si number density = 16.108178 Si / 1000 Ang^3
#
#
#
# Elastic Constant Matrix: (Units=GPa)
#
#
# Indices 1 2 3 4 5 6 
#
# 1 91.1740 30.7206 78.9292 -0.0001 21.7308 -0.0001
# 2 30.7206 51.8139 35.4438 0.0001 6.2072 -0.0010
# 3 78.9292 35.4438 140.8559 -0.0004 39.9094 0.0000
# 4 -0.0001 0.0001 -0.0004 23.3129 -0.0001 2.5308
# 5 21.7308 6.2072 39.9094 -0.0001 31.5557 0.0000
# 6 -0.0001 -0.0010 0.0000 2.5308 0.0000 18.1711
#
#
#
# Elastic Compliance Matrix: (Units=1/GPa)
#
#
# Indices 1 2 3 4 5 6 
#
# 1 0.022629 -0.005763 -0.011121 0.000000 -0.000385 0.000000
# 2 -0.005763 0.025182 -0.004408 0.000000 0.004590 0.000001
# 3 -0.011121 -0.004408 0.018740 0.000000 -0.015176 0.000000
# 4 0.000000 0.000000 0.000000 0.043553 0.000000 -0.006066
# 5 -0.000385 0.004590 -0.015176 0.000000 0.050245 0.000000
# 6 0.000000 0.000001 0.000000 -0.006066 0.000000 0.055877
#
#
# Mechanical properties :
#
#
# Convention : Reuss Voigt Hill
#
# Bulk Modulus (GPa) = 41.72347 63.78123 52.75235
# Shear Modulus (GPa) = 18.74063 23.85796 21.29929
#
# Velocity S-wave (km/s) = 3.41460 3.85269 3.64024
# Velocity P-wave (km/s) = 6.44238 7.71184 7.10552
#
# Compressibility (1/GPa) = 0.02396733
#
# Stress axis : x y z
#
# Youngs Moduli (GPa) = 44.19066 39.71069 53.36154
#
# Poissons Ratio (x) = 0.22887 0.59344
# Poissons Ratio (y) = 0.25469 0.23519
# Poissons Ratio (z) = 0.49145 0.17503
#
# Static dielectric constant tensor:
#      x y z
#    x 1.524460 0.000000 0.048860 
#    y 0.000000 1.547710 0.000000 
#    z 0.048860 0.000000 1.571760 
# 
# From -- ./inp_files/179309.got.cif
#   From: 2010.05.17/outbox.cif.g08.bks.cpg/sg12_90_cif.got.tgz:179309.got - 2010.06.03 13:09:07.
