data_PCOD9173801
_publ_section_title
;
Structure prediction by ZEFSAII (Michael W. Deem and Ramdas Pophale) SiO2 
 PCOD9173801
Probable space group: C 2/M
;
_chemical_formula_sum "Si O2"
_cell_formula_units_Z 64
_cell_length_a 30.533932
_cell_length_b 8.970770
_cell_length_c 15.362260
_cell_angle_alpha 90.000000
_cell_angle_beta 79.436383
_cell_angle_gamma 90.000000
_cell_volume 4136.604889
_symmetry_space_group_name_H-M "C 2/M"
_symmetry_group_IT_number 12
_symmetry_cell_setting 'monoclinic'
loop_
_space_group_symop_operation_xyz
x,y,z
-x,y,-z
-x,-y,-z
x,-y,z
1/2+x,1/2+y,z
1/2-x,1/2+y,-z
1/2-x,1/2-y,-z
1/2+x,1/2-y,z
loop_
_atom_site_type_symbol
_atom_site_label
_atom_site_fract_x
_atom_site_fract_y
_atom_site_fract_z
Si Si1 0.560440 0.321464 0.613265
Si Si2 0.286128 0.677820 0.371079
Si Si3 0.434256 0.178781 0.083922
Si Si4 0.100554 0.677764 0.425722
Si Si5 0.041939 0.822290 0.297163
Si Si6 0.966767 0.320408 0.884767
Si Si7 0.624074 0.679326 0.751795
Si Si8 0.306494 0.323458 0.567097
O O1 0.565880 0.500000 0.597625
O O2 0.576026 0.238073 0.521272
O O3 0.509042 0.291966 0.654563
O O4 0.591409 0.278063 0.683714
O O5 0.278483 0.500000 0.365340
O O6 0.325865 0.723606 0.292396
O O7 0.303182 0.702814 0.463904
O O8 0.239989 0.764282 0.377528
O O9 0.481797 0.217604 0.111069
O O10 0.395296 0.252445 0.153280
O O11 0.430367 0.000000 0.089035
O O12 0.438543 0.220954 0.980930
O O13 0.099852 0.500000 0.424467
O O14 0.075011 0.743885 0.352128
O O15 0.150939 0.737954 0.412040
O O16 0.047248 0.759977 0.197984
O O17 0.048365 0.000000 0.296738
O O18 0.964511 0.500000 0.875309
O O19 0.622886 0.500000 0.757636
O O20 0.311440 0.500000 0.578703
#
# Coordination Sequence:
#
# PCOD9173801 Si02
#       8
#     8   8   8   8   8   8   8   8
#     4  10  20  35  49  69 101 136 171 208 245 284
#     4   9  18  32  50  72 100 129 162 204 250 295
#     4   9  18  31  49  72 101 132 164 205 251 296
#     4  12  24  35  50  71  98 134 174 209 247 295
#     4  11  22  35  52  71  97 134 174 212 249 290
#     4   9  18  33  49  70 100 132 166 208 251 291
#     4  10  18  31  50  74 103 134 166 203 247 294
#     4  10  19  34  52  71  98 129 165 207 249 293
#
# _framework density 15.471625
#
# number of rings (size 3 to 8) (size 9 to 14) (size 15 to 20)
#    0.000    2.000    2.500    3.000    0.000    4.500 
#    0.000    1.250    0.000    0.000    0.000    0.875 
#    0.000    0.000    0.000    0.000    0.000    0.000 
#
# Total GULP energy -178605.932078 kJ/mol
# GULP energy per Si atom -5581.435377 kJ/mol
# Density = 1.543641 g / cm^3
# Si number density = 15.471625 Si / 1000 Ang^3
#
#
#
# Elastic Constant Matrix: (Units=GPa)
#
#
# Indices 1 2 3 4 5 6 
#
# 1 95.2471 54.9432 76.4785 0.0000 -9.4705 0.0000
# 2 54.9432 53.6152 56.2085 0.0000 -2.9319 0.0000
# 3 76.4785 56.2085 128.6103 0.0000 -14.8210 0.0000
# 4 0.0000 0.0000 0.0000 29.6728 0.0000 -2.4192
# 5 -9.4705 -2.9319 -14.8210 0.0000 25.5043 0.0000
# 6 0.0000 0.0000 0.0000 -2.4192 0.0000 23.2571
#
#
#
# Elastic Compliance Matrix: (Units=1/GPa)
#
#
# Indices 1 2 3 4 5 6 
#
# 1 0.029969 -0.022714 -0.007409 0.000000 0.004212 0.000000
# 2 -0.022714 0.052277 -0.010310 0.000000 -0.008416 0.000000
# 3 -0.007409 -0.010310 0.017399 0.000000 0.006174 0.000000
# 4 0.000000 0.000000 0.000000 0.033989 0.000000 0.003536
# 5 0.004212 -0.008416 0.006174 0.000000 0.043394 0.000000
# 6 0.000000 0.000000 0.000000 0.003536 0.000000 0.043365
#
#
# Mechanical properties :
#
#
# Convention : Reuss Voigt Hill
#
# Bulk Modulus (GPa) = 53.25251 72.52590 62.88920
# Shear Modulus (GPa) = 16.25914 21.67631 18.96772
#
# Velocity S-wave (km/s) = 3.24528 3.74710 3.50518
# Velocity P-wave (km/s) = 6.96682 8.10552 7.55765
#
# Compressibility (1/GPa) = 0.01877846
#
# Stress axis : x y z
#
# Youngs Moduli (GPa) = 33.36726 19.12893 57.47562
#
# Poissons Ratio (x) = 0.43450 0.42583
# Poissons Ratio (y) = 0.75791 0.59258
# Poissons Ratio (z) = 0.24722 0.19722
#
# Static dielectric constant tensor:
#      x y z
#    x 1.500410 0.000000 -0.010030 
#    y 0.000000 1.514870 0.000000 
#    z -0.010030 0.000000 1.499260 
# 
# From -- ./inp_files/243999.got.cif
#   From: 2010.05.17/outbox.cif.g08.bks.cpg/sg12_122_cif.got.tgz:243999.got - 2010.06.03 13:09:07.
