data_PCOD9173895
_publ_section_title
;
Structure prediction by ZEFSAII (Michael W. Deem and Ramdas Pophale) SiO2 
 PCOD9173895
Probable space group: C 2/M
;
_chemical_formula_sum "Si O2"
_cell_formula_units_Z 56
_cell_length_a 20.313916
_cell_length_b 7.746564
_cell_length_c 29.016049
_cell_angle_alpha 90.000000
_cell_angle_beta 142.197478
_cell_angle_gamma 90.000000
_cell_volume 2798.725499
_symmetry_space_group_name_H-M "C 2/M"
_symmetry_group_IT_number 12
_symmetry_cell_setting 'monoclinic'
loop_
_space_group_symop_operation_xyz
x,y,z
-x,y,-z
-x,-y,-z
x,-y,z
1/2+x,1/2+y,z
1/2-x,1/2+y,-z
1/2-x,1/2-y,-z
1/2+x,1/2-y,z
loop_
_atom_site_type_symbol
_atom_site_label
_atom_site_fract_x
_atom_site_fract_y
_atom_site_fract_z
Si Si1 0.575388 0.711988 0.499046
Si Si2 0.537907 0.300001 0.374928
Si Si3 0.679713 0.795946 0.366544
Si Si4 0.882911 0.291308 0.950372
Si Si5 0.366010 0.792644 0.044514
Si Si6 0.984640 0.711223 0.198037
Si Si7 0.844184 0.703793 0.206209
O O1 0.500000 0.767675 0.500000
O O2 0.573296 0.500000 0.498550
O O3 0.538673 0.768683 0.427492
O O4 0.699509 0.770883 0.571210
O O5 0.567719 0.500000 0.394500
O O6 0.623318 0.224409 0.385430
O O7 0.420276 0.283899 0.287106
O O8 0.595249 0.726806 0.282092
O O9 0.687351 0.000000 0.362664
O O10 0.882243 0.500000 0.950305
O O11 0.781947 0.238572 0.863467
O O12 0.869587 0.224584 0.994910
O O13 0.000000 0.233251 0.000000
O O14 0.453711 0.729343 0.129984
O O15 0.377867 0.000000 0.048584
O O16 0.250000 0.750000 0.000000
O O17 0.986597 0.500000 0.198406
O O18 0.891670 0.762662 0.182934
O O19 0.862877 0.500000 0.219504
#
# Coordination Sequence:
#
# PCOD9173895 Si02
#       7
#     8   8   8   8   8   8   8
#     4   9  18  33  52  79 109 138 172 210 255 310
#     4  10  19  32  54  81 106 132 170 216 262 307
#     4   9  17  32  54  77 104 135 174 214 250 306
#     4  10  21  35  50  76 111 140 171 214 263 310
#     4  10  18  31  51  74 102 134 173 212 252 302
#     4   8  15  28  48  75  97 125 169 212 251 290
#     4  10  19  34  55  76 102 135 178 218 256 309
#
# _framework density 20.009107
#
# number of rings (size 3 to 8) (size 9 to 14) (size 15 to 20)
#    0.000    2.571    1.429    2.143    0.000    0.286 
#    2.571    0.714    0.000    3.857    0.000    0.000 
#    0.000    0.000    0.000    0.000    0.000    0.000 
#
# Total GULP energy -156129.378074 kJ/mol
# GULP energy per Si atom -5576.049217 kJ/mol
# Density = 1.996357 g / cm^3
# Si number density = 20.009107 Si / 1000 Ang^3
#
#
#
# Elastic Constant Matrix: (Units=GPa)
#
#
# Indices 1 2 3 4 5 6 
#
# 1 112.4814 -7.8304 80.8140 0.0000 7.6993 0.0001
# 2 -7.8304 24.4040 -7.3653 0.0001 -1.3098 0.0004
# 3 80.8140 -7.3653 150.2046 0.0000 5.1324 0.0000
# 4 0.0000 0.0001 0.0000 12.9929 0.0000 -3.1727
# 5 7.6993 -1.3098 5.1324 0.0000 29.4349 0.0000
# 6 0.0001 0.0004 0.0000 -3.1727 0.0000 -9.4935
#
#
#
# Elastic Compliance Matrix: (Units=1/GPa)
#
#
# Indices 1 2 3 4 5 6 
#
# 1 0.014793 0.002273 -0.007765 0.000000 -0.002414 0.000000
# 2 0.002273 0.042008 0.000798 0.000000 0.001136 0.000002
# 3 -0.007765 0.000798 0.010869 0.000000 0.000171 0.000000
# 4 0.000000 0.000000 0.000000 0.071158 0.000000 -0.023781
# 5 -0.002414 0.001136 0.000171 0.000000 0.034625 0.000000
# 6 0.000000 0.000002 0.000000 -0.023781 0.000000 -0.097387
#
#
# Mechanical properties :
#
#
# Convention : Reuss Voigt Hill
#
# Bulk Modulus (GPa) = 17.15788 46.48074 31.81931
# Shear Modulus (GPa) = 47.67364 21.35164 34.51264
#
# Velocity S-wave (km/s) = 4.88648 3.27019 4.15763
# Velocity P-wave (km/s) = 6.35850 6.12691 6.24378
#
# Compressibility (1/GPa) = 0.05828226
#
# Stress axis : x y z
#
# Youngs Moduli (GPa) = 67.60100 23.80491 92.00845
#
# Poissons Ratio (x) = -0.05412 0.71444
# Poissons Ratio (y) = -0.15369 -0.07341
# Poissons Ratio (z) = 0.52491 -0.01899
#
# Static dielectric constant tensor:
#      x y z
#    x 1.687780 0.000000 -0.011400 
#    y 0.000000 1.746790 0.000000 
#    z -0.011400 0.000000 1.718800 
# 
# From -- ./inp_files/377747.got.cif
#   From: 2010.05.17/outbox.cif.g08.bks.cpg/sg12_189_cif.got.tgz:377747.got - 2010.06.03 13:09:07.
