data_PCOD9173582
_publ_section_title
;
Structure prediction by ZEFSAII (Michael W. Deem and Ramdas Pophale) SiO2 
 PCOD9173582
Probable space group: C 2/M
;
_chemical_formula_sum "Si O2"
_cell_formula_units_Z 56
_cell_length_a 27.754113
_cell_length_b 7.610152
_cell_length_c 18.234161
_cell_angle_alpha 90.000000
_cell_angle_beta 125.421066
_cell_angle_gamma 90.000000
_cell_volume 3138.474831
_symmetry_space_group_name_H-M "C 2/M"
_symmetry_group_IT_number 12
_symmetry_cell_setting 'monoclinic'
loop_
_space_group_symop_operation_xyz
x,y,z
-x,y,-z
-x,-y,-z
x,-y,z
1/2+x,1/2+y,z
1/2-x,1/2+y,-z
1/2-x,1/2-y,-z
1/2+x,1/2-y,z
loop_
_atom_site_type_symbol
_atom_site_label
_atom_site_fract_x
_atom_site_fract_y
_atom_site_fract_z
Si Si1 0.459234 0.703252 0.278944
Si Si2 0.920598 0.213068 0.558173
Si Si3 0.844099 0.789341 0.102594
Si Si4 0.397442 0.792798 0.374106
Si Si5 0.737952 0.703454 0.718908
Si Si6 0.267327 0.211835 0.899788
Si Si7 0.787177 0.788866 0.460820
O O1 0.466814 0.500000 0.263474
O O2 0.524777 0.780332 0.345276
O O3 0.408224 0.781108 0.182070
O O4 0.431598 0.710262 0.336245
O O5 0.928103 0.264902 0.479718
O O6 0.855236 0.273749 0.524278
O O7 0.921498 0.000000 0.561243
O O8 0.792094 0.722745 0.111049
O O9 0.845948 0.000000 0.114181
O O10 0.821651 0.753672 0.000948
O O11 0.332009 0.711806 0.323987
O O12 0.391602 0.000000 0.355458
O O13 0.756539 0.500000 0.730084
O O14 0.769490 0.780315 0.818571
O O15 0.741738 0.780809 0.640465
O O16 0.262493 0.000000 0.891728
O O17 0.750000 0.750000 0.500000
O O18 0.790437 0.000000 0.455917
#
# Coordination Sequence:
#
# PCOD9173582 Si02
#       7
#     8   8   8   8   8   8   8
#     4  10  18  31  46  60  85 125 160 181 208 260
#     4   9  19  33  48  62  83 120 157 180 212 270
#     4   9  17  27  42  63  88 118 152 186 218 250
#     4  11  20  27  40  65  94 119 148 188 225 254
#     4   9  17  32  49  64  87 123 159 181 212 271
#     4   9  16  28  44  62  87 118 152 186 217 253
#     4   9  18  32  50  70  89 110 142 185 229 271
#
# _framework density 17.843060999999999
#
# number of rings (size 3 to 8) (size 9 to 14) (size 15 to 20)
#    0.000    2.571    1.429    2.571    0.000    5.714 
#    0.000    0.000    0.000    0.000    0.000    1.000 
#    0.000    8.000    0.000    0.000    0.000    0.000 
#
# Total GULP energy -156062.034814 kJ/mol
# GULP energy per Si atom -5573.644101 kJ/mol
# Density = 1.780245 g / cm^3
# Si number density = 17.843061 Si / 1000 Ang^3
#
#
#
# Elastic Constant Matrix: (Units=GPa)
#
#
# Indices 1 2 3 4 5 6 
#
# 1 62.8673 -4.3297 65.1396 0.0000 -7.2908 0.0000
# 2 -4.3297 44.0560 -0.1363 0.0000 0.7227 0.0000
# 3 65.1396 -0.1363 185.9493 0.0000 8.9856 0.0000
# 4 0.0000 0.0000 0.0000 16.5055 0.0000 -3.4730
# 5 -7.2908 0.7227 8.9856 0.0000 22.0222 0.0000
# 6 0.0000 0.0000 0.0000 -3.4730 0.0000 10.3686
#
#
#
# Elastic Compliance Matrix: (Units=1/GPa)
#
#
# Indices 1 2 3 4 5 6 
#
# 1 0.028860 0.002575 -0.010778 0.000000 0.013868 0.000000
# 2 0.002575 0.022941 -0.000908 0.000000 0.000470 0.000000
# 3 -0.010778 -0.000908 0.009511 0.000000 -0.007419 0.000000
# 4 0.000000 0.000000 0.000000 0.065180 0.000000 0.021832
# 5 0.013868 0.000470 -0.007419 0.000000 0.053012 0.000000
# 6 0.000000 0.000000 0.000000 0.021832 0.000000 0.103757
#
#
# Mechanical properties :
#
#
# Convention : Reuss Voigt Hill
#
# Bulk Modulus (GPa) = 23.20692 46.02441 34.61567
# Shear Modulus (GPa) = 15.83053 25.25922 20.54487
#
# Velocity S-wave (km/s) = 2.98184 3.76657 3.39694
# Velocity P-wave (km/s) = 4.98894 6.69075 5.90151
#
# Compressibility (1/GPa) = 0.04309059
#
# Stress axis : x y z
#
# Youngs Moduli (GPa) = 34.65034 43.59015 105.13814
#
# Poissons Ratio (x) = -0.11226 1.13318
# Poissons Ratio (y) = -0.08924 0.09548
# Poissons Ratio (z) = 0.37346 0.03958
#
# Static dielectric constant tensor:
#      x y z
#    x 1.581090 0.000000 0.016760 
#    y 0.000000 1.686780 0.000000 
#    z 0.016760 0.000000 1.663480 
# 
# From -- ./inp_files/291675.got.cif
#   From: 2010.05.17/outbox.cif.g08.bks.cpg/sg12_146_cif.got.tgz:291675.got - 2010.06.03 13:09:07.
