data_PCOD9173400
_publ_section_title
;
Structure prediction by ZEFSAII (Michael W. Deem and Ramdas Pophale) SiO2 
 PCOD9173400
Probable space group: C 2/M
;
_chemical_formula_sum "Si O2"
_cell_formula_units_Z 56
_cell_length_a 29.227632
_cell_length_b 7.758433
_cell_length_c 14.749805
_cell_angle_alpha 90.000000
_cell_angle_beta 61.836037
_cell_angle_gamma 90.000000
_cell_volume 2948.667132
_symmetry_space_group_name_H-M "C 2/M"
_symmetry_group_IT_number 12
_symmetry_cell_setting 'monoclinic'
loop_
_space_group_symop_operation_xyz
x,y,z
-x,y,-z
-x,-y,-z
x,-y,z
1/2+x,1/2+y,z
1/2-x,1/2+y,-z
1/2-x,1/2-y,-z
1/2+x,1/2-y,z
loop_
_atom_site_type_symbol
_atom_site_label
_atom_site_fract_x
_atom_site_fract_y
_atom_site_fract_z
Si Si1 0.153727 0.701506 0.942066
Si Si2 0.415549 0.791460 0.834894
Si Si3 0.443401 0.297811 0.086976
Si Si4 0.950944 0.711164 0.482464
Si Si5 0.237868 0.696798 0.115320
Si Si6 0.865345 0.291112 0.695264
Si Si7 0.969198 0.290957 0.258604
O O1 0.165632 0.500000 0.942094
O O2 0.106723 0.719283 0.915444
O O3 0.209160 0.788171 0.877117
O O4 0.129486 0.773293 0.058071
O O5 0.404125 0.753953 0.742115
O O6 0.471649 0.730338 0.812028
O O7 0.415699 0.000000 0.843449
O O8 0.442927 0.500000 0.065797
O O9 0.438758 0.271681 0.199187
O O10 0.500000 0.227994 0.000000
O O11 0.952363 0.500000 0.481397
O O12 0.896595 0.769324 0.577913
O O13 0.954794 0.764383 0.373837
O O14 0.000000 0.763965 0.500000
O O15 0.221969 0.500000 0.119281
O O16 0.190073 0.777298 0.216943
O O17 0.250000 0.750000 0.000000
O O18 0.861472 0.500000 0.688595
O O19 0.968125 0.500000 0.258541
#
# Coordination Sequence:
#
# PCOD9173400 Si02
#       7
#     8   8   8   8   8   8   8
#     4  11  21  35  54  76 104 137 178 221 260 308
#     4   9  15  25  46  76 106 133 164 204 252 302
#     4  11  23  36  51  75 107 141 173 210 261 318
#     4   9  15  25  48  80 108 133 170 215 255 302
#     4  11  21  33  51  76 109 144 178 214 260 311
#     4   9  16  28  46  75 110 140 168 209 258 303
#     4  10  18  30  52  80 106 136 174 214 255 305
#
# _framework density 18.991631999999999
#
# number of rings (size 3 to 8) (size 9 to 14) (size 15 to 20)
#    0.000    2.000    4.286    1.286    0.000    0.571 
#    0.000    0.000    0.000    3.000    0.000    0.000 
#    0.000    0.000    0.000    0.000    0.000    0.000 
#
# Total GULP energy -156065.119009 kJ/mol
# GULP energy per Si atom -5573.754250 kJ/mol
# Density = 1.894841 g / cm^3
# Si number density = 18.991632 Si / 1000 Ang^3
#
#
#
# Elastic Constant Matrix: (Units=GPa)
#
#
# Indices 1 2 3 4 5 6 
#
# 1 73.8605 -8.7995 39.9900 0.0000 -9.3238 0.0000
# 2 -8.7995 28.1117 1.2045 0.0000 -4.2813 0.0001
# 3 39.9900 1.2045 113.5909 0.0000 -5.6878 0.0000
# 4 0.0000 0.0000 0.0000 6.6051 0.0000 -6.1414
# 5 -9.3238 -4.2813 -5.6878 0.0000 30.0722 0.0000
# 6 0.0000 0.0001 0.0000 -6.1414 0.0000 -4.2303
#
#
#
# Elastic Compliance Matrix: (Units=1/GPa)
#
#
# Indices 1 2 3 4 5 6 
#
# 1 0.018466 0.006890 -0.006298 0.000000 0.005515 0.000000
# 2 0.006890 0.038933 -0.002477 0.000000 0.007210 0.000000
# 3 -0.006298 -0.002477 0.011036 0.000000 -0.000218 0.000000
# 4 0.000000 0.000000 0.000000 0.064429 0.000000 -0.093536
# 5 0.005515 0.007210 -0.000218 0.000000 0.035948 0.000000
# 6 0.000000 0.000000 0.000000 -0.093536 0.000000 -0.100597
#
#
# Mechanical properties :
#
#
# Convention : Reuss Voigt Hill
#
# Bulk Modulus (GPa) = 15.46441 31.15034 23.30738
# Shear Modulus (GPa) = 53.45248 18.70060 36.07654
#
# Velocity S-wave (km/s) = 5.31097 3.14136 4.36317
# Velocity P-wave (km/s) = 6.76527 5.44015 6.13857
#
# Compressibility (1/GPa) = 0.06466459
#
# Stress axis : x y z
#
# Youngs Moduli (GPa) = 54.15381 25.68492 90.61199
#
# Poissons Ratio (x) = -0.17697 0.57066
# Poissons Ratio (y) = -0.37312 0.22448
# Poissons Ratio (z) = 0.34105 0.06363
#
# Static dielectric constant tensor:
#      x y z
#    x 1.656210 0.000000 -0.023220 
#    y 0.000000 1.718740 0.000000 
#    z -0.023220 0.000000 1.689280 
# 
# From -- ./inp_files/243684.got.cif
#   From: 2010.05.17/outbox.cif.g08.bks.cpg/sg12_122_cif.got.tgz:243684.got - 2010.06.03 13:09:07.
