data_PCOD9173596
_publ_section_title
;
Structure prediction by ZEFSAII (Michael W. Deem and Ramdas Pophale) SiO2 
 PCOD9173596
Probable space group: C 2/M
;
_chemical_formula_sum "Si O2"
_cell_formula_units_Z 48
_cell_length_a 18.275356
_cell_length_b 13.563524
_cell_length_c 11.608122
_cell_angle_alpha 90.000000
_cell_angle_beta 71.787958
_cell_angle_gamma 90.000000
_cell_volume 2733.261331
_symmetry_space_group_name_H-M "C 2/M"
_symmetry_group_IT_number 12
_symmetry_cell_setting 'monoclinic'
loop_
_space_group_symop_operation_xyz
x,y,z
-x,y,-z
-x,-y,-z
x,-y,z
1/2+x,1/2+y,z
1/2-x,1/2+y,-z
1/2-x,1/2-y,-z
1/2+x,1/2-y,z
loop_
_atom_site_type_symbol
_atom_site_label
_atom_site_fract_x
_atom_site_fract_y
_atom_site_fract_z
Si Si1 0.517728 0.192225 0.670476
Si Si2 0.998372 0.885935 0.192581
Si Si3 0.274902 0.115538 0.816592
Si Si4 0.078707 0.612382 0.083172
Si Si5 0.116537 0.381458 0.434440
Si Si6 0.111618 0.190324 0.954529
O O1 0.511524 0.307882 0.700381
O O2 0.494809 0.137555 0.800232
O O3 0.450755 0.157760 0.616458
O O4 0.596958 0.162392 0.569065
O O5 0.933015 0.858657 0.130450
O O6 0.994113 0.000000 0.226327
O O7 0.078038 0.862395 0.085704
O O8 0.346598 0.123676 0.869522
O O9 0.305901 0.142977 0.673869
O O10 0.201874 0.176552 0.893410
O O11 0.389254 0.000000 0.557198
O O12 0.075869 0.500000 0.044362
O O13 0.088706 0.695784 0.982476
O O14 0.247195 0.500000 0.175157
#
# Coordination Sequence:
#
# PCOD9173596 Si02
#       6
#     8   8   8   8   8   8
#     4   9  16  29  47  67  90 116 144 181 224 262
#     4  10  20  32  46  64  88 120 156 187 215 257
#     4   9  16  27  47  70  90 116 148 182 220 260
#     4   9  17  28  45  71  95 114 142 184 228 266
#     4   9  16  29  50  72  92 113 143 184 224 267
#     4  10  18  31  47  64  90 123 153 182 217 263
#
# _framework density 17.561437999999999
#
# number of rings (size 3 to 8) (size 9 to 14) (size 15 to 20)
#    0.000    2.667    0.000    5.500    0.000    0.000 
#    0.000   10.833    0.000    1.000    0.000    0.000 
#    0.000    0.000    0.000    0.000    0.000    0.000 
#
# Total GULP energy -133722.898416 kJ/mol
# GULP energy per Si atom -5571.787434 kJ/mol
# Density = 1.752147 g / cm^3
# Si number density = 17.561438 Si / 1000 Ang^3
#
#
#
# Elastic Constant Matrix: (Units=GPa)
#
#
# Indices 1 2 3 4 5 6 
#
# 1 40.2642 21.0154 38.3371 0.0000 -12.5829 0.0000
# 2 21.0154 130.5828 50.3561 0.0000 -14.7794 0.0000
# 3 38.3371 50.3561 90.0486 0.0000 -17.8647 0.0000
# 4 0.0000 0.0000 0.0000 37.0742 0.0000 10.8608
# 5 -12.5829 -14.7794 -17.8647 0.0000 7.8291 0.0000
# 6 0.0000 0.0000 0.0000 10.8608 0.0000 21.4164
#
#
#
# Elastic Compliance Matrix: (Units=1/GPa)
#
#
# Indices 1 2 3 4 5 6 
#
# 1 0.056205 0.003466 -0.012146 0.000000 0.069161 0.000000
# 2 0.003466 0.010516 -0.004226 0.000000 0.015779 0.000000
# 3 -0.012146 -0.004226 0.024089 0.000000 0.027468 0.000000
# 4 0.000000 0.000000 0.000000 0.031679 0.000000 -0.016065
# 5 0.069161 0.015779 0.027468 0.000000 0.331351 0.000000
# 6 0.000000 0.000000 0.000000 -0.016065 0.000000 0.054840
#
#
# Mechanical properties :
#
#
# Convention : Reuss Voigt Hill
#
# Bulk Modulus (GPa) = 15.38509 53.36809 34.37659
# Shear Modulus (GPa) = 8.99026 23.34306 16.16666
#
# Velocity S-wave (km/s) = 2.26505 3.64981 3.03739
# Velocity P-wave (km/s) = 3.95226 6.94383 5.64965
#
# Compressibility (1/GPa) = 0.06499800
#
# Stress axis : x y z
#
# Youngs Moduli (GPa) = 17.79198 95.09702 41.51347
#
# Poissons Ratio (x) = -0.32962 0.50423
# Poissons Ratio (y) = -0.06167 0.17542
# Poissons Ratio (z) = 0.21610 0.40184
#
# Static dielectric constant tensor:
#      x y z
#    x 1.608640 0.000000 0.001000 
#    y 0.000000 1.595940 0.000000 
#    z 0.001000 0.000000 1.645720 
# 
# From -- ./inp_files/164703.got.cif
#   From: 2010.05.17/outbox.cif.g08.bks.cpg/sg12_83_cif.got.tgz:164703.got - 2010.06.03 13:09:07.
