data_PCOD9173772
_publ_section_title
;
Structure prediction by ZEFSAII (Michael W. Deem and Ramdas Pophale) SiO2 
 PCOD9173772
Probable space group: C 2/M
;
_chemical_formula_sum "Si O2"
_cell_formula_units_Z 64
_cell_length_a 24.789000
_cell_length_b 9.014761
_cell_length_c 33.833784
_cell_angle_alpha 90.000000
_cell_angle_beta 148.784322
_cell_angle_gamma 90.000000
_cell_volume 3918.432446
_symmetry_space_group_name_H-M "C 2/M"
_symmetry_group_IT_number 12
_symmetry_cell_setting 'monoclinic'
loop_
_space_group_symop_operation_xyz
x,y,z
-x,y,-z
-x,-y,-z
x,-y,z
1/2+x,1/2+y,z
1/2-x,1/2+y,-z
1/2-x,1/2-y,-z
1/2+x,1/2-y,z
loop_
_atom_site_type_symbol
_atom_site_label
_atom_site_fract_x
_atom_site_fract_y
_atom_site_fract_z
Si Si1 0.185260 0.823941 0.423900
Si Si2 0.759057 0.175947 0.310528
Si Si3 0.517789 0.676134 0.591182
Si Si4 0.320728 0.175920 0.430035
Si Si5 0.619045 0.676818 0.158087
Si Si6 0.064469 0.329080 0.999065
Si Si7 0.979937 0.678040 0.320969
Si Si8 0.243522 0.823231 0.155155
O O1 0.250000 0.750000 0.500000
O O2 0.247098 0.801071 0.421959
O O3 0.072132 0.749491 0.353482
O O4 0.176622 0.000000 0.425513
O O5 0.868513 0.199554 0.356216
O O6 0.769632 0.255895 0.359075
O O7 0.668703 0.244156 0.226884
O O8 0.744776 0.000000 0.306548
O O9 0.501255 0.500000 0.585797
O O10 0.429415 0.743245 0.507592
O O11 0.511030 0.756939 0.629140
O O12 0.337854 0.000000 0.436005
O O13 0.617607 0.500000 0.162251
O O14 0.505350 0.737128 0.075251
O O15 0.693314 0.710743 0.166714
O O16 0.072933 0.500000 0.992290
O O17 0.175530 0.259955 0.079769
O O18 0.000000 0.323953 0.000000
O O19 0.990757 0.500000 0.329401
O O20 0.865085 0.714369 0.232785
O O21 0.232379 0.000000 0.142459
#
# Coordination Sequence:
#
# PCOD9173772 Si02
#       8
#     8   8   8   8   8   8   8   8
#     4  11  23  38  56  77 101 134 176 222 268 312
#     4  11  23  36  52  77 107 138 176 217 261 311
#     4  11  22  35  53  76 105 138 173 216 263 311
#     4  11  24  39  55  74 100 137 180 220 262 313
#     4  10  18  31  50  72 104 141 173 208 254 308
#     4   9  17  28  45  71 103 137 172 209 252 304
#     4  11  21  34  54  79 105 138 177 216 261 312
#     4   9  18  31  48  73 104 137 173 210 254 309
#
# _framework density 16.333062000000002
#
# number of rings (size 3 to 8) (size 9 to 14) (size 15 to 20)
#    0.000    1.625    2.500    3.000    0.000    7.500 
#    0.000    0.000    0.000    0.000    0.000    0.875 
#    0.000    0.000    0.000    0.000    0.000    0.000 
#
# Total GULP energy -178714.905079 kJ/mol
# GULP energy per Si atom -5584.840784 kJ/mol
# Density = 1.629589 g / cm^3
# Si number density = 16.333062 Si / 1000 Ang^3
#
#
#
# Elastic Constant Matrix: (Units=GPa)
#
#
# Indices 1 2 3 4 5 6 
#
# 1 31.4161 36.7267 32.4546 0.0000 -5.2207 0.0000
# 2 36.7267 80.2645 64.2837 0.0001 -6.0499 -0.0001
# 3 32.4546 64.2837 142.2197 0.0000 -3.7801 0.0000
# 4 0.0000 0.0001 0.0000 33.7660 0.0000 1.3589
# 5 -5.2207 -6.0499 -3.7801 0.0000 18.9319 0.0000
# 6 0.0000 -0.0001 0.0000 1.3589 0.0000 20.9554
#
#
#
# Elastic Compliance Matrix: (Units=1/GPa)
#
#
# Indices 1 2 3 4 5 6 
#
# 1 0.070552 -0.029583 -0.002476 0.000000 0.009508 0.000000
# 2 -0.029583 0.032322 -0.007843 0.000000 0.000605 0.000000
# 3 -0.002476 -0.007843 0.011115 0.000000 -0.000970 0.000000
# 4 0.000000 0.000000 0.000000 0.029693 0.000000 -0.001926
# 5 0.009508 0.000605 -0.000970 0.000000 0.055442 0.000000
# 6 0.000000 0.000000 0.000000 -0.001926 0.000000 0.047845
#
#
# Mechanical properties :
#
#
# Convention : Reuss Voigt Hill
#
# Bulk Modulus (GPa) = 29.25118 57.87001 43.56059
# Shear Modulus (GPa) = 14.78548 22.75969 18.77259
#
# Velocity S-wave (km/s) = 3.01200 3.73698 3.39390
# Velocity P-wave (km/s) = 5.48126 7.35718 6.48739
#
# Compressibility (1/GPa) = 0.03418666
#
# Stress axis : x y z
#
# Youngs Moduli (GPa) = 14.17386 30.93861 89.96498
#
# Poissons Ratio (x) = 0.91527 0.22272
# Poissons Ratio (y) = 0.41931 0.70556
# Poissons Ratio (z) = 0.03509 0.24264
#
# Static dielectric constant tensor:
#      x y z
#    x 1.527640 0.000000 0.008950 
#    y 0.000000 1.543290 0.000000 
#    z 0.008950 0.000000 1.535360 
# 
# From -- ./inp_files/287585.got.cif
#   From: 2010.05.17/outbox.cif.g08.bks.cpg/sg12_144_cif.got.tgz:287585.got - 2010.06.03 13:09:07.
