data_PCOD9173013
_publ_section_title
;
Structure prediction by ZEFSAII (Michael W. Deem and Ramdas Pophale) SiO2 
 PCOD9173013
Probable space group: C 2/M
;
_chemical_formula_sum "Si O2"
_cell_formula_units_Z 48
_cell_length_a 14.131173
_cell_length_b 19.546066
_cell_length_c 14.799814
_cell_angle_alpha 90.000000
_cell_angle_beta 148.346489
_cell_angle_gamma 90.000000
_cell_volume 2145.221059
_symmetry_space_group_name_H-M "C 2/M"
_symmetry_group_IT_number 12
_symmetry_cell_setting 'monoclinic'
loop_
_space_group_symop_operation_xyz
x,y,z
-x,y,-z
-x,-y,-z
x,-y,z
1/2+x,1/2+y,z
1/2-x,1/2+y,-z
1/2-x,1/2-y,-z
1/2+x,1/2-y,z
loop_
_atom_site_type_symbol
_atom_site_label
_atom_site_fract_x
_atom_site_fract_y
_atom_site_fract_z
Si Si1 0.607619 0.500000 0.297220
Si Si2 0.552035 0.265994 0.934476
Si Si3 0.817605 0.000000 0.915446
Si Si4 0.212873 0.000000 0.877873
Si Si5 0.862939 0.351901 0.253750
Si Si6 0.241624 0.353958 0.621690
Si Si7 0.715686 0.500000 0.668100
Si Si8 0.999365 0.390243 0.108483
O O1 0.508380 0.500000 0.311801
O O2 0.712939 0.433472 0.355046
O O3 0.410690 0.500000 0.088697
O O4 0.748310 0.300415 0.099444
O O5 0.520278 0.188329 0.880421
O O6 0.500000 0.271446 0.000000
O O7 0.425918 0.312166 0.768027
O O8 0.703393 0.930849 0.811654
O O9 0.000000 0.000000 0.000000
O O10 0.268818 0.000000 0.816708
O O11 0.325234 0.932585 0.999643
O O12 0.819171 0.340736 0.324559
O O13 0.076136 0.339884 0.420828
O O14 0.500000 0.500000 0.500000
O O15 0.822066 0.432826 0.716513
O O16 0.000000 0.386002 0.000000
#
# Coordination Sequence:
#
# PCOD9173013 Si02
#       8
#     4   8   4   4   8   8   4   8
#     4  12  20  32  52  73 107 147 180 222 258 300
#     4   9  16  31  51  77 105 133 173 220 261 311
#     4  12  17  30  51  69 100 147 187 218 247 289
#     4   9  20  36  55  79 102 137 174 210 270 323
#     4  10  18  30  49  75 103 139 187 222 252 298
#     4  10  19  30  47  76 108 140 179 221 259 298
#     4   9  17  36  62  87 103 124 168 223 270 316
#     4   8  16  35  58  77 102 130 168 214 267 329
#
# _framework density 22.375316999999999
#
# number of rings (size 3 to 8) (size 9 to 14) (size 15 to 20)
#    0.000    2.333    3.333    2.000    0.000    1.333 
#   12.000    4.167    0.000    1.000    0.000    0.000 
#    0.000    0.000    0.000    0.000    0.000    0.000 
#
# Total GULP energy -133725.270538 kJ/mol
# GULP energy per Si atom -5571.886272 kJ/mol
# Density = 2.232439 g / cm^3
# Si number density = 22.375317 Si / 1000 Ang^3
#
#
#
# Elastic Constant Matrix: (Units=GPa)
#
#
# Indices 1 2 3 4 5 6 
#
# 1 43.8491 -6.7804 5.8582 0.0001 12.0933 0.0000
# 2 -6.7804 177.3350 105.6080 0.0001 0.8637 0.0001
# 3 5.8582 105.6080 203.9589 0.0004 9.9252 0.0002
# 4 0.0001 0.0001 0.0004 -10.4911 0.0001 -19.1203
# 5 12.0933 0.8637 9.9252 0.0001 18.3093 0.0000
# 6 0.0000 0.0001 0.0002 -19.1203 0.0000 -17.7348
#
#
#
# Elastic Compliance Matrix: (Units=1/GPa)
#
#
# Indices 1 2 3 4 5 6 
#
# 1 0.028202 0.001619 -0.000758 0.000000 -0.018293 0.000000
# 2 0.001619 0.008315 -0.004397 0.000000 0.000922 0.000000
# 3 -0.000758 -0.004397 0.007361 0.000000 -0.003282 0.000000
# 4 0.000000 0.000000 0.000000 0.098786 0.000000 -0.106503
# 5 -0.018293 0.000922 -0.003282 0.000000 0.068435 0.000000
# 6 0.000000 0.000000 0.000000 -0.106503 0.000000 0.058438
#
#
# Mechanical properties :
#
#
# Convention : Reuss Voigt Hill
#
# Bulk Modulus (GPa) = 27.16939 70.50161 48.83550
# Shear Modulus (GPa) = 17.30840 19.38049 18.34444
#
# Velocity S-wave (km/s) = 2.78429 2.94624 2.86641
# Velocity P-wave (km/s) = 4.74398 6.56893 5.72958
#
# Compressibility (1/GPa) = 0.03680613
#
# Stress axis : x y z
#
# Youngs Moduli (GPa) = 35.45832 120.26746 135.85108
#
# Poissons Ratio (x) = -0.19470 0.10299
# Poissons Ratio (y) = -0.05740 0.59729
# Poissons Ratio (z) = 0.02688 0.52878
#
# Static dielectric constant tensor:
#      x y z
#    x 1.227340 0.000000 -0.060810 
#    y 0.000000 1.824290 0.000000 
#    z -0.060810 0.000000 1.823050 
# 
# From -- ./inp_files/317964.got.cif
#   From: 2010.05.17/outbox.cif.g08.bks.cpg/sg12_159_cif.got.tgz:317964.got - 2010.06.03 13:09:07.
