data_PCOD9173889
_publ_section_title
;
Structure prediction by ZEFSAII (Michael W. Deem and Ramdas Pophale) SiO2 
 PCOD9173889
Probable space group: C 2/M
;
_chemical_formula_sum "Si O2"
_cell_formula_units_Z 64
_cell_length_a 24.778176
_cell_length_b 7.674110
_cell_length_c 22.349409
_cell_angle_alpha 90.000000
_cell_angle_beta 132.269299
_cell_angle_gamma 90.000000
_cell_volume 3144.779454
_symmetry_space_group_name_H-M "C 2/M"
_symmetry_group_IT_number 12
_symmetry_cell_setting 'monoclinic'
loop_
_space_group_symop_operation_xyz
x,y,z
-x,y,-z
-x,-y,-z
x,-y,z
1/2+x,1/2+y,z
1/2-x,1/2+y,-z
1/2-x,1/2-y,-z
1/2+x,1/2-y,z
loop_
_atom_site_type_symbol
_atom_site_label
_atom_site_fract_x
_atom_site_fract_y
_atom_site_fract_z
Si Si1 0.888966 0.804143 0.232240
Si Si2 0.207384 0.799015 0.283271
Si Si3 0.970559 0.211804 0.718900
Si Si4 0.694867 0.709145 0.406038
Si Si5 0.040388 0.292763 0.151775
Si Si6 0.099419 0.294805 0.013637
Si Si7 0.256308 0.201278 0.816817
Si Si8 0.666327 0.200859 0.931603
O O1 0.818675 0.721626 0.212511
O O2 0.866236 0.812980 0.145741
O O3 0.969446 0.723741 0.284110
O O4 0.742413 0.000000 0.160202
O O5 0.219671 0.725602 0.359030
O O6 0.119984 0.789877 0.208460
O O7 0.244005 0.705798 0.254746
O O8 0.230589 0.000000 0.298624
O O9 0.887918 0.270414 0.644175
O O10 0.986049 0.266106 0.799294
O O11 0.972712 0.000000 0.719246
O O12 0.690288 0.500000 0.396640
O O13 0.750000 0.750000 0.500000
O O14 0.048428 0.500000 0.148606
O O15 0.982518 0.226090 0.059257
O O16 0.090708 0.500000 0.023946
O O17 0.131528 0.282353 0.970599
O O18 0.165454 0.221882 0.103323
O O19 0.897400 0.000000 0.263792
O O20 0.658304 0.000000 0.907038
O O21 0.750000 0.250000 0.000000
#
# Coordination Sequence:
#
# PCOD9173889 Si02
#       8
#     8   8   8   8   8   8   8   8
#     4  10  19  32  51  74 104 140 176 215 261 305
#     4  10  22  39  53  74 105 133 166 214 261 306
#     4   9  18  32  51  80 112 135 160 211 266 302
#     4   9  19  36  59  84 107 126 155 201 255 313
#     4  10  18  31  51  73  99 137 178 220 262 303
#     4   9  18  30  45  69 101 134 178 226 258 288
#     4  10  20  35  51  70 100 143 185 214 248 302
#     4  11  19  30  45  68 100 137 182 229 268 299
#
# _framework density 20.351189000000002
#
# number of rings (size 3 to 8) (size 9 to 14) (size 15 to 20)
#    0.000    2.250    2.500    1.875    0.000    3.500 
#    0.000    3.750    0.000    0.750    0.000    5.250 
#    0.000    0.000    0.000    0.000    0.000    0.000 
#
# Total GULP energy -178394.456044 kJ/mol
# GULP energy per Si atom -5574.826751 kJ/mol
# Density = 2.030487 g / cm^3
# Si number density = 20.351189 Si / 1000 Ang^3
#
#
#
# Elastic Constant Matrix: (Units=GPa)
#
#
# Indices 1 2 3 4 5 6 
#
# 1 75.7510 -8.6279 60.8073 0.0000 -14.7162 0.0000
# 2 -8.6279 39.0958 1.6154 0.0001 -7.8304 0.0002
# 3 60.8073 1.6154 119.8591 0.0000 4.5502 0.0000
# 4 0.0000 0.0001 0.0000 15.0172 0.0000 -3.2865
# 5 -14.7162 -7.8304 4.5502 0.0000 16.5475 0.0000
# 6 0.0000 0.0002 0.0000 -3.2865 0.0000 11.9208
#
#
#
# Elastic Compliance Matrix: (Units=1/GPa)
#
#
# Indices 1 2 3 4 5 6 
#
# 1 0.054445 0.027249 -0.030636 0.000000 0.069738 -0.000001
# 2 0.027249 0.041990 -0.016234 0.000000 0.048567 -0.000001
# 3 -0.030636 -0.016234 0.025699 0.000000 -0.041994 0.000000
# 4 0.000000 0.000000 0.000000 0.070866 -0.000001 0.019538
# 5 0.069738 0.048567 -0.041994 -0.000001 0.156982 -0.000001
# 6 -0.000001 -0.000001 0.000000 0.019538 -0.000001 0.089273
#
#
# Mechanical properties :
#
#
# Convention : Reuss Voigt Hill
#
# Bulk Modulus (GPa) = 12.06389 38.03281 25.04835
# Shear Modulus (GPa) = 9.87894 20.75787 15.31841
#
# Velocity S-wave (km/s) = 2.20562 3.19718 2.74652
# Velocity P-wave (km/s) = 3.52521 5.68842 4.73208
#
# Compressibility (1/GPa) = 0.08289198
#
# Stress axis : x y z
#
# Youngs Moduli (GPa) = 18.36705 23.81532 38.91276
#
# Poissons Ratio (x) = -0.64894 1.19213
# Poissons Ratio (y) = -0.50048 0.63170
# Poissons Ratio (z) = 0.56269 0.38661
#
# Static dielectric constant tensor:
#      x y z
#    x 1.771710 0.000000 0.042650 
#    y 0.000000 1.774180 0.000000 
#    z 0.042650 0.000000 1.712260 
# 
# From -- ./inp_files/324354.got.cif
#   From: 2010.05.17/outbox.cif.g08.bks.cpg/sg12_163_cif.got.tgz:324354.got - 2010.06.03 13:09:07.
