data_PCOD9173028
_publ_section_title
;
Structure prediction by ZEFSAII (Michael W. Deem and Ramdas Pophale) SiO2 
 PCOD9173028
Probable space group: C 2/M
;
_chemical_formula_sum "Si O2"
_cell_formula_units_Z 56
_cell_length_a 22.621249
_cell_length_b 14.893254
_cell_length_c 10.240604
_cell_angle_alpha 90.000000
_cell_angle_beta 46.892735
_cell_angle_gamma 90.000000
_cell_volume 2518.834323
_symmetry_space_group_name_H-M "C 2/M"
_symmetry_group_IT_number 12
_symmetry_cell_setting 'monoclinic'
loop_
_space_group_symop_operation_xyz
x,y,z
-x,y,-z
-x,-y,-z
x,-y,z
1/2+x,1/2+y,z
1/2-x,1/2+y,-z
1/2-x,1/2-y,-z
1/2+x,1/2-y,z
loop_
_atom_site_type_symbol
_atom_site_label
_atom_site_fract_x
_atom_site_fract_y
_atom_site_fract_z
Si Si1 0.171195 0.397791 0.626186
Si Si2 0.017796 0.308419 0.825041
Si Si3 0.185246 0.896544 0.760068
Si Si4 0.645744 0.248689 0.037860
Si Si5 0.093028 0.867571 0.631218
Si Si6 0.061362 0.097647 0.287252
Si Si7 0.750135 0.394431 0.224525
O O1 0.198836 0.500000 0.592161
O O2 0.075839 0.393311 0.749049
O O3 0.227999 0.362209 0.425702
O O4 0.196352 0.361998 0.729889
O O5 0.077688 0.237945 0.666674
O O6 0.934290 0.309949 0.875073
O O7 0.000000 0.277937 0.000000
O O8 0.128350 0.896922 0.717370
O O9 0.189457 0.000000 0.803061
O O10 0.158231 0.824742 0.907366
O O11 0.617757 0.315318 0.196062
O O12 0.719033 0.177437 0.929270
O O13 0.158814 0.889966 0.420246
O O14 0.002968 0.902316 0.735780
O O15 0.000000 0.104582 0.500000
O O16 0.103009 0.000000 0.229457
O O17 0.766981 0.500000 0.168246
#
# Coordination Sequence:
#
# PCOD9173028 Si02
#       7
#     8   8   8   8   8   8   8
#     4   9  18  29  43  67 107 146 169 193 234 293
#     4  11  18  28  42  70 103 136 167 198 240 285
#     4  10  18  30  49  76 104 133 166 202 245 290
#     4  11  21  32  51  78 104 131 165 208 244 290
#     4  10  19  33  52  73 102 135 164 202 247 298
#     4  10  22  39  56  74  98 129 163 204 256 305
#     4  10  19  32  50  73 101 136 171 201 239 289
#
# _framework density 22.232506000000001
#
# number of rings (size 3 to 8) (size 9 to 14) (size 15 to 20)
#    0.000    1.857    2.857    3.429    0.000    3.143 
#    0.000    2.857    0.000    0.429    0.000    0.000 
#    0.000    0.000    0.000    0.000    0.000    0.000 
#
# Total GULP energy -156134.635423 kJ/mol
# GULP energy per Si atom -5576.236979 kJ/mol
# Density = 2.218190 g / cm^3
# Si number density = 22.232506 Si / 1000 Ang^3
#
#
#
# Elastic Constant Matrix: (Units=GPa)
#
#
# Indices 1 2 3 4 5 6 
#
# 1 61.2417 2.9242 12.8647 0.0000 -25.9959 0.0000
# 2 2.9242 94.2002 37.9036 0.0000 -6.1419 0.0000
# 3 12.8647 37.9036 81.9304 0.0000 -13.3271 0.0000
# 4 0.0000 0.0000 0.0000 26.9871 0.0000 -0.4083
# 5 -25.9959 -6.1419 -13.3271 0.0000 30.2798 0.0000
# 6 0.0000 0.0000 0.0000 -0.4083 0.0000 5.0180
#
#
#
# Elastic Compliance Matrix: (Units=1/GPa)
#
#
# Indices 1 2 3 4 5 6 
#
# 1 0.025787 0.001012 -0.000951 0.000000 0.021926 0.000000
# 2 0.001012 0.013083 -0.006074 0.000000 0.000849 0.000000
# 3 -0.000951 -0.006074 0.015975 0.000000 0.004983 0.000000
# 4 0.000000 0.000000 0.000000 0.037100 0.000000 0.003019
# 5 0.021926 0.000849 0.004983 0.000000 0.054214 0.000000
# 6 0.000000 0.000000 0.000000 0.003019 0.000000 0.199530
#
#
# Mechanical properties :
#
#
# Convention : Reuss Voigt Hill
#
# Bulk Modulus (GPa) = 23.35326 38.30638 30.82982
# Shear Modulus (GPa) = 13.44126 24.70229 19.07178
#
# Velocity S-wave (km/s) = 2.46148 3.33692 2.93206
# Velocity P-wave (km/s) = 4.31340 5.66692 5.03584
#
# Compressibility (1/GPa) = 0.04282057
#
# Stress axis : x y z
#
# Youngs Moduli (GPa) = 38.77908 76.43227 62.59723
#
# Poissons Ratio (x) = -0.07731 0.05950
# Poissons Ratio (y) = -0.03923 0.38019
# Poissons Ratio (z) = 0.03686 0.46422
#
# Static dielectric constant tensor:
#      x y z
#    x 1.866260 0.000000 0.041330 
#    y 0.000000 1.852900 0.000000 
#    z 0.041330 0.000000 1.884630 
# 
# From -- ./inp_files/183481.got.cif
#   From: 2010.05.17/outbox.cif.g08.bks.cpg/sg12_92_cif.got.tgz:183481.got - 2010.06.03 13:09:07.
