data_PCOD9173178
_publ_section_title
;
Structure prediction by ZEFSAII (Michael W. Deem and Ramdas Pophale) SiO2 
 PCOD9173178
Probable space group: C 2/M
;
_chemical_formula_sum "Si O2"
_cell_formula_units_Z 56
_cell_length_a 27.654612
_cell_length_b 7.530957
_cell_length_c 20.701956
_cell_angle_alpha 90.000000
_cell_angle_beta 34.827387
_cell_angle_gamma 90.000000
_cell_volume 2462.327675
_symmetry_space_group_name_H-M "C 2/M"
_symmetry_group_IT_number 12
_symmetry_cell_setting 'monoclinic'
loop_
_space_group_symop_operation_xyz
x,y,z
-x,y,-z
-x,-y,-z
x,-y,z
1/2+x,1/2+y,z
1/2-x,1/2+y,-z
1/2-x,1/2-y,-z
1/2+x,1/2-y,z
loop_
_atom_site_type_symbol
_atom_site_label
_atom_site_fract_x
_atom_site_fract_y
_atom_site_fract_z
Si Si1 0.524815 0.292836 0.789172
Si Si2 0.787853 0.696461 0.389875
Si Si3 0.241118 0.717943 0.719589
Si Si4 0.282605 0.712284 0.892310
Si Si5 0.429089 0.283750 0.527362
Si Si6 0.028761 0.216617 0.294372
Si Si7 0.638638 0.784724 0.951306
O O1 0.546612 0.500000 0.757186
O O2 0.611032 0.199323 0.714611
O O3 0.490827 0.225777 0.757061
O O4 0.450658 0.275870 0.922703
O O5 0.752861 0.500000 0.419453
O O6 0.750000 0.750000 0.500000
O O7 0.766360 0.786871 0.345346
O O8 0.238378 0.500000 0.722522
O O9 0.333044 0.769929 0.646209
O O10 0.166102 0.772954 0.849725
O O11 0.286628 0.500000 0.878457
O O12 0.378938 0.778229 0.783022
O O13 0.213381 0.778292 0.917503
O O14 0.250000 0.750000 0.000000
O O15 0.500000 0.222616 0.500000
O O16 0.429881 0.500000 0.528723
O O17 0.458226 0.231344 0.423547
O O18 0.031414 0.000000 0.290208
O O19 0.636856 0.000000 0.954876
#
# Coordination Sequence:
#
# PCOD9173178 Si02
#       7
#     8   8   8   8   8   8   8
#     4  11  22  37  57  82 114 148 189 236 285 337
#     4  11  23  41  63  85 112 145 187 234 285 339
#     4   9  19  35  55  80 112 149 185 232 285 331
#     4  10  18  30  50  78 113 149 186 228 277 335
#     4   9  15  26  48  77 106 137 177 223 271 328
#     4   9  17  29  48  76 109 143 180 226 279 329
#     4  10  20  35  56  83 114 149 193 236 281 338
#
# _framework density 22.742708
#
# number of rings (size 3 to 8) (size 9 to 14) (size 15 to 20)
#    0.000    2.143    1.429    2.571    0.000    6.286 
#    0.000    4.286    0.000    0.000    0.000    0.000 
#    0.000    9.143    0.000    0.000    0.000    0.000 
#
# Total GULP energy -156434.606279 kJ/mol
# GULP energy per Si atom -5586.950224 kJ/mol
# Density = 2.269095 g / cm^3
# Si number density = 22.742708 Si / 1000 Ang^3
#
#
#
# Elastic Constant Matrix: (Units=GPa)
#
#
# Indices 1 2 3 4 5 6 
#
# 1 103.2730 -3.5430 47.8991 0.0044 12.5717 -0.0054
# 2 -3.5430 53.1096 -11.9467 0.0037 5.8832 -0.0061
# 3 47.8991 -11.9467 147.2930 -0.0014 15.5797 -0.0027
# 4 0.0044 0.0037 -0.0014 18.2136 -0.0020 2.6918
# 5 12.5717 5.8832 15.5797 -0.0020 38.4216 0.0038
# 6 -0.0054 -0.0061 -0.0027 2.6918 0.0038 8.2589
#
#
#
# Elastic Compliance Matrix: (Units=1/GPa)
#
#
# Indices 1 2 3 4 5 6 
#
# 1 0.011609 0.000255 -0.003499 -0.000005 -0.002419 0.000009
# 2 0.000255 0.019709 0.001926 -0.000007 -0.003883 0.000020
# 3 -0.003499 0.001926 0.008351 0.000000 -0.002537 0.000003
# 4 -0.000005 -0.000007 0.000000 0.057682 0.000007 -0.018800
# 5 -0.002419 -0.003883 -0.002537 0.000007 0.028442 -0.000021
# 6 0.000009 0.000020 0.000003 -0.018800 -0.000021 0.127208
#
#
# Mechanical properties :
#
#
# Convention : Reuss Voigt Hill
#
# Bulk Modulus (GPa) = 27.00084 40.94382 33.97233
# Shear Modulus (GPa) = 18.65803 31.06326 24.86065
#
# Velocity S-wave (km/s) = 2.86736 3.69976 3.30983
# Velocity P-wave (km/s) = 4.78126 6.02437 5.43845
#
# Compressibility (1/GPa) = 0.03703588
#
# Stress axis : x y z
#
# Youngs Moduli (GPa) = 86.14008 50.73722 119.73943
#
# Poissons Ratio (x) = -0.01296 0.41892
# Poissons Ratio (y) = -0.02200 -0.23064
# Poissons Ratio (z) = 0.30137 -0.09773
#
# Static dielectric constant tensor:
#      x y z
#    x 1.837410 0.000050 0.023810 
#    y 0.000050 2.389150 0.000080 
#    z 0.023810 0.000080 1.805600 
# 
# From -- ./inp_files/329535.got.cif
#   From: 2010.05.17/outbox.cif.g08.bks.cpg/sg12_165_cif.got.tgz:329535.got - 2010.06.03 13:09:07.
