data_PCOD9173833
_publ_section_title
;
Structure prediction by ZEFSAII (Michael W. Deem and Ramdas Pophale) SiO2 
 PCOD9173833
Probable space group: C 2/M
;
_chemical_formula_sum "Si O2"
_cell_formula_units_Z 56
_cell_length_a 19.609095
_cell_length_b 8.694563
_cell_length_c 22.008825
_cell_angle_alpha 90.000000
_cell_angle_beta 124.349829
_cell_angle_gamma 90.000000
_cell_volume 3097.961410
_symmetry_space_group_name_H-M "C 2/M"
_symmetry_group_IT_number 12
_symmetry_cell_setting 'monoclinic'
loop_
_space_group_symop_operation_xyz
x,y,z
-x,y,-z
-x,-y,-z
x,-y,z
1/2+x,1/2+y,z
1/2-x,1/2+y,-z
1/2-x,1/2-y,-z
1/2+x,1/2-y,z
loop_
_atom_site_type_symbol
_atom_site_label
_atom_site_fract_x
_atom_site_fract_y
_atom_site_fract_z
Si Si1 0.458481 0.317020 0.311892
Si Si2 0.383613 0.183115 0.553757
Si Si3 0.753814 0.315379 0.595209
Si Si4 0.513579 0.184589 0.807921
Si Si5 0.666768 0.815273 0.236186
Si Si6 0.713842 0.182257 0.799459
Si Si7 0.812878 0.816287 0.080814
O O1 0.450382 0.500000 0.307359
O O2 0.528538 0.263674 0.393832
O O3 0.486910 0.258159 0.259509
O O4 0.368855 0.241651 0.276039
O O5 0.329857 0.236121 0.469280
O O6 0.326007 0.224967 0.583117
O O7 0.394604 0.000000 0.559544
O O8 0.743579 0.500000 0.587064
O O9 0.783914 0.274218 0.677396
O O10 0.429022 0.221143 0.799981
O O11 0.595336 0.247373 0.881439
O O12 0.518621 0.000000 0.803369
O O13 0.707703 0.730309 0.200512
O O14 0.673858 0.000000 0.231565
O O15 0.713572 0.262899 0.865008
O O16 0.708718 0.000000 0.805254
O O17 0.815659 0.000000 0.079451
O O18 0.750000 0.750000 0.000000
#
# Coordination Sequence:
#
# PCOD9173833 Si02
#       7
#     8   8   8   8   8   8   8
#     4  11  20  33  54  79 108 146 192 236 279 332
#     4  10  18  31  50  77 108 143 188 239 285 329
#     4   9  18  32  50  76 109 147 184 230 284 334
#     4  10  19  35  59  86 114 147 185 228 274 327
#     4  10  20  37  57  81 116 151 185 226 280 336
#     4  11  23  38  58  84 115 148 185 229 277 329
#     4  11  22  40  64  90 117 147 183 224 270 325
#
# _framework density 18.076404
#
# number of rings (size 3 to 8) (size 9 to 14) (size 15 to 20)
#    0.000    1.714    1.429    6.429    0.000    2.286 
#    0.000    1.429    0.000    8.571    0.000    0.000 
#    0.000    0.000    0.000    0.000    0.000    0.000 
#
# Total GULP energy -156414.532506 kJ/mol
# GULP energy per Si atom -5586.233304 kJ/mol
# Density = 1.803526 g / cm^3
# Si number density = 18.076404 Si / 1000 Ang^3
#
#
#
# Elastic Constant Matrix: (Units=GPa)
#
#
# Indices 1 2 3 4 5 6 
#
# 1 86.3903 28.7888 31.2564 0.0000 11.2673 0.0000
# 2 28.7888 73.6068 23.9432 0.0000 7.6230 0.0000
# 3 31.2564 23.9432 95.7934 0.0000 23.1005 0.0000
# 4 0.0000 0.0000 0.0000 31.0748 0.0000 4.1830
# 5 11.2673 7.6230 23.1005 0.0000 21.4894 0.0000
# 6 0.0000 0.0000 0.0000 4.1830 0.0000 28.2013
#
#
#
# Elastic Compliance Matrix: (Units=1/GPa)
#
#
# Indices 1 2 3 4 5 6 
#
# 1 0.014481 -0.004413 -0.002927 0.000000 -0.002880 0.000000
# 2 -0.004413 0.016180 -0.002400 0.000000 -0.000845 0.000000
# 3 -0.002927 -0.002400 0.015415 0.000000 -0.014184 0.000000
# 4 0.000000 0.000000 0.000000 0.032836 0.000000 -0.004870
# 5 -0.002880 -0.000845 -0.014184 0.000000 0.063592 0.000000
# 6 0.000000 0.000000 0.000000 -0.004870 0.000000 0.036182
#
#
# Mechanical properties :
#
#
# Convention : Reuss Voigt Hill
#
# Bulk Modulus (GPa) = 37.60241 47.08525 42.34383
# Shear Modulus (GPa) = 24.15087 27.60656 25.87872
#
# Velocity S-wave (km/s) = 3.65916 3.91220 3.78779
# Velocity P-wave (km/s) = 6.22091 6.81994 6.52730
#
# Compressibility (1/GPa) = 0.02659404
#
# Stress axis : x y z
#
# Youngs Moduli (GPa) = 69.05698 61.80426 64.87311
#
# Poissons Ratio (x) = 0.27275 0.18990
# Poissons Ratio (y) = 0.30476 0.15572
# Poissons Ratio (z) = 0.20215 0.14835
#
# Static dielectric constant tensor:
#      x y z
#    x 1.614910 0.000000 0.009080 
#    y 0.000000 1.604770 0.000000 
#    z 0.009080 0.000000 1.608030 
# 
# From -- ./inp_files/314439.got.cif
#   From: 2010.05.17/outbox.cif.g08.bks.cpg/sg12_158_cif.got.tgz:314439.got - 2010.06.03 13:09:07.
