data_PCOD9173892
_publ_section_title
;
Structure prediction by ZEFSAII (Michael W. Deem and Ramdas Pophale) SiO2 
 PCOD9173892
Probable space group: C 2/M
;
_chemical_formula_sum "Si O2"
_cell_formula_units_Z 64
_cell_length_a 10.494756
_cell_length_b 26.180899
_cell_length_c 17.384676
_cell_angle_alpha 90.000000
_cell_angle_beta 125.093937
_cell_angle_gamma 90.000000
_cell_volume 3908.306206
_symmetry_space_group_name_H-M "C 2/M"
_symmetry_group_IT_number 12
_symmetry_cell_setting 'monoclinic'
loop_
_space_group_symop_operation_xyz
x,y,z
-x,y,-z
-x,-y,-z
x,-y,z
1/2+x,1/2+y,z
1/2-x,1/2+y,-z
1/2-x,1/2-y,-z
1/2+x,1/2-y,z
loop_
_atom_site_type_symbol
_atom_site_label
_atom_site_fract_x
_atom_site_fract_y
_atom_site_fract_z
Si Si1 0.354959 0.057024 0.197770
Si Si2 0.353801 0.607359 0.003456
Si Si3 0.152272 0.840274 0.296096
Si Si4 0.956235 0.341787 0.295652
Si Si5 0.145364 0.306453 0.009984
Si Si6 0.080778 0.750815 0.835217
Si Si7 0.054144 0.943335 0.203462
Si Si8 0.349281 0.203305 0.500554
O O1 0.470182 0.102277 0.263067
O O2 0.218176 0.054309 0.214442
O O3 0.420379 0.000000 0.212003
O O4 0.265349 0.075691 0.090399
O O5 0.263189 0.654988 0.008620
O O6 0.426756 0.572634 0.095710
O O7 0.500000 0.623635 0.000000
O O8 0.289669 0.840705 0.280697
O O9 0.069956 0.895415 0.265864
O O10 0.234798 0.827920 0.405115
O O11 0.035687 0.795532 0.230118
O O12 0.949602 0.297575 0.229572
O O13 0.082686 0.328625 0.404354
O O14 0.246056 0.274657 0.106597
O O15 0.075319 0.268626 0.921223
O O16 0.000000 0.333376 0.000000
O O17 0.023638 0.000000 0.224452
O O18 0.500000 0.218676 0.500000
O O19 0.250000 0.250000 0.500000
#
# Coordination Sequence:
#
# PCOD9173892 Si02
#       8
#     8   8   8   8   8   8   8   8
#     4   9  17  30  50  75 100 131 174 217 255 300
#     4  10  18  31  51  74 100 136 175 214 251 301
#     4  10  19  32  51  76 103 132 169 215 258 301
#     4  10  19  32  51  76 103 132 169 215 258 301
#     4  11  23  32  46  78 109 138 171 208 258 311
#     4  11  20  33  50  68 104 147 168 205 250 316
#     4   9  17  30  50  75 100 131 174 217 255 300
#     4  10  20  34  53  79 109 135 168 211 258 306
#
# _framework density 16.37538
#
# number of rings (size 3 to 8) (size 9 to 14) (size 15 to 20)
#    0.000    2.000    3.750    1.125    0.000    3.500 
#    0.000    0.625    0.000    5.250    0.000    0.000 
#    0.000    1.000    0.000    0.000    0.000    0.000 
#
# Total GULP energy -178287.133868 kJ/mol
# GULP energy per Si atom -5571.472933 kJ/mol
# Density = 1.633811 g / cm^3
# Si number density = 16.375380 Si / 1000 Ang^3
#
#
#
# Elastic Constant Matrix: (Units=GPa)
#
#
# Indices 1 2 3 4 5 6 
#
# 1 38.8079 35.4577 25.5073 0.0000 9.2887 0.0000
# 2 35.4577 159.3916 72.0292 0.0000 7.9791 0.0000
# 3 25.5073 72.0292 121.0818 0.0000 11.4852 0.0000
# 4 0.0000 0.0000 0.0000 6.0428 0.0000 0.4188
# 5 9.2887 7.9791 11.4852 0.0000 9.5093 0.0000
# 6 0.0000 0.0000 0.0000 0.4188 0.0000 19.3893
#
#
#
# Elastic Compliance Matrix: (Units=1/GPa)
#
#
# Indices 1 2 3 4 5 6 
#
# 1 0.040628 -0.006754 -0.001484 0.000000 -0.032225 0.000000
# 2 -0.006754 0.009715 -0.004754 0.000000 0.004187 0.000000
# 3 -0.001484 -0.004754 0.012292 0.000000 -0.009407 0.000000
# 4 0.000000 0.000000 0.000000 0.165734 0.000000 -0.003580
# 5 -0.032225 0.004187 -0.009407 0.000000 0.144487 0.000000
# 6 0.000000 0.000000 0.000000 -0.003580 0.000000 0.051652
#
#
# Mechanical properties :
#
#
# Convention : Reuss Voigt Hill
#
# Bulk Modulus (GPa) = 27.28455 65.02999 46.15727
# Shear Modulus (GPa) = 10.80597 19.40743 15.10670
#
# Velocity S-wave (km/s) = 2.57162 3.44635 3.04061
# Velocity P-wave (km/s) = 5.05131 7.45887 6.36987
#
# Compressibility (1/GPa) = 0.03665078
#
# Stress axis : x y z
#
# Youngs Moduli (GPa) = 24.61384 102.93525 81.35619
#
# Poissons Ratio (x) = 0.69522 0.12074
# Poissons Ratio (y) = 0.16624 0.38673
# Poissons Ratio (z) = 0.03653 0.48930
#
# Static dielectric constant tensor:
#      x y z
#    x 1.560350 0.000000 -0.001750 
#    y 0.000000 1.566800 0.000000 
#    z -0.001750 0.000000 1.545390 
# 
# From -- ./inp_files/265540.got.cif
#   From: 2010.05.17/outbox.cif.g08.bks.cpg/sg12_133_cif.got.tgz:265540.got - 2010.06.03 13:09:07.
