data_PCOD9173815
_publ_section_title
;
Structure prediction by ZEFSAII (Michael W. Deem and Ramdas Pophale) SiO2 
 PCOD9173815
Probable space group: C 2/M
;
_chemical_formula_sum "Si O2"
_cell_formula_units_Z 64
_cell_length_a 20.346938
_cell_length_b 19.809901
_cell_length_c 20.259307
_cell_angle_alpha 90.000000
_cell_angle_beta 151.184386
_cell_angle_gamma 90.000000
_cell_volume 3935.919434
_symmetry_space_group_name_H-M "C 2/M"
_symmetry_group_IT_number 12
_symmetry_cell_setting 'monoclinic'
loop_
_space_group_symop_operation_xyz
x,y,z
-x,y,-z
-x,-y,-z
x,-y,z
1/2+x,1/2+y,z
1/2-x,1/2+y,-z
1/2-x,1/2-y,-z
1/2+x,1/2-y,z
loop_
_atom_site_type_symbol
_atom_site_label
_atom_site_fract_x
_atom_site_fract_y
_atom_site_fract_z
Si Si1 0.483554 0.576593 0.196343
Si Si2 0.198315 0.575717 0.484281
Si Si3 0.978728 0.627076 0.553358
Si Si4 0.655845 0.792374 0.366708
Si Si5 0.717246 0.777695 0.800142
Si Si6 0.012378 0.140245 0.936789
Si Si7 0.249721 0.766172 0.317098
Si Si8 0.375830 0.716917 0.149268
O O1 0.445332 0.500000 0.181285
O O2 0.643814 0.586152 0.355411
O O3 0.466414 0.587329 0.102749
O O4 0.400556 0.638114 0.156005
O O5 0.185223 0.500000 0.447037
O O6 0.101805 0.584709 0.463296
O O7 0.156474 0.632233 0.395044
O O8 0.883092 0.692402 0.455997
O O9 0.000000 0.594398 0.500000
O O10 0.121006 0.656673 0.704811
O O11 0.750000 0.750000 0.500000
O O12 0.712241 0.784953 0.342253
O O13 0.509246 0.757314 0.242892
O O14 0.729422 0.742010 0.739555
O O15 0.650649 0.731612 0.797211
O O16 0.863918 0.805949 0.951783
O O17 0.874366 0.180477 0.798000
O O18 0.000000 0.111859 0.000000
O O19 0.250000 0.750000 0.000000
#
# Coordination Sequence:
#
# PCOD9173815 Si02
#       8
#     8   8   8   8   8   8   8   8
#     4  11  22  36  53  77 109 145 179 214 265 322
#     4  11  22  35  53  78 107 143 182 221 263 315
#     4  10  18  31  50  75 103 136 171 213 266 310
#     4  12  18  34  58  75 100 141 184 220 256 311
#     4  10  20  30  52  81 107 129 172 226 263 303
#     4  10  18  33  52  76 107 142 177 205 253 326
#     4  10  18  32  52  77 103 137 176 216 261 310
#     4  12  20  34  56  82 104 139 177 224 264 306
#
# _framework density 16.260494999999999
#
# number of rings (size 3 to 8) (size 9 to 14) (size 15 to 20)
#    0.000    1.250    7.500    0.000    0.000    0.500 
#    0.000    2.500    0.000    0.750    0.000    1.750 
#    0.000    5.000    0.000    0.000    0.000    0.000 
#
# Total GULP energy -178496.987664 kJ/mol
# GULP energy per Si atom -5578.030864 kJ/mol
# Density = 1.622349 g / cm^3
# Si number density = 16.260495 Si / 1000 Ang^3
#
#
#
# Elastic Constant Matrix: (Units=GPa)
#
#
# Indices 1 2 3 4 5 6 
#
# 1 93.2270 39.6747 9.2154 0.0003 -8.3082 0.0003
# 2 39.6747 95.1378 15.7488 -0.0004 -8.0122 -0.0002
# 3 9.2154 15.7488 57.2436 -0.0006 6.3386 -0.0003
# 4 0.0003 -0.0004 -0.0006 15.3884 -0.0006 -0.5122
# 5 -8.3082 -8.0122 6.3386 -0.0006 26.0786 -0.0005
# 6 0.0003 -0.0002 -0.0003 -0.5122 -0.0005 17.2779
#
#
#
# Elastic Compliance Matrix: (Units=1/GPa)
#
#
# Indices 1 2 3 4 5 6 
#
# 1 0.013266 -0.005113 -0.001051 0.000000 0.002911 0.000000
# 2 -0.005113 0.013458 -0.003244 0.000000 0.003294 0.000000
# 3 -0.001051 -0.003244 0.019195 0.000000 -0.005997 0.000000
# 4 0.000000 0.000000 0.000000 0.065048 0.000002 0.001928
# 5 0.002911 0.003294 -0.005997 0.000002 0.041743 0.000001
# 6 0.000000 0.000000 0.000000 0.001928 0.000001 0.057934
#
#
# Mechanical properties :
#
#
# Convention : Reuss Voigt Hill
#
# Bulk Modulus (GPa) = 36.89791 41.65404 39.27597
# Shear Modulus (GPa) = 20.96484 23.81363 22.38923
#
# Velocity S-wave (km/s) = 3.59459 3.83104 3.71470
# Velocity P-wave (km/s) = 6.32212 6.72618 6.52727
#
# Compressibility (1/GPa) = 0.02710181
#
# Stress axis : x y z
#
# Youngs Moduli (GPa) = 75.38206 74.30666 52.09682
#
# Poissons Ratio (x) = 0.37993 0.05477
# Poissons Ratio (y) = 0.38543 0.16901
# Poissons Ratio (z) = 0.07925 0.24106
#
# Static dielectric constant tensor:
#      x y z
#    x 1.581920 0.000000 -0.000290 
#    y 0.000000 1.517800 0.000000 
#    z -0.000290 0.000000 1.556430 
# 
# From -- ./inp_files/322467.got.cif
#   From: 2010.05.17/outbox.cif.g08.bks.cpg/sg12_162_cif.got.tgz:322467.got - 2010.06.03 13:09:07.
