data_PCOD9173954
_publ_section_title
;
Structure prediction by ZEFSAII (Michael W. Deem and Ramdas Pophale) SiO2 
 PCOD9173954
Probable space group: C 2/M
;
_chemical_formula_sum "Si O2"
_cell_formula_units_Z 40
_cell_length_a 20.989701
_cell_length_b 8.556336
_cell_length_c 18.567206
_cell_angle_alpha 90.000000
_cell_angle_beta 136.354805
_cell_angle_gamma 90.000000
_cell_volume 2301.492965
_symmetry_space_group_name_H-M "C 2/M"
_symmetry_group_IT_number 12
_symmetry_cell_setting 'monoclinic'
loop_
_space_group_symop_operation_xyz
x,y,z
-x,y,-z
-x,-y,-z
x,-y,z
1/2+x,1/2+y,z
1/2-x,1/2+y,-z
1/2-x,1/2-y,-z
1/2+x,1/2-y,z
loop_
_atom_site_type_symbol
_atom_site_label
_atom_site_fract_x
_atom_site_fract_y
_atom_site_fract_z
Si Si1 0.035910 0.810237 0.271759
Si Si2 0.822710 0.187841 0.500211
Si Si3 0.394785 0.187159 0.932078
Si Si4 0.809134 0.812780 0.719005
Si Si5 0.346253 0.312686 0.049415
O O1 0.079410 0.764697 0.384428
O O2 0.107489 0.762286 0.267024
O O3 0.035510 0.000000 0.270406
O O4 0.933761 0.756044 0.168565
O O5 0.750000 0.250000 0.500000
O O6 0.785917 0.256751 0.395485
O O7 0.818444 0.000000 0.493613
O O8 0.330559 0.242452 0.814086
O O9 0.364270 0.258646 0.982717
O O10 0.392984 0.000000 0.935658
O O11 0.500000 0.236729 0.000000
O O12 0.810215 0.000000 0.723219
O O13 0.345256 0.500000 0.050924
O O14 0.250000 0.250000 0.000000
#
# Coordination Sequence:
#
# PCOD9173954 Si02
#       5
#     8   8   8   8   8
#     4   8  16  30  50  73 104 141 176 212 264 320
#     4   9  16  28  46  74 105 138 174 217 266 318
#     4  11  22  35  54  82 110 140 180 227 271 318
#     4  10  18  31  51  78 107 141 175 216 271 322
#     4  11  22  38  56  78 109 147 184 221 266 323
#
# _framework density 17.380023000000001
#
# number of rings (size 3 to 8) (size 9 to 14) (size 15 to 20)
#    0.000    2.200    2.000    3.600    0.000    0.800 
#    0.000    3.000    0.000    1.200    0.000    8.400 
#    0.000    0.000    0.000    0.000    0.000    0.000 
#
# Total GULP energy -111507.608252 kJ/mol
# GULP energy per Si atom -5575.380413 kJ/mol
# Density = 1.734047 g / cm^3
# Si number density = 17.380023 Si / 1000 Ang^3
#
#
#
# Elastic Constant Matrix: (Units=GPa)
#
#
# Indices 1 2 3 4 5 6 
#
# 1 84.9773 26.5787 67.5773 0.0000 5.3066 0.0000
# 2 26.5787 47.4787 31.9994 0.0000 0.6304 0.0000
# 3 67.5773 31.9994 197.2208 0.0000 -0.5107 0.0000
# 4 0.0000 0.0000 0.0000 26.6677 0.0000 -3.5579
# 5 5.3066 0.6304 -0.5107 0.0000 18.0584 0.0000
# 6 0.0000 0.0000 0.0000 -3.5579 0.0000 23.0472
#
#
#
# Elastic Compliance Matrix: (Units=1/GPa)
#
#
# Indices 1 2 3 4 5 6 
#
# 1 0.018333 -0.006680 -0.005212 0.000000 -0.005301 0.000000
# 2 -0.006680 0.026098 -0.001943 0.000000 0.000997 0.000000
# 3 -0.005212 -0.001943 0.007176 0.000000 0.001802 0.000000
# 4 0.000000 0.000000 0.000000 0.038287 0.000000 0.005911
# 5 -0.005301 0.000997 0.001802 0.000000 0.056950 0.000000
# 6 0.000000 0.000000 0.000000 0.005911 0.000000 0.044302
#
#
# Mechanical properties :
#
#
# Convention : Reuss Voigt Hill
#
# Bulk Modulus (GPa) = 41.77502 64.66531 53.22017
# Shear Modulus (GPa) = 22.04652 27.12274 24.58463
#
# Velocity S-wave (km/s) = 3.56546 3.95469 3.76511
# Velocity P-wave (km/s) = 6.40612 7.62497 7.04197
#
# Compressibility (1/GPa) = 0.02393775
#
# Stress axis : x y z
#
# Youngs Moduli (GPa) = 54.54760 38.31743 139.35125
#
# Poissons Ratio (x) = 0.25595 0.72624
# Poissons Ratio (y) = 0.36437 0.27076
# Poissons Ratio (z) = 0.28428 0.07445
#
# Static dielectric constant tensor:
#      x y z
#    x 1.650940 0.000000 -0.077320 
#    y 0.000000 1.585860 0.000000 
#    z -0.077320 0.000000 1.711610 
# 
# From -- ./inp_files/221220.got.cif
#   From: 2010.05.17/outbox.cif.g08.bks.cpg/sg12_111_cif.got.tgz:221220.got - 2010.06.03 13:09:07.
