data_PCOD9173982
_publ_section_title
;
Structure prediction by ZEFSAII (Michael W. Deem and Ramdas Pophale) SiO2 
 PCOD9173982
Probable space group: C 2/M
;
_chemical_formula_sum "Si O2"
_cell_formula_units_Z 52
_cell_length_a 9.141055
_cell_length_b 32.876150
_cell_length_c 16.001993
_cell_angle_alpha 90.000000
_cell_angle_beta 142.971805
_cell_angle_gamma 90.000000
_cell_volume 2895.995213
_symmetry_space_group_name_H-M "C 2/M"
_symmetry_group_IT_number 12
_symmetry_cell_setting 'monoclinic'
loop_
_space_group_symop_operation_xyz
x,y,z
-x,y,-z
-x,-y,-z
x,-y,z
1/2+x,1/2+y,z
1/2-x,1/2+y,-z
1/2-x,1/2-y,-z
1/2+x,1/2-y,z
loop_
_atom_site_type_symbol
_atom_site_label
_atom_site_fract_x
_atom_site_fract_y
_atom_site_fract_z
Si Si1 0.000000 0.622030 0.000000
Si Si2 0.467473 0.862772 0.317561
Si Si3 0.784090 0.707664 0.469077
Si Si4 0.978892 0.153920 0.777197
Si Si5 0.156631 0.088682 0.417258
Si Si6 0.708223 0.000000 0.344333
Si Si7 0.291976 0.000000 0.471999
Si Si8 0.646429 0.089257 0.244364
O O1 0.235421 0.648379 0.081509
O O2 0.065629 0.595941 0.111973
O O3 0.641420 0.825753 0.427228
O O4 0.199369 0.847748 0.223648
O O5 0.584179 0.899593 0.425751
O O6 0.503004 0.880152 0.240720
O O7 0.750000 0.750000 0.500000
O O8 0.571676 0.690298 0.312161
O O9 0.000000 0.710463 0.500000
O O10 0.884659 0.114455 0.683928
O O11 0.933746 0.100012 0.376233
O O12 0.140337 0.041013 0.394094
O O13 0.634820 0.042052 0.266604
O O14 0.000000 0.000000 0.500000
O O15 0.593397 0.000000 0.383743
O O16 0.500000 0.000000 0.500000
#
# Coordination Sequence:
#
# PCOD9173982 Si02
#       8
#     4   8   8   8   8   4   4   8
#     4  10  24  39  54  76 108 166 194 216 272 331
#     4  10  18  33  57  82 110 141 183 240 280 321
#     4   9  19  34  59  93 120 140 172 230 292 329
#     4   9  20  37  55  79 115 147 188 223 270 342
#     4  10  18  31  51  84 109 138 179 236 298 327
#     4  12  20  35  54  84 111 139 190 249 294 331
#     4  12  20  28  50  82 117 138 174 234 307 342
#     4  11  21  35  55  77 112 149 192 234 276 342
#
# _framework density 17.955832000000001
#
# number of rings (size 3 to 8) (size 9 to 14) (size 15 to 20)
#    0.000    1.846    3.077    2.769    0.000    4.615 
#    0.000    0.769    0.000    9.231    0.000    0.000 
#    0.000    0.000    0.000    0.000    0.000    0.000 
#
# Total GULP energy -144739.230987 kJ/mol
# GULP energy per Si atom -5566.893499 kJ/mol
# Density = 1.791496 g / cm^3
# Si number density = 17.955832 Si / 1000 Ang^3
#
#
#
# Elastic Constant Matrix: (Units=GPa)
#
#
# Indices 1 2 3 4 5 6 
#
# 1 111.0113 31.0735 43.7077 0.0000 -6.1817 0.0000
# 2 31.0735 106.0352 21.9090 0.0000 -13.9393 0.0000
# 3 43.7077 21.9090 72.9887 0.0000 1.2935 0.0000
# 4 0.0000 0.0000 0.0000 14.9792 0.0000 -6.9850
# 5 -6.1817 -13.9393 1.2935 0.0000 28.5818 0.0000
# 6 0.0000 0.0000 0.0000 -6.9850 0.0000 27.5311
#
#
#
# Elastic Compliance Matrix: (Units=1/GPa)
#
#
# Indices 1 2 3 4 5 6 
#
# 1 0.012365 -0.001938 -0.006859 0.000000 0.002039 0.000000
# 2 -0.001938 0.011141 -0.002274 0.000000 0.005117 0.000000
# 3 -0.006859 -0.002274 0.018551 0.000000 -0.003432 0.000000
# 4 0.000000 0.000000 0.000000 0.075718 0.000000 0.019210
# 5 0.002039 0.005117 -0.003432 0.000000 0.038079 0.000000
# 6 0.000000 0.000000 0.000000 0.019210 0.000000 0.041197
#
#
# Mechanical properties :
#
#
# Convention : Reuss Voigt Hill
#
# Bulk Modulus (GPa) = 50.21320 53.71284 51.96302
# Shear Modulus (GPa) = 22.14038 27.10807 24.62423
#
# Velocity S-wave (km/s) = 3.51529 3.88971 3.70723
# Velocity P-wave (km/s) = 6.67097 7.08180 6.87946
#
# Compressibility (1/GPa) = 0.01991508
#
# Stress axis : x y z
#
# Youngs Moduli (GPa) = 80.87618 89.75461 53.90423
#
# Poissons Ratio (x) = 0.17396 0.36971
# Poissons Ratio (y) = 0.15676 0.12260
# Poissons Ratio (z) = 0.55470 0.20414
#
# Static dielectric constant tensor:
#      x y z
#    x 1.692380 0.000000 0.009420 
#    y 0.000000 1.640030 0.000000 
#    z 0.009420 0.000000 1.629960 
# 
# From -- ./inp_files/201385.got.cif
#   From: 2010.05.17/outbox.cif.g08.bks.cpg/sg12_101_cif.got.tgz:201385.got - 2010.06.03 13:09:07.
