data_PCOD9173225
_publ_section_title
;
Structure prediction by ZEFSAII (Michael W. Deem and Ramdas Pophale) SiO2 
 PCOD9173225
Probable space group: C 2/M
;
_chemical_formula_sum "Si O2"
_cell_formula_units_Z 48
_cell_length_a 14.983878
_cell_length_b 14.743041
_cell_length_c 20.892068
_cell_angle_alpha 90.000000
_cell_angle_beta 152.970306
_cell_angle_gamma 90.000000
_cell_volume 2097.398496
_symmetry_space_group_name_H-M "C 2/M"
_symmetry_group_IT_number 12
_symmetry_cell_setting 'monoclinic'
loop_
_space_group_symop_operation_xyz
x,y,z
-x,y,-z
-x,-y,-z
x,-y,z
1/2+x,1/2+y,z
1/2-x,1/2+y,-z
1/2-x,1/2-y,-z
1/2+x,1/2-y,z
loop_
_atom_site_type_symbol
_atom_site_label
_atom_site_fract_x
_atom_site_fract_y
_atom_site_fract_z
Si Si1 0.078536 0.599845 0.234528
Si Si2 0.613435 0.268417 0.633444
Si Si3 0.789401 0.251028 0.874926
Si Si4 0.781065 0.107844 0.485840
Si Si5 0.835884 0.155523 0.029627
Si Si6 0.973206 0.107929 0.730569
O O1 0.168049 0.500000 0.281845
O O2 0.201177 0.673992 0.274566
O O3 0.097852 0.626271 0.322416
O O4 0.850600 0.594079 0.073298
O O5 0.500000 0.225497 0.500000
O O6 0.694543 0.217476 0.747755
O O7 0.457359 0.340628 0.562809
O O8 0.846222 0.171476 0.960892
O O9 0.643201 0.326752 0.810964
O O10 0.000000 0.298785 0.000000
O O11 0.789594 0.132030 0.566577
O O12 0.811626 0.000000 0.503026
O O13 0.750000 0.250000 0.000000
O O14 0.023729 0.129345 0.191848
O O15 0.010777 0.000000 0.748141
#
# Coordination Sequence:
#
# PCOD9173225 Si02
#       6
#     8   8   8   8   8   8
#     4  10  18  30  51  74  95 122 155 192 233 277
#     4   9  16  28  46  71  98 124 152 184 229 281
#     4  10  20  33  46  65  97 129 156 192 233 273
#     4   8  15  27  45  73 102 121 144 186 236 281
#     4  10  20  32  44  66  97 128 160 192 228 272
#     4   9  17  31  51  73  95 119 152 193 234 278
#
# _framework density 22.885494000000001
#
# number of rings (size 3 to 8) (size 9 to 14) (size 15 to 20)
#    0.000    2.667    0.000    3.000    0.000    3.000 
#    0.000   15.000    0.000    2.000    0.000    0.000 
#    0.000    6.667    0.000    0.000    0.000    0.000 
#
# Total GULP energy -133672.904870 kJ/mol
# GULP energy per Si atom -5569.704370 kJ/mol
# Density = 2.283341 g / cm^3
# Si number density = 22.885494 Si / 1000 Ang^3
#
#
#
# Elastic Constant Matrix: (Units=GPa)
#
#
# Indices 1 2 3 4 5 6 
#
# 1 54.6129 9.9841 39.6923 0.0014 -31.4258 -0.0002
# 2 9.9841 37.5059 6.1737 -0.0001 -3.1968 -0.0005
# 3 39.6923 6.1737 133.8018 -0.0016 -53.4475 0.0004
# 4 0.0014 -0.0001 -0.0016 26.2750 -0.0003 -8.5832
# 5 -31.4258 -3.1968 -53.4475 -0.0003 49.7745 0.0010
# 6 -0.0002 -0.0005 0.0004 -8.5832 0.0010 9.9481
#
#
#
# Elastic Compliance Matrix: (Units=1/GPa)
#
#
# Indices 1 2 3 4 5 6 
#
# 1 0.030587 -0.006374 -0.002152 -0.000003 0.016591 -0.000004
# 2 -0.006374 0.028208 -0.000516 0.000001 -0.002766 0.000003
# 3 -0.002152 -0.000516 0.013273 0.000001 0.012861 -0.000001
# 4 -0.000003 0.000001 0.000001 0.052996 -0.000002 0.045725
# 5 0.016591 -0.002766 0.012861 -0.000002 0.044198 -0.000006
# 6 -0.000004 0.000003 -0.000001 0.045725 -0.000006 0.139974
#
#
# Mechanical properties :
#
#
# Convention : Reuss Voigt Hill
#
# Bulk Modulus (GPa) = 18.52361 37.51339 28.01850
# Shear Modulus (GPa) = 14.47952 28.53755 21.50853
#
# Velocity S-wave (km/s) = 2.51807 3.53508 3.06899
# Velocity P-wave (km/s) = 4.07012 5.75237 4.98275
#
# Compressibility (1/GPa) = 0.05398516
#
# Stress axis : x y z
#
# Youngs Moduli (GPa) = 32.69341 35.45050 75.33944
#
# Poissons Ratio (x) = 0.22596 0.16214
# Poissons Ratio (y) = 0.20839 0.03886
# Poissons Ratio (z) = 0.07036 0.01828
#
# Static dielectric constant tensor:
#      x y z
#    x 1.913250 0.000000 -0.070720 
#    y 0.000000 2.421120 0.000000 
#    z -0.070720 0.000000 1.967080 
# 
# From -- ./inp_files/317051.got.cif
#   From: 2010.05.17/outbox.cif.g08.bks.cpg/sg12_159_cif.got.tgz:317051.got - 2010.06.03 13:09:07.
