data_PCOD9173702
_publ_section_title
;
Structure prediction by ZEFSAII (Michael W. Deem and Ramdas Pophale) SiO2 
 PCOD9173702
Probable space group: C 2/M
;
_chemical_formula_sum "Si O2"
_cell_formula_units_Z 64
_cell_length_a 13.266947
_cell_length_b 11.467517
_cell_length_c 22.175038
_cell_angle_alpha 90.000000
_cell_angle_beta 104.089778
_cell_angle_gamma 90.000000
_cell_volume 3272.190975
_symmetry_space_group_name_H-M "C 2/M"
_symmetry_group_IT_number 12
_symmetry_cell_setting 'monoclinic'
loop_
_space_group_symop_operation_xyz
x,y,z
-x,y,-z
-x,-y,-z
x,-y,z
1/2+x,1/2+y,z
1/2-x,1/2+y,-z
1/2-x,1/2-y,-z
1/2+x,1/2-y,z
loop_
_atom_site_type_symbol
_atom_site_label
_atom_site_fract_x
_atom_site_fract_y
_atom_site_fract_z
Si Si1 0.038452 0.632361 0.855885
Si Si2 0.157998 0.369780 0.355751
Si Si3 0.019885 0.803088 0.255828
Si Si4 0.722159 0.375311 0.224287
Si Si5 0.994500 0.637823 0.568187
Si Si6 0.605396 0.866475 0.054059
Si Si7 0.767854 0.866048 0.918770
Si Si8 0.640290 0.292817 0.674568
O O1 0.038959 0.500000 0.831955
O O2 0.038265 0.725610 0.802783
O O3 0.143836 0.643769 0.910283
O O4 0.937627 0.644806 0.883488
O O5 0.124337 0.500000 0.335070
O O6 0.278580 0.358274 0.356678
O O7 0.091265 0.282852 0.305761
O O8 0.119967 0.348849 0.418607
O O9 0.939863 0.857875 0.292101
O O10 0.104684 0.875886 0.231919
O O11 0.771910 0.500000 0.245803
O O12 0.720432 0.362574 0.152229
O O13 0.787408 0.278896 0.268564
O O14 0.020350 0.500000 0.572962
O O15 0.073418 0.707777 0.622222
O O16 0.000000 0.677748 0.500000
O O17 0.674120 0.751298 0.050434
O O18 0.650069 0.000000 0.053917
O O19 0.500000 0.863768 0.000000
O O20 0.799883 0.000000 0.942481
#
# Coordination Sequence:
#
# PCOD9173702 Si02
#       8
#     8   8   8   8   8   8   8   8
#     4  10  19  33  55  77 104 140 175 213 263 320
#     4   9  19  32  48  73 102 132 169 211 254 305
#     4  10  18  31  49  73 102 134 170 205 257 313
#     4  10  19  31  49  75 104 131 167 215 261 310
#     4   9  18  33  52  73  98 132 175 215 250 298
#     4  10  22  40  58  78 108 144 181 222 267 319
#     4  10  20  35  56  81 106 137 178 222 268 319
#     4  10  19  31  51  74 102 134 168 209 261 311
#
# _framework density 19.558761000000001
#
# number of rings (size 3 to 8) (size 9 to 14) (size 15 to 20)
#    0.000    2.250    2.500    0.750    0.000    2.750 
#    0.000    1.250    0.000    0.375    0.000    0.000 
#    0.000    0.000    0.000    0.000    0.000    0.000 
#
# Total GULP energy -178192.995928 kJ/mol
# GULP energy per Si atom -5568.531123 kJ/mol
# Density = 1.951424 g / cm^3
# Si number density = 19.558761 Si / 1000 Ang^3
#
#
#
# Elastic Constant Matrix: (Units=GPa)
#
#
# Indices 1 2 3 4 5 6 
#
# 1 104.6697 28.1311 15.0657 0.0000 -16.9898 0.0000
# 2 28.1311 90.0628 14.3965 0.0000 1.8551 0.0000
# 3 15.0657 14.3965 52.6333 0.0000 -14.3888 0.0000
# 4 0.0000 0.0000 0.0000 23.3011 0.0000 6.0412
# 5 -16.9898 1.8551 -14.3888 0.0000 28.2406 0.0000
# 6 0.0000 0.0000 0.0000 6.0412 0.0000 18.0850
#
#
#
# Elastic Compliance Matrix: (Units=1/GPa)
#
#
# Indices 1 2 3 4 5 6 
#
# 1 0.011780 -0.003764 -0.000392 0.000000 0.007134 0.000000
# 2 -0.003764 0.013003 -0.003871 0.000000 -0.005091 0.000000
# 3 -0.000392 -0.003871 0.023440 0.000000 0.011962 0.000000
# 4 0.000000 0.000000 0.000000 0.046986 0.000000 -0.015695
# 5 0.007134 -0.005091 0.011962 0.000000 0.046131 0.000000
# 6 0.000000 0.000000 0.000000 -0.015695 0.000000 0.060537
#
#
# Mechanical properties :
#
#
# Convention : Reuss Voigt Hill
#
# Bulk Modulus (GPa) = 31.08520 40.28358 35.68439
# Shear Modulus (GPa) = 21.86716 26.57683 24.22200
#
# Velocity S-wave (km/s) = 3.34731 3.69022 3.52294
# Velocity P-wave (km/s) = 5.55582 6.22879 5.90190
#
# Compressibility (1/GPa) = 0.03216965
#
# Stress axis : x y z
#
# Youngs Moduli (GPa) = 84.89059 76.90783 42.66142
#
# Poissons Ratio (x) = 0.28946 0.01672
# Poissons Ratio (y) = 0.31951 0.16514
# Poissons Ratio (z) = 0.03328 0.29770
#
# Static dielectric constant tensor:
#      x y z
#    x 1.746960 0.000000 -0.045700 
#    y 0.000000 1.693740 0.000000 
#    z -0.045700 0.000000 1.666600 
# 
# From -- ./inp_files/309947.got.cif
#   From: 2010.05.17/outbox.cif.g08.bks.cpg/sg12_155_cif.got.tgz:309947.got - 2010.06.03 13:09:07.
