data_PCOD9173316
_publ_section_title
;
Structure prediction by ZEFSAII (Michael W. Deem and Ramdas Pophale) SiO2 
 PCOD9173316
Probable space group: C 2/M
;
_chemical_formula_sum "Si O2"
_cell_formula_units_Z 56
_cell_length_a 20.447600
_cell_length_b 7.739637
_cell_length_c 19.183724
_cell_angle_alpha 90.000000
_cell_angle_beta 46.512024
_cell_angle_gamma 90.000000
_cell_volume 2202.645105
_symmetry_space_group_name_H-M "C 2/M"
_symmetry_group_IT_number 12
_symmetry_cell_setting 'monoclinic'
loop_
_space_group_symop_operation_xyz
x,y,z
-x,y,-z
-x,-y,-z
x,-y,z
1/2+x,1/2+y,z
1/2-x,1/2+y,-z
1/2-x,1/2-y,-z
1/2+x,1/2-y,z
loop_
_atom_site_type_symbol
_atom_site_label
_atom_site_fract_x
_atom_site_fract_y
_atom_site_fract_z
Si Si1 0.131349 0.205728 0.649144
Si Si2 0.806151 0.296698 0.172913
Si Si3 0.027675 0.302319 0.587640
Si Si4 0.200116 0.289736 0.390522
Si Si5 0.027665 0.710788 0.869005
Si Si6 0.648840 0.194021 0.058766
Si Si7 0.358457 0.298508 0.789288
O O1 0.085570 0.295430 0.617005
O O2 0.232895 0.260036 0.595212
O O3 0.076230 0.241170 0.760789
O O4 0.128961 0.000000 0.637668
O O5 0.816847 0.500000 0.150719
O O6 0.566931 0.284266 0.325389
O O7 0.746754 0.277946 0.286746
O O8 0.904799 0.226995 0.119944
O O9 0.007053 0.500000 0.584760
O O10 0.098314 0.230887 0.479495
O O11 0.199918 0.500000 0.387519
O O12 0.025303 0.500000 0.875184
O O13 0.925254 0.777637 0.937528
O O14 0.607638 0.203132 0.166856
O O15 0.656400 0.000000 0.028672
O O16 0.761378 0.273128 0.836254
O O17 0.350169 0.500000 0.813673
O O18 0.250000 0.250000 0.000000
#
# Coordination Sequence:
#
# PCOD9173316 Si02
#       7
#     8   8   8   8   8   8   8
#     4  10  18  30  51  79 110 146 192 241 285 328
#     4   9  20  38  59  82 113 153 194 236 279 330
#     4  11  21  33  50  76 114 155 195 237 285 337
#     4   9  20  34  50  77 112 153 197 240 282 329
#     4   9  18  36  60  84 111 148 189 227 278 336
#     4  11  23  40  65  92 117 144 180 228 284 344
#     4  11  23  39  59  85 116 149 189 236 287 338
#
# _framework density 25.423976
#
# number of rings (size 3 to 8) (size 9 to 14) (size 15 to 20)
#    0.000    2.000    1.429    2.143    0.000    4.000 
#    0.000    3.571    0.000    4.286    0.000    0.000 
#    0.000    0.000    0.000    0.000    0.000    0.000 
#
# Total GULP energy -156535.154955 kJ/mol
# GULP energy per Si atom -5590.541248 kJ/mol
# Density = 2.536611 g / cm^3
# Si number density = 25.423976 Si / 1000 Ang^3
#
#
#
# Elastic Constant Matrix: (Units=GPa)
#
#
# Indices 1 2 3 4 5 6 
#
# 1 136.5036 -0.6083 50.7969 0.0007 -20.9951 0.0000
# 2 -0.6083 53.9346 10.7230 0.0024 -3.3081 -0.0008
# 3 50.7969 10.7230 148.0289 0.0001 -39.0064 -0.0002
# 4 0.0007 0.0024 0.0001 20.7722 -0.0005 -5.9858
# 5 -20.9951 -3.3081 -39.0064 -0.0005 51.4981 0.0000
# 6 0.0000 -0.0008 -0.0002 -5.9858 0.0000 8.2880
#
#
#
# Elastic Compliance Matrix: (Units=1/GPa)
#
#
# Indices 1 2 3 4 5 6 
#
# 1 0.008525 0.000702 -0.002559 0.000000 0.001582 0.000000
# 2 0.000702 0.018872 -0.001516 -0.000002 0.000351 0.000000
# 3 -0.002559 -0.001516 0.009299 0.000000 0.005902 0.000000
# 4 0.000000 -0.000002 0.000000 0.060794 0.000001 0.043907
# 5 0.001582 0.000351 0.005902 0.000001 0.024556 0.000000
# 6 0.000000 0.000000 0.000000 0.043907 0.000000 0.152367
#
#
# Mechanical properties :
#
#
# Convention : Reuss Voigt Hill
#
# Bulk Modulus (GPa) = 33.38960 51.14337 42.26649
# Shear Modulus (GPa) = 17.17379 34.61535 25.89457
#
# Velocity S-wave (km/s) = 2.60185 3.69389 3.19487
# Velocity P-wave (km/s) = 4.71039 6.19297 5.50185
#
# Compressibility (1/GPa) = 0.02994944
#
# Stress axis : x y z
#
# Youngs Moduli (GPa) = 117.30702 52.98941 107.54092
#
# Poissons Ratio (x) = -0.03720 0.27523
# Poissons Ratio (y) = -0.08235 0.16299
# Poissons Ratio (z) = 0.30022 0.08031
#
# Static dielectric constant tensor:
#      x y z
#    x 2.029680 0.000000 -0.004960 
#    y 0.000000 1.938010 0.000000 
#    z -0.004960 0.000000 2.068550 
# 
# From -- ./inp_files/362506.got.cif
#   From: 2010.05.17/outbox.cif.g08.bks.cpg/sg12_182_cif.got.tgz:362506.got - 2010.06.03 13:09:07.
