data_PCOD9173116
_publ_section_title
;
Structure prediction by ZEFSAII (Michael W. Deem and Ramdas Pophale) SiO2 
 PCOD9173116
Probable space group: C 2/M
;
_chemical_formula_sum "Si O2"
_cell_formula_units_Z 56
_cell_length_a 16.713079
_cell_length_b 18.702257
_cell_length_c 14.925774
_cell_angle_alpha 90.000000
_cell_angle_beta 144.228560
_cell_angle_gamma 90.000000
_cell_volume 2727.165382
_symmetry_space_group_name_H-M "C 2/M"
_symmetry_group_IT_number 12
_symmetry_cell_setting 'monoclinic'
loop_
_space_group_symop_operation_xyz
x,y,z
-x,y,-z
-x,-y,-z
x,-y,z
1/2+x,1/2+y,z
1/2-x,1/2+y,-z
1/2-x,1/2-y,-z
1/2+x,1/2-y,z
loop_
_atom_site_type_symbol
_atom_site_label
_atom_site_fract_x
_atom_site_fract_y
_atom_site_fract_z
Si Si1 0.885663 0.584165 0.584896
Si Si2 0.495175 0.576917 0.349180
Si Si3 0.647277 0.154249 0.878837
Si Si4 0.051330 0.808499 0.837639
Si Si5 0.264249 0.280486 0.615411
Si Si6 0.827370 0.418770 0.910048
Si Si7 0.741670 0.127044 0.337010
O O1 0.861020 0.500000 0.544743
O O2 0.814515 0.644021 0.456714
O O3 0.830708 0.603808 0.635474
O O4 0.047385 0.602552 0.733917
O O5 0.514677 0.500000 0.322460
O O6 0.512800 0.638326 0.292863
O O7 0.339156 0.580854 0.237999
O O8 0.613918 0.586129 0.529001
O O9 0.592410 0.235072 0.825577
O O10 0.807495 0.157367 0.999020
O O11 0.635949 0.130631 0.972798
O O12 0.923825 0.791847 0.784764
O O13 0.250000 0.250000 0.500000
O O14 0.221390 0.211238 0.633210
O O15 0.875151 0.500000 0.968660
O O16 0.853379 0.393529 0.832740
#
# Coordination Sequence:
#
# PCOD9173116 Si02
#       7
#     8   8   8   8   8   8   8
#     4  11  20  32  51  76 101 128 166 217 264 293
#     4  10  18  30  50  74  99 130 170 213 250 294
#     4  10  20  33  49  69 100 138 168 207 245 305
#     4  10  18  34  51  67  96 132 175 213 251 287
#     4  10  18  33  51  72  95 133 175 218 247 294
#     4  10  21  32  45  72 108 143 171 195 241 310
#     4  11  19  31  48  71 105 140 168 205 246 301
#
# _framework density 20.534141999999999
#
# number of rings (size 3 to 8) (size 9 to 14) (size 15 to 20)
#    0.000    1.714    5.714    2.143    0.000    2.286 
#    0.000    1.429    0.000    0.000    0.000    1.000 
#    0.000   24.000    0.000    1.286    0.000    0.286 
#
# Total GULP energy -156118.123951 kJ/mol
# GULP energy per Si atom -5575.647284 kJ/mol
# Density = 2.048741 g / cm^3
# Si number density = 20.534142 Si / 1000 Ang^3
#
#
#
# Elastic Constant Matrix: (Units=GPa)
#
#
# Indices 1 2 3 4 5 6 
#
# 1 11.1703 6.0429 2.9793 0.0000 13.2925 0.0000
# 2 6.0429 153.7601 30.5036 0.0000 -4.3162 0.0000
# 3 2.9793 30.5036 79.1774 0.0000 26.1346 0.0000
# 4 0.0000 0.0000 0.0000 12.1377 0.0000 16.2148
# 5 13.2925 -4.3162 26.1346 0.0000 26.4403 0.0000
# 6 0.0000 0.0000 0.0000 16.2148 0.0000 11.3591
#
#
#
# Elastic Compliance Matrix: (Units=1/GPa)
#
#
# Indices 1 2 3 4 5 6 
#
# 1 1.155879 -0.131503 0.305850 0.000000 -0.904881 0.000000
# 2 -0.131503 0.022630 -0.039795 0.000000 0.109140 0.000000
# 3 0.305850 -0.039795 0.102933 0.000000 -0.262000 0.000000
# 4 0.000000 0.000000 0.000000 -0.090839 0.000000 0.129670
# 5 -0.904881 0.109140 -0.262000 0.000000 0.769524 0.000000
# 6 0.000000 0.000000 0.000000 0.129670 0.000000 -0.097066
#
#
# Mechanical properties :
#
#
# Convention : Reuss Voigt Hill
#
# Bulk Modulus (GPa) = 0.64493 35.90660 18.27576
# Shear Modulus (GPa) = 2.36876 23.62624 12.99750
#
# Velocity S-wave (km/s) = 1.07521 3.39570 2.51862
# Velocity P-wave (km/s) = 1.36242 5.73574 4.16862
#
# Compressibility (1/GPa) = 1.55054562
#
# Stress axis : x y z
#
# Youngs Moduli (GPa) = 0.86514 44.18883 9.71506
#
# Poissons Ratio (x) = 5.81098 -2.97135
# Poissons Ratio (y) = 0.11377 0.38661
# Poissons Ratio (z) = -0.26460 1.75849
#
# Static dielectric constant tensor:
#      x y z
#    x 1.798920 0.000000 0.047120 
#    y 0.000000 1.735530 0.000000 
#    z 0.047120 0.000000 1.755760 
# 
# From -- ./inp_files/285013.got.cif
#   From: 2010.05.17/outbox.cif.g08.bks.cpg/sg12_143_cif.got.tgz:285013.got - 2010.06.03 13:09:07.
