data_PCOD9173409
_publ_section_title
;
Structure prediction by ZEFSAII (Michael W. Deem and Ramdas Pophale) SiO2 
 PCOD9173409
Probable space group: C 2/M
;
_chemical_formula_sum "Si O2"
_cell_formula_units_Z 64
_cell_length_a 21.764945
_cell_length_b 11.634553
_cell_length_c 21.970465
_cell_angle_alpha 90.000000
_cell_angle_beta 32.423903
_cell_angle_gamma 90.000000
_cell_volume 2983.021047
_symmetry_space_group_name_H-M "C 2/M"
_symmetry_group_IT_number 12
_symmetry_cell_setting 'monoclinic'
loop_
_space_group_symop_operation_xyz
x,y,z
-x,y,-z
-x,-y,-z
x,-y,z
1/2+x,1/2+y,z
1/2-x,1/2+y,-z
1/2-x,1/2-y,-z
1/2+x,1/2-y,z
loop_
_atom_site_type_symbol
_atom_site_label
_atom_site_fract_x
_atom_site_fract_y
_atom_site_fract_z
Si Si1 0.816981 0.628477 0.454762
Si Si2 0.675172 0.633530 0.343996
Si Si3 0.154455 0.628308 0.426894
Si Si4 0.513095 0.242258 0.233414
Si Si5 0.450053 0.158997 0.106482
Si Si6 0.426943 0.623694 0.189925
Si Si7 0.345117 0.874077 0.977128
Si Si8 0.865380 0.136267 0.763642
O O1 0.761923 0.500000 0.492237
O O2 0.750000 0.750000 0.500000
O O3 0.859027 0.632165 0.489195
O O4 0.925004 0.639775 0.319624
O O5 0.640731 0.500000 0.389092
O O6 0.627871 0.743988 0.421529
O O7 0.815546 0.632691 0.227875
O O8 0.640438 0.658321 0.303137
O O9 0.108862 0.500000 0.445101
O O10 0.290323 0.620063 0.301554
O O11 0.457114 0.326892 0.231026
O O12 0.628157 0.200923 0.103980
O O13 0.540307 0.300809 0.274745
O O14 0.464519 0.294660 0.104368
O O15 0.532797 0.115971 0.090650
O O16 0.500000 0.123211 0.000000
O O17 0.480023 0.500000 0.139705
O O18 0.305337 0.000000 0.990654
O O19 0.255562 0.832888 0.102826
O O20 0.881232 0.000000 0.756743
#
# Coordination Sequence:
#
# PCOD9173409 Si02
#       8
#     8   8   8   8   8   8   8   8
#     4  11  23  40  63  93 122 153 195 248 302 358
#     4  10  20  35  57  87 116 152 201 247 292 350
#     4   9  19  38  58  82 116 149 184 238 300 352
#     4  11  21  36  57  82 115 155 197 244 290 352
#     4  10  18  30  52  80 115 149 191 248 301 347
#     4   9  18  32  51  76 110 150 190 234 291 352
#     4  10  20  34  53  82 116 152 192 243 294 348
#     4  10  21  36  57  81 117 160 199 241 292 349
#
# _framework density 21.454758999999999
#
# number of rings (size 3 to 8) (size 9 to 14) (size 15 to 20)
#    0.000    2.000    2.500    1.500    0.000    1.750 
#    0.000    1.875    0.000    3.750    0.000    0.000 
#    0.000    0.000    0.000    0.000    0.000    0.000 
#
# Total GULP energy -178212.128800 kJ/mol
# GULP energy per Si atom -5569.129025 kJ/mol
# Density = 2.140593 g / cm^3
# Si number density = 21.454759 Si / 1000 Ang^3
#
#
#
# Elastic Constant Matrix: (Units=GPa)
#
#
# Indices 1 2 3 4 5 6 
#
# 1 77.5007 46.9295 1.2359 0.0000 4.0541 0.0000
# 2 46.9295 174.4797 39.4003 0.0000 24.2249 0.0000
# 3 1.2359 39.4003 53.1703 0.0000 4.5202 0.0000
# 4 0.0000 0.0000 0.0000 17.9059 0.0000 7.1939
# 5 4.0541 24.2249 4.5202 0.0000 27.1637 0.0000
# 6 0.0000 0.0000 0.0000 7.1939 0.0000 11.9413
#
#
#
# Elastic Compliance Matrix: (Units=1/GPa)
#
#
# Indices 1 2 3 4 5 6 
#
# 1 0.015974 -0.005316 0.003416 0.000000 0.001789 0.000000
# 2 -0.005316 0.009521 -0.006367 0.000000 -0.006638 0.000000
# 3 0.003416 -0.006367 0.023337 0.000000 0.001285 0.000000
# 4 0.000000 0.000000 0.000000 0.073681 0.000000 -0.044389
# 5 0.001789 -0.006638 0.001285 0.000000 0.042253 0.000000
# 6 0.000000 0.000000 0.000000 -0.044389 0.000000 0.110485
#
#
# Mechanical properties :
#
#
# Convention : Reuss Voigt Hill
#
# Bulk Modulus (GPa) = 30.96229 53.36465 42.16347
# Shear Modulus (GPa) = 16.52613 25.90784 21.21699
#
# Velocity S-wave (km/s) = 2.77840 3.47876 3.14812
# Velocity P-wave (km/s) = 4.97548 6.40803 5.73665
#
# Compressibility (1/GPa) = 0.03229735
#
# Stress axis : x y z
#
# Youngs Moduli (GPa) = 62.60056 105.03524 42.85038
#
# Poissons Ratio (x) = 0.55840 -0.14638
# Poissons Ratio (y) = 0.33280 0.27283
# Poissons Ratio (z) = -0.21385 0.66877
#
# Static dielectric constant tensor:
#      x y z
#    x 1.763080 0.000000 -0.024240 
#    y 0.000000 1.587730 0.000000 
#    z -0.024240 0.000000 2.068680 
# 
# From -- ./inp_files/321230.got.cif
#   From: 2010.05.17/outbox.cif.g08.bks.cpg/sg12_161_cif.got.tgz:321230.got - 2010.06.03 13:09:07.
