data_PCOD9173026
_publ_section_title
;
Structure prediction by ZEFSAII (Michael W. Deem and Ramdas Pophale) SiO2 
 PCOD9173026
Probable space group: C 2/M
;
_chemical_formula_sum "Si O2"
_cell_formula_units_Z 56
_cell_length_a 27.330730
_cell_length_b 9.045595
_cell_length_c 13.224824
_cell_angle_alpha 90.000000
_cell_angle_beta 58.759622
_cell_angle_gamma 90.000000
_cell_volume 2795.399403
_symmetry_space_group_name_H-M "C 2/M"
_symmetry_group_IT_number 12
_symmetry_cell_setting 'monoclinic'
loop_
_space_group_symop_operation_xyz
x,y,z
-x,y,-z
-x,-y,-z
x,-y,z
1/2+x,1/2+y,z
1/2-x,1/2+y,-z
1/2-x,1/2-y,-z
1/2+x,1/2-y,z
loop_
_atom_site_type_symbol
_atom_site_label
_atom_site_fract_x
_atom_site_fract_y
_atom_site_fract_z
Si Si1 0.840555 0.176907 0.757153
Si Si2 0.237908 0.325619 0.743506
Si Si3 0.136946 0.828301 0.745394
Si Si4 0.034364 0.323258 0.763874
Si Si5 0.829131 0.326571 0.972708
Si Si6 0.068266 0.826558 0.031050
Si Si7 0.036975 0.327347 0.359368
O O1 0.802586 0.222716 0.700468
O O2 0.812267 0.238597 0.890630
O O3 0.904911 0.236371 0.689354
O O4 0.839453 0.000000 0.762199
O O5 0.237035 0.500000 0.719276
O O6 0.199019 0.238435 0.705504
O O7 0.207100 0.308127 0.886111
O O8 0.098273 0.739150 0.707518
O O9 0.141371 0.000000 0.713099
O O10 0.100134 0.817574 0.889314
O O11 0.034590 0.500000 0.776285
O O12 0.993495 0.246753 0.891000
O O13 0.003707 0.284652 0.690844
O O14 0.830888 0.500000 0.947890
O O15 0.891264 0.263532 0.936085
O O16 0.064669 0.000000 0.061549
O O17 0.052674 0.500000 0.327422
O O18 0.000000 0.314916 0.500000
#
# Coordination Sequence:
#
# PCOD9173026 Si02
#       7
#     8   8   8   8   8   8   8
#     4  11  21  34  55  81 110 143 180 229 279 323
#     4   9  20  35  51  77 113 150 186 220 262 322
#     4  10  21  34  51  78 112 149 184 220 264 318
#     4  11  21  34  55  78 105 143 181 225 278 329
#     4  10  18  30  49  75 110 150 187 219 262 323
#     4  10  19  31  48  75 111 146 183 224 266 318
#     4  10  23  42  61  82 107 139 183 232 283 335
#
# _framework density 20.032914000000002
#
# number of rings (size 3 to 8) (size 9 to 14) (size 15 to 20)
#    0.000    1.857    1.429    3.000    0.000    6.000 
#    0.000    0.000    0.000    0.857    0.000    0.000 
#    0.000    0.000    0.000    0.000    0.000    0.000 
#
# Total GULP energy -156296.584555 kJ/mol
# GULP energy per Si atom -5582.020877 kJ/mol
# Density = 1.998732 g / cm^3
# Si number density = 20.032914 Si / 1000 Ang^3
#
#
#
# Elastic Constant Matrix: (Units=GPa)
#
#
# Indices 1 2 3 4 5 6 
#
# 1 165.4193 67.8920 8.0079 0.0000 -4.8082 0.0000
# 2 67.8920 80.3277 7.8146 0.0000 -3.6678 0.0000
# 3 8.0079 7.8146 19.8115 0.0000 2.7638 0.0000
# 4 0.0000 0.0000 0.0000 11.1720 0.0000 1.1955
# 5 -4.8082 -3.6678 2.7638 0.0000 11.9524 0.0000
# 6 0.0000 0.0000 0.0000 1.1955 0.0000 28.8808
#
#
#
# Elastic Compliance Matrix: (Units=1/GPa)
#
#
# Indices 1 2 3 4 5 6 
#
# 1 0.009294 -0.007690 -0.000946 0.000000 0.001598 0.000000
# 2 -0.007690 0.019645 -0.005218 0.000000 0.004142 0.000000
# 3 -0.000946 -0.005218 0.054966 0.000000 -0.014692 0.000000
# 4 0.000000 0.000000 0.000000 0.089908 0.000000 -0.003722
# 5 0.001598 0.004142 -0.014692 0.000000 0.088976 0.000000
# 6 0.000000 0.000000 0.000000 -0.003722 0.000000 0.034779
#
#
# Mechanical properties :
#
#
# Convention : Reuss Voigt Hill
#
# Bulk Modulus (GPa) = 17.79486 48.10970 32.95228
# Shear Modulus (GPa) = 14.53450 22.52398 18.52924
#
# Velocity S-wave (km/s) = 2.69649 3.35677 3.04458
# Velocity P-wave (km/s) = 4.31241 6.25231 5.37067
#
# Compressibility (1/GPa) = 0.05619599
#
# Stress axis : x y z
#
# Youngs Moduli (GPa) = 107.60141 50.90327 18.19301
#
# Poissons Ratio (x) = 0.39144 0.01721
# Poissons Ratio (y) = 0.82743 0.09494
# Poissons Ratio (z) = 0.10181 0.26564
#
# Static dielectric constant tensor:
#      x y z
#    x 1.766530 0.000000 -0.000560 
#    y 0.000000 1.666500 0.000000 
#    z -0.000560 0.000000 1.706840 
# 
# From -- ./inp_files/243612.got.cif
#   From: 2010.05.17/outbox.cif.g08.bks.cpg/sg12_122_cif.got.tgz:243612.got - 2010.06.03 13:09:07.
