data_PCOD9173295
_publ_section_title
;
Structure prediction by ZEFSAII (Michael W. Deem and Ramdas Pophale) SiO2 
 PCOD9173295
Probable space group: C 2/M
;
_chemical_formula_sum "Si O2"
_cell_formula_units_Z 40
_cell_length_a 24.951937
_cell_length_b 8.684841
_cell_length_c 32.707054
_cell_angle_alpha 90.000000
_cell_angle_beta 19.674422
_cell_angle_gamma 90.000000
_cell_volume 2386.263222
_symmetry_space_group_name_H-M "C 2/M"
_symmetry_group_IT_number 12
_symmetry_cell_setting 'monoclinic'
loop_
_space_group_symop_operation_xyz
x,y,z
-x,y,-z
-x,-y,-z
x,-y,z
1/2+x,1/2+y,z
1/2-x,1/2+y,-z
1/2-x,1/2-y,-z
1/2+x,1/2-y,z
loop_
_atom_site_type_symbol
_atom_site_label
_atom_site_fract_x
_atom_site_fract_y
_atom_site_fract_z
Si Si1 0.772486 0.182682 0.185548
Si Si2 0.726324 0.184459 0.062043
Si Si3 0.924572 0.316377 0.993645
Si Si4 0.445220 0.317530 0.404329
Si Si5 0.413454 0.815593 0.336714
O O1 0.589643 0.230255 0.322072
O O2 0.894245 0.262833 0.129267
O O3 0.792206 0.000000 0.173131
O O4 0.826866 0.241496 0.101540
O O5 0.550395 0.221164 0.206041
O O6 0.743692 0.000000 0.049513
O O7 0.750000 0.250000 0.000000
O O8 0.850432 0.256812 0.004897
O O9 0.912899 0.500000 0.005032
O O10 0.470611 0.500000 0.389711
O O11 0.445814 0.270637 0.356032
O O12 0.266705 0.279418 0.547507
O O13 0.419461 0.000000 0.340701
#
# Coordination Sequence:
#
# PCOD9173295 Si02
#       5
#     8   8   8   8   8
#     4  11  20  32  51  77 109 141 168 213 269 318
#     4  11  22  37  55  77 107 143 179 217 259 309
#     4  11  21  34  52  77 104 137 178 219 261 312
#     4  10  18  30  51  78 106 137 172 214 262 314
#     4   9  19  33  50  74 106 139 174 215 262 310
#
# _framework density 16.762609999999999
#
# number of rings (size 3 to 8) (size 9 to 14) (size 15 to 20)
#    0.000    1.600    2.000    6.000    0.000    1.600 
#    0.000    0.000    0.000    1.200    0.000    8.400 
#    0.000    0.000    0.000    0.000    0.000    0.000 
#
# Total GULP energy -111672.074315 kJ/mol
# GULP energy per Si atom -5583.603716 kJ/mol
# Density = 1.672446 g / cm^3
# Si number density = 16.762610 Si / 1000 Ang^3
#
#
#
# Elastic Constant Matrix: (Units=GPa)
#
#
# Indices 1 2 3 4 5 6 
#
# 1 98.7772 30.8483 53.5526 -0.0104 -8.9002 0.0089
# 2 30.8483 76.3321 33.5928 -0.0335 -3.1833 0.0363
# 3 53.5526 33.5928 92.4689 -0.0103 -15.4730 0.0110
# 4 -0.0104 -0.0335 -0.0103 23.9223 0.0071 -4.3901
# 5 -8.9002 -3.1833 -15.4730 0.0071 27.3502 -0.0079
# 6 0.0089 0.0363 0.0110 -4.3901 -0.0079 28.9020
#
#
#
# Elastic Compliance Matrix: (Units=1/GPa)
#
#
# Indices 1 2 3 4 5 6 
#
# 1 0.015213 -0.002712 -0.007787 0.000000 0.000230 0.000002
# 2 -0.002712 0.016136 -0.004556 0.000017 -0.001582 -0.000016
# 3 -0.007787 -0.004556 0.018189 -0.000004 0.007226 0.000003
# 4 0.000000 0.000017 -0.000004 0.043001 -0.000010 0.006532
# 5 0.000230 -0.001582 0.007226 -0.000010 0.040541 0.000009
# 6 0.000002 -0.000016 0.000003 0.006532 0.000009 0.035592
#
#
# Mechanical properties :
#
#
# Convention : Reuss Voigt Hill
#
# Bulk Modulus (GPa) = 51.47303 55.95173 53.71238
# Shear Modulus (GPa) = 24.35977 26.00721 25.18349
#
# Velocity S-wave (km/s) = 3.81625 3.94318 3.88023
# Velocity P-wave (km/s) = 7.08463 7.36091 7.22409
#
# Compressibility (1/GPa) = 0.01942765
#
# Stress axis : x y z
#
# Youngs Moduli (GPa) = 65.73287 61.97452 54.97967
#
# Poissons Ratio (x) = 0.16805 0.42813
# Poissons Ratio (y) = 0.17824 0.25050
# Poissons Ratio (z) = 0.51186 0.28237
#
# Static dielectric constant tensor:
#      x y z
#    x 1.534740 -0.000010 -0.033150 
#    y -0.000010 1.559740 0.000010 
#    z -0.033150 0.000010 1.585660 
# 
# From -- ./inp_files/171379.got.cif
#   From: 2010.05.17/outbox.cif.g08.bks.cpg/sg12_86_cif.got.tgz:171379.got - 2010.06.03 13:09:07.
