data_PCOD9173032
_publ_section_title
;
Structure prediction by ZEFSAII (Michael W. Deem and Ramdas Pophale) SiO2 
 PCOD9173032
Probable space group: C 2/M
;
_chemical_formula_sum "Si O2"
_cell_formula_units_Z 48
_cell_length_a 12.807827
_cell_length_b 13.507472
_cell_length_c 22.657998
_cell_angle_alpha 90.000000
_cell_angle_beta 153.381451
_cell_angle_gamma 90.000000
_cell_volume 1756.289594
_symmetry_space_group_name_H-M "C 2/M"
_symmetry_group_IT_number 12
_symmetry_cell_setting 'monoclinic'
loop_
_space_group_symop_operation_xyz
x,y,z
-x,y,-z
-x,-y,-z
x,-y,z
1/2+x,1/2+y,z
1/2-x,1/2+y,-z
1/2-x,1/2-y,-z
1/2+x,1/2-y,z
loop_
_atom_site_type_symbol
_atom_site_label
_atom_site_fract_x
_atom_site_fract_y
_atom_site_fract_z
Si Si1 0.372625 0.620842 0.659743
Si Si2 0.174869 0.381190 0.302434
Si Si3 0.339592 0.885888 0.038061
Si Si4 0.842604 0.119729 0.512705
Si Si5 0.717096 0.613607 0.256967
Si Si6 0.178728 0.250978 0.133908
O O1 0.402132 0.500000 0.675785
O O2 0.272766 0.647179 0.544153
O O3 0.237445 0.644158 0.652312
O O4 0.621439 0.675614 0.788446
O O5 0.179015 0.500000 0.310011
O O6 0.385445 0.357104 0.364009
O O7 0.220497 0.343242 0.391089
O O8 0.933448 0.353579 0.150012
O O9 0.490333 0.821446 0.070522
O O10 0.408275 0.000000 0.064783
O O11 0.064974 0.881542 0.891388
O O12 0.826192 0.000000 0.503773
O O13 0.794344 0.500000 0.288854
O O14 0.791914 0.678190 0.239385
O O15 0.000000 0.194217 0.000000
#
# Coordination Sequence:
#
# PCOD9173032 Si02
#       6
#     8   8   8   8   8   8
#     4  10  19  33  55  81 107 135 169 211 258 309
#     4   8  13  22  41  72 106 132 159 201 254 303
#     4  10  18  30  49  76 107 133 164 210 257 303
#     4   8  13  23  42  73 105 131 160 201 253 303
#     4  10  23  38  51  74 106 138 175 215 256 304
#     4  12  22  32  53  76 104 139 175 210 257 308
#
# _framework density 27.330345999999999
#
# number of rings (size 3 to 8) (size 9 to 14) (size 15 to 20)
#    0.000    2.333    3.333    2.000    0.000    1.000 
#    0.000    0.000    0.000    1.000    4.333    0.000 
#    0.000    2.667    0.000    0.833    0.000    0.000 
#
# Total GULP energy -134478.083344 kJ/mol
# GULP energy per Si atom -5603.253473 kJ/mol
# Density = 2.726814 g / cm^3
# Si number density = 27.330346 Si / 1000 Ang^3
#
#
#
# Elastic Constant Matrix: (Units=GPa)
#
#
# Indices 1 2 3 4 5 6 
#
# 1 143.1722 43.5349 53.6096 -0.0003 -16.6221 0.0000
# 2 43.5349 109.0351 4.6949 -0.0004 -11.1535 -0.0001
# 3 53.6096 4.6949 146.3809 0.0029 -36.6804 0.0002
# 4 -0.0003 -0.0004 0.0029 26.9458 0.0000 -15.9143
# 5 -16.6221 -11.1535 -36.6804 0.0000 56.2618 -0.0004
# 6 0.0000 -0.0001 0.0002 -15.9143 -0.0004 42.2353
#
#
#
# Elastic Compliance Matrix: (Units=1/GPa)
#
#
# Indices 1 2 3 4 5 6 
#
# 1 0.009305 -0.003585 -0.003325 0.000001 -0.000130 0.000000
# 2 -0.003585 0.010747 0.001478 0.000000 0.002035 0.000000
# 3 -0.003325 0.001478 0.009358 -0.000001 0.005412 0.000000
# 4 0.000001 0.000000 -0.000001 0.047734 -0.000001 0.017986
# 5 -0.000130 0.002035 0.005412 -0.000001 0.021667 0.000000
# 6 0.000000 0.000000 0.000000 0.017986 0.000000 0.030454
#
#
# Mechanical properties :
#
#
# Convention : Reuss Voigt Hill
#
# Bulk Modulus (GPa) = 53.92058 66.91856 60.41957
# Shear Modulus (GPa) = 34.17349 44.87184 39.52267
#
# Velocity S-wave (km/s) = 3.53992 4.05635 3.80690
# Velocity P-wave (km/s) = 6.03987 6.81739 6.44038
#
# Compressibility (1/GPa) = 0.01854580
#
# Stress axis : x y z
#
# Youngs Moduli (GPa) = 107.47098 93.04585 106.86108
#
# Poissons Ratio (x) = 0.33359 0.35534
# Poissons Ratio (y) = 0.38531 -0.15797
# Poissons Ratio (z) = 0.35737 -0.13755
#
# Static dielectric constant tensor:
#      x y z
#    x 2.112330 0.000000 -0.069580 
#    y 0.000000 2.116310 0.000000 
#    z -0.069580 0.000000 2.165970 
# 
# From -- ./inp_files/205125.got.cif
#   From: 2010.05.17/outbox.cif.g08.bks.cpg/sg12_103_cif.got.tgz:205125.got - 2010.06.03 13:09:07.
