data_PCOD9173476
_publ_section_title
;
Structure prediction by ZEFSAII (Michael W. Deem and Ramdas Pophale) SiO2 
 PCOD9173476
Probable space group: C 2/M
;
_chemical_formula_sum "Si O2"
_cell_formula_units_Z 64
_cell_length_a 25.321986
_cell_length_b 7.759634
_cell_length_c 29.181699
_cell_angle_alpha 90.000000
_cell_angle_beta 150.257038
_cell_angle_gamma 90.000000
_cell_volume 2844.640757
_symmetry_space_group_name_H-M "C 2/M"
_symmetry_group_IT_number 12
_symmetry_cell_setting 'monoclinic'
loop_
_space_group_symop_operation_xyz
x,y,z
-x,y,-z
-x,-y,-z
x,-y,z
1/2+x,1/2+y,z
1/2-x,1/2+y,-z
1/2-x,1/2-y,-z
1/2+x,1/2-y,z
loop_
_atom_site_type_symbol
_atom_site_label
_atom_site_fract_x
_atom_site_fract_y
_atom_site_fract_z
Si Si1 0.406564 0.801790 0.165313
Si Si2 0.543946 0.711557 0.394563
Si Si3 0.133550 0.196818 0.370623
Si Si4 0.415208 0.705737 0.472361
Si Si5 0.043515 0.791804 0.893707
Si Si6 0.416529 0.704829 0.974141
Si Si7 0.811745 0.792101 0.684074
Si Si8 0.812158 0.794562 0.184334
O O1 0.510143 0.694610 0.259593
O O2 0.386169 0.764517 0.096793
O O3 0.315644 0.766619 0.134008
O O4 0.437833 0.000000 0.193142
O O5 0.547547 0.500000 0.396273
O O6 0.622892 0.773049 0.413444
O O7 0.568437 0.773879 0.463841
O O8 0.423666 0.763306 0.290474
O O9 0.192944 0.278580 0.371915
O O10 0.169225 0.000000 0.402299
O O11 0.500000 0.775115 0.500000
O O12 0.430858 0.500000 0.486701
O O13 0.293052 0.739682 0.367882
O O14 0.922712 0.737487 0.790029
O O15 0.047763 0.000000 0.897574
O O16 0.069453 0.724869 0.963740
O O17 0.436113 0.500000 0.991820
O O18 0.292998 0.731553 0.869432
O O19 0.500000 0.775258 0.000000
O O20 0.814631 0.000000 0.683361
O O21 0.811492 0.000000 0.184003
#
# Coordination Sequence:
#
# PCOD9173476 Si02
#       8
#     8   8   8   8   8   8   8   8
#     4  10  18  30  53  84 111 134 171 219 261 310
#     4   8  16  33  54  74 101 138 171 204 256 313
#     4   8  15  31  53  75 103 136 168 206 261 324
#     4  10  21  35  50  72 103 138 177 217 254 298
#     4   9  19  37  57  77 109 146 171 205 266 326
#     4  10  22  39  57  79 106 137 179 226 264 304
#     4   9  18  33  53  76 101 133 170 208 257 312
#     4  10  20  36  57  78 106 143 177 214 265 322
#
# _framework density 22.498445
#
# number of rings (size 3 to 8) (size 9 to 14) (size 15 to 20)
#    0.000    2.750    0.000    3.000    0.000    5.000 
#    0.000    3.125    0.000    0.000    0.000    0.000 
#    0.000    0.000    0.000    0.000    0.000    0.000 
#
# Total GULP energy -178649.568755 kJ/mol
# GULP energy per Si atom -5582.799024 kJ/mol
# Density = 2.244724 g / cm^3
# Si number density = 22.498445 Si / 1000 Ang^3
#
#
#
# Elastic Constant Matrix: (Units=GPa)
#
#
# Indices 1 2 3 4 5 6 
#
# 1 98.0175 13.6443 33.6265 0.0000 28.6028 -0.0006
# 2 13.6443 43.8614 0.3399 -0.0006 -5.5902 -0.0011
# 3 33.6265 0.3399 59.5704 0.0000 10.7748 -0.0001
# 4 0.0000 -0.0006 0.0000 13.8542 -0.0001 3.4715
# 5 28.6028 -5.5902 10.7748 -0.0001 39.1064 -0.0004
# 6 -0.0006 -0.0011 -0.0001 3.4715 -0.0004 -9.1569
#
#
#
# Elastic Compliance Matrix: (Units=1/GPa)
#
#
# Indices 1 2 3 4 5 6 
#
# 1 0.017018 -0.006680 -0.007519 0.000000 -0.011330 0.000000
# 2 -0.006680 0.025878 0.002179 0.000002 0.007984 -0.000002
# 3 -0.007519 0.002179 0.021015 0.000000 0.000021 0.000000
# 4 0.000000 0.000002 0.000000 0.065918 0.000001 0.024991
# 5 -0.011330 0.007984 0.000021 0.000001 0.034994 -0.000001
# 6 0.000000 -0.000002 0.000000 0.024991 -0.000001 -0.099733
#
#
# Mechanical properties :
#
#
# Convention : Reuss Voigt Hill
#
# Bulk Modulus (GPa) = 25.08089 32.96341 29.02215
# Shear Modulus (GPa) = 48.81888 19.01666 33.91777
#
# Velocity S-wave (km/s) = 4.66325 2.91046 3.88694
# Velocity P-wave (km/s) = 6.33771 5.09682 5.75083
#
# Compressibility (1/GPa) = 0.03987099
#
# Stress axis : x y z
#
# Youngs Moduli (GPa) = 58.76182 38.64326 47.58519
#
# Poissons Ratio (x) = 0.25812 0.35778
# Poissons Ratio (y) = 0.39251 -0.10367
# Poissons Ratio (z) = 0.44182 -0.08419
#
# Static dielectric constant tensor:
#      x y z
#    x 1.851960 0.000000 -0.013760 
#    y 0.000000 1.808440 0.000000 
#    z -0.013760 0.000000 1.854050 
# 
# From -- ./inp_files/382541.got.cif
#   From: 2010.05.17/outbox.cif.g08.bks.cpg/sg12_192_cif.got.tgz:382541.got - 2010.06.03 13:09:07.
