data_PCOD9173867
_publ_section_title
;
Structure prediction by ZEFSAII (Michael W. Deem and Ramdas Pophale) SiO2 
 PCOD9173867
Probable space group: C 2/M
;
_chemical_formula_sum "Si O2"
_cell_formula_units_Z 48
_cell_length_a 24.655043
_cell_length_b 14.288250
_cell_length_c 9.065559
_cell_angle_alpha 90.000000
_cell_angle_beta 46.870536
_cell_angle_gamma 90.000000
_cell_volume 2330.717761
_symmetry_space_group_name_H-M "C 2/M"
_symmetry_group_IT_number 12
_symmetry_cell_setting 'monoclinic'
loop_
_space_group_symop_operation_xyz
x,y,z
-x,y,-z
-x,-y,-z
x,-y,z
1/2+x,1/2+y,z
1/2-x,1/2+y,-z
1/2-x,1/2-y,-z
1/2+x,1/2-y,z
loop_
_atom_site_type_symbol
_atom_site_label
_atom_site_fract_x
_atom_site_fract_y
_atom_site_fract_z
Si Si1 0.215839 0.394806 0.293980
Si Si2 0.180389 0.736712 0.926882
Si Si3 0.083252 0.797357 0.848845
Si Si4 0.564906 0.895189 0.714372
Si Si5 0.063010 0.608644 0.271035
Si Si6 0.772570 0.891812 0.529040
O O1 0.234905 0.500000 0.210250
O O2 0.261867 0.314978 0.126446
O O3 0.127012 0.386156 0.470028
O O4 0.239461 0.385508 0.424166
O O5 0.117475 0.790827 0.948322
O O6 0.225395 0.671483 0.727800
O O7 0.135525 0.671252 0.121240
O O8 0.077953 0.691989 0.795212
O O9 0.143584 0.853475 0.640644
O O10 0.000000 0.836718 0.000000
O O11 0.483017 0.891227 0.797566
O O12 0.576451 0.000000 0.756870
O O13 0.080038 0.500000 0.272486
O O14 0.000000 0.643715 0.500000
O O15 0.770153 0.000000 0.577848
#
# Coordination Sequence:
#
# PCOD9173867 Si02
#       6
#     8   8   8   8   8   8
#     4   9  17  30  50  76 102 129 160 194 240 290
#     4  11  18  31  53  73 101 130 159 203 240 286
#     4  11  19  30  48  76 103 127 161 197 240 293
#     4  10  18  31  51  71  99 126 158 203 241 287
#     4  10  22  36  50  72  98 127 163 203 249 290
#     4  10  19  30  46  73 107 135 159 190 237 295
#
# _framework density 20.594515000000001
#
# number of rings (size 3 to 8) (size 9 to 14) (size 15 to 20)
#    0.000    1.833    5.000    1.500    0.000    1.333 
#    0.000    0.833    0.000    0.500    0.000    0.000 
#    0.000    0.000    0.000    0.000    0.000    0.000 
#
# Total GULP energy -134088.386212 kJ/mol
# GULP energy per Si atom -5587.016092 kJ/mol
# Density = 2.054764 g / cm^3
# Si number density = 20.594515 Si / 1000 Ang^3
#
#
#
# Elastic Constant Matrix: (Units=GPa)
#
#
# Indices 1 2 3 4 5 6 
#
# 1 55.8610 17.6312 22.4905 0.0000 -24.4087 0.0000
# 2 17.6312 100.7249 50.4620 0.0000 -13.2344 0.0000
# 3 22.4905 50.4620 142.6251 0.0000 -25.3693 0.0000
# 4 0.0000 0.0000 0.0000 36.6535 0.0000 0.0038
# 5 -24.4087 -13.2344 -25.3693 0.0000 31.4000 0.0000
# 6 0.0000 0.0000 0.0000 0.0038 0.0000 11.5476
#
#
#
# Elastic Compliance Matrix: (Units=1/GPa)
#
#
# Indices 1 2 3 4 5 6 
#
# 1 0.027534 -0.002158 0.000078 0.000000 0.020557 0.000000
# 2 -0.002158 0.012335 -0.003968 0.000000 0.000316 0.000000
# 3 0.000078 -0.003968 0.009478 0.000000 0.006046 0.000000
# 4 0.000000 0.000000 0.000000 0.027283 0.000000 -0.000009
# 5 0.020557 0.000316 0.006046 0.000000 0.052845 0.000000
# 6 0.000000 0.000000 0.000000 -0.000009 0.000000 0.086598
#
#
# Mechanical properties :
#
#
# Convention : Reuss Voigt Hill
#
# Bulk Modulus (GPa) = 26.84393 53.37537 40.10965
# Shear Modulus (GPa) = 20.78268 29.82872 25.30570
#
# Velocity S-wave (km/s) = 3.18014 3.80989 3.50917
# Velocity P-wave (km/s) = 5.15239 6.73255 5.99476
#
# Compressibility (1/GPa) = 0.03725237
#
# Stress axis : x y z
#
# Youngs Moduli (GPa) = 36.31930 81.06973 105.50294
#
# Poissons Ratio (x) = 0.17493 -0.00825
# Poissons Ratio (y) = 0.07837 0.41862
# Poissons Ratio (z) = -0.00284 0.32167
#
# Static dielectric constant tensor:
#      x y z
#    x 1.804660 0.000000 0.011540 
#    y 0.000000 1.719430 0.000000 
#    z 0.011540 0.000000 1.764520 
# 
# From -- ./inp_files/104959.got.cif
#   From: 2010.05.17/outbox.cif.g08.bks.cpg/sg12_53_cif.got.tgz:104959.got - 2010.06.03 13:09:07.
