data_PCOD9173215
_publ_section_title
;
Structure prediction by ZEFSAII (Michael W. Deem and Ramdas Pophale) SiO2 
 PCOD9173215
Probable space group: C 2/M
;
_chemical_formula_sum "Si O2"
_cell_formula_units_Z 56
_cell_length_a 5.344795
_cell_length_b 32.214211
_cell_length_c 17.716759
_cell_angle_alpha 90.000000
_cell_angle_beta 89.999912
_cell_angle_gamma 90.000000
_cell_volume 3050.442401
_symmetry_space_group_name_H-M "C 2/M"
_symmetry_group_IT_number 12
_symmetry_cell_setting 'monoclinic'
loop_
_space_group_symop_operation_xyz
x,y,z
-x,y,-z
-x,-y,-z
x,-y,z
1/2+x,1/2+y,z
1/2-x,1/2+y,-z
1/2-x,1/2-y,-z
1/2+x,1/2-y,z
loop_
_atom_site_type_symbol
_atom_site_label
_atom_site_fract_x
_atom_site_fract_y
_atom_site_fract_z
Si Si1 0.749948 0.414037 0.200237
Si Si2 0.750045 0.596864 0.597959
Si Si3 0.250052 0.867487 0.768758
Si Si4 0.249991 0.223469 0.713952
Si Si5 0.250046 0.549544 0.629306
Si Si6 0.249998 0.688805 0.456411
Si Si7 0.750000 0.049287 0.961243
O O1 0.501924 0.386001 0.196486
O O2 0.749954 0.437742 0.281258
O O3 0.749993 0.443555 0.128067
O O4 0.997930 0.385990 0.196495
O O5 0.750047 0.615413 0.682903
O O6 0.498672 0.569640 0.592934
O O7 0.750016 0.638416 0.548450
O O8 0.001438 0.569645 0.592931
O O9 0.250010 0.818008 0.764080
O O10 0.499981 0.250003 0.726372
O O11 0.249997 0.207813 0.627010
O O12 0.250029 0.500000 0.622357
O O13 0.500000 0.701263 0.500000
O O14 0.000000 0.701266 0.500000
O O15 0.749999 0.000000 0.975217
O O16 0.500000 0.066635 0.000000
O O17 0.000000 0.066635 0.000000
#
# Coordination Sequence:
#
# PCOD9173215 Si02
#       7
#     8   8   8   8   8   8   8
#     4  10  18  32  51  73 102 135 175 204 236 296
#     4   9  19  33  48  69  95 124 161 208 252 289
#     4   9  19  33  51  73  98 131 165 204 248 294
#     4  11  22  36  54  79 109 128 151 202 258 302
#     4  10  18  30  51  73  93 122 165 216 258 287
#     4  11  22  36  54  72  96 135 169 190 233 307
#     4  10  20  32  47  73 112 149 175 206 247 284
#
# _framework density 18.357994000000001
#
# number of rings (size 3 to 8) (size 9 to 14) (size 15 to 20)
#    0.000    2.000    0.000    4.286    0.000    6.286 
#    0.000    4.286    0.000    8.571    0.000    0.000 
#    0.000   40.000    0.000    0.000    0.000    0.000 
#
# Total GULP energy -156404.857640 kJ/mol
# GULP energy per Si atom -5585.887773 kJ/mol
# Density = 1.831621 g / cm^3
# Si number density = 18.357994 Si / 1000 Ang^3
#
#
#
# Elastic Constant Matrix: (Units=GPa)
#
#
# Indices 1 2 3 4 5 6 
#
# 1 186.8171 55.7381 13.8608 0.0000 0.0006 0.0000
# 2 55.7381 105.0412 -12.2796 0.0000 0.0108 0.0000
# 3 13.8608 -12.2796 35.6205 0.0000 0.0041 0.0000
# 4 0.0000 0.0000 0.0000 25.6260 0.0000 -0.0009
# 5 0.0006 0.0108 0.0041 0.0000 10.1808 0.0000
# 6 0.0000 0.0000 0.0000 -0.0009 0.0000 48.9176
#
#
#
# Elastic Compliance Matrix: (Units=1/GPa)
#
#
# Indices 1 2 3 4 5 6 
#
# 1 0.006892 -0.004137 -0.004108 0.000000 0.000006 0.000000
# 2 -0.004137 0.012404 0.005886 0.000000 -0.000015 0.000000
# 3 -0.004108 0.005886 0.031701 0.000000 -0.000019 0.000000
# 4 0.000000 0.000000 0.000000 0.039023 0.000000 0.000001
# 5 0.000006 -0.000015 -0.000019 0.000000 0.098224 0.000000
# 6 0.000000 0.000000 0.000000 0.000001 0.000000 0.020443
#
#
# Mechanical properties :
#
#
# Convention : Reuss Voigt Hill
#
# Bulk Modulus (GPa) = 21.60872 49.12415 35.36644
# Shear Modulus (GPa) = 21.85013 34.95551 28.40282
#
# Velocity S-wave (km/s) = 3.45371 4.36834 3.93767
# Velocity P-wave (km/s) = 5.26312 7.22912 6.32300
#
# Compressibility (1/GPa) = 0.04627762
#
# Stress axis : x y z
#
# Youngs Moduli (GPa) = 145.09478 80.62196 31.54443
#
# Poissons Ratio (x) = 0.33356 0.12959
# Poissons Ratio (y) = 0.60031 -0.18567
# Poissons Ratio (z) = 0.59607 -0.47453
#
# Static dielectric constant tensor:
#      x y z
#    x 1.613260 0.000000 -0.000020 
#    y 0.000000 1.616690 0.000000 
#    z -0.000020 0.000000 1.602140 
# 
# From -- ./inp_files/192604.got.cif
#   From: 2010.05.17/outbox.cif.g08.bks.cpg/sg12_97_cif.got.tgz:192604.got - 2010.06.03 13:09:07.
