data_PCOD9173429
_publ_section_title
;
Structure prediction by ZEFSAII (Michael W. Deem and Ramdas Pophale) SiO2 
 PCOD9173429
Probable space group: C 2/M
;
_chemical_formula_sum "Si O2"
_cell_formula_units_Z 40
_cell_length_a 22.164055
_cell_length_b 11.652394
_cell_length_c 17.974898
_cell_angle_alpha 90.000000
_cell_angle_beta 30.738365
_cell_angle_gamma 90.000000
_cell_volume 2372.752630
_symmetry_space_group_name_H-M "C 2/M"
_symmetry_group_IT_number 12
_symmetry_cell_setting 'monoclinic'
loop_
_space_group_symop_operation_xyz
x,y,z
-x,y,-z
-x,-y,-z
x,-y,z
1/2+x,1/2+y,z
1/2-x,1/2+y,-z
1/2-x,1/2-y,-z
1/2+x,1/2-y,z
loop_
_atom_site_type_symbol
_atom_site_label
_atom_site_fract_x
_atom_site_fract_y
_atom_site_fract_z
Si Si1 0.093688 0.136628 0.690719
Si Si2 0.476389 0.863401 0.439161
Si Si3 0.875232 0.775087 0.831446
Si Si4 0.239785 0.784212 0.393466
Si Si5 0.907675 0.000000 0.702157
Si Si6 0.684148 0.500000 0.366598
O O1 0.186027 0.155964 0.524724
O O2 0.149009 0.208050 0.700240
O O3 0.973278 0.195080 0.789928
O O4 0.080306 0.000000 0.717972
O O5 0.500000 0.827905 0.500000
O O6 0.577456 0.823201 0.274558
O O7 0.359725 0.800127 0.533686
O O8 0.463114 0.000000 0.451493
O O9 0.871154 0.888182 0.785407
O O10 0.750000 0.750000 0.000000
O O11 0.252234 0.887255 0.321939
O O12 0.846067 0.000000 0.687835
O O13 0.051012 0.000000 0.543353
#
# Coordination Sequence:
#
# PCOD9173429 Si02
#       6
#     8   8   8   8   4   4
#     4  10  18  33  51  77 115 144 181 222 280 331
#     4  10  20  34  53  80 109 142 185 230 274 323
#     4  11  22  36  56  81 111 147 187 228 278 329
#     4  10  18  30  52  83 109 143 178 231 279 324
#     4  11  20  36  59  83 110 149 189 227 279 329
#     4  11  18  34  61  85 113 140 186 236 277 329
#
# _framework density 16.858056999999999
#
# number of rings (size 3 to 8) (size 9 to 14) (size 15 to 20)
#    0.000    1.600    6.000    1.800    1.400    0.000 
#    1.800    0.000    0.000    6.000    0.000    8.400 
#    0.000    0.000    0.000    0.000    0.000    0.000 
#
# Total GULP energy -111557.772117 kJ/mol
# GULP energy per Si atom -5577.888606 kJ/mol
# Density = 1.681969 g / cm^3
# Si number density = 16.858057 Si / 1000 Ang^3
#
#
#
# Elastic Constant Matrix: (Units=GPa)
#
#
# Indices 1 2 3 4 5 6 
#
# 1 126.8905 64.1903 44.7681 0.0000 -6.0574 0.0000
# 2 64.1903 98.0871 31.3652 0.0000 -5.4367 0.0000
# 3 44.7681 31.3652 71.6663 0.0000 -7.0689 0.0000
# 4 0.0000 0.0000 0.0000 6.9569 0.0000 -20.7445
# 5 -6.0574 -5.4367 -7.0689 0.0000 12.6333 0.0000
# 6 0.0000 0.0000 0.0000 -20.7445 0.0000 31.0900
#
#
#
# Elastic Compliance Matrix: (Units=1/GPa)
#
#
# Indices 1 2 3 4 5 6 
#
# 1 0.013274 -0.007005 -0.005182 0.000000 0.000451 0.000000
# 2 -0.007005 0.015616 -0.002251 0.000000 0.002102 0.000000
# 3 -0.005182 -0.002251 0.018877 0.000000 0.007109 0.000000
# 4 0.000000 0.000000 0.000000 -0.145252 0.000000 -0.096918
# 5 0.000451 0.002102 0.007109 0.000000 0.084254 0.000000
# 6 0.000000 0.000000 0.000000 -0.096918 0.000000 -0.032503
#
#
# Mechanical properties :
#
#
# Convention : Reuss Voigt Hill
#
# Bulk Modulus (GPa) = 52.93559 64.14347 58.53953
# Shear Modulus (GPa) = -473.45779 20.55738 -226.45020
#
# Velocity S-wave (km/s) = -16.77675 3.49584 -11.60255
# Velocity P-wave (km/s) = 18.54212 7.37741 12.02880
#
# Compressibility (1/GPa) = 0.01889088
#
# Stress axis : x y z
#
# Youngs Moduli (GPa) = 75.33469 64.03883 52.97471
#
# Poissons Ratio (x) = 0.44859 0.27450
# Poissons Ratio (y) = 0.52771 0.11925
# Poissons Ratio (z) = 0.39037 0.14416
#
# Static dielectric constant tensor:
#      x y z
#    x 1.583640 0.000000 -0.000760 
#    y 0.000000 1.555720 0.000000 
#    z -0.000760 0.000000 1.546790 
# 
# From -- ./inp_files/153341.got.cif
#   From: 2010.05.17/outbox.cif.g08.bks.cpg/sg12_77_cif.got.tgz:153341.got - 2010.06.03 13:09:07.
