data_PCOD9173488
_publ_section_title
;
Structure prediction by ZEFSAII (Michael W. Deem and Ramdas Pophale) SiO2 
 PCOD9173488
Probable space group: C 2/M
;
_chemical_formula_sum "Si O2"
_cell_formula_units_Z 36
_cell_length_a 7.571480
_cell_length_b 25.370809
_cell_length_c 10.883806
_cell_angle_alpha 90.000000
_cell_angle_beta 141.955442
_cell_angle_gamma 90.000000
_cell_volume 1288.456652
_symmetry_space_group_name_H-M "C 2/M"
_symmetry_group_IT_number 12
_symmetry_cell_setting 'monoclinic'
loop_
_space_group_symop_operation_xyz
x,y,z
-x,y,-z
-x,-y,-z
x,-y,z
1/2+x,1/2+y,z
1/2-x,1/2+y,-z
1/2-x,1/2-y,-z
1/2+x,1/2-y,z
loop_
_atom_site_type_symbol
_atom_site_label
_atom_site_fract_x
_atom_site_fract_y
_atom_site_fract_z
Si Si1 0.000418 0.771128 0.228531
Si Si2 0.089469 0.439659 0.249668
Si Si3 0.528026 0.441112 0.767639
Si Si4 0.000000 0.198751 0.500000
Si Si5 0.721576 0.861208 0.759467
O O1 0.913427 0.806299 0.300108
O O2 0.184725 0.719960 0.362921
O O3 0.234061 0.804462 0.277763
O O4 0.750000 0.750000 0.000000
O O5 0.095902 0.500000 0.303789
O O6 0.034177 0.390070 0.307422
O O7 0.360094 0.432736 0.308652
O O8 0.811202 0.439009 0.008172
O O9 0.414400 0.500000 0.718139
O O10 0.303688 0.400749 0.695504
O O11 0.000000 0.863171 0.000000
#
# Coordination Sequence:
#
# PCOD9173488 Si02
#       5
#     8   8   8   4   8
#     4  11  23  45  68  98 132 177 223 282 343 405
#     4   8  14  26  44  76 124 167 208 267 326 388
#     4   8  14  26  44  77 124 167 208 266 327 388
#     4  10  24  46  68  92 134 176 218 278 350 404
#     4  10  18  30  53  89 123 166 221 268 327 400
#
# _framework density 27.940403
#
# number of rings (size 3 to 8) (size 9 to 14) (size 15 to 20)
#    0.000    2.667    0.000    4.000    0.000    2.667 
#   24.000    0.000    0.000    0.000    0.000    6.222 
#    0.000   28.444    0.000    2.000    0.000    0.000 
#
# Total GULP energy -100360.124105 kJ/mol
# GULP energy per Si atom -5575.562450 kJ/mol
# Density = 2.787681 g / cm^3
# Si number density = 27.940403 Si / 1000 Ang^3
#
#
#
# Elastic Constant Matrix: (Units=GPa)
#
#
# Indices 1 2 3 4 5 6 
#
# 1 135.1502 65.5889 -7.0093 0.0000 -22.1493 0.0000
# 2 65.5889 163.9290 12.7871 0.0000 -9.5342 0.0000
# 3 -7.0093 12.7871 172.7632 0.0000 -24.2643 0.0000
# 4 0.0000 0.0000 0.0000 -28.4815 0.0000 -10.7775
# 5 -22.1493 -9.5342 -24.2643 0.0000 48.6865 0.0000
# 6 0.0000 0.0000 0.0000 -10.7775 0.0000 36.9305
#
#
#
# Elastic Compliance Matrix: (Units=1/GPa)
#
#
# Indices 1 2 3 4 5 6 
#
# 1 0.010086 -0.003878 0.001327 0.000000 0.004490 0.000000
# 2 -0.003878 0.007677 -0.000820 0.000000 -0.000669 0.000000
# 3 0.001327 -0.000820 0.006414 0.000000 0.003640 0.000000
# 4 0.000000 0.000000 0.000000 -0.031619 0.000000 -0.009227
# 5 0.004490 -0.000669 0.003640 0.000000 0.024265 0.000000
# 6 0.000000 0.000000 0.000000 -0.009227 0.000000 0.024385
#
#
# Mechanical properties :
#
#
# Convention : Reuss Voigt Hill
#
# Bulk Modulus (GPa) = 57.35363 68.28620 62.81991
# Shear Modulus (GPa) = 93.00510 38.12548 65.56529
#
# Velocity S-wave (km/s) = 5.77574 3.69796 4.84944
# Velocity P-wave (km/s) = 8.06540 6.53653 7.34087
#
# Compressibility (1/GPa) = 0.01743569
#
# Stress axis : x y z
#
# Youngs Moduli (GPa) = 99.14979 130.26436 155.91014
#
# Poissons Ratio (x) = 0.50513 -0.20687
# Poissons Ratio (y) = 0.38447 0.12777
# Poissons Ratio (z) = -0.13156 0.10675
#
# Static dielectric constant tensor:
#      x y z
#    x 2.122940 0.000000 -0.113260 
#    y 0.000000 2.290520 0.000000 
#    z -0.113260 0.000000 2.157740 
# 
# From -- ./inp_files/124003.got.cif
#   From: 2010.05.17/outbox.cif.g08.bks.cpg/sg12_63_cif.got.tgz:124003.got - 2010.06.03 13:09:07.
