data_PCOD9173197
_publ_section_title
;
Structure prediction by ZEFSAII (Michael W. Deem and Ramdas Pophale) SiO2 
 PCOD9173197
Probable space group: C 2/M
;
_chemical_formula_sum "Si O2"
_cell_formula_units_Z 44
_cell_length_a 23.408249
_cell_length_b 11.532332
_cell_length_c 12.563954
_cell_angle_alpha 90.000000
_cell_angle_beta 137.841097
_cell_angle_gamma 90.000000
_cell_volume 2276.445555
_symmetry_space_group_name_H-M "C 2/M"
_symmetry_group_IT_number 12
_symmetry_cell_setting 'monoclinic'
loop_
_space_group_symop_operation_xyz
x,y,z
-x,y,-z
-x,-y,-z
x,-y,z
1/2+x,1/2+y,z
1/2-x,1/2+y,-z
1/2-x,1/2-y,-z
1/2+x,1/2-y,z
loop_
_atom_site_type_symbol
_atom_site_label
_atom_site_fract_x
_atom_site_fract_y
_atom_site_fract_z
Si Si1 0.825942 0.703947 0.478099
Si Si2 0.817550 0.374107 0.704972
Si Si3 0.416601 0.628434 0.307682
Si Si4 0.500000 0.219280 0.000000
Si Si5 0.396687 0.873972 0.357714
Si Si6 0.478759 0.633393 0.761197
O O1 0.812041 0.635666 0.568762
O O2 0.739202 0.769704 0.329465
O O3 0.862826 0.632480 0.431424
O O4 0.895142 0.802843 0.601282
O O5 0.786439 0.500000 0.696625
O O6 0.915145 0.355725 0.870771
O O7 0.500000 0.626270 0.500000
O O8 0.375410 0.500000 0.264938
O O9 0.370278 0.750086 0.269945
O O10 0.451638 0.636944 0.236124
O O11 0.493518 0.298969 0.095456
O O12 0.500000 0.873426 0.500000
O O13 0.370541 0.000000 0.274899
O O14 0.459763 0.500000 0.759529
#
# Coordination Sequence:
#
# PCOD9173197 Si02
#       6
#     8   8   8   4   8   8
#     4  10  19  33  55  84 111 143 188 238 284 333
#     4  10  21  36  54  78 112 151 191 237 286 338
#     4   9  16  28  49  80 111 141 181 231 278 327
#     4  10  22  36  52  78 110 152 192 226 284 352
#     4  10  18  30  50  84 119 145 174 226 291 339
#     4  10  18  32  53  80 111 143 185 233 281 334
#
# _framework density 19.328377
#
# number of rings (size 3 to 8) (size 9 to 14) (size 15 to 20)
#    0.000    2.182    3.636    1.636    0.000    0.727 
#    0.000    3.636    0.000    1.091    0.000    0.000 
#    0.000    0.000    0.000    0.000    0.000    0.000 
#
# Total GULP energy -122600.826545 kJ/mol
# GULP energy per Si atom -5572.764843 kJ/mol
# Density = 1.928438 g / cm^3
# Si number density = 19.328377 Si / 1000 Ang^3
#
#
#
# Elastic Constant Matrix: (Units=GPa)
#
#
# Indices 1 2 3 4 5 6 
#
# 1 70.9389 15.7817 9.6568 0.0000 -7.4448 0.0000
# 2 15.7817 151.1908 17.6380 0.0000 -0.5668 0.0000
# 3 9.6568 17.6380 47.6233 0.0000 3.1780 0.0000
# 4 0.0000 0.0000 0.0000 -3.8611 0.0000 -9.7994
# 5 -7.4448 -0.5668 3.1780 0.0000 21.2058 0.0000
# 6 0.0000 0.0000 0.0000 -9.7994 0.0000 9.5317
#
#
#
# Elastic Compliance Matrix: (Units=1/GPa)
#
#
# Indices 1 2 3 4 5 6 
#
# 1 0.015398 -0.001229 -0.003056 0.000000 0.005831 0.000000
# 2 -0.001229 0.007018 -0.002357 0.000000 0.000109 0.000000
# 3 -0.003056 -0.002357 0.022795 0.000000 -0.004552 0.000000
# 4 0.000000 0.000000 0.000000 -0.071758 0.000000 -0.073773
# 5 0.005831 0.000109 -0.004552 0.000000 0.049889 0.000000
# 6 0.000000 0.000000 0.000000 -0.073773 0.000000 0.029068
#
#
# Mechanical properties :
#
#
# Convention : Reuss Voigt Hill
#
# Bulk Modulus (GPa) = 31.32282 39.54512 35.43397
# Shear Modulus (GPa) = 65.49991 20.48706 42.99349
#
# Velocity S-wave (km/s) = 5.82765 3.25922 4.72144
# Velocity P-wave (km/s) = 7.84365 5.88790 6.93506
#
# Compressibility (1/GPa) = 0.03192560
#
# Stress axis : x y z
#
# Youngs Moduli (GPa) = 64.94348 142.49390 43.86992
#
# Poissons Ratio (x) = 0.17511 0.13408
# Poissons Ratio (y) = 0.07981 0.10341
# Poissons Ratio (z) = 0.19849 0.33590
#
# Static dielectric constant tensor:
#      x y z
#    x 1.672470 0.000000 -0.001810 
#    y 0.000000 1.723810 0.000000 
#    z -0.001810 0.000000 1.644320 
# 
# From -- ./inp_files/175392.got.cif
#   From: 2010.05.17/outbox.cif.g08.bks.cpg/sg12_88_cif.got.tgz:175392.got - 2010.06.03 13:09:07.
