data_PCOD9173820
_publ_section_title
;
Structure prediction by ZEFSAII (Michael W. Deem and Ramdas Pophale) SiO2 
 PCOD9173820
Probable space group: C 2/M
;
_chemical_formula_sum "Si O2"
_cell_formula_units_Z 64
_cell_length_a 19.669741
_cell_length_b 20.792426
_cell_length_c 12.294735
_cell_angle_alpha 90.000000
_cell_angle_beta 122.960311
_cell_angle_gamma 90.000000
_cell_volume 4219.000712
_symmetry_space_group_name_H-M "C 2/M"
_symmetry_group_IT_number 12
_symmetry_cell_setting 'monoclinic'
loop_
_space_group_symop_operation_xyz
x,y,z
-x,y,-z
-x,-y,-z
x,-y,z
1/2+x,1/2+y,z
1/2-x,1/2+y,-z
1/2-x,1/2-y,-z
1/2+x,1/2-y,z
loop_
_atom_site_type_symbol
_atom_site_label
_atom_site_fract_x
_atom_site_fract_y
_atom_site_fract_z
Si Si1 0.908922 0.829492 0.880570
Si Si2 0.990922 0.670907 0.621116
Si Si3 0.620099 0.275715 0.377577
Si Si4 0.738266 0.423274 0.220789
Si Si5 0.263386 0.834981 0.621861
Si Si6 0.208627 0.278607 0.125481
Si Si7 0.673471 0.829078 0.856630
Si Si8 0.656217 0.923842 0.471010
O O1 0.909835 0.813940 0.753322
O O2 0.849075 0.889584 0.846383
O O3 0.864997 0.769123 0.903409
O O4 0.000000 0.838720 0.000000
O O5 0.950071 0.737289 0.623263
O O6 0.928458 0.614179 0.597927
O O7 0.000000 0.669627 0.500000
O O8 0.078575 0.665214 0.751204
O O9 0.680497 0.220965 0.382445
O O10 0.672869 0.319228 0.503999
O O11 0.733509 0.500000 0.209462
O O12 0.783071 0.391239 0.156995
O O13 0.790708 0.406284 0.375161
O O14 0.273844 0.826122 0.759260
O O15 0.295332 0.899354 0.592675
O O16 0.285185 0.231299 0.170926
O O17 0.189968 0.315372 0.997586
O O18 0.644324 0.000000 0.460720
#
# Coordination Sequence:
#
# PCOD9173820 Si02
#       8
#     8   8   8   8   8   8   8   8
#     4  10  18  31  50  75  99 122 155 201 254 289
#     4  11  19  28  47  74 101 126 159 197 238 290
#     4   9  17  27  47  72  97 120 156 198 242 284
#     4  10  20  34  50  68  97 132 166 200 237 284
#     4   9  16  31  50  69  91 127 164 200 235 278
#     4   9  19  32  52  71 101 131 156 195 248 297
#     4  10  19  33  47  74 103 131 158 192 243 295
#     4  10  20  33  49  71  97 130 168 204 238 277
#
# _framework density 15.169468999999999
#
# number of rings (size 3 to 8) (size 9 to 14) (size 15 to 20)
#    0.000    2.250    2.500    1.500    3.500    1.000 
#    0.000    0.625    0.000    0.750    0.000    0.000 
#    0.000    3.000    0.000    0.000    0.000    0.000 
#
# Total GULP energy -178365.273667 kJ/mol
# GULP energy per Si atom -5573.914802 kJ/mol
# Density = 1.513494 g / cm^3
# Si number density = 15.169469 Si / 1000 Ang^3
#
#
#
# Elastic Constant Matrix: (Units=GPa)
#
#
# Indices 1 2 3 4 5 6 
#
# 1 88.3293 49.7630 59.5518 0.0000 9.0516 0.0000
# 2 49.7630 71.9884 53.9602 0.0000 2.8434 0.0000
# 3 59.5518 53.9602 108.4078 0.0000 7.9719 0.0000
# 4 0.0000 0.0000 0.0000 6.7513 0.0000 -2.0146
# 5 9.0516 2.8434 7.9719 0.0000 38.1859 0.0000
# 6 0.0000 0.0000 0.0000 -2.0146 0.0000 13.2199
#
#
#
# Elastic Compliance Matrix: (Units=1/GPa)
#
#
# Indices 1 2 3 4 5 6 
#
# 1 0.021771 -0.009781 -0.006870 0.000000 -0.002998 0.000000
# 2 -0.009781 0.026569 -0.008000 0.000000 0.002010 0.000000
# 3 -0.006870 -0.008000 0.017079 0.000000 -0.001341 0.000000
# 4 0.000000 0.000000 0.000000 0.155176 0.000000 0.023648
# 5 -0.002998 0.002010 -0.001341 0.000000 0.027029 0.000000
# 6 0.000000 0.000000 0.000000 0.023648 0.000000 0.079247
#
#
# Mechanical properties :
#
#
# Convention : Reuss Voigt Hill
#
# Bulk Modulus (GPa) = 62.04682 66.14171 64.09427
# Shear Modulus (GPa) = 13.10457 18.66145 15.88301
#
# Velocity S-wave (km/s) = 2.94237 3.51122 3.23931
# Velocity P-wave (km/s) = 7.24808 7.75466 7.50564
#
# Compressibility (1/GPa) = 0.01611686
#
# Stress axis : x y z
#
# Youngs Moduli (GPa) = 45.93225 37.63716 58.55130
#
# Poissons Ratio (x) = 0.36814 0.40227
# Poissons Ratio (y) = 0.44928 0.46839
# Poissons Ratio (z) = 0.31558 0.30108
#
# Static dielectric constant tensor:
#      x y z
#    x 1.501230 0.000000 -0.001350 
#    y 0.000000 1.488740 0.000000 
#    z -0.001350 0.000000 1.495870 
# 
# From -- ./inp_files/169431.got.cif
#   From: 2010.05.17/outbox.cif.g08.bks.cpg/sg12_85_cif.got.tgz:169431.got - 2010.06.03 13:09:07.
