data_PCOD9173896
_publ_section_title
;
Structure prediction by ZEFSAII (Michael W. Deem and Ramdas Pophale) SiO2 
 PCOD9173896
Probable space group: C 2/M
;
_chemical_formula_sum "Si O2"
_cell_formula_units_Z 56
_cell_length_a 20.268434
_cell_length_b 8.875297
_cell_length_c 24.850232
_cell_angle_alpha 90.000000
_cell_angle_beta 47.105889
_cell_angle_gamma 90.000000
_cell_volume 3274.975657
_symmetry_space_group_name_H-M "C 2/M"
_symmetry_group_IT_number 12
_symmetry_cell_setting 'monoclinic'
loop_
_space_group_symop_operation_xyz
x,y,z
-x,y,-z
-x,-y,-z
x,-y,z
1/2+x,1/2+y,z
1/2-x,1/2+y,-z
1/2-x,1/2-y,-z
1/2+x,1/2-y,z
loop_
_atom_site_type_symbol
_atom_site_label
_atom_site_fract_x
_atom_site_fract_y
_atom_site_fract_z
Si Si1 0.132739 0.679718 0.633804
Si Si2 0.028029 0.320463 0.581027
Si Si3 0.804763 0.679500 0.584714
Si Si4 0.694025 0.178953 0.193353
Si Si5 0.707932 0.322644 0.075915
Si Si6 0.468575 0.678266 0.771583
Si Si7 0.168882 0.821042 0.316574
O O1 0.139351 0.500000 0.635380
O O2 0.085297 0.713942 0.603090
O O3 0.229408 0.755084 0.586799
O O4 0.066113 0.749077 0.716027
O O5 0.006550 0.500000 0.593670
O O6 0.096027 0.290615 0.494100
O O7 0.935680 0.230413 0.627554
O O8 0.794548 0.500000 0.594644
O O9 0.793526 0.756315 0.648660
O O10 0.740466 0.245990 0.113833
O O11 0.590868 0.232398 0.239641
O O12 0.717825 0.250344 0.237217
O O13 0.700059 0.000000 0.191129
O O14 0.726657 0.500000 0.067384
O O15 0.598500 0.304402 0.140155
O O16 0.750000 0.250000 0.000000
O O17 0.473102 0.500000 0.756710
O O18 0.175114 0.000000 0.311142
#
# Coordination Sequence:
#
# PCOD9173896 Si02
#       7
#     8   8   8   8   8   8   8
#     4  11  21  35  55  77 103 137 177 219 266 318
#     4  10  21  37  56  75  99 135 175 220 273 322
#     4  11  24  38  52  73 104 138 176 223 271 317
#     4  10  18  31  51  74 102 136 171 208 256 307
#     4   9  17  28  47  78 112 139 169 211 256 302
#     4   9  18  31  49  75 103 136 172 206 252 306
#     4  12  23  36  54  76 103 136 178 222 266 319
#
# _framework density 17.099363
#
# number of rings (size 3 to 8) (size 9 to 14) (size 15 to 20)
#    0.857    0.857    1.429    4.714    0.000    3.429 
#    0.000    0.000    0.000    0.000    0.000    1.000 
#    0.000    8.000    0.000    0.000    0.000    0.000 
#
# Total GULP energy -156038.202506 kJ/mol
# GULP energy per Si atom -5572.792947 kJ/mol
# Density = 1.706044 g / cm^3
# Si number density = 17.099363 Si / 1000 Ang^3
#
#
#
# Elastic Constant Matrix: (Units=GPa)
#
#
# Indices 1 2 3 4 5 6 
#
# 1 30.4492 14.7235 4.6597 0.0000 12.4647 0.0001
# 2 14.7235 93.8361 37.2007 0.0000 14.2200 0.0001
# 3 4.6597 37.2007 81.8108 0.0000 23.4146 0.0000
# 4 0.0000 0.0000 0.0000 26.2863 0.0000 -1.2493
# 5 12.4647 14.2200 23.4146 0.0000 23.1314 0.0000
# 6 0.0001 0.0001 0.0000 -1.2493 0.0000 24.8517
#
#
#
# Elastic Compliance Matrix: (Units=1/GPa)
#
#
# Indices 1 2 3 4 5 6 
#
# 1 0.046991 -0.006285 0.008902 0.000000 -0.030469 0.000000
# 2 -0.006285 0.013974 -0.006345 0.000000 0.001219 0.000000
# 3 0.008902 -0.006345 0.020918 0.000000 -0.022070 0.000000
# 4 0.000000 0.000000 0.000000 0.038134 0.000000 0.001917
# 5 -0.030469 0.001219 -0.022070 0.000000 0.081241 0.000000
# 6 0.000000 0.000000 0.000000 0.001917 0.000000 0.040335
#
#
# Mechanical properties :
#
#
# Convention : Reuss Voigt Hill
#
# Bulk Modulus (GPa) = 13.43613 35.47379 24.45496
# Shear Modulus (GPa) = 18.25764 24.82135 21.53950
#
# Velocity S-wave (km/s) = 3.27117 3.81411 3.55303
# Velocity P-wave (km/s) = 4.70554 6.33935 5.58254
#
# Compressibility (1/GPa) = 0.07442620
#
# Stress axis : x y z
#
# Youngs Moduli (GPa) = 21.28064 71.56284 47.80549
#
# Poissons Ratio (x) = 0.44977 -0.42555
# Poissons Ratio (y) = 0.13375 0.30333
# Poissons Ratio (z) = -0.18943 0.45407
#
# Static dielectric constant tensor:
#      x y z
#    x 1.594620 0.000000 0.008960 
#    y 0.000000 1.564770 0.000000 
#    z 0.008960 0.000000 1.608990 
# 
# From -- ./inp_files/345484.got.cif
#   From: 2010.05.17/outbox.cif.g08.bks.cpg/sg12_173_cif.got.tgz:345484.got - 2010.06.03 13:09:07.
