data_PCOD9173322
_publ_section_title
;
Structure prediction by ZEFSAII (Michael W. Deem and Ramdas Pophale) SiO2 
 PCOD9173322
Probable space group: C 2/M
;
_chemical_formula_sum "Si O2"
_cell_formula_units_Z 64
_cell_length_a 34.566951
_cell_length_b 8.808645
_cell_length_c 21.975516
_cell_angle_alpha 90.000000
_cell_angle_beta 146.679634
_cell_angle_gamma 90.000000
_cell_volume 3675.653592
_symmetry_space_group_name_H-M "C 2/M"
_symmetry_group_IT_number 12
_symmetry_cell_setting 'monoclinic'
loop_
_space_group_symop_operation_xyz
x,y,z
-x,y,-z
-x,-y,-z
x,-y,z
1/2+x,1/2+y,z
1/2-x,1/2+y,-z
1/2-x,1/2-y,-z
1/2+x,1/2-y,z
loop_
_atom_site_type_symbol
_atom_site_label
_atom_site_fract_x
_atom_site_fract_y
_atom_site_fract_z
Si Si1 0.950502 0.682352 0.567426
Si Si2 0.106799 0.682546 0.746515
Si Si3 0.481899 0.680790 0.740371
Si Si4 0.231224 0.683759 0.823573
Si Si5 0.301534 0.680647 0.345213
Si Si6 0.138158 0.319199 0.344806
Si Si7 0.753330 0.181030 0.601694
Si Si8 0.140598 0.818989 0.920863
O O1 0.943652 0.500000 0.556114
O O2 0.956761 0.736042 0.645656
O O3 0.881538 0.757075 0.448859
O O4 0.024861 0.728478 0.634671
O O5 0.107602 0.500000 0.749669
O O6 0.157825 0.729824 0.759173
O O7 0.137079 0.741706 0.850376
O O8 0.471028 0.500000 0.719521
O O9 0.435727 0.744072 0.734774
O O10 0.565392 0.709945 0.854172
O O11 0.232076 0.500000 0.818659
O O12 0.236659 0.758292 0.765054
O O13 0.294397 0.728412 0.951861
O O14 0.301820 0.500000 0.347637
O O15 0.266347 0.745665 0.360117
O O16 0.131700 0.500000 0.330291
O O17 0.176801 0.249171 0.337231
O O18 0.190395 0.287489 0.470712
O O19 0.759154 0.000000 0.615494
O O20 0.146208 0.000000 0.918544
#
# Coordination Sequence:
#
# PCOD9173322 Si02
#       8
#     8   8   8   8   8   8   8   8
#     4  10  19  33  51  75 105 139 175 213 265 317
#     4   9  19  34  56  80 103 134 175 224 269 312
#     4  10  18  30  51  80 110 138 171 214 261 308
#     4  10  21  38  55  74 103 142 182 218 263 316
#     4  12  24  36  52  75 106 142 178 217 260 313
#     4  10  19  31  52  81 110 139 172 208 255 308
#     4  10  20  34  53  77 108 141 171 209 257 310
#     4   9  19  34  55  80 106 137 175 221 267 309
#
# _framework density 17.411868999999999
#
# number of rings (size 3 to 8) (size 9 to 14) (size 15 to 20)
#    0.000    2.000    1.250    3.000    0.000    3.500 
#    0.000    2.500    0.000    0.750    0.000    5.250 
#    0.000    0.000    0.000    0.000    0.000    0.000 
#
# Total GULP energy -178651.244099 kJ/mol
# GULP energy per Si atom -5582.851378 kJ/mol
# Density = 1.737224 g / cm^3
# Si number density = 17.411869 Si / 1000 Ang^3
#
#
#
# Elastic Constant Matrix: (Units=GPa)
#
#
# Indices 1 2 3 4 5 6 
#
# 1 104.0968 36.7363 17.3839 0.0000 -5.2862 0.0000
# 2 36.7363 37.9428 4.7311 0.0000 -4.8917 0.0000
# 3 17.3839 4.7311 14.3464 0.0000 -8.7646 0.0000
# 4 0.0000 0.0000 0.0000 23.0502 0.0000 -2.4397
# 5 -5.2862 -4.8917 -8.7646 0.0000 17.5137 0.0000
# 6 0.0000 0.0000 0.0000 -2.4397 0.0000 24.8361
#
#
#
# Elastic Compliance Matrix: (Units=1/GPa)
#
#
# Indices 1 2 3 4 5 6 
#
# 1 0.019048 -0.016844 -0.024325 0.000000 -0.011128 0.000000
# 2 -0.016844 0.042632 0.015152 0.000000 0.014406 0.000000
# 3 -0.024325 0.015152 0.132920 0.000000 0.063409 0.000000
# 4 0.000000 0.000000 0.000000 0.043839 0.000000 0.004306
# 5 -0.011128 0.014406 0.063409 0.000000 0.089496 0.000000
# 6 0.000000 0.000000 0.000000 0.004306 0.000000 0.040687
#
#
# Mechanical properties :
#
#
# Convention : Reuss Voigt Hill
#
# Bulk Modulus (GPa) = 7.01422 30.45428 18.73425
# Shear Modulus (GPa) = 10.67974 19.58230 15.13102
#
# Velocity S-wave (km/s) = 2.47930 3.35722 2.95109
# Velocity P-wave (km/s) = 3.49758 5.70582 4.73231
#
# Compressibility (1/GPa) = 0.14256745
#
# Stress axis : x y z
#
# Youngs Moduli (GPa) = 52.49973 23.45679 7.52330
#
# Poissons Ratio (x) = 0.39510 0.18300
# Poissons Ratio (y) = 0.88429 -0.11400
# Poissons Ratio (z) = 1.27704 -0.35542
#
# Static dielectric constant tensor:
#      x y z
#    x 1.594220 0.000000 0.025780 
#    y 0.000000 1.579440 0.000000 
#    z 0.025780 0.000000 1.573690 
# 
# From -- ./inp_files/295844.got.cif
#   From: 2010.05.17/outbox.cif.g08.bks.cpg/sg12_148_cif.got.tgz:295844.got - 2010.06.03 13:09:07.
