data_PCOD9173684
_publ_section_title
;
Structure prediction by ZEFSAII (Michael W. Deem and Ramdas Pophale) SiO2 
 PCOD9173684
Probable space group: C 2/M
;
_chemical_formula_sum "Si O2"
_cell_formula_units_Z 48
_cell_length_a 28.695541
_cell_length_b 8.170088
_cell_length_c 12.137626
_cell_angle_alpha 90.000000
_cell_angle_beta 109.919799
_cell_angle_gamma 90.000000
_cell_volume 2675.355504
_symmetry_space_group_name_H-M "C 2/M"
_symmetry_group_IT_number 12
_symmetry_cell_setting 'monoclinic'
loop_
_space_group_symop_operation_xyz
x,y,z
-x,y,-z
-x,-y,-z
x,-y,z
1/2+x,1/2+y,z
1/2-x,1/2+y,-z
1/2-x,1/2-y,-z
1/2+x,1/2-y,z
loop_
_atom_site_type_symbol
_atom_site_label
_atom_site_fract_x
_atom_site_fract_y
_atom_site_fract_z
Si Si1 0.603832 0.804816 0.252050
Si Si2 0.627270 0.190525 0.617093
Si Si3 0.065557 0.804600 0.758539
Si Si4 0.694374 0.196969 0.477724
Si Si5 0.959722 0.808560 0.606029
Si Si6 0.054427 0.801780 0.999764
O O1 0.656068 0.755456 0.349533
O O2 0.561835 0.711083 0.288243
O O3 0.595086 0.761690 0.118580
O O4 0.597714 0.000000 0.263263
O O5 0.613071 0.266992 0.722504
O O6 0.671246 0.259153 0.575090
O O7 0.578680 0.213759 0.501296
O O8 0.636473 0.000000 0.642673
O O9 0.015777 0.745724 0.655837
O O10 0.059833 0.000000 0.759743
O O11 0.064587 0.743970 0.883300
O O12 0.750000 0.250000 0.500000
O O13 0.693115 0.000000 0.481868
O O14 0.958731 0.000000 0.572302
O O15 0.055136 0.000000 0.001224
O O16 0.000000 0.749701 0.000000
#
# Coordination Sequence:
#
# PCOD9173684 Si02
#       6
#     8   8   8   8   8   8
#     4  10  20  33  50  78 108 133 170 215 260 304
#     4  10  21  34  48  74 106 130 164 214 263 308
#     4  10  20  32  48  71 102 141 179 207 240 295
#     4   9  20  37  56  78 101 126 163 214 265 314
#     4  10  18  31  49  70 101 140 176 209 245 295
#     4  10  19  34  51  72 105 144 182 213 239 289
#
# _framework density 17.941541000000001
#
# number of rings (size 3 to 8) (size 9 to 14) (size 15 to 20)
#    0.000    2.167    1.667    3.000    0.000    8.333 
#    0.000    0.000    0.000    1.000    0.000    0.000 
#    0.000    0.000    0.000    0.000    0.000    0.000 
#
# Total GULP energy -133852.146698 kJ/mol
# GULP energy per Si atom -5577.172779 kJ/mol
# Density = 1.790070 g / cm^3
# Si number density = 17.941541 Si / 1000 Ang^3
#
#
#
# Elastic Constant Matrix: (Units=GPa)
#
#
# Indices 1 2 3 4 5 6 
#
# 1 133.1634 5.8867 56.0309 0.0000 -14.2147 0.0000
# 2 5.8867 10.6639 -2.1234 0.0000 0.4575 0.0000
# 3 56.0309 -2.1234 77.1193 0.0000 -22.8817 0.0000
# 4 0.0000 0.0000 0.0000 25.9867 0.0000 -2.5652
# 5 -14.2147 0.4575 -22.8817 0.0000 25.6542 0.0000
# 6 0.0000 0.0000 0.0000 -2.5652 0.0000 15.5755
#
#
#
# Elastic Compliance Matrix: (Units=1/GPa)
#
#
# Indices 1 2 3 4 5 6 
#
# 1 0.011506 -0.008085 -0.009040 0.000000 -0.001544 0.000000
# 2 -0.008085 0.099987 0.009205 0.000000 0.001947 0.000000
# 3 -0.009040 0.009205 0.024823 0.000000 0.016967 0.000000
# 4 0.000000 0.000000 0.000000 0.039117 0.000000 0.006442
# 5 -0.001544 0.001947 0.016967 0.000000 0.053223 0.000000
# 6 0.000000 0.000000 0.000000 0.006442 0.000000 0.065265
#
#
# Mechanical properties :
#
#
# Convention : Reuss Voigt Hill
#
# Bulk Modulus (GPa) = 8.30051 37.83720 23.06886
# Shear Modulus (GPa) = 14.28899 24.18678 19.23789
#
# Velocity S-wave (km/s) = 2.82515 3.67562 3.27808
# Velocity P-wave (km/s) = 3.90876 6.25687 5.21665
#
# Compressibility (1/GPa) = 0.12047453
#
# Stress axis : x y z
#
# Youngs Moduli (GPa) = 86.91016 10.00132 40.28546
#
# Poissons Ratio (x) = 0.08087 0.36420
# Poissons Ratio (y) = 0.70271 -0.37084
# Poissons Ratio (z) = 0.78571 -0.09207
#
# Static dielectric constant tensor:
#      x y z
#    x 1.617710 0.000000 -0.029280 
#    y 0.000000 1.627480 0.000000 
#    z -0.029280 0.000000 1.638030 
# 
# From -- ./inp_files/172373.got.cif
#   From: 2010.05.17/outbox.cif.g08.bks.cpg/sg12_87_cif.got.tgz:172373.got - 2010.06.03 13:09:07.
