data_PCOD9173548
_publ_section_title
;
Structure prediction by ZEFSAII (Michael W. Deem and Ramdas Pophale) SiO2 
 PCOD9173548
Probable space group: C 2/M
;
_chemical_formula_sum "Si O2"
_cell_formula_units_Z 52
_cell_length_a 12.767279
_cell_length_b 19.173320
_cell_length_c 14.111045
_cell_angle_alpha 90.000000
_cell_angle_beta 135.562955
_cell_angle_gamma 90.000000
_cell_volume 2418.413286
_symmetry_space_group_name_H-M "C 2/M"
_symmetry_group_IT_number 12
_symmetry_cell_setting 'monoclinic'
loop_
_space_group_symop_operation_xyz
x,y,z
-x,y,-z
-x,-y,-z
x,-y,z
1/2+x,1/2+y,z
1/2-x,1/2+y,-z
1/2-x,1/2-y,-z
1/2+x,1/2-y,z
loop_
_atom_site_type_symbol
_atom_site_label
_atom_site_fract_x
_atom_site_fract_y
_atom_site_fract_z
Si Si1 0.831248 0.579961 0.354015
Si Si2 0.246713 0.415262 0.347525
Si Si3 0.614328 0.419080 0.372580
Si Si4 0.000000 0.809537 0.000000
Si Si5 0.340211 0.623542 0.075517
Si Si6 0.666395 0.822548 0.125156
Si Si7 0.577474 0.079494 0.783795
O O1 0.771614 0.500000 0.302241
O O2 0.729421 0.612995 0.370053
O O3 0.847667 0.613285 0.260833
O O4 0.000000 0.576395 0.500000
O O5 0.253547 0.500000 0.332946
O O6 0.364396 0.394604 0.505766
O O7 0.252061 0.369527 0.256394
O O8 0.083420 0.395458 0.285844
O O9 0.658695 0.500000 0.410326
O O10 0.454311 0.413891 0.220007
O O11 0.068676 0.852285 0.957829
O O12 0.879062 0.755743 0.876929
O O13 0.261007 0.681658 0.089607
O O14 0.199564 0.581012 0.944980
O O15 0.500000 0.855630 0.000000
O O16 0.546024 0.000000 0.734685
#
# Coordination Sequence:
#
# PCOD9173548 Si02
#       7
#     8   8   8   4   8   8   8
#     4   9  15  27  48  76 117 165 195 226 275 341
#     4  10  20  37  60  90 124 161 194 233 298 370
#     4  10  21  35  56  93 134 160 191 240 302 363
#     4  10  24  44  64  86 114 156 206 260 306 342
#     4  12  22  39  63  90 118 157 198 256 304 348
#     4  10  23  41  63  87 115 153 206 251 295 352
#     4  10  18  30  55  88 122 159 202 239 288 362
#
# _framework density 21.501701000000001
#
# number of rings (size 3 to 8) (size 9 to 14) (size 15 to 20)
#    0.462    1.385    3.077    1.846    0.000    2.154 
#    0.000    5.385    0.000    1.846    0.000    0.000 
#    0.000    0.000    0.000    0.000    0.000    0.000 
#
# Total GULP energy -144798.750474 kJ/mol
# GULP energy per Si atom -5569.182711 kJ/mol
# Density = 2.145276 g / cm^3
# Si number density = 21.501701 Si / 1000 Ang^3
#
#
#
# Elastic Constant Matrix: (Units=GPa)
#
#
# Indices 1 2 3 4 5 6 
#
# 1 84.9223 8.1003 16.9497 0.0000 -23.1669 0.0000
# 2 8.1003 30.0153 13.9242 0.0000 -8.6651 0.0000
# 3 16.9497 13.9242 142.0096 -0.0001 -8.0879 -0.0001
# 4 0.0000 0.0000 -0.0001 -0.4109 0.0000 -19.7571
# 5 -23.1669 -8.6651 -8.0879 0.0000 31.0422 -0.0001
# 6 0.0000 0.0000 -0.0001 -19.7571 -0.0001 0.1144
#
#
#
# Elastic Compliance Matrix: (Units=1/GPa)
#
#
# Indices 1 2 3 4 5 6 
#
# 1 0.014979 -0.000407 -0.001135 0.000000 0.010769 0.000000
# 2 -0.000407 0.037572 -0.003101 0.000000 0.009376 0.000000
# 3 -0.001135 -0.003101 0.007495 0.000000 0.000240 0.000000
# 4 0.000000 0.000000 0.000000 -0.000293 0.000000 -0.050609
# 5 0.010769 0.009376 0.000240 0.000000 0.042931 0.000000
# 6 0.000000 0.000000 0.000000 -0.050609 0.000000 0.001053
#
#
# Mechanical properties :
#
#
# Convention : Reuss Voigt Hill
#
# Bulk Modulus (GPa) = 19.70076 37.21063 28.45570
# Shear Modulus (GPa) = 38.47875 20.68066 29.57970
#
# Velocity S-wave (km/s) = 4.23492 3.10468 3.71306
# Velocity P-wave (km/s) = 5.75283 5.49504 5.62541
#
# Compressibility (1/GPa) = 0.05075946
#
# Stress axis : x y z
#
# Youngs Moduli (GPa) = 66.76166 26.61583 133.42272
#
# Poissons Ratio (x) = 0.01083 0.15137
# Poissons Ratio (y) = 0.02717 0.41380
# Poissons Ratio (z) = 0.07574 0.08255
#
# Static dielectric constant tensor:
#      x y z
#    x 1.858540 0.000000 -0.022910 
#    y 0.000000 1.782230 0.000000 
#    z -0.022910 0.000000 1.808270 
# 
# From -- ./inp_files/136017.got.cif
#   From: 2010.05.17/outbox.cif.g08.bks.cpg/sg12_69_cif.got.tgz:136017.got - 2010.06.03 13:09:07.
