data_PCOD9173175
_publ_section_title
;
Structure prediction by ZEFSAII (Michael W. Deem and Ramdas Pophale) SiO2 
 PCOD9173175
Probable space group: C 2/M
;
_chemical_formula_sum "Si O2"
_cell_formula_units_Z 56
_cell_length_a 20.390948
_cell_length_b 7.649014
_cell_length_c 26.992107
_cell_angle_alpha 90.000000
_cell_angle_beta 149.542923
_cell_angle_gamma 90.000000
_cell_volume 2134.006436
_symmetry_space_group_name_H-M "C 2/M"
_symmetry_group_IT_number 12
_symmetry_cell_setting 'monoclinic'
loop_
_space_group_symop_operation_xyz
x,y,z
-x,y,-z
-x,-y,-z
x,-y,z
1/2+x,1/2+y,z
1/2-x,1/2+y,-z
1/2-x,1/2-y,-z
1/2+x,1/2-y,z
loop_
_atom_site_type_symbol
_atom_site_label
_atom_site_fract_x
_atom_site_fract_y
_atom_site_fract_z
Si Si1 0.740253 0.713020 0.386425
Si Si2 0.479574 0.795433 0.835952
Si Si3 0.053177 0.207645 0.348058
Si Si4 0.485318 0.801034 0.414264
Si Si5 0.122978 0.799092 0.052825
Si Si6 0.710810 0.795991 0.208704
Si Si7 0.164570 0.287818 0.876252
O O1 0.738967 0.500000 0.383369
O O2 0.638500 0.780678 0.280239
O O3 0.681888 0.763471 0.402121
O O4 0.887625 0.773890 0.476386
O O5 0.412649 0.722038 0.841695
O O6 0.603682 0.719429 0.888016
O O7 0.502903 0.000000 0.859662
O O8 0.025064 0.296455 0.381922
O O9 0.939907 0.240681 0.234050
O O10 0.057684 0.000000 0.360478
O O11 0.344108 0.719214 0.325256
O O12 0.469309 0.000000 0.420187
O O13 0.223087 0.796707 0.164066
O O14 0.197538 0.721583 0.054368
O O15 0.092589 0.000000 0.021858
O O16 0.000000 0.714325 0.000000
O O17 0.691022 0.000000 0.186459
O O18 0.170645 0.500000 0.882706
#
# Coordination Sequence:
#
# PCOD9173175 Si02
#       7
#     8   8   8   8   8   8   8
#     4   9  20  34  50  76 109 147 189 232 270 315
#     4   9  20  37  56  78 109 150 189 225 268 320
#     4  10  18  30  50  78 109 141 184 231 273 318
#     4  11  21  33  50  75 110 149 188 228 276 325
#     4  10  21  38  62  89 112 137 175 223 276 335
#     4  11  23  38  56  81 112 145 183 229 278 323
#     4   9  17  34  58  80 107 145 183 218 266 327
#
# _framework density 26.241721999999999
#
# number of rings (size 3 to 8) (size 9 to 14) (size 15 to 20)
#    0.000    2.143    1.429    1.714    0.000    3.714 
#    0.000    3.571    0.000    0.000    0.000    0.000 
#    0.000    0.000    0.000    0.000    0.000    0.000 
#
# Total GULP energy -156633.762563 kJ/mol
# GULP energy per Si atom -5594.062949 kJ/mol
# Density = 2.618199 g / cm^3
# Si number density = 26.241722 Si / 1000 Ang^3
#
#
#
# Elastic Constant Matrix: (Units=GPa)
#
#
# Indices 1 2 3 4 5 6 
#
# 1 177.3714 12.4238 46.7364 0.0000 24.3056 0.0000
# 2 12.4238 88.1414 19.6414 -0.0002 5.0793 -0.0002
# 3 46.7364 19.6414 111.2922 0.0001 29.1705 0.0000
# 4 0.0000 -0.0002 0.0001 28.4208 0.0000 1.4144
# 5 24.3056 5.0793 29.1705 0.0000 61.3876 0.0000
# 6 0.0000 -0.0002 0.0000 1.4144 0.0000 9.8236
#
#
#
# Elastic Compliance Matrix: (Units=1/GPa)
#
#
# Indices 1 2 3 4 5 6 
#
# 1 0.006459 -0.000320 -0.002276 0.000000 -0.001449 0.000000
# 2 -0.000320 0.011826 -0.001976 0.000000 0.000087 0.000000
# 3 -0.002276 -0.001976 0.011435 0.000000 -0.004369 0.000000
# 4 0.000000 0.000000 0.000000 0.035439 0.000000 -0.005102
# 5 -0.001449 0.000087 -0.004369 0.000000 0.018933 0.000000
# 6 0.000000 0.000000 0.000000 -0.005102 0.000000 0.102531
#
#
# Mechanical properties :
#
#
# Convention : Reuss Voigt Hill
#
# Bulk Modulus (GPa) = 48.59840 59.37870 53.98855
# Shear Modulus (GPa) = 24.67631 39.79329 32.23480
#
# Velocity S-wave (km/s) = 3.06983 3.89834 3.50863
# Velocity P-wave (km/s) = 5.57897 6.55282 6.08541
#
# Compressibility (1/GPa) = 0.02057681
#
# Stress axis : x y z
#
# Youngs Moduli (GPa) = 154.83302 84.56158 87.45101
#
# Poissons Ratio (x) = 0.02703 0.19903
# Poissons Ratio (y) = 0.04949 0.17277
# Poissons Ratio (z) = 0.35239 0.16706
#
# Static dielectric constant tensor:
#      x y z
#    x 2.092700 0.000000 0.007510 
#    y 0.000000 1.949310 0.000000 
#    z 0.007510 0.000000 2.136460 
# 
# From -- ./inp_files/380735.got.cif
#   From: 2010.05.17/outbox.cif.g08.bks.cpg/sg12_191_cif.got.tgz:380735.got - 2010.06.03 13:09:07.
