data_PCOD9173959
_publ_section_title
;
Structure prediction by ZEFSAII (Michael W. Deem and Ramdas Pophale) SiO2 
 PCOD9173959
Probable space group: C 2/M
;
_chemical_formula_sum "Si O2"
_cell_formula_units_Z 64
_cell_length_a 20.734911
_cell_length_b 14.185653
_cell_length_c 12.271311
_cell_angle_alpha 90.000000
_cell_angle_beta 106.894598
_cell_angle_gamma 90.000000
_cell_volume 3453.681160
_symmetry_space_group_name_H-M "C 2/M"
_symmetry_group_IT_number 12
_symmetry_cell_setting 'monoclinic'
loop_
_space_group_symop_operation_xyz
x,y,z
-x,y,-z
-x,-y,-z
x,-y,z
1/2+x,1/2+y,z
1/2-x,1/2+y,-z
1/2-x,1/2-y,-z
1/2+x,1/2-y,z
loop_
_atom_site_type_symbol
_atom_site_label
_atom_site_fract_x
_atom_site_fract_y
_atom_site_fract_z
Si Si1 0.822704 0.114444 0.048366
Si Si2 0.648177 0.891617 0.591016
Si Si3 0.078179 0.796523 0.532726
Si Si4 0.601577 0.293924 0.293374
Si Si5 0.479284 0.389651 0.116539
Si Si6 0.279654 0.613913 0.789590
Si Si7 0.196588 0.886649 0.721767
Si Si8 0.327118 0.108636 0.649480
O O1 0.901725 0.139895 0.088413
O O2 0.791764 0.144902 0.148172
O O3 0.820186 0.000000 0.044847
O O4 0.789448 0.145836 0.919117
O O5 0.589482 0.814620 0.562370
O O6 0.706800 0.863448 0.703839
O O7 0.679598 0.888075 0.484642
O O8 0.627392 0.000000 0.600972
O O9 0.104228 0.816389 0.423117
O O10 0.126270 0.849652 0.640558
O O11 0.000000 0.821866 0.500000
O O12 0.530604 0.327977 0.211425
O O13 0.660729 0.344978 0.255408
O O14 0.615117 0.182234 0.290164
O O15 0.485127 0.500000 0.152249
O O16 0.500000 0.384124 0.000000
O O17 0.285737 0.500000 0.789246
O O18 0.258305 0.859670 0.673810
O O19 0.193768 0.000000 0.719834
O O20 0.341179 0.000000 0.686600
#
# Coordination Sequence:
#
# PCOD9173959 Si02
#       8
#     8   8   8   8   8   8   8   8
#     4   9  18  32  51  77 109 141 169 204 253 311
#     4   9  19  36  57  78 100 130 175 225 262 297
#     4  11  23  36  51  76 109 138 173 211 255 318
#     4  11  20  32  55  78 103 139 171 216 257 302
#     4  10  18  31  51  78 109 135 166 206 252 308
#     4  10  18  31  55  84 105 128 172 219 258 303
#     4  10  20  35  53  75 111 144 167 205 262 317
#     4   9  19  36  55  76 101 136 177 215 259 308
#
# _framework density 18.530951999999999
#
# number of rings (size 3 to 8) (size 9 to 14) (size 15 to 20)
#    0.000    2.125    1.250    2.625    0.000    4.500 
#    0.000    2.500    0.000    0.375    0.000    0.000 
#    0.000    0.000    0.000    0.000    0.000    0.000 
#
# Total GULP energy -178607.139498 kJ/mol
# GULP energy per Si atom -5581.473109 kJ/mol
# Density = 1.848878 g / cm^3
# Si number density = 18.530952 Si / 1000 Ang^3
#
#
#
# Elastic Constant Matrix: (Units=GPa)
#
#
# Indices 1 2 3 4 5 6 
#
# 1 36.6283 19.8143 17.9870 0.0000 4.5899 0.0000
# 2 19.8143 49.6476 37.1239 0.0000 11.3305 0.0000
# 3 17.9870 37.1239 97.4442 0.0000 12.9400 0.0000
# 4 0.0000 0.0000 0.0000 21.5026 0.0000 10.5482
# 5 4.5899 11.3305 12.9400 0.0000 26.2124 0.0000
# 6 0.0000 0.0000 0.0000 10.5482 0.0000 20.3782
#
#
#
# Elastic Compliance Matrix: (Units=1/GPa)
#
#
# Indices 1 2 3 4 5 6 
#
# 1 0.034995 -0.012812 -0.001605 0.000000 0.000203 0.000000
# 2 -0.012812 0.034249 -0.009647 0.000000 -0.007798 0.000000
# 3 -0.001605 -0.009647 0.014600 0.000000 -0.002756 0.000000
# 4 0.000000 0.000000 0.000000 0.062334 0.000000 -0.032265
# 5 0.000203 -0.007798 -0.002756 0.000000 0.042846 0.000000
# 6 0.000000 0.000000 0.000000 -0.032265 0.000000 0.065773
#
#
# Mechanical properties :
#
#
# Convention : Reuss Voigt Hill
#
# Bulk Modulus (GPa) = 28.00048 37.06339 32.53193
# Shear Modulus (GPa) = 15.88149 20.87164 18.37657
#
# Velocity S-wave (km/s) = 2.93068 3.35970 3.15249
# Velocity P-wave (km/s) = 5.15701 5.92405 5.55378
#
# Compressibility (1/GPa) = 0.03571368
#
# Stress axis : x y z
#
# Youngs Moduli (GPa) = 28.57543 29.19803 68.49284
#
# Poissons Ratio (x) = 0.37409 0.10996
# Poissons Ratio (y) = 0.36612 0.66078
# Poissons Ratio (z) = 0.04588 0.28169
#
# Static dielectric constant tensor:
#      x y z
#    x 1.610950 0.000000 -0.022680 
#    y 0.000000 1.661790 0.000000 
#    z -0.022680 0.000000 1.636860 
# 
# From -- ./inp_files/167237.got.cif
#   From: 2010.05.17/outbox.cif.g08.bks.cpg/sg12_84_cif.got.tgz:167237.got - 2010.06.03 13:09:07.
