data_PCOD9173515
_publ_section_title
;
Structure prediction by ZEFSAII (Michael W. Deem and Ramdas Pophale) SiO2 
 PCOD9173515
Probable space group: C 2/M
;
_chemical_formula_sum "Si O2"
_cell_formula_units_Z 52
_cell_length_a 13.292278
_cell_length_b 22.043040
_cell_length_c 9.768547
_cell_angle_alpha 90.000000
_cell_angle_beta 56.226115
_cell_angle_gamma 90.000000
_cell_volume 2379.174144
_symmetry_space_group_name_H-M "C 2/M"
_symmetry_group_IT_number 12
_symmetry_cell_setting 'monoclinic'
loop_
_space_group_symop_operation_xyz
x,y,z
-x,y,-z
-x,-y,-z
x,-y,z
1/2+x,1/2+y,z
1/2-x,1/2+y,-z
1/2-x,1/2-y,-z
1/2+x,1/2-y,z
loop_
_atom_site_type_symbol
_atom_site_label
_atom_site_fract_x
_atom_site_fract_y
_atom_site_fract_z
Si Si1 0.252027 0.932883 0.134152
Si Si2 0.500000 0.250815 0.500000
Si Si3 0.882124 0.793208 0.327241
Si Si4 0.808990 0.654026 0.702276
Si Si5 0.958234 0.567568 0.740913
Si Si6 0.394882 0.840003 0.196296
Si Si7 0.582460 0.621702 0.053542
O O1 0.286840 0.878013 0.207868
O O2 0.130913 0.919038 0.140294
O O3 0.248476 0.000000 0.201617
O O4 0.359733 0.934918 0.939455
O O5 0.419337 0.287583 0.455688
O O6 0.406031 0.207247 0.651090
O O7 0.763562 0.832237 0.381350
O O8 0.865454 0.726692 0.274118
O O9 0.996093 0.825404 0.171227
O O10 0.883655 0.592518 0.667178
O O11 0.701748 0.650822 0.894547
O O12 0.006550 0.500000 0.685761
O O13 0.052374 0.617213 0.723372
O O14 0.500000 0.833668 0.000000
O O15 0.500000 0.589272 0.000000
#
# Coordination Sequence:
#
# PCOD9173515 Si02
#       7
#     8   4   8   8   8   8   8
#     4   9  18  30  53  87 116 145 180 231 287 332
#     4  12  24  38  57  82 117 154 186 234 284 342
#     4  11  23  38  57  86 113 152 187 234 286 336
#     4  10  21  39  57  85 116 145 192 228 285 337
#     4   9  17  33  55  81 115 147 184 232 281 334
#     4  10  18  30  54  84 114 143 181 235 284 330
#     4   9  20  38  58  85 115 149 189 235 279 335
#
# _framework density 21.856323
#
# number of rings (size 3 to 8) (size 9 to 14) (size 15 to 20)
#    0.000    2.154    1.538    2.308    2.154    2.769 
#    0.000    2.692    0.000    0.000    0.000    1.077 
#    0.000    0.000    0.000    0.000    0.000    0.000 
#
# Total GULP energy -145209.863213 kJ/mol
# GULP energy per Si atom -5584.994739 kJ/mol
# Density = 2.180658 g / cm^3
# Si number density = 21.856323 Si / 1000 Ang^3
#
#
#
# Elastic Constant Matrix: (Units=GPa)
#
#
# Indices 1 2 3 4 5 6 
#
# 1 127.4169 41.4942 23.1821 0.0000 18.1442 0.0000
# 2 41.4942 85.9555 20.4393 0.0000 11.6813 0.0000
# 3 23.1821 20.4393 48.6891 0.0000 -9.3286 0.0000
# 4 0.0000 0.0000 0.0000 9.6560 0.0000 5.3060
# 5 18.1442 11.6813 -9.3286 0.0000 40.1345 0.0000
# 6 0.0000 0.0000 0.0000 5.3060 0.0000 23.5197
#
#
#
# Elastic Compliance Matrix: (Units=1/GPa)
#
#
# Indices 1 2 3 4 5 6 
#
# 1 0.010427 -0.003314 -0.004492 0.000000 -0.004794 0.000000
# 2 -0.003314 0.015132 -0.005579 0.000000 -0.004203 0.000000
# 3 -0.004492 -0.005579 0.026918 0.000000 0.009911 0.000000
# 4 0.000000 0.000000 0.000000 0.118217 0.000000 -0.026669
# 5 -0.004794 -0.004203 0.009911 0.000000 0.030610 0.000000
# 6 0.000000 0.000000 0.000000 -0.026669 0.000000 0.048534
#
#
# Mechanical properties :
#
#
# Convention : Reuss Voigt Hill
#
# Bulk Modulus (GPa) = 38.90075 48.03254 43.46665
# Shear Modulus (GPa) = 17.53289 26.45843 21.99566
#
# Velocity S-wave (km/s) = 2.83537 3.48309 3.17578
# Velocity P-wave (km/s) = 5.34379 6.18062 5.77738
#
# Compressibility (1/GPa) = 0.02570644
#
# Stress axis : x y z
#
# Youngs Moduli (GPa) = 95.90134 66.08658 37.14934
#
# Poissons Ratio (x) = 0.21902 0.16687
# Poissons Ratio (y) = 0.31783 0.20727
# Poissons Ratio (z) = 0.43078 0.36873
#
# Static dielectric constant tensor:
#      x y z
#    x 1.807400 0.000000 0.025340 
#    y 0.000000 1.770170 0.000000 
#    z 0.025340 0.000000 1.860840 
# 
# From -- ./inp_files/134770.got.cif
#   From: 2010.05.17/outbox.cif.g08.bks.cpg/sg12_68_cif.got.tgz:134770.got - 2010.06.03 13:09:07.
