data_PCOD9173840
_publ_section_title
;
Structure prediction by ZEFSAII (Michael W. Deem and Ramdas Pophale) SiO2 
 PCOD9173840
Probable space group: C 2/M
;
_chemical_formula_sum "Si O2"
_cell_formula_units_Z 60
_cell_length_a 11.190300
_cell_length_b 21.445049
_cell_length_c 13.073270
_cell_angle_alpha 90.000000
_cell_angle_beta 73.017410
_cell_angle_gamma 90.000000
_cell_volume 3000.472446
_symmetry_space_group_name_H-M "C 2/M"
_symmetry_group_IT_number 12
_symmetry_cell_setting 'monoclinic'
loop_
_space_group_symop_operation_xyz
x,y,z
-x,y,-z
-x,-y,-z
x,-y,z
1/2+x,1/2+y,z
1/2-x,1/2+y,-z
1/2-x,1/2-y,-z
1/2+x,1/2-y,z
loop_
_atom_site_type_symbol
_atom_site_label
_atom_site_fract_x
_atom_site_fract_y
_atom_site_fract_z
Si Si1 0.400107 0.203110 0.694727
Si Si2 0.604913 0.659121 0.384531
Si Si3 0.553681 0.207615 0.849970
Si Si4 0.293117 0.820449 0.014113
Si Si5 0.351180 0.657131 0.129996
Si Si6 0.749224 0.431573 0.483241
Si Si7 0.554285 0.427304 0.717757
Si Si8 0.500000 0.111519 0.500000
O O1 0.369897 0.271747 0.660855
O O2 0.521382 0.206783 0.738683
O O3 0.279002 0.178154 0.784387
O O4 0.430851 0.156396 0.596702
O O5 0.500000 0.664025 0.500000
O O6 0.715608 0.622483 0.412516
O O7 0.550175 0.616039 0.308205
O O8 0.430112 0.175713 0.928785
O O9 0.564268 0.280481 0.880216
O O10 0.674581 0.175670 0.873355
O O11 0.190074 0.858883 0.976361
O O12 0.250000 0.750000 0.000000
O O13 0.407336 0.602087 0.183466
O O14 0.712538 0.500000 0.451572
O O15 0.669974 0.423186 0.607836
O O16 0.894333 0.428389 0.471884
O O17 0.519827 0.500000 0.733685
#
# Coordination Sequence:
#
# PCOD9173840 Si02
#       8
#     8   8   8   8   8   8   8   4
#     4  11  21  30  48  78 111 136 168 214 277 316
#     4  10  20  33  51  71 100 138 175 222 258 309
#     4   9  17  31  49  74 108 132 164 202 265 319
#     4   8  16  30  51  76 103 131 163 204 259 319
#     4  10  18  31  50  78 108 132 171 217 259 318
#     4  10  22  37  51  67  96 145 194 222 250 297
#     4  10  19  34  52  73 101 140 184 221 254 302
#     4  12  23  34  50  74 109 142 176 222 264 312
#
# _framework density 19.996850999999999
#
# number of rings (size 3 to 8) (size 9 to 14) (size 15 to 20)
#    0.000    2.133    3.333    0.600    1.867    2.133 
#    0.000    0.000    0.000    0.000    0.000   16.800 
#    0.000    0.000    0.000    0.000    0.000    0.000 
#
# Total GULP energy -167296.418982 kJ/mol
# GULP energy per Si atom -5576.547299 kJ/mol
# Density = 1.995134 g / cm^3
# Si number density = 19.996851 Si / 1000 Ang^3
#
#
#
# Elastic Constant Matrix: (Units=GPa)
#
#
# Indices 1 2 3 4 5 6 
#
# 1 59.9656 8.5970 17.0671 0.0000 13.6754 0.0000
# 2 8.5970 73.7557 23.3552 0.0000 9.6796 0.0000
# 3 17.0671 23.3552 62.7411 0.0000 23.0554 0.0000
# 4 0.0000 0.0000 0.0000 14.4134 0.0000 3.2496
# 5 13.6754 9.6796 23.0554 0.0000 35.0589 0.0000
# 6 0.0000 0.0000 0.0000 3.2496 0.0000 10.0593
#
#
#
# Elastic Compliance Matrix: (Units=1/GPa)
#
#
# Indices 1 2 3 4 5 6 
#
# 1 0.018796 -0.000560 -0.002989 0.000000 -0.005211 0.000000
# 2 -0.000560 0.015397 -0.005403 0.000000 -0.000479 0.000000
# 3 -0.002989 -0.005403 0.023454 0.000000 -0.012766 0.000000
# 4 0.000000 0.000000 0.000000 0.074830 0.000000 -0.024174
# 5 -0.005211 -0.000479 -0.012766 0.000000 0.039084 0.000000
# 6 0.000000 0.000000 0.000000 -0.024174 0.000000 0.107220
#
#
# Mechanical properties :
#
#
# Convention : Reuss Voigt Hill
#
# Bulk Modulus (GPa) = 25.16247 32.72234 28.94240
# Shear Modulus (GPa) = 16.13245 21.73584 18.93415
#
# Velocity S-wave (km/s) = 2.84342 3.30049 3.08044
# Velocity P-wave (km/s) = 4.83638 5.56090 5.21124
#
# Compressibility (1/GPa) = 0.03974172
#
# Stress axis : x y z
#
# Youngs Moduli (GPa) = 53.20337 64.94601 42.63647
#
# Poissons Ratio (x) = 0.03639 0.12746
# Poissons Ratio (y) = 0.02981 0.23037
# Poissons Ratio (z) = 0.15905 0.35091
#
# Static dielectric constant tensor:
#      x y z
#    x 1.758630 0.000000 -0.021920 
#    y 0.000000 1.650540 0.000000 
#    z -0.021920 0.000000 1.852700 
# 
# From -- ./inp_files/207280.got.cif
#   From: 2010.05.17/outbox.cif.g08.bks.cpg/sg12_104_cif.got.tgz:207280.got - 2010.06.03 13:09:07.
