data_PCOD9173110
_publ_section_title
;
Structure prediction by ZEFSAII (Michael W. Deem and Ramdas Pophale) SiO2 
 PCOD9173110
Probable space group: C 2/M
;
_chemical_formula_sum "Si O2"
_cell_formula_units_Z 64
_cell_length_a 20.806723
_cell_length_b 7.982965
_cell_length_c 24.590776
_cell_angle_alpha 90.000000
_cell_angle_beta 121.358716
_cell_angle_gamma 90.000000
_cell_volume 3487.870676
_symmetry_space_group_name_H-M "C 2/M"
_symmetry_group_IT_number 12
_symmetry_cell_setting 'monoclinic'
loop_
_space_group_symop_operation_xyz
x,y,z
-x,y,-z
-x,-y,-z
x,-y,z
1/2+x,1/2+y,z
1/2-x,1/2+y,-z
1/2-x,1/2-y,-z
1/2+x,1/2-y,z
loop_
_atom_site_type_symbol
_atom_site_label
_atom_site_fract_x
_atom_site_fract_y
_atom_site_fract_z
Si Si1 0.992193 0.802983 0.667023
Si Si2 0.333465 0.797480 0.054990
Si Si3 0.543020 0.200421 0.466486
Si Si4 0.086641 0.306845 0.805896
Si Si5 0.442743 0.299686 0.810051
Si Si6 0.787170 0.702322 0.459519
Si Si7 0.519466 0.797941 0.948029
Si Si8 0.653338 0.296092 0.328215
O O1 0.062521 0.772228 0.738090
O O2 0.996457 0.731742 0.608572
O O3 0.916244 0.738191 0.664009
O O4 0.982200 0.000000 0.657249
O O5 0.351976 0.735754 0.124701
O O6 0.400796 0.739904 0.043720
O O7 0.338529 0.000000 0.058903
O O8 0.250000 0.750000 0.000000
O O9 0.500000 0.267955 0.500000
O O10 0.628062 0.267829 0.503525
O O11 0.548175 0.000000 0.474732
O O12 0.104308 0.500000 0.802971
O O13 0.011101 0.290901 0.809049
O O14 0.453520 0.500000 0.808604
O O15 0.453563 0.253485 0.877232
O O16 0.368655 0.252301 0.743301
O O17 0.789780 0.500000 0.457427
O O18 0.750000 0.750000 0.500000
O O19 0.731907 0.763274 0.387330
O O20 0.522925 0.000000 0.951178
O O21 0.500000 0.737304 0.000000
O O22 0.653876 0.500000 0.330924
#
# Coordination Sequence:
#
# PCOD9173110 Si02
#       8
#     8   8   8   8   8   8   8   8
#     4  10  18  30  50  74  97 125 163 208 250 286
#     4   9  18  31  50  75 100 129 161 201 244 287
#     4  10  21  34  49  71  99 135 169 197 242 302
#     4   9  17  30  48  72 100 129 164 200 242 292
#     4   9  16  27  45  72 100 125 159 202 247 289
#     4  10  18  31  50  72  97 125 161 203 244 288
#     4   9  18  33  51  71  98 134 169 200 242 291
#     4   8  15  27  45  70  97 119 150 201 249 282
#
# _framework density 18.349304
#
# number of rings (size 3 to 8) (size 9 to 14) (size 15 to 20)
#    0.000    2.750    1.250    2.625    0.000    3.000 
#    0.000    0.625    2.750    0.000    0.000    0.000 
#    0.000    0.000    0.000    0.000    0.000    0.000 
#
# Total GULP energy -178177.421886 kJ/mol
# GULP energy per Si atom -5568.044434 kJ/mol
# Density = 1.830754 g / cm^3
# Si number density = 18.349304 Si / 1000 Ang^3
#
#
#
# Elastic Constant Matrix: (Units=GPa)
#
#
# Indices 1 2 3 4 5 6 
#
# 1 77.8098 8.0640 70.9364 0.0000 -4.4820 0.0000
# 2 8.0640 13.0209 -0.7986 0.0000 -0.3138 0.0000
# 3 70.9364 -0.7986 193.3049 0.0000 -0.1162 0.0000
# 4 0.0000 0.0000 0.0000 19.1085 0.0000 -0.0797
# 5 -4.4820 -0.3138 -0.1162 0.0000 28.3531 0.0000
# 6 0.0000 0.0000 0.0000 -0.0797 0.0000 11.4426
#
#
#
# Elastic Compliance Matrix: (Units=1/GPa)
#
#
# Indices 1 2 3 4 5 6 
#
# 1 0.021844 -0.013944 -0.008072 0.000000 0.003266 0.000000
# 2 -0.013944 0.085741 0.005471 0.000000 -0.001233 0.000000
# 3 -0.008072 0.005471 0.008157 0.000000 -0.001182 0.000000
# 4 0.000000 0.000000 0.000000 0.052334 0.000000 0.000364
# 5 0.003266 -0.001233 -0.001182 0.000000 0.035767 0.000000
# 6 0.000000 0.000000 0.000000 0.000364 0.000000 0.087395
#
#
# Mechanical properties :
#
#
# Convention : Reuss Voigt Hill
#
# Bulk Modulus (GPa) = 12.09901 48.94881 30.52391
# Shear Modulus (GPa) = 14.20939 25.50977 19.85958
#
# Velocity S-wave (km/s) = 2.78579 3.73262 3.29341
# Velocity P-wave (km/s) = 4.11771 6.73132 5.57971
#
# Compressibility (1/GPa) = 0.08265138
#
# Stress axis : x y z
#
# Youngs Moduli (GPa) = 45.77994 11.66299 122.59341
#
# Poissons Ratio (x) = 0.16263 0.98952
# Poissons Ratio (y) = 0.63837 -0.67066
# Poissons Ratio (z) = 0.36951 -0.06380
#
# Static dielectric constant tensor:
#      x y z
#    x 1.619470 0.000000 0.012290 
#    y 0.000000 1.656580 0.000000 
#    z 0.012290 0.000000 1.678310 
# 
# From -- ./inp_files/345597.got.cif
#   From: 2010.05.17/outbox.cif.g08.bks.cpg/sg12_173_cif.got.tgz:345597.got - 2010.06.03 13:09:07.
