data_PCOD9173483
_publ_section_title
;
Structure prediction by ZEFSAII (Michael W. Deem and Ramdas Pophale) SiO2 
 PCOD9173483
Probable space group: C 2/M
;
_chemical_formula_sum "Si O2"
_cell_formula_units_Z 56
_cell_length_a 16.623019
_cell_length_b 11.240367
_cell_length_c 14.179064
_cell_angle_alpha 90.000000
_cell_angle_beta 113.465372
_cell_angle_gamma 90.000000
_cell_volume 2430.243414
_symmetry_space_group_name_H-M "C 2/M"
_symmetry_group_IT_number 12
_symmetry_cell_setting 'monoclinic'
loop_
_space_group_symop_operation_xyz
x,y,z
-x,y,-z
-x,-y,-z
x,-y,z
1/2+x,1/2+y,z
1/2-x,1/2+y,-z
1/2-x,1/2-y,-z
1/2+x,1/2-y,z
loop_
_atom_site_type_symbol
_atom_site_label
_atom_site_fract_x
_atom_site_fract_y
_atom_site_fract_z
Si Si1 0.818676 0.364796 0.203690
Si Si2 0.624046 0.635154 0.467478
Si Si3 0.441067 0.368621 0.277057
Si Si4 0.847800 0.632291 0.807052
Si Si5 0.747113 0.786043 0.636085
Si Si6 0.827232 0.634596 0.001559
Si Si7 0.509347 0.690362 0.903228
O O1 0.857369 0.500000 0.223363
O O2 0.883967 0.252689 0.249092
O O3 0.758434 0.356730 0.268206
O O4 0.776256 0.354163 0.077705
O O5 0.631302 0.500000 0.508298
O O6 0.525271 0.648343 0.383544
O O7 0.654770 0.740991 0.551088
O O8 0.692970 0.649721 0.412844
O O9 0.400370 0.500000 0.279743
O O10 0.476370 0.377460 0.186473
O O11 0.883631 0.500000 0.818734
O O12 0.793216 0.663705 0.689723
O O13 0.925470 0.725943 0.850010
O O14 0.791235 0.641823 0.877945
O O15 0.862745 0.500000 0.020601
O O16 0.906649 0.724594 0.046838
O O17 0.500000 0.628275 0.000000
#
# Coordination Sequence:
#
# PCOD9173483 Si02
#       7
#     8   8   8   8   8   8   8
#     4  10  22  41  63  88 120 157 195 241 297 355
#     4  10  22  41  59  82 116 155 198 246 300 350
#     4  10  21  39  61  85 118 157 197 245 297 351
#     4  10  18  30  53  86 120 157 198 239 287 349
#     4  11  22  37  59  86 115 154 201 246 290 348
#     4   8  16  31  53  82 119 155 190 235 292 350
#     4   9  16  30  53  84 116 151 196 242 289 342
#
# _framework density 23.042957999999999
#
# number of rings (size 3 to 8) (size 9 to 14) (size 15 to 20)
#    0.000    2.286    1.429    1.286    0.000    4.857 
#    0.000    3.571    0.000    2.571    0.000    0.000 
#    0.000    0.000    0.000    0.000    0.000    0.000 
#
# Total GULP energy -156101.893909 kJ/mol
# GULP energy per Si atom -5575.067640 kJ/mol
# Density = 2.299051 g / cm^3
# Si number density = 23.042958 Si / 1000 Ang^3
#
#
#
# Elastic Constant Matrix: (Units=GPa)
#
#
# Indices 1 2 3 4 5 6 
#
# 1 48.1365 29.7077 16.9939 0.0000 -9.8607 0.0000
# 2 29.7077 131.0289 8.1923 0.0000 6.8436 0.0000
# 3 16.9939 8.1923 82.2813 0.0000 -10.1903 0.0000
# 4 0.0000 0.0000 0.0000 30.1891 0.0000 20.0578
# 5 -9.8607 6.8436 -10.1903 0.0000 48.2026 0.0000
# 6 0.0000 0.0000 0.0000 20.0578 0.0000 65.5553
#
#
#
# Elastic Compliance Matrix: (Units=1/GPa)
#
#
# Indices 1 2 3 4 5 6 
#
# 1 0.027264 -0.006200 -0.004327 0.000000 0.005543 0.000000
# 2 -0.006200 0.009168 0.000051 0.000000 -0.002559 0.000000
# 3 -0.004327 0.000051 0.013279 0.000000 0.001915 0.000000
# 4 0.000000 0.000000 0.000000 0.041576 0.000000 -0.012721
# 5 0.005543 -0.002559 0.001915 0.000000 0.022648 0.000000
# 6 0.000000 0.000000 0.000000 -0.012721 0.000000 0.019147
#
#
# Mechanical properties :
#
#
# Convention : Reuss Voigt Hill
#
# Bulk Modulus (GPa) = 34.77307 41.24830 38.01068
# Shear Modulus (GPa) = 30.55830 42.55958 36.55894
#
# Velocity S-wave (km/s) = 3.64558 4.30230 3.98748
# Velocity P-wave (km/s) = 5.73094 6.52833 6.14259
#
# Compressibility (1/GPa) = 0.02875788
#
# Stress axis : x y z
#
# Youngs Moduli (GPa) = 36.67850 109.07267 75.30559
#
# Poissons Ratio (x) = 0.67630 0.32586
# Poissons Ratio (y) = 0.22742 -0.00383
# Poissons Ratio (z) = 0.15871 -0.00554
#
# Static dielectric constant tensor:
#      x y z
#    x 1.894870 0.000000 -0.054290 
#    y 0.000000 1.857630 0.000000 
#    z -0.054290 0.000000 1.903340 
# 
# From -- ./inp_files/223905.got.cif
#   From: 2010.05.17/outbox.cif.g08.bks.cpg/sg12_112_cif.got.tgz:223905.got - 2010.06.03 13:09:07.
