data_PCOD9173149
_publ_section_title
;
Structure prediction by ZEFSAII (Michael W. Deem and Ramdas Pophale) SiO2 
 PCOD9173149
Probable space group: C 2/M
;
_chemical_formula_sum "Si O2"
_cell_formula_units_Z 48
_cell_length_a 23.198908
_cell_length_b 8.720568
_cell_length_c 16.536620
_cell_angle_alpha 90.000000
_cell_angle_beta 121.355476
_cell_angle_gamma 90.000000
_cell_volume 2856.894856
_symmetry_space_group_name_H-M "C 2/M"
_symmetry_group_IT_number 12
_symmetry_cell_setting 'monoclinic'
loop_
_space_group_symop_operation_xyz
x,y,z
-x,y,-z
-x,-y,-z
x,-y,z
1/2+x,1/2+y,z
1/2-x,1/2+y,-z
1/2-x,1/2-y,-z
1/2+x,1/2-y,z
loop_
_atom_site_type_symbol
_atom_site_label
_atom_site_fract_x
_atom_site_fract_y
_atom_site_fract_z
Si Si1 0.374860 0.684519 0.222116
Si Si2 0.503649 0.816250 0.408308
Si Si3 0.266372 0.315469 0.812760
Si Si4 0.179989 0.815782 0.982799
Si Si5 0.356400 0.683445 0.552983
Si Si6 0.722596 0.183509 0.355791
O O1 0.372116 0.500000 0.226543
O O2 0.440321 0.746709 0.314649
O O3 0.306990 0.752861 0.213004
O O4 0.373642 0.728064 0.125433
O O5 0.500000 0.771293 0.500000
O O6 0.573559 0.756940 0.422405
O O7 0.500916 0.000000 0.401548
O O8 0.263191 0.500000 0.805837
O O9 0.284241 0.247620 0.739069
O O10 0.319523 0.270449 0.922673
O O11 0.183204 0.000000 0.984230
O O12 0.250000 0.750000 0.000000
O O13 0.362652 0.500000 0.560142
O O14 0.330340 0.744842 0.620048
O O15 0.296976 0.722737 0.445573
O O16 0.716358 0.000000 0.351613
#
# Coordination Sequence:
#
# PCOD9173149 Si02
#       6
#     8   8   8   8   8   8
#     4  10  19  32  50  73 102 134 168 205 247 292
#     4  11  23  36  51  73 102 134 166 201 244 295
#     4  10  18  30  50  76 104 132 165 203 247 294
#     4   8  16  29  46  70  99 130 163 202 245 290
#     4  10  21  36  53  73  99 132 167 203 245 291
#     4  10  20  34  53  76 101 129 164 205 246 291
#
# _framework density 16.801458
#
# number of rings (size 3 to 8) (size 9 to 14) (size 15 to 20)
#    0.000    2.167    0.000    3.500    0.000    7.333 
#    0.000    0.000    0.000    1.000    0.000    7.000 
#    0.000    0.000    0.000    0.000    0.000    0.000 
#
# Total GULP energy -133840.092302 kJ/mol
# GULP energy per Si atom -5576.670513 kJ/mol
# Density = 1.676322 g / cm^3
# Si number density = 16.801458 Si / 1000 Ang^3
#
#
#
# Elastic Constant Matrix: (Units=GPa)
#
#
# Indices 1 2 3 4 5 6 
#
# 1 71.3853 22.0577 63.8944 0.0000 -1.9672 0.0000
# 2 22.0577 38.4334 44.5680 0.0000 -1.9427 0.0000
# 3 63.8944 44.5680 182.4986 0.0000 -15.3632 0.0000
# 4 0.0000 0.0000 0.0000 23.3756 0.0000 -4.4388
# 5 -1.9672 -1.9427 -15.3632 0.0000 26.1161 0.0000
# 6 0.0000 0.0000 0.0000 -4.4388 0.0000 28.3006
#
#
#
# Elastic Compliance Matrix: (Units=1/GPa)
#
#
# Indices 1 2 3 4 5 6 
#
# 1 0.021213 -0.004801 -0.006470 0.000000 -0.002566 0.000000
# 2 -0.004801 0.037560 -0.007666 0.000000 -0.002078 0.000000
# 3 -0.006470 -0.007666 0.010024 0.000000 0.004839 0.000000
# 4 0.000000 0.000000 0.000000 0.044093 0.000000 0.006916
# 5 -0.002566 -0.002078 0.004839 0.000000 0.040790 0.000000
# 6 0.000000 0.000000 0.000000 0.006916 0.000000 0.036420
#
#
# Mechanical properties :
#
#
# Convention : Reuss Voigt Hill
#
# Bulk Modulus (GPa) = 32.34037 61.48418 46.91227
# Shear Modulus (GPa) = 20.98362 26.34493 23.66428
#
# Velocity S-wave (km/s) = 3.53784 3.96411 3.75702
# Velocity P-wave (km/s) = 5.99823 7.59119 6.84123
#
# Compressibility (1/GPa) = 0.03092111
#
# Stress axis : x y z
#
# Youngs Moduli (GPa) = 47.14193 26.62437 99.75671
#
# Poissons Ratio (x) = 0.12782 0.64545
# Poissons Ratio (y) = 0.22633 0.76478
# Poissons Ratio (z) = 0.30502 0.20411
#
# Static dielectric constant tensor:
#      x y z
#    x 1.519670 0.000000 -0.006580 
#    y 0.000000 1.562120 0.000000 
#    z -0.006580 0.000000 1.601520 
# 
# From -- ./inp_files/229853.got.cif
#   From: 2010.05.17/outbox.cif.g08.bks.cpg/sg12_115_cif.got.tgz:229853.got - 2010.06.03 13:09:07.
