data_PCOD9173924
_publ_section_title
;
Structure prediction by ZEFSAII (Michael W. Deem and Ramdas Pophale) SiO2 
 PCOD9173924
Probable space group: C 2/M
;
_chemical_formula_sum "Si O2"
_cell_formula_units_Z 48
_cell_length_a 11.426998
_cell_length_b 22.611002
_cell_length_c 12.373573
_cell_angle_alpha 90.000000
_cell_angle_beta 133.945734
_cell_angle_gamma 90.000000
_cell_volume 2301.855274
_symmetry_space_group_name_H-M "C 2/M"
_symmetry_group_IT_number 12
_symmetry_cell_setting 'monoclinic'
loop_
_space_group_symop_operation_xyz
x,y,z
-x,y,-z
-x,-y,-z
x,-y,z
1/2+x,1/2+y,z
1/2-x,1/2+y,-z
1/2-x,1/2-y,-z
1/2+x,1/2-y,z
loop_
_atom_site_type_symbol
_atom_site_label
_atom_site_fract_x
_atom_site_fract_y
_atom_site_fract_z
Si Si1 0.434762 0.395914 0.806834
Si Si2 0.838625 0.569308 0.524201
Si Si3 0.323471 0.885080 0.200574
Si Si4 0.862207 0.218255 0.984249
Si Si5 0.265354 0.065942 0.936398
Si Si6 0.175851 0.930222 0.649818
O O1 0.292127 0.393912 0.627288
O O2 0.335241 0.416472 0.849171
O O3 0.529310 0.334270 0.890936
O O4 0.575605 0.436290 0.849011
O O5 0.832578 0.500000 0.487744
O O6 0.787128 0.572570 0.616523
O O7 0.019479 0.594433 0.635591
O O8 0.269424 0.816935 0.173646
O O9 0.344226 0.899997 0.087397
O O10 0.750000 0.250000 0.000000
O O11 0.000000 0.250870 0.000000
O O12 0.258491 0.093852 0.812292
O O13 0.336799 0.000000 0.979094
O O14 0.000000 0.905730 0.500000
O O15 0.148251 0.000000 0.658781
#
# Coordination Sequence:
#
# PCOD9173924 Si02
#       6
#     8   8   8   8   8   8
#     4  10  20  35  57  81 114 152 189 233 292 348
#     4  11  21  34  54  84 125 164 193 225 275 345
#     4  10  22  35  52  86 117 145 188 243 292 338
#     4   9  20  43  65  84 113 147 193 253 312 352
#     4  10  18  31  51  75 110 156 198 231 275 337
#     4   9  17  31  48  68 107 160 199 233 272 315
#
# _framework density 20.852744000000001
#
# number of rings (size 3 to 8) (size 9 to 14) (size 15 to 20)
#    0.000    2.167    1.667    3.000    0.000    4.667 
#    6.000    3.333    0.000    0.000    0.000    0.000 
#    0.000    0.000    0.000    0.000    0.000    0.000 
#
# Total GULP energy -133671.268081 kJ/mol
# GULP energy per Si atom -5569.636170 kJ/mol
# Density = 2.080528 g / cm^3
# Si number density = 20.852744 Si / 1000 Ang^3
#
#
#
# Elastic Constant Matrix: (Units=GPa)
#
#
# Indices 1 2 3 4 5 6 
#
# 1 105.5467 31.9329 25.9243 0.0000 2.1864 0.0000
# 2 31.9329 28.4567 13.9410 0.0000 6.6857 0.0000
# 3 25.9243 13.9410 116.4126 0.0000 1.8147 0.0000
# 4 0.0000 0.0000 0.0000 15.0201 0.0000 0.7409
# 5 2.1864 6.6857 1.8147 0.0000 48.3719 0.0000
# 6 0.0000 0.0000 0.0000 0.7409 0.0000 18.0306
#
#
#
# Elastic Compliance Matrix: (Units=1/GPa)
#
#
# Indices 1 2 3 4 5 6 
#
# 1 0.014668 -0.016178 -0.001354 0.000000 0.001624 0.000000
# 2 -0.016178 0.056421 -0.003046 0.000000 -0.006953 0.000000
# 3 -0.001354 -0.003046 0.009254 0.000000 0.000135 0.000000
# 4 0.000000 0.000000 0.000000 0.066713 0.000000 -0.002741
# 5 0.001624 -0.006953 0.000135 0.000000 0.021556 0.000000
# 6 0.000000 0.000000 0.000000 -0.002741 0.000000 0.055574
#
#
# Mechanical properties :
#
#
# Convention : Reuss Voigt Hill
#
# Bulk Modulus (GPa) = 25.51839 43.77917 34.64878
# Shear Modulus (GPa) = 17.95954 28.19238 23.07596
#
# Velocity S-wave (km/s) = 2.93790 3.68091 3.33019
# Velocity P-wave (km/s) = 4.87569 6.25344 5.60704
#
# Compressibility (1/GPa) = 0.03918742
#
# Stress axis : x y z
#
# Youngs Moduli (GPa) = 68.17527 17.72399 108.05701
#
# Poissons Ratio (x) = 0.28674 0.14635
# Poissons Ratio (y) = 1.10293 0.32910
# Poissons Ratio (z) = 0.09234 0.05398
#
# Static dielectric constant tensor:
#      x y z
#    x 1.825210 0.000000 -0.035630 
#    y 0.000000 1.773890 0.000000 
#    z -0.035630 0.000000 1.805440 
# 
# From -- ./inp_files/50643.got.cif
#   From: 2010.05.17/outbox.cif.g08.bks.cpg/sg12_26_cif.got.tgz:50643.got - 2010.06.03 13:09:07.
