data_PCOD9173980
_publ_section_title
;
Structure prediction by ZEFSAII (Michael W. Deem and Ramdas Pophale) SiO2 
 PCOD9173980
Probable space group: C 2/M
;
_chemical_formula_sum "Si O2"
_cell_formula_units_Z 40
_cell_length_a 17.725755
_cell_length_b 13.658417
_cell_length_c 15.048596
_cell_angle_alpha 90.000000
_cell_angle_beta 35.692520
_cell_angle_gamma 90.000000
_cell_volume 2125.659569
_symmetry_space_group_name_H-M "C 2/M"
_symmetry_group_IT_number 12
_symmetry_cell_setting 'monoclinic'
loop_
_space_group_symop_operation_xyz
x,y,z
-x,y,-z
-x,-y,-z
x,-y,z
1/2+x,1/2+y,z
1/2-x,1/2+y,-z
1/2-x,1/2-y,-z
1/2+x,1/2-y,z
loop_
_atom_site_type_symbol
_atom_site_label
_atom_site_fract_x
_atom_site_fract_y
_atom_site_fract_z
Si Si1 0.555620 0.618039 0.042514
Si Si2 0.664503 0.807247 0.253057
Si Si3 0.038351 0.110212 0.360644
Si Si4 0.116158 0.617370 0.497667
Si Si5 0.647567 0.381371 0.613928
O O1 0.556552 0.500000 0.042456
O O2 0.701670 0.653774 0.912543
O O3 0.500000 0.649204 0.000000
O O4 0.458592 0.651420 0.212221
O O5 0.646325 0.692875 0.249535
O O6 0.533752 0.858639 0.342718
O O7 0.658798 0.830820 0.364607
O O8 0.000000 0.107609 0.500000
O O9 0.912887 0.141856 0.423665
O O10 0.076380 0.000000 0.296160
O O11 0.129486 0.500000 0.470355
O O12 0.211430 0.648561 0.486242
O O13 0.651815 0.500000 0.612253
#
# Coordination Sequence:
#
# PCOD9173980 Si02
#       5
#     8   8   8   8   8
#     4  10  18  31  53  83 114 137 160 204 271 335
#     4  11  19  31  52  83 106 139 169 212 271 309
#     4  10  21  38  54  71 102 144 191 224 244 290
#     4  10  18  31  51  83 113 132 163 215 270 321
#     4   9  19  34  54  78 106 142 175 209 258 315
#
# _framework density 18.817689999999999
#
# number of rings (size 3 to 8) (size 9 to 14) (size 15 to 20)
#    0.000    2.000    4.000    2.400    0.000    1.600 
#    0.000    0.000    0.000    0.600    0.000    0.000 
#    0.000    0.000    0.000    0.000    0.000    0.000 
#
# Total GULP energy -111566.025800 kJ/mol
# GULP energy per Si atom -5578.301290 kJ/mol
# Density = 1.877486 g / cm^3
# Si number density = 18.817690 Si / 1000 Ang^3
#
#
#
# Elastic Constant Matrix: (Units=GPa)
#
#
# Indices 1 2 3 4 5 6 
#
# 1 155.2305 23.7230 48.2540 0.0000 -13.6277 0.0000
# 2 23.7230 71.3425 -1.8767 0.0000 -6.1215 0.0000
# 3 48.2540 -1.8767 68.6069 0.0000 -24.0730 0.0000
# 4 0.0000 0.0000 0.0000 15.5598 0.0000 -11.9191
# 5 -13.6277 -6.1215 -24.0730 0.0000 22.3353 0.0000
# 6 0.0000 0.0000 0.0000 -11.9191 0.0000 20.0225
#
#
#
# Elastic Compliance Matrix: (Units=1/GPa)
#
#
# Indices 1 2 3 4 5 6 
#
# 1 0.009086 -0.003563 -0.007857 0.000000 -0.003901 0.000000
# 2 -0.003563 0.016107 0.006003 0.000000 0.008711 0.000000
# 3 -0.007857 0.006003 0.030815 0.000000 0.030064 0.000000
# 4 0.000000 0.000000 0.000000 0.118141 0.000000 0.070328
# 5 -0.003901 0.008711 0.030064 0.000000 0.077182 0.000000
# 6 0.000000 0.000000 0.000000 0.070328 0.000000 0.091809
#
#
# Mechanical properties :
#
#
# Convention : Reuss Voigt Hill
#
# Bulk Modulus (GPa) = 22.13642 48.37562 35.25602
# Shear Modulus (GPa) = 13.54892 26.58881 20.06886
#
# Velocity S-wave (km/s) = 2.68621 3.76303 3.26926
# Velocity P-wave (km/s) = 4.62711 6.68160 5.74691
#
# Compressibility (1/GPa) = 0.04517442
#
# Stress axis : x y z
#
# Youngs Moduli (GPa) = 110.05372 62.08510 32.45160
#
# Poissons Ratio (x) = 0.22120 0.25497
# Poissons Ratio (y) = 0.39210 -0.19480
# Poissons Ratio (z) = 0.86470 -0.37269
#
# Static dielectric constant tensor:
#      x y z
#    x 1.683550 0.000000 0.007020 
#    y 0.000000 1.705090 0.000000 
#    z 0.007020 0.000000 1.617400 
# 
# From -- ./inp_files/166939.got.cif
#   From: 2010.05.17/outbox.cif.g08.bks.cpg/sg12_84_cif.got.tgz:166939.got - 2010.06.03 13:09:07.
