data_PCOD9173030
_publ_section_title
;
Structure prediction by ZEFSAII (Michael W. Deem and Ramdas Pophale) SiO2 
 PCOD9173030
Probable space group: C 2/M
;
_chemical_formula_sum "Si O2"
_cell_formula_units_Z 64
_cell_length_a 20.815536
_cell_length_b 17.739821
_cell_length_c 20.127366
_cell_angle_alpha 90.000000
_cell_angle_beta 28.347142
_cell_angle_gamma 90.000000
_cell_volume 3528.953296
_symmetry_space_group_name_H-M "C 2/M"
_symmetry_group_IT_number 12
_symmetry_cell_setting 'monoclinic'
loop_
_space_group_symop_operation_xyz
x,y,z
-x,y,-z
-x,-y,-z
x,-y,z
1/2+x,1/2+y,z
1/2-x,1/2+y,-z
1/2-x,1/2-y,-z
1/2+x,1/2-y,z
loop_
_atom_site_type_symbol
_atom_site_label
_atom_site_fract_x
_atom_site_fract_y
_atom_site_fract_z
Si Si1 0.055817 0.309891 0.230963
Si Si2 0.448280 0.587323 0.949981
Si Si3 0.033592 0.322733 0.044268
Si Si4 0.765310 0.302116 0.808360
Si Si5 0.313501 0.700732 0.262156
Si Si6 0.695987 0.087175 0.999790
Si Si7 0.472748 0.635941 0.775486
Si Si8 0.263283 0.832977 0.518862
O O1 0.108167 0.296303 0.257996
O O2 0.161600 0.357739 0.092340
O O3 0.041382 0.227089 0.211112
O O4 0.914453 0.354997 0.361315
O O5 0.467178 0.500000 0.946804
O O6 0.573838 0.638161 0.859794
O O7 0.447768 0.601889 0.871135
O O8 0.310574 0.619853 0.105583
O O9 0.091042 0.387528 0.038680
O O10 0.901610 0.277411 0.190483
O O11 0.154786 0.261309 0.929390
O O12 0.000000 0.347330 0.000000
O O13 0.784325 0.293413 0.712188
O O14 0.249324 0.676243 0.390024
O O15 0.681509 0.000000 0.030010
O O16 0.853007 0.103819 0.839008
O O17 0.630810 0.621545 0.615521
O O18 0.250000 0.750000 0.500000
#
# Coordination Sequence:
#
# PCOD9173030 Si02
#       8
#     8   8   8   8   8   8   8   8
#     4  11  20  34  55  78 109 137 170 219 262 303
#     4  10  18  30  49  76 106 137 175 214 250 300
#     4   9  18  34  54  77 106 135 171 221 270 313
#     4  10  18  30  51  77 106 139 171 211 261 309
#     4   9  19  33  51  76 104 140 176 209 259 315
#     4  12  22  33  54  82 105 137 180 218 260 313
#     4  10  19  34  55  76 102 137 177 216 261 305
#     4   9  19  34  54  77 103 135 174 218 262 304
#
# _framework density 18.135688999999999
#
# number of rings (size 3 to 8) (size 9 to 14) (size 15 to 20)
#    0.000    2.000    2.500    4.875    0.000    1.750 
#    0.000    3.125    0.000    0.000    0.000    5.250 
#    0.000    7.000    0.000    0.000    0.000    0.000 
#
# Total GULP energy -178370.611540 kJ/mol
# GULP energy per Si atom -5574.081611 kJ/mol
# Density = 1.809441 g / cm^3
# Si number density = 18.135689 Si / 1000 Ang^3
#
#
#
# Elastic Constant Matrix: (Units=GPa)
#
#
# Indices 1 2 3 4 5 6 
#
# 1 82.3527 4.9254 6.6731 -0.0003 -14.4761 0.0000
# 2 4.9254 48.8013 -2.2082 0.0000 -0.4595 -0.0001
# 3 6.6731 -2.2082 53.7362 0.0000 -11.6016 -0.0002
# 4 -0.0003 0.0000 0.0000 8.2642 0.0004 -6.4780
# 5 -14.4761 -0.4595 -11.6016 0.0004 23.0381 -0.0003
# 6 0.0000 -0.0001 -0.0002 -6.4780 -0.0003 0.5287
#
#
#
# Elastic Compliance Matrix: (Units=1/GPa)
#
#
# Indices 1 2 3 4 5 6 
#
# 1 0.013734 -0.001300 0.000111 0.000000 0.008660 -0.000001
# 2 -0.001300 0.020670 0.001036 0.000000 0.000117 0.000000
# 3 0.000111 0.001036 0.020934 -0.000001 0.010632 -0.000001
# 4 0.000000 0.000000 -0.000001 -0.014061 -0.000003 -0.172306
# 5 0.008660 0.000117 0.010632 -0.000003 0.054204 0.000000
# 6 -0.000001 0.000000 -0.000001 -0.172306 0.000000 -0.219816
#
#
# Mechanical properties :
#
#
# Convention : Reuss Voigt Hill
#
# Bulk Modulus (GPa) = 18.17106 22.63008 20.40057
# Shear Modulus (GPa) = -47.30995 18.06619 -14.62188
#
# Velocity S-wave (km/s) = -5.11305 3.15964 -2.84253
# Velocity P-wave (km/s) = 4.98161 5.08098 0.70707
#
# Compressibility (1/GPa) = 0.05503256
#
# Stress axis : x y z
#
# Youngs Moduli (GPa) = 72.81280 48.37830 47.76977
#
# Poissons Ratio (x) = 0.06287 -0.00529
# Poissons Ratio (y) = 0.09463 -0.04950
# Poissons Ratio (z) = -0.00806 -0.05013
#
# Static dielectric constant tensor:
#      x y z
#    x 1.688320 0.000000 -0.025210 
#    y 0.000000 1.593640 0.000000 
#    z -0.025210 0.000000 1.636740 
# 
# From -- ./inp_files/322438.got.cif
#   From: 2010.05.17/outbox.cif.g08.bks.cpg/sg12_162_cif.got.tgz:322438.got - 2010.06.03 13:09:07.
