data_PCOD9173694
_publ_section_title
;
Structure prediction by ZEFSAII (Michael W. Deem and Ramdas Pophale) SiO2 
 PCOD9173694
Probable space group: C 2/M
;
_chemical_formula_sum "Si O2"
_cell_formula_units_Z 64
_cell_length_a 25.508971
_cell_length_b 9.181073
_cell_length_c 24.158988
_cell_angle_alpha 90.000000
_cell_angle_beta 133.998924
_cell_angle_gamma 90.000000
_cell_volume 4070.118790
_symmetry_space_group_name_H-M "C 2/M"
_symmetry_group_IT_number 12
_symmetry_cell_setting 'monoclinic'
loop_
_space_group_symop_operation_xyz
x,y,z
-x,y,-z
-x,-y,-z
x,-y,z
1/2+x,1/2+y,z
1/2-x,1/2+y,-z
1/2-x,1/2-y,-z
1/2+x,1/2-y,z
loop_
_atom_site_type_symbol
_atom_site_label
_atom_site_fract_x
_atom_site_fract_y
_atom_site_fract_z
Si Si1 0.831448 0.826836 0.345415
Si Si2 0.045395 0.826917 0.657657
Si Si3 0.698250 0.326225 0.193042
Si Si4 0.223710 0.326307 0.094251
Si Si5 0.028482 0.173861 0.082268
Si Si6 0.918457 0.673311 0.084025
Si Si7 0.937737 0.332514 0.502165
Si Si8 0.113775 0.825289 0.825272
O O1 0.885892 0.800741 0.333007
O O2 0.755938 0.749348 0.275824
O O3 0.871485 0.758773 0.427935
O O4 0.822878 0.000000 0.344781
O O5 0.069024 0.787923 0.736939
O O6 0.976832 0.740233 0.583282
O O7 0.030676 0.000000 0.644329
O O8 0.709272 0.500000 0.200327
O O9 0.711605 0.261090 0.141799
O O10 0.614596 0.296975 0.147966
O O11 0.224762 0.500000 0.107736
O O12 0.301561 0.289347 0.124617
O O13 0.157524 0.297077 0.003925
O O14 0.982432 0.258197 0.094144
O O15 0.016843 0.000000 0.080171
O O16 0.000000 0.214120 0.000000
O O17 0.926992 0.500000 0.094271
O O18 0.914078 0.744455 0.141048
O O19 0.917547 0.500000 0.497317
O O20 0.000000 0.330594 0.500000
O O21 0.109166 0.000000 0.829687
#
# Coordination Sequence:
#
# PCOD9173694 Si02
#       8
#     8   8   8   8   8   8   8   8
#     4  10  18  31  49  71 103 135 168 205 249 306
#     4   9  17  30  48  70  98 138 172 198 245 304
#     4  11  21  32  52  77 100 131 172 214 256 302
#     4  10  20  35  51  72 102 136 171 208 256 306
#     4  10  21  38  55  72  97 133 173 212 261 310
#     4  11  23  35  52  76 100 131 175 221 259 296
#     4   9  17  28  44  70 102 133 166 205 247 293
#     4  10  20  35  52  71 103 141 174 206 249 309
#
# _framework density 15.724358000000001
#
# number of rings (size 3 to 8) (size 9 to 14) (size 15 to 20)
#    0.000    2.000    2.500    1.875    0.000    4.750 
#    0.000    0.000    0.000    0.000    0.000    0.875 
#    0.000    0.000    0.000    0.000    0.000    0.000 
#
# Total GULP energy -178593.247056 kJ/mol
# GULP energy per Si atom -5581.038971 kJ/mol
# Density = 1.568857 g / cm^3
# Si number density = 15.724358 Si / 1000 Ang^3
#
#
#
# Elastic Constant Matrix: (Units=GPa)
#
#
# Indices 1 2 3 4 5 6 
#
# 1 98.6443 59.4877 71.9535 0.0000 -5.5413 0.0000
# 2 59.4877 71.5460 80.7395 0.0000 3.4379 0.0000
# 3 71.9535 80.7395 140.9682 0.0000 10.0628 0.0000
# 4 0.0000 0.0000 0.0000 31.0887 0.0000 0.5524
# 5 -5.5413 3.4379 10.0628 0.0000 12.9793 0.0000
# 6 0.0000 0.0000 0.0000 0.5524 0.0000 21.2703
#
#
#
# Elastic Compliance Matrix: (Units=1/GPa)
#
#
# Indices 1 2 3 4 5 6 
#
# 1 0.023812 -0.015565 -0.004509 0.000000 0.017784 0.000000
# 2 -0.015565 0.050397 -0.020635 0.000000 -0.003996 0.000000
# 3 -0.004509 -0.020635 0.022189 0.000000 -0.013663 0.000000
# 4 0.000000 0.000000 0.000000 0.032181 0.000000 -0.000836
# 5 0.017784 -0.003996 -0.013663 0.000000 0.096290 0.000000
# 6 0.000000 0.000000 0.000000 -0.000836 0.000000 0.047036
#
#
# Mechanical properties :
#
#
# Convention : Reuss Voigt Hill
#
# Bulk Modulus (GPa) = 66.75286 81.72441 74.23863
# Shear Modulus (GPa) = 13.95418 19.66617 16.81017
#
# Velocity S-wave (km/s) = 2.98220 3.54033 3.27318
# Velocity P-wave (km/s) = 7.37577 8.29445 7.84857
#
# Compressibility (1/GPa) = 0.01498063
#
# Stress axis : x y z
#
# Youngs Moduli (GPa) = 41.99605 19.84235 45.06692
#
# Poissons Ratio (x) = 0.30884 0.20320
# Poissons Ratio (y) = 0.65366 0.92996
# Poissons Ratio (z) = 0.18935 0.40945
#
# Static dielectric constant tensor:
#      x y z
#    x 1.487900 0.000000 0.007490 
#    y 0.000000 1.521750 0.000000 
#    z 0.007490 0.000000 1.519370 
# 
# From -- ./inp_files/324187.got.cif
#   From: 2010.05.17/outbox.cif.g08.bks.cpg/sg12_163_cif.got.tgz:324187.got - 2010.06.03 13:09:07.
