data_PCOD9173807
_publ_section_title
;
Structure prediction by ZEFSAII (Michael W. Deem and Ramdas Pophale) SiO2 
 PCOD9173807
Probable space group: C 2/M
;
_chemical_formula_sum "Si O2"
_cell_formula_units_Z 60
_cell_length_a 16.396049
_cell_length_b 9.816053
_cell_length_c 21.632846
_cell_angle_alpha 90.000000
_cell_angle_beta 134.783738
_cell_angle_gamma 90.000000
_cell_volume 2471.199621
_symmetry_space_group_name_H-M "C 2/M"
_symmetry_group_IT_number 12
_symmetry_cell_setting 'monoclinic'
loop_
_space_group_symop_operation_xyz
x,y,z
-x,y,-z
-x,-y,-z
x,-y,z
1/2+x,1/2+y,z
1/2-x,1/2+y,-z
1/2-x,1/2-y,-z
1/2+x,1/2-y,z
loop_
_atom_site_type_symbol
_atom_site_label
_atom_site_fract_x
_atom_site_fract_y
_atom_site_fract_z
Si Si1 0.162770 0.658574 0.682144
Si Si2 0.900424 0.841101 0.025374
Si Si3 0.802698 0.155022 0.114694
Si Si4 0.272652 0.815607 0.425795
Si Si5 0.387262 0.164254 0.823165
Si Si6 0.538720 0.764433 0.277985
Si Si7 0.114813 0.500000 0.409762
Si Si8 0.539954 0.355202 0.450024
O O1 0.156408 0.500000 0.701183
O O2 0.182909 0.648577 0.618688
O O3 0.267488 0.751472 0.763552
O O4 0.045353 0.743441 0.624093
O O5 0.850133 0.845045 0.069002
O O6 0.014991 0.748293 0.087194
O O7 0.918406 0.000000 0.017289
O O8 0.801601 0.760657 0.935805
O O9 0.912357 0.204658 0.211107
O O10 0.768028 0.000000 0.110810
O O11 0.138441 0.839584 0.350886
O O12 0.322385 0.664572 0.467106
O O13 0.336451 0.888349 0.514442
O O14 0.428260 0.184772 0.773644
O O15 0.380172 0.000000 0.831741
O O16 0.562591 0.885417 0.335938
O O17 0.500000 0.359711 0.500000
O O18 0.517607 0.500000 0.407906
#
# Coordination Sequence:
#
# PCOD9173807 Si02
#       8
#     8   8   8   8   8   8   4   8
#     4  10  19  32  53  77 102 131 166 215 269 322
#     4   9  17  28  48  74 100 129 165 205 255 312
#     4   9  18  31  47  68  97 133 171 212 256 307
#     4  10  22  34  51  68  99 136 183 225 262 300
#     4  10  18  31  50  74 107 139 165 204 253 316
#     4  10  22  33  49  66  98 141 187 218 252 295
#     4  12  22  36  47  70  95 143 192 229 254 288
#     4   9  19  34  53  74  97 127 166 216 277 329
#
# _framework density 24.279705
#
# number of rings (size 3 to 8) (size 9 to 14) (size 15 to 20)
#    0.000    2.267    1.333    1.600    3.733    5.600 
#    0.000    0.000    0.000    0.000    0.000    0.000 
#    0.000    2.133    0.000    4.133    0.000    6.133 
#
# Total GULP energy -167040.911723 kJ/mol
# GULP energy per Si atom -5568.030391 kJ/mol
# Density = 2.422444 g / cm^3
# Si number density = 24.279705 Si / 1000 Ang^3
#
#
#
# Elastic Constant Matrix: (Units=GPa)
#
#
# Indices 1 2 3 4 5 6 
#
# 1 79.5465 33.8995 53.5428 0.0000 21.6152 0.0000
# 2 33.8995 215.0409 102.1494 0.0000 41.7863 0.0000
# 3 53.5428 102.1494 188.6353 0.0000 45.1996 0.0000
# 4 0.0000 0.0000 0.0000 143.6451 0.0000 -59.8578
# 5 21.6152 41.7863 45.1996 0.0000 42.4459 0.0000
# 6 0.0000 0.0000 0.0000 -59.8578 0.0000 18.0731
#
#
#
# Elastic Compliance Matrix: (Units=1/GPa)
#
#
# Indices 1 2 3 4 5 6 
#
# 1 0.016153 -0.000010 -0.003505 0.000000 -0.004483 0.000000
# 2 -0.000010 0.006656 -0.002729 0.000000 -0.003641 0.000000
# 3 -0.003505 -0.002729 0.008998 0.000000 -0.005111 0.000000
# 4 0.000000 0.000000 0.000000 -0.018314 0.000000 -0.060656
# 5 -0.004483 -0.003641 -0.005111 0.000000 0.034870 0.000000
# 6 0.000000 0.000000 0.000000 -0.060656 0.000000 -0.145560
#
#
# Mechanical properties :
#
#
# Convention : Reuss Voigt Hill
#
# Bulk Modulus (GPa) = 51.76260 95.82293 73.79277
# Shear Modulus (GPa) = -63.88231 60.40821 -1.73705
#
# Velocity S-wave (km/s) = -5.13499 4.99341 -0.84675
# Velocity P-wave (km/s) = 3.71375 8.53214 5.43165
#
# Compressibility (1/GPa) = 0.01931897
#
# Stress axis : x y z
#
# Youngs Moduli (GPa) = 61.90730 150.24761 111.12971
#
# Poissons Ratio (x) = 0.00153 0.38953
# Poissons Ratio (y) = 0.00063 0.30325
# Poissons Ratio (z) = 0.21700 0.40999
#
# Static dielectric constant tensor:
#      x y z
#    x 2.004010 0.000000 0.011890 
#    y 0.000000 2.391500 0.000000 
#    z 0.011890 0.000000 1.869360 
# 
# From -- ./inp_files/367629.got.cif
#   From: 2010.05.17/outbox.cif.g08.bks.cpg/sg12_184_cif.got.tgz:367629.got - 2010.06.03 13:09:07.
