data_PCOD9173638
_publ_section_title
;
Structure prediction by ZEFSAII (Michael W. Deem and Ramdas Pophale) SiO2 
 PCOD9173638
Probable space group: C 2/M
;
_chemical_formula_sum "Si O2"
_cell_formula_units_Z 48
_cell_length_a 15.754267
_cell_length_b 25.363261
_cell_length_c 12.504147
_cell_angle_alpha 90.000000
_cell_angle_beta 31.541707
_cell_angle_gamma 90.000000
_cell_volume 2613.713174
_symmetry_space_group_name_H-M "C 2/M"
_symmetry_group_IT_number 12
_symmetry_cell_setting 'monoclinic'
loop_
_space_group_symop_operation_xyz
x,y,z
-x,y,-z
-x,-y,-z
x,-y,z
1/2+x,1/2+y,z
1/2-x,1/2+y,-z
1/2-x,1/2-y,-z
1/2+x,1/2-y,z
loop_
_atom_site_type_symbol
_atom_site_label
_atom_site_fract_x
_atom_site_fract_y
_atom_site_fract_z
Si Si1 0.117801 0.324326 0.786979
Si Si2 0.187163 0.864276 0.940844
Si Si3 0.681865 0.364011 0.606670
Si Si4 0.673497 0.062148 0.366568
Si Si5 0.398098 0.791208 0.826572
Si Si6 0.206696 0.720558 0.356094
O O1 0.237778 0.362824 0.595196
O O2 0.222414 0.278512 0.731111
O O3 0.004156 0.296719 0.819072
O O4 0.000000 0.349751 0.000000
O O5 0.206723 0.918055 0.854634
O O6 0.319644 0.848381 0.886211
O O7 0.225783 0.817936 0.810784
O O8 0.010634 0.867024 0.180930
O O9 0.774300 0.405462 0.584537
O O10 0.715783 0.307112 0.622967
O O11 0.500000 0.077491 0.500000
O O12 0.675457 0.000000 0.382987
O O13 0.517810 0.777957 0.597429
O O14 0.250000 0.750000 0.000000
#
# Coordination Sequence:
#
# PCOD9173638 Si02
#       6
#     8   8   8   8   8   8
#     4  11  21  33  48  67  99 140 181 214 247 294
#     4  11  20  33  52  76 106 136 167 212 265 312
#     4  10  20  33  50  72 102 133 165 206 254 303
#     4  10  20  35  57  83 106 129 161 204 260 319
#     4  11  20  30  47  71 101 138 180 213 251 302
#     4  10  18  31  48  69  99 134 170 209 257 304
#
# _framework density 18.364677
#
# number of rings (size 3 to 8) (size 9 to 14) (size 15 to 20)
#    0.000    1.500    0.000   11.500    0.000    1.333 
#    0.000    2.500    0.000    0.500    0.000    0.000 
#    0.000    5.333    0.000    0.000    0.000    0.000 
#
# Total GULP energy -133767.592577 kJ/mol
# GULP energy per Si atom -5573.649691 kJ/mol
# Density = 1.832288 g / cm^3
# Si number density = 18.364677 Si / 1000 Ang^3
#
#
#
# Elastic Constant Matrix: (Units=GPa)
#
#
# Indices 1 2 3 4 5 6 
#
# 1 40.4629 14.4846 36.6626 -0.0003 -3.7873 0.0014
# 2 14.4846 45.0271 22.6829 0.0003 -0.6039 0.0002
# 3 36.6626 22.6829 173.5636 -0.0002 5.4810 0.0017
# 4 -0.0003 0.0003 -0.0002 15.7763 0.0004 -6.6405
# 5 -3.7873 -0.6039 5.4810 0.0004 26.8575 -0.0012
# 6 0.0014 0.0002 0.0017 -6.6405 -0.0012 19.7574
#
#
#
# Elastic Compliance Matrix: (Units=1/GPa)
#
#
# Indices 1 2 3 4 5 6 
#
# 1 0.033697 -0.007581 -0.006313 0.000000 0.005870 -0.000001
# 2 -0.007581 0.025517 -0.001729 -0.000001 -0.000142 0.000000
# 3 -0.006313 -0.001729 0.007398 0.000000 -0.002439 0.000000
# 4 0.000000 -0.000001 0.000000 0.073831 0.000000 0.024815
# 5 0.005870 -0.000142 -0.002439 0.000000 0.038556 0.000002
# 6 -0.000001 0.000000 0.000000 0.024815 0.000002 0.058954
#
#
# Mechanical properties :
#
#
# Convention : Reuss Voigt Hill
#
# Bulk Modulus (GPa) = 28.27536 45.19042 36.73289
# Shear Modulus (GPa) = 17.79442 24.82645 21.31044
#
# Velocity S-wave (km/s) = 3.11617 3.68075 3.41017
# Velocity P-wave (km/s) = 5.32704 6.53640 5.96246
#
# Compressibility (1/GPa) = 0.03536648
#
# Stress axis : x y z
#
# Youngs Moduli (GPa) = 29.67633 39.19010 135.17244
#
# Poissons Ratio (x) = 0.29710 0.85328
# Poissons Ratio (y) = 0.22498 0.23370
# Poissons Ratio (z) = 0.18733 0.06775
#
# Static dielectric constant tensor:
#      x y z
#    x 1.711990 0.000000 -0.015080 
#    y 0.000000 1.613610 0.000000 
#    z -0.015080 0.000000 1.709250 
# 
# From -- ./inp_files/150185.got.cif
#   From: 2010.05.17/outbox.cif.g08.bks.cpg/sg12_76_cif.got.tgz:150185.got - 2010.06.03 13:09:07.
