data_PCOD9173768
_publ_section_title
;
Structure prediction by ZEFSAII (Michael W. Deem and Ramdas Pophale) SiO2 
 PCOD9173768
Probable space group: C 2/M
;
_chemical_formula_sum "Si O2"
_cell_formula_units_Z 48
_cell_length_a 27.511214
_cell_length_b 8.398629
_cell_length_c 12.385863
_cell_angle_alpha 90.000000
_cell_angle_beta 74.754249
_cell_angle_gamma 90.000000
_cell_volume 2761.116888
_symmetry_space_group_name_H-M "C 2/M"
_symmetry_group_IT_number 12
_symmetry_cell_setting 'monoclinic'
loop_
_space_group_symop_operation_xyz
x,y,z
-x,y,-z
-x,-y,-z
x,-y,z
1/2+x,1/2+y,z
1/2-x,1/2+y,-z
1/2-x,1/2-y,-z
1/2+x,1/2-y,z
loop_
_atom_site_type_symbol
_atom_site_label
_atom_site_fract_x
_atom_site_fract_y
_atom_site_fract_z
Si Si1 0.071064 0.314252 0.723799
Si Si2 0.531368 0.316431 0.132343
Si Si3 0.118426 0.185826 0.262130
Si Si4 0.806904 0.808044 0.960217
Si Si5 0.111471 0.691458 0.919704
Si Si6 0.943423 0.191167 0.504760
O O1 0.079784 0.500000 0.698342
O O2 0.108932 0.258499 0.795980
O O3 0.070672 0.226954 0.609849
O O4 0.016013 0.289178 0.808639
O O5 0.515179 0.500000 0.129522
O O6 0.571060 0.310205 0.207904
O O7 0.562782 0.260514 0.010563
O O8 0.164763 0.252740 0.165286
O O9 0.097617 0.255979 0.385887
O O10 0.130862 0.000000 0.275200
O O11 0.808855 0.000000 0.958228
O O12 0.750000 0.750000 0.000000
O O13 0.840257 0.749223 0.041680
O O14 0.108897 0.500000 0.925163
O O15 0.000000 0.250673 0.500000
O O16 0.945135 0.000000 0.518348
#
# Coordination Sequence:
#
# PCOD9173768 Si02
#       6
#     8   8   8   8   8   8
#     4  11  22  32  45  71 108 144 174 211 257 304
#     4  10  18  31  50  72 101 138 179 215 253 305
#     4   8  16  31  50  75 102 131 168 212 255 298
#     4  10  20  36  59  82 103 129 167 214 268 317
#     4  10  21  35  49  72 106 137 170 214 264 311
#     4  10  18  32  52  72 101 141 181 213 246 299
#
# _framework density 17.384270000000001
#
# number of rings (size 3 to 8) (size 9 to 14) (size 15 to 20)
#    0.000    2.167    1.667    3.500    0.000    5.000 
#    0.000    1.667    0.000    1.000    0.000    0.000 
#    0.000    0.000    0.000    0.000    0.000    0.000 
#
# Total GULP energy -133828.279734 kJ/mol
# GULP energy per Si atom -5576.178322 kJ/mol
# Density = 1.734470 g / cm^3
# Si number density = 17.384270 Si / 1000 Ang^3
#
#
#
# Elastic Constant Matrix: (Units=GPa)
#
#
# Indices 1 2 3 4 5 6 
#
# 1 75.1717 0.9566 61.7386 0.0000 -10.2213 0.0000
# 2 0.9566 19.2897 9.9998 0.0000 1.6673 0.0000
# 3 61.7386 9.9998 139.8475 0.0000 9.2641 0.0000
# 4 0.0000 0.0000 0.0000 15.1790 0.0000 4.6105
# 5 -10.2213 1.6673 9.2641 0.0000 18.8332 0.0000
# 6 0.0000 0.0000 0.0000 4.6105 0.0000 21.3426
#
#
#
# Elastic Compliance Matrix: (Units=1/GPa)
#
#
# Indices 1 2 3 4 5 6 
#
# 1 0.027556 0.003971 -0.013868 0.000000 0.021425 0.000000
# 2 0.003971 0.054570 -0.005662 0.000000 0.000109 0.000000
# 3 -0.013868 -0.005662 0.014620 0.000000 -0.014217 0.000000
# 4 0.000000 0.000000 0.000000 0.070507 0.000000 -0.015231
# 5 0.021425 0.000109 -0.014217 0.000000 0.071709 0.000000
# 6 0.000000 0.000000 0.000000 -0.015231 0.000000 0.050145
#
#
# Mechanical properties :
#
#
# Convention : Reuss Voigt Hill
#
# Bulk Modulus (GPa) = 15.23781 42.18876 28.71328
# Shear Modulus (GPa) = 14.61554 21.84522 18.23038
#
# Velocity S-wave (km/s) = 2.90269 3.54871 3.24183
# Velocity P-wave (km/s) = 4.47420 6.41188 5.52859
#
# Compressibility (1/GPa) = 0.06562622
#
# Stress axis : x y z
#
# Youngs Moduli (GPa) = 36.29025 18.32502 68.40066
#
# Poissons Ratio (x) = -0.07277 0.94860
# Poissons Ratio (y) = -0.14411 0.38731
# Poissons Ratio (z) = 0.50328 0.10376
#
# Static dielectric constant tensor:
#      x y z
#    x 1.572380 0.000000 0.008630 
#    y 0.000000 1.608150 0.000000 
#    z 0.008630 0.000000 1.622840 
# 
# From -- ./inp_files/172328.got.cif
#   From: 2010.05.17/outbox.cif.g08.bks.cpg/sg12_87_cif.got.tgz:172328.got - 2010.06.03 13:09:07.
