data_PCOD9173665
_publ_section_title
;
Structure prediction by ZEFSAII (Michael W. Deem and Ramdas Pophale) SiO2 
 PCOD9173665
Probable space group: C 2/M
;
_chemical_formula_sum "Si O2"
_cell_formula_units_Z 56
_cell_length_a 27.832429
_cell_length_b 8.504456
_cell_length_c 14.957337
_cell_angle_alpha 90.000000
_cell_angle_beta 103.218745
_cell_angle_gamma 90.000000
_cell_volume 3446.590855
_symmetry_space_group_name_H-M "C 2/M"
_symmetry_group_IT_number 12
_symmetry_cell_setting 'monoclinic'
loop_
_space_group_symop_operation_xyz
x,y,z
-x,y,-z
-x,-y,-z
x,-y,z
1/2+x,1/2+y,z
1/2-x,1/2+y,-z
1/2-x,1/2-y,-z
1/2+x,1/2-y,z
loop_
_atom_site_type_symbol
_atom_site_label
_atom_site_fract_x
_atom_site_fract_y
_atom_site_fract_z
Si Si1 0.536959 0.182715 0.397183
Si Si2 0.534875 0.184596 0.888208
Si Si3 0.304898 0.311649 0.033663
Si Si4 0.391370 0.690462 0.937177
Si Si5 0.382913 0.309955 0.209712
Si Si6 0.933620 0.184792 0.775071
Si Si7 0.067493 0.185297 0.592293
O O1 0.564793 0.226710 0.318290
O O2 0.485909 0.279641 0.385310
O O3 0.567576 0.222215 0.499424
O O4 0.523551 0.000000 0.390554
O O5 0.574539 0.223551 0.827941
O O6 0.486391 0.282283 0.843982
O O7 0.523099 0.000000 0.884756
O O8 0.562378 0.236108 0.990276
O O9 0.303093 0.500000 0.029659
O O10 0.342298 0.260818 0.970193
O O11 0.250000 0.250000 0.000000
O O12 0.331972 0.268452 0.138498
O O13 0.395530 0.500000 0.945188
O O14 0.394339 0.733546 0.834226
O O15 0.390005 0.500000 0.202911
O O16 0.391200 0.272575 0.317023
O O17 0.928216 0.000000 0.755108
O O18 0.070356 0.000000 0.574415
#
# Coordination Sequence:
#
# PCOD9173665 Si02
#       7
#     8   8   8   8   8   8   8
#     4  11  21  30  43  67  99 127 157 205 241 270
#     4  11  20  28  43  68  97 124 156 197 237 275
#     4   9  18  34  52  74  96 119 151 194 242 285
#     4   9  20  35  49  64  90 126 163 194 227 283
#     4   9  18  32  50  68  94 128 164 195 227 280
#     4  11  20  32  47  63  89 131 169 193 225 277
#     4  10  18  31  49  66  89 130 170 196 227 279
#
# _framework density 16.247938999999999
#
# number of rings (size 3 to 8) (size 9 to 14) (size 15 to 20)
#    0.000    2.000    1.429    5.571    0.000    5.714 
#    0.000    0.000    0.000    0.000    0.000    1.000 
#    0.000    0.000    0.000    0.000    0.000    0.000 
#
# Total GULP energy -156175.385216 kJ/mol
# GULP energy per Si atom -5577.692329 kJ/mol
# Density = 1.621096 g / cm^3
# Si number density = 16.247939 Si / 1000 Ang^3
#
#
#
# Elastic Constant Matrix: (Units=GPa)
#
#
# Indices 1 2 3 4 5 6 
#
# 1 57.3162 1.1469 43.0640 0.0000 6.8688 0.0000
# 2 1.1469 13.1116 7.0396 0.0000 -2.9652 0.0000
# 3 43.0640 7.0396 113.8704 0.0000 -9.9471 0.0000
# 4 0.0000 0.0000 0.0000 13.3333 0.0000 4.0416
# 5 6.8688 -2.9652 -9.9471 0.0000 19.6659 0.0000
# 6 0.0000 0.0000 0.0000 4.0416 0.0000 16.1887
#
#
#
# Elastic Compliance Matrix: (Units=1/GPa)
#
#
# Indices 1 2 3 4 5 6 
#
# 1 0.028559 0.000429 -0.012233 0.000000 -0.016098 0.000000
# 2 0.000429 0.080765 -0.004294 0.000000 0.009856 0.000000
# 3 -0.012233 -0.004294 0.014637 0.000000 0.011029 0.000000
# 4 0.000000 0.000000 0.000000 0.081140 0.000000 -0.020257
# 5 -0.016098 0.009856 0.011029 0.000000 0.063536 0.000000
# 6 0.000000 0.000000 0.000000 -0.020257 0.000000 0.066829
#
#
# Mechanical properties :
#
#
# Convention : Reuss Voigt Hill
#
# Bulk Modulus (GPa) = 10.89741 31.86656 21.38198
# Shear Modulus (GPa) = 12.55485 18.70744 15.63115
#
# Velocity S-wave (km/s) = 2.78277 3.39687 3.10504
# Velocity P-wave (km/s) = 4.12875 5.91948 5.10327
#
# Compressibility (1/GPa) = 0.09176495
#
# Stress axis : x y z
#
# Youngs Moduli (GPa) = 35.01512 12.38155 68.31861
#
# Poissons Ratio (x) = -0.00532 0.83577
# Poissons Ratio (y) = -0.01504 0.29339
# Poissons Ratio (z) = 0.42835 0.05317
#
# Static dielectric constant tensor:
#      x y z
#    x 1.528560 0.000000 -0.019930 
#    y 0.000000 1.548580 0.000000 
#    z -0.019930 0.000000 1.582620 
# 
# From -- ./inp_files/247930.got.cif
#   From: 2010.05.17/outbox.cif.g08.bks.cpg/sg12_124_cif.got.tgz:247930.got - 2010.06.03 13:09:07.
