data_PCOD9173473
_publ_section_title
;
Structure prediction by ZEFSAII (Michael W. Deem and Ramdas Pophale) SiO2 
 PCOD9173473
Probable space group: C 2/M
;
_chemical_formula_sum "Si O2"
_cell_formula_units_Z 64
_cell_length_a 19.262356
_cell_length_b 15.067894
_cell_length_c 16.170610
_cell_angle_alpha 90.000000
_cell_angle_beta 40.810004
_cell_angle_gamma 90.000000
_cell_volume 3067.390177
_symmetry_space_group_name_H-M "C 2/M"
_symmetry_group_IT_number 12
_symmetry_cell_setting 'monoclinic'
loop_
_space_group_symop_operation_xyz
x,y,z
-x,y,-z
-x,-y,-z
x,-y,z
1/2+x,1/2+y,z
1/2-x,1/2+y,-z
1/2-x,1/2-y,-z
1/2+x,1/2-y,z
loop_
_atom_site_type_symbol
_atom_site_label
_atom_site_fract_x
_atom_site_fract_y
_atom_site_fract_z
Si Si1 0.328104 0.392506 0.776976
Si Si2 0.825593 0.391911 0.941200
Si Si3 0.874405 0.396903 0.538022
Si Si4 0.995380 0.398845 0.095820
Si Si5 0.608116 0.891166 0.293833
Si Si6 0.273041 0.163297 0.298157
Si Si7 0.689867 0.686344 0.618794
Si Si8 0.931928 0.893227 0.410833
O O1 0.320985 0.500000 0.771066
O O2 0.258118 0.347574 0.768941
O O3 0.451764 0.367601 0.661681
O O4 0.277398 0.371118 0.911580
O O5 0.830464 0.500000 0.931843
O O6 0.831425 0.358715 0.841936
O O7 0.928366 0.361343 0.901877
O O8 0.894964 0.500000 0.531771
O O9 0.855667 0.360583 0.647662
O O10 0.776220 0.386076 0.566575
O O11 0.984419 0.361875 0.401008
O O12 0.034755 0.500000 0.049371
O O13 0.871799 0.400088 0.230837
O O14 0.000000 0.356337 0.000000
O O15 0.614007 0.000000 0.286731
O O16 0.320708 0.255744 0.288929
O O17 0.164448 0.140343 0.444614
O O18 0.750000 0.750000 0.500000
O O19 0.591138 0.645949 0.659521
O O20 0.927766 0.000000 0.412162
#
# Coordination Sequence:
#
# PCOD9173473 Si02
#       8
#     8   8   8   8   8   8   8   8
#     4  10  19  35  58  84 115 149 188 230 275 336
#     4   9  17  29  52  86 115 139 178 230 281 330
#     4   9  17  35  58  81 109 140 184 234 275 326
#     4  10  18  30  53  83 114 149 182 224 282 339
#     4   8  16  30  55  87 107 130 176 232 284 322
#     4  11  21  35  53  82 119 147 181 228 293 345
#     4  10  23  37  50  81 111 149 184 227 288 336
#     4  10  21  37  59  82 109 150 199 239 269 326
#
# _framework density 20.864642
#
# number of rings (size 3 to 8) (size 9 to 14) (size 15 to 20)
#    0.000    2.375    1.250    2.625    3.500    1.000 
#    9.000    0.000    2.750    1.500    0.000    4.375 
#    0.000    0.000    0.000    0.000    0.000    0.000 
#
# Total GULP energy -178379.275567 kJ/mol
# GULP energy per Si atom -5574.352361 kJ/mol
# Density = 2.081715 g / cm^3
# Si number density = 20.864642 Si / 1000 Ang^3
#
#
#
# Elastic Constant Matrix: (Units=GPa)
#
#
# Indices 1 2 3 4 5 6 
#
# 1 58.4017 -6.8703 19.1415 0.0000 -3.2860 0.0000
# 2 -6.8703 15.5821 1.4741 0.0000 5.0376 0.0000
# 3 19.1415 1.4741 95.2227 0.0000 9.3879 0.0000
# 4 0.0000 0.0000 0.0000 -2.9377 0.0000 13.8643
# 5 -3.2860 5.0376 9.3879 0.0000 34.5179 0.0000
# 6 0.0000 0.0000 0.0000 13.8643 0.0000 16.3279
#
#
#
# Elastic Compliance Matrix: (Units=1/GPa)
#
#
# Indices 1 2 3 4 5 6 
#
# 1 0.019613 0.008472 -0.004250 0.000000 0.001786 0.000000
# 2 0.008472 0.071014 -0.001911 0.000000 -0.009038 0.000000
# 3 -0.004250 -0.001911 0.011712 0.000000 -0.003311 0.000000
# 4 0.000000 0.000000 0.000000 -0.067981 0.000000 0.057724
# 5 0.001786 -0.009038 -0.003311 0.000000 0.031360 0.000000
# 6 0.000000 0.000000 0.000000 0.057724 0.000000 0.012231
#
#
# Mechanical properties :
#
#
# Convention : Reuss Voigt Hill
#
# Bulk Modulus (GPa) = 9.34921 21.85522 15.60221
# Shear Modulus (GPa) = 45.87945 19.94572 32.91259
#
# Velocity S-wave (km/s) = 4.69434 3.09521 3.97600
# Velocity P-wave (km/s) = 5.82006 4.82403 5.34529
#
# Compressibility (1/GPa) = 0.10696095
#
# Stress axis : x y z
#
# Youngs Moduli (GPa) = 50.98693 14.08166 85.38253
#
# Poissons Ratio (x) = -0.11930 0.36286
# Poissons Ratio (y) = -0.43196 0.16320
# Poissons Ratio (z) = 0.21669 0.02692
#
# Static dielectric constant tensor:
#      x y z
#    x 1.865060 0.000000 -0.081200 
#    y 0.000000 1.800380 0.000000 
#    z -0.081200 0.000000 1.869300 
# 
# From -- ./inp_files/226818.got.cif
#   From: 2010.05.17/outbox.cif.g08.bks.cpg/sg12_114_cif.got.tgz:226818.got - 2010.06.03 13:09:07.
