data_PCOD9173370
_publ_section_title
;
Structure prediction by ZEFSAII (Michael W. Deem and Ramdas Pophale) SiO2 
 PCOD9173370
Probable space group: C 2/M
;
_chemical_formula_sum "Si O2"
_cell_formula_units_Z 64
_cell_length_a 30.285581
_cell_length_b 8.499685
_cell_length_c 15.998030
_cell_angle_alpha 90.000000
_cell_angle_beta 117.975425
_cell_angle_gamma 90.000000
_cell_volume 3636.965383
_symmetry_space_group_name_H-M "C 2/M"
_symmetry_group_IT_number 12
_symmetry_cell_setting 'monoclinic'
loop_
_space_group_symop_operation_xyz
x,y,z
-x,y,-z
-x,-y,-z
x,-y,z
1/2+x,1/2+y,z
1/2-x,1/2+y,-z
1/2-x,1/2-y,-z
1/2+x,1/2-y,z
loop_
_atom_site_type_symbol
_atom_site_label
_atom_site_fract_x
_atom_site_fract_y
_atom_site_fract_z
Si Si1 0.205202 0.812878 0.275970
Si Si2 0.594887 0.309148 0.565261
Si Si3 0.136538 0.685624 0.349602
Si Si4 0.540177 0.690529 0.347168
Si Si5 0.305952 0.312388 0.439478
Si Si6 0.270012 0.690080 0.889375
Si Si7 0.827739 0.311649 0.099863
Si Si8 0.428160 0.690305 0.268020
O O1 0.158250 0.733950 0.279474
O O2 0.254439 0.771688 0.373238
O O3 0.215850 0.757034 0.190973
O O4 0.198019 0.000000 0.268664
O O5 0.593563 0.500000 0.565548
O O6 0.558868 0.261696 0.456922
O O7 0.651105 0.263987 0.588904
O O8 0.579304 0.253784 0.642774
O O9 0.140680 0.500000 0.365158
O O10 0.080192 0.740250 0.318397
O O11 0.170918 0.769481 0.450321
O O12 0.543218 0.500000 0.346101
O O13 0.482884 0.738977 0.284895
O O14 0.298812 0.500000 0.428508
O O15 0.270663 0.500000 0.890636
O O16 0.214565 0.740495 0.870224
O O17 0.308051 0.750920 0.993338
O O18 0.828560 0.500000 0.099890
O O19 0.881682 0.248441 0.172943
O O20 0.427573 0.500000 0.268692
#
# Coordination Sequence:
#
# PCOD9173370 Si02
#       8
#     8   8   8   8   8   8   8   8
#     4  11  21  34  53  75 100 130 168 210 251 297
#     4   8  15  28  48  74 102 133 169 206 241 286
#     4  11  22  35  50  70 100 136 173 211 252 294
#     4   9  18  33  51  72 100 135 174 211 248 291
#     4  10  19  32  50  74 105 137 170 205 245 295
#     4   9  20  37  55  76 103 134 164 199 247 301
#     4  10  20  34  53  78 107 133 161 200 245 297
#     4  10  18  30  52  77 102 134 170 206 247 298
#
# _framework density 17.597087999999999
#
# number of rings (size 3 to 8) (size 9 to 14) (size 15 to 20)
#    0.000    2.250    0.000    4.500    0.000    3.500 
#    0.000    2.500    0.000    4.500    0.000    5.250 
#    0.000    0.000    0.000    0.000    0.000    0.000 
#
# Total GULP energy -178623.767170 kJ/mol
# GULP energy per Si atom -5581.992724 kJ/mol
# Density = 1.755704 g / cm^3
# Si number density = 17.597088 Si / 1000 Ang^3
#
#
#
# Elastic Constant Matrix: (Units=GPa)
#
#
# Indices 1 2 3 4 5 6 
#
# 1 136.3290 13.7011 64.3644 0.0000 4.5880 0.0000
# 2 13.7011 9.5641 0.5739 0.0000 -0.7582 0.0000
# 3 64.3644 0.5739 52.3356 0.0000 1.3802 0.0000
# 4 0.0000 0.0000 0.0000 18.4113 0.0000 4.3672
# 5 4.5880 -0.7582 1.3802 0.0000 30.3020 0.0000
# 6 0.0000 0.0000 0.0000 4.3672 0.0000 22.2897
#
#
#
# Elastic Compliance Matrix: (Units=1/GPa)
#
#
# Indices 1 2 3 4 5 6 
#
# 1 0.025649 -0.035145 -0.031071 0.000000 -0.003348 0.000000
# 2 -0.035145 0.152999 0.041353 0.000000 0.007266 0.000000
# 3 -0.031071 0.041353 0.056783 0.000000 0.003153 0.000000
# 4 0.000000 0.000000 0.000000 0.056962 0.000000 -0.011160
# 5 -0.003348 0.007266 0.003153 0.000000 0.033546 0.000000
# 6 0.000000 0.000000 0.000000 -0.011160 0.000000 0.047050
#
#
# Mechanical properties :
#
#
# Convention : Reuss Voigt Hill
#
# Bulk Modulus (GPa) = 5.38485 39.50083 22.44284
# Shear Modulus (GPa) = 10.31743 22.17320 16.24532
#
# Velocity S-wave (km/s) = 2.42402 3.55357 3.04169
# Velocity P-wave (km/s) = 3.30170 6.27162 5.01171
#
# Compressibility (1/GPa) = 0.18570632
#
# Stress axis : x y z
#
# Youngs Moduli (GPa) = 38.98760 6.53598 17.61096
#
# Poissons Ratio (x) = 0.22971 0.54718
# Poissons Ratio (y) = 1.37021 -0.72826
# Poissons Ratio (z) = 1.21137 -0.27028
#
# Static dielectric constant tensor:
#      x y z
#    x 1.610770 0.000000 -0.016830 
#    y 0.000000 1.596010 0.000000 
#    z -0.016830 0.000000 1.574420 
# 
# From -- ./inp_files/244159.got.cif
#   From: 2010.05.17/outbox.cif.g08.bks.cpg/sg12_123_cif.got.tgz:244159.got - 2010.06.03 13:09:07.
