data_PCOD9173661
_publ_section_title
;
Structure prediction by ZEFSAII (Michael W. Deem and Ramdas Pophale) SiO2 
 PCOD9173661
Probable space group: C 2/M
;
_chemical_formula_sum "Si O2"
_cell_formula_units_Z 64
_cell_length_a 29.044486
_cell_length_b 8.589582
_cell_length_c 21.267661
_cell_angle_alpha 90.000000
_cell_angle_beta 133.381870
_cell_angle_gamma 90.000000
_cell_volume 3856.253909
_symmetry_space_group_name_H-M "C 2/M"
_symmetry_group_IT_number 12
_symmetry_cell_setting 'monoclinic'
loop_
_space_group_symop_operation_xyz
x,y,z
-x,y,-z
-x,-y,-z
x,-y,z
1/2+x,1/2+y,z
1/2-x,1/2+y,-z
1/2-x,1/2-y,-z
1/2+x,1/2-y,z
loop_
_atom_site_type_symbol
_atom_site_label
_atom_site_fract_x
_atom_site_fract_y
_atom_site_fract_z
Si Si1 0.182583 0.186241 0.248511
Si Si2 0.684196 0.810573 0.655359
Si Si3 0.539520 0.688071 0.097490
Si Si4 0.482804 0.820979 0.790327
Si Si5 0.499688 0.315257 0.324805
Si Si6 0.829472 0.320084 0.629022
Si Si7 0.858976 0.311285 0.524330
Si Si8 0.943891 0.311534 0.398704
O O1 0.243555 0.243572 0.266644
O O2 0.112708 0.245700 0.164825
O O3 0.193160 0.224446 0.332190
O O4 0.180735 0.000000 0.240690
O O5 0.668343 0.769035 0.568564
O O6 0.625027 0.757709 0.641669
O O7 0.684335 0.000000 0.659242
O O8 0.541125 0.500000 0.098544
O O9 0.508905 0.740308 0.134615
O O10 0.500000 0.741118 0.000000
O O11 0.514305 0.742613 0.759073
O O12 0.406610 0.817566 0.707050
O O13 0.502226 0.000000 0.811981
O O14 0.497437 0.500000 0.324235
O O15 0.570818 0.256821 0.405843
O O16 0.457945 0.246508 0.341927
O O17 0.808952 0.500000 0.615338
O O18 0.819483 0.259802 0.548639
O O19 0.863141 0.500000 0.531943
O O20 0.944842 0.500000 0.399682
O O21 0.000000 0.262307 0.500000
#
# Coordination Sequence:
#
# PCOD9173661 Si02
#       8
#     8   8   8   8   8   8   8   8
#     4   9  17  29  44  63  89 119 152 185 219 269
#     4   9  17  29  45  62  82 116 161 198 224 261
#     4   9  17  30  49  74 103 127 145 176 229 282
#     4   9  17  30  48  69  93 122 157 190 223 269
#     4  11  20  29  44  67  95 120 151 197 241 275
#     4   8  15  26  41  59  84 116 149 184 221 263
#     4   9  16  29  44  59  82 119 161 193 225 263
#     4  10  18  31  49  63  82 120 164 200 235 270
#
# _framework density 16.596416999999999
#
# number of rings (size 3 to 8) (size 9 to 14) (size 15 to 20)
#    0.000    2.750    1.250    2.250    0.000    4.000 
#    0.000    1.250    0.000    0.000    0.000    0.875 
#    0.000    0.000    0.000    0.000    0.000    0.000 
#
# Total GULP energy -178259.692088 kJ/mol
# GULP energy per Si atom -5570.615378 kJ/mol
# Density = 1.655864 g / cm^3
# Si number density = 16.596417 Si / 1000 Ang^3
#
#
#
# Elastic Constant Matrix: (Units=GPa)
#
#
# Indices 1 2 3 4 5 6 
#
# 1 146.8153 18.7210 68.1143 0.0000 -5.1471 0.0000
# 2 18.7210 11.3075 18.2598 0.0000 -2.1633 0.0000
# 3 68.1143 18.2598 76.4575 0.0000 -12.5183 0.0000
# 4 0.0000 0.0000 0.0000 8.5030 0.0000 -12.4224
# 5 -5.1471 -2.1633 -12.5183 0.0000 18.5486 0.0000
# 6 0.0000 0.0000 0.0000 -12.4224 0.0000 17.1624
#
#
#
# Elastic Compliance Matrix: (Units=1/GPa)
#
#
# Indices 1 2 3 4 5 6 
#
# 1 0.012008 -0.003744 -0.010489 0.000000 -0.004183 0.000000
# 2 -0.003744 0.145985 -0.032503 -0.000004 -0.005949 -0.000003
# 3 -0.010489 -0.032503 0.032702 0.000001 0.015369 0.000001
# 4 0.000000 -0.000004 0.000001 -2.046946 0.000000 -1.481613
# 5 -0.004183 -0.005949 0.015369 0.000000 0.062430 0.000000
# 6 0.000000 -0.000003 0.000001 -1.481613 0.000000 -1.014149
#
#
# Mechanical properties :
#
#
# Convention : Reuss Voigt Hill
#
# Bulk Modulus (GPa) = 10.28557 49.41897 29.85227
# Shear Modulus (GPa) = -1.86422 17.47515 7.80547
#
# Velocity S-wave (km/s) = -1.06099 3.24844 2.17102
# Velocity P-wave (km/s) = 2.17025 6.62656 4.93058
#
# Compressibility (1/GPa) = 0.09722355
#
# Stress axis : x y z
#
# Youngs Moduli (GPa) = 83.27680 6.85004 30.57920
#
# Poissons Ratio (x) = 0.02565 0.32073
# Poissons Ratio (y) = 0.31179 0.99392
# Poissons Ratio (z) = 0.87345 0.22265
#
# Static dielectric constant tensor:
#      x y z
#    x 1.585130 0.000000 0.013620 
#    y 0.000000 1.563460 0.000000 
#    z 0.013620 0.000000 1.569090 
# 
# From -- ./inp_files/326942.got.cif
#   From: 2010.05.17/outbox.cif.g08.bks.cpg/sg12_164_cif.got.tgz:326942.got - 2010.06.03 13:09:07.
