data_PCOD9173022
_publ_section_title
;
Structure prediction by ZEFSAII (Michael W. Deem and Ramdas Pophale) SiO2 
 PCOD9173022
Probable space group: C 2/M
;
_chemical_formula_sum "Si O2"
_cell_formula_units_Z 64
_cell_length_a 19.503872
_cell_length_b 9.126519
_cell_length_c 21.843845
_cell_angle_alpha 90.000000
_cell_angle_beta 116.276005
_cell_angle_gamma 90.000000
_cell_volume 3486.491812
_symmetry_space_group_name_H-M "C 2/M"
_symmetry_group_IT_number 12
_symmetry_cell_setting 'monoclinic'
loop_
_space_group_symop_operation_xyz
x,y,z
-x,y,-z
-x,-y,-z
x,-y,z
1/2+x,1/2+y,z
1/2-x,1/2+y,-z
1/2-x,1/2-y,-z
1/2+x,1/2-y,z
loop_
_atom_site_type_symbol
_atom_site_label
_atom_site_fract_x
_atom_site_fract_y
_atom_site_fract_z
Si Si1 0.808625 0.174379 0.790381
Si Si2 0.248987 0.170451 0.564822
Si Si3 0.829564 0.676516 0.352974
Si Si4 0.072787 0.330711 0.354093
Si Si5 0.878646 0.328525 0.927909
Si Si6 0.511310 0.325563 0.576407
Si Si7 0.958065 0.327411 0.078119
Si Si8 0.468461 0.325600 0.783528
O O1 0.733970 0.218333 0.722723
O O2 0.819501 0.247013 0.860850
O O3 0.884896 0.206565 0.780563
O O4 0.806400 0.000000 0.797334
O O5 0.250000 0.250000 0.500000
O O6 0.198157 0.257180 0.593382
O O7 0.336633 0.172960 0.622388
O O8 0.224555 0.000000 0.550023
O O9 0.833646 0.500000 0.357984
O O10 0.911175 0.746990 0.371501
O O11 0.049827 0.500000 0.351936
O O12 0.029984 0.254857 0.280720
O O13 0.055477 0.242549 0.409048
O O14 0.859693 0.500000 0.923540
O O15 0.960539 0.317152 0.925377
O O16 0.895146 0.276224 0.003673
O O17 0.500000 0.295611 0.500000
O O18 0.515585 0.500000 0.586429
O O19 0.946009 0.500000 0.086482
O O20 0.969458 0.236062 0.144147
O O21 0.475002 0.500000 0.778927
#
# Coordination Sequence:
#
# PCOD9173022 Si02
#       8
#     8   8   8   8   8   8   8   8
#     4   9  18  30  47  74 107 141 176 220 268 313
#     4  11  23  37  57  83 109 139 177 220 271 328
#     4  11  22  38  58  81 111 144 180 223 272 326
#     4  11  23  38  57  81 108 143 181 222 272 326
#     4   8  14  24  41  65  99 141 179 217 260 311
#     4  11  25  43  61  81 107 140 180 228 277 327
#     4   8  14  25  40  65 101 140 179 217 262 312
#     4  10  18  30  49  75 107 142 179 222 269 315
#
# _framework density 18.356560999999999
#
# number of rings (size 3 to 8) (size 9 to 14) (size 15 to 20)
#    0.000    2.125    1.250    3.375    0.000    6.500 
#    0.000    2.500    0.000    0.000    0.000    0.875 
#    0.000    0.000    0.000    0.000    0.000    0.000 
#
# Total GULP energy -178554.535047 kJ/mol
# GULP energy per Si atom -5579.829220 kJ/mol
# Density = 1.831478 g / cm^3
# Si number density = 18.356561 Si / 1000 Ang^3
#
#
#
# Elastic Constant Matrix: (Units=GPa)
#
#
# Indices 1 2 3 4 5 6 
#
# 1 24.3861 9.3759 -10.0451 0.0000 3.2895 0.0000
# 2 9.3759 65.9401 45.5352 0.0000 -2.5523 0.0000
# 3 -10.0451 45.5352 104.0858 0.0000 1.7218 0.0000
# 4 0.0000 0.0000 0.0000 34.8763 0.0000 -1.9325
# 5 3.2895 -2.5523 1.7218 0.0000 19.0866 0.0000
# 6 0.0000 0.0000 0.0000 -1.9325 0.0000 21.1092
#
#
#
# Elastic Compliance Matrix: (Units=1/GPa)
#
#
# Indices 1 2 3 4 5 6 
#
# 1 0.054805 -0.017329 0.013084 0.000000 -0.012943 0.000000
# 2 -0.017329 0.027483 -0.013827 0.000000 0.007909 0.000000
# 3 0.013084 -0.013827 0.017012 0.000000 -0.005639 0.000000
# 4 0.000000 0.000000 0.000000 0.028819 0.000000 0.002638
# 5 -0.012943 0.007909 -0.005639 0.000000 0.056190 0.000000
# 6 0.000000 0.000000 0.000000 0.002638 0.000000 0.047614
#
#
# Mechanical properties :
#
#
# Convention : Reuss Voigt Hill
#
# Bulk Modulus (GPa) = 15.83327 31.57157 23.70242
# Shear Modulus (GPa) = 17.29391 24.98417 21.13904
#
# Velocity S-wave (km/s) = 3.07271 3.69324 3.39717
# Velocity P-wave (km/s) = 4.60791 5.95173 5.32240
#
# Compressibility (1/GPa) = 0.06315815
#
# Stress axis : x y z
#
# Youngs Moduli (GPa) = 18.24647 36.38564 58.78110
#
# Poissons Ratio (x) = 0.63053 -0.76911
# Poissons Ratio (y) = 0.31619 0.81274
# Poissons Ratio (z) = -0.23874 0.50309
#
# Static dielectric constant tensor:
#      x y z
#    x 1.628740 0.000000 0.011560 
#    y 0.000000 1.610920 0.000000 
#    z 0.011560 0.000000 1.647130 
# 
# From -- ./inp_files/320005.got.cif
#   From: 2010.05.17/outbox.cif.g08.bks.cpg/sg12_161_cif.got.tgz:320005.got - 2010.06.03 13:09:07.
