data_PCOD9173248
_publ_section_title
;
Structure prediction by ZEFSAII (Michael W. Deem and Ramdas Pophale) SiO2 
 PCOD9173248
Probable space group: C 2/M
;
_chemical_formula_sum "Si O2"
_cell_formula_units_Z 48
_cell_length_a 23.150955
_cell_length_b 9.082809
_cell_length_c 29.717163
_cell_angle_alpha 90.000000
_cell_angle_beta 27.779305
_cell_angle_gamma 90.000000
_cell_volume 2912.358866
_symmetry_space_group_name_H-M "C 2/M"
_symmetry_group_IT_number 12
_symmetry_cell_setting 'monoclinic'
loop_
_space_group_symop_operation_xyz
x,y,z
-x,y,-z
-x,-y,-z
x,-y,z
1/2+x,1/2+y,z
1/2-x,1/2+y,-z
1/2-x,1/2-y,-z
1/2+x,1/2-y,z
loop_
_atom_site_type_symbol
_atom_site_label
_atom_site_fract_x
_atom_site_fract_y
_atom_site_fract_z
Si Si1 0.768471 0.824860 0.557896
Si Si2 0.707589 0.824113 0.182625
Si Si3 0.443937 0.324679 0.351727
Si Si4 0.142685 0.676859 0.411858
Si Si5 0.446688 0.169278 0.985629
Si Si6 0.813034 0.175734 0.209101
O O1 0.645159 0.746912 0.624177
O O2 0.874944 0.797329 0.447012
O O3 0.809948 0.758351 0.576572
O O4 0.749708 0.000000 0.573683
O O5 0.578316 0.748483 0.259946
O O6 0.743106 0.790334 0.210292
O O7 0.699464 0.000000 0.183744
O O8 0.820025 0.760672 0.075288
O O9 0.452617 0.500000 0.339293
O O10 0.148898 0.500000 0.414605
O O11 0.227265 0.713372 0.310476
O O12 0.000000 0.714583 0.500000
O O13 0.555730 0.241735 0.881409
O O14 0.424264 0.000000 0.988580
O O15 0.500000 0.171504 0.000000
O O16 0.835258 0.000000 0.193861
#
# Coordination Sequence:
#
# PCOD9173248 Si02
#       6
#     8   8   8   8   8   8
#     4  10  21  35  51  73 100 131 167 205 246 291
#     4  10  18  30  51  76 101 129 165 206 246 292
#     4  10  20  34  52  73  99 130 165 206 248 292
#     4  10  20  34  52  74 102 135 168 201 241 292
#     4   9  17  29  46  70 100 131 164 204 248 291
#     4   9  18  31  48  72 102 135 167 201 244 292
#
# _framework density 16.481484999999999
#
# number of rings (size 3 to 8) (size 9 to 14) (size 15 to 20)
#    0.000    2.333    0.000    3.000    0.000    7.000 
#    0.000    0.000    0.000    1.000    0.000    0.000 
#    0.000    0.000    0.000    0.000    0.000    0.000 
#
# Total GULP energy -133916.316240 kJ/mol
# GULP energy per Si atom -5579.846510 kJ/mol
# Density = 1.644397 g / cm^3
# Si number density = 16.481485 Si / 1000 Ang^3
#
#
#
# Elastic Constant Matrix: (Units=GPa)
#
#
# Indices 1 2 3 4 5 6 
#
# 1 98.5177 61.2139 81.9172 0.0001 -10.6904 0.0004
# 2 61.2139 77.5564 84.7705 0.0005 -13.9414 -0.0003
# 3 81.9172 84.7705 158.2271 0.0012 -21.9849 -0.0001
# 4 0.0001 0.0005 0.0012 30.9171 -0.0004 -4.8601
# 5 -10.6904 -13.9414 -21.9849 -0.0004 28.5225 0.0002
# 6 0.0004 -0.0003 -0.0001 -4.8601 0.0002 29.3572
#
#
#
# Elastic Compliance Matrix: (Units=1/GPa)
#
#
# Indices 1 2 3 4 5 6 
#
# 1 0.021445 -0.011667 -0.005071 0.000000 -0.001573 0.000000
# 2 -0.011667 0.037639 -0.013637 0.000000 0.003514 0.000000
# 3 -0.005071 -0.013637 0.016868 0.000000 0.004435 0.000000
# 4 0.000000 0.000000 0.000000 0.033209 0.000000 0.005498
# 5 -0.001573 0.003514 0.004435 0.000000 0.039606 0.000000
# 6 0.000000 0.000000 0.000000 0.005498 0.000000 0.034973
#
#
# Mechanical properties :
#
#
# Convention : Reuss Voigt Hill
#
# Bulk Modulus (GPa) = 65.77617 87.78938 76.78277
# Shear Modulus (GPa) = 20.03547 24.85266 22.44406
#
# Velocity S-wave (km/s) = 3.49038 3.88740 3.69423
# Velocity P-wave (km/s) = 7.49929 8.57498 8.05511
#
# Compressibility (1/GPa) = 0.01520307
#
# Stress axis : x y z
#
# Youngs Moduli (GPa) = 46.63070 26.56787 59.28538
#
# Poissons Ratio (x) = 0.30996 0.30061
# Poissons Ratio (y) = 0.54403 0.80848
# Poissons Ratio (z) = 0.23645 0.36231
#
# Static dielectric constant tensor:
#      x y z
#    x 1.521930 0.000000 0.004510 
#    y 0.000000 1.550250 0.000000 
#    z 0.004510 0.000000 1.539610 
# 
# From -- ./inp_files/172376.got.cif
#   From: 2010.05.17/outbox.cif.g08.bks.cpg/sg12_87_cif.got.tgz:172376.got - 2010.06.03 13:09:07.
