data_PCOD9173224
_publ_section_title
;
Structure prediction by ZEFSAII (Michael W. Deem and Ramdas Pophale) SiO2 
 PCOD9173224
Probable space group: C 2/M
;
_chemical_formula_sum "Si O2"
_cell_formula_units_Z 64
_cell_length_a 31.394682
_cell_length_b 14.473671
_cell_length_c 10.217252
_cell_angle_alpha 90.000000
_cell_angle_beta 60.184810
_cell_angle_gamma 90.000000
_cell_volume 4028.146767
_symmetry_space_group_name_H-M "C 2/M"
_symmetry_group_IT_number 12
_symmetry_cell_setting 'monoclinic'
loop_
_space_group_symop_operation_xyz
x,y,z
-x,y,-z
-x,-y,-z
x,-y,z
1/2+x,1/2+y,z
1/2-x,1/2+y,-z
1/2-x,1/2-y,-z
1/2+x,1/2-y,z
loop_
_atom_site_type_symbol
_atom_site_label
_atom_site_fract_x
_atom_site_fract_y
_atom_site_fract_z
Si Si1 0.772765 0.889491 0.564031
Si Si2 0.684022 0.891589 0.504785
Si Si3 0.125639 0.784198 0.594530
Si Si4 0.464033 0.606961 0.678729
Si Si5 0.227439 0.110474 0.133985
Si Si6 0.967296 0.891773 0.178003
Si Si7 0.815774 0.391839 0.803056
Si Si8 0.873804 0.216558 0.716859
O O1 0.729631 0.866759 0.528409
O O2 0.823869 0.839351 0.455928
O O3 0.759122 0.866282 0.735671
O O4 0.780284 0.000000 0.546245
O O5 0.639118 0.822443 0.600328
O O6 0.697267 0.878705 0.330793
O O7 0.672610 0.000000 0.541689
O O8 0.080268 0.827403 0.740573
O O9 0.115194 0.795022 0.454957
O O10 0.500000 0.615199 0.500000
O O11 0.446761 0.500000 0.710950
O O12 0.496948 0.626037 0.754528
O O13 0.418146 0.674000 0.730079
O O14 0.176727 0.161463 0.180618
O O15 0.219634 0.000000 0.139934
O O16 0.270404 0.132882 0.966333
O O17 0.951804 0.000000 0.208624
O O18 0.000000 0.878762 0.000000
O O19 0.827216 0.500000 0.804879
O O20 0.860735 0.323290 0.762014
#
# Coordination Sequence:
#
# PCOD9173224 Si02
#       8
#     8   8   8   8   8   8   8   8
#     4   9  17  29  47  71  96 125 162 196 230 282
#     4   9  18  32  48  69  97 129 164 197 230 276
#     4  10  18  31  52  71  94 129 163 194 236 285
#     4  10  19  33  54  74  94 121 155 196 237 284
#     4   9  17  29  46  70 100 127 154 195 241 281
#     4  10  21  37  52  72 101 124 148 192 248 290
#     4   9  18  32  47  67 101 133 156 194 241 276
#     4  10  18  30  51  74  94 125 167 197 228 282
#
# _framework density 15.888199999999999
#
# number of rings (size 3 to 8) (size 9 to 14) (size 15 to 20)
#    0.000    2.500    1.250    1.500    0.000    1.000 
#    4.500    0.000    0.000    1.500    0.000    0.000 
#    0.000    0.000    0.000    0.000    0.000    0.000 
#
# Total GULP energy -178399.434778 kJ/mol
# GULP energy per Si atom -5574.982337 kJ/mol
# Density = 1.585204 g / cm^3
# Si number density = 15.888200 Si / 1000 Ang^3
#
#
#
# Elastic Constant Matrix: (Units=GPa)
#
#
# Indices 1 2 3 4 5 6 
#
# 1 92.7648 64.9088 59.7468 0.0000 -3.5536 0.0000
# 2 64.9088 80.7538 45.7005 0.0000 -8.8739 0.0000
# 3 59.7468 45.7005 66.5531 0.0000 -0.8761 0.0000
# 4 0.0000 0.0000 0.0000 44.2627 0.0000 -8.4689
# 5 -3.5536 -8.8739 -0.8761 0.0000 17.0310 0.0000
# 6 0.0000 0.0000 0.0000 -8.4689 0.0000 27.6410
#
#
#
# Elastic Compliance Matrix: (Units=1/GPa)
#
#
# Indices 1 2 3 4 5 6 
#
# 1 0.036392 -0.018085 -0.020290 0.000000 -0.002873 0.000000
# 2 -0.018085 0.031037 -0.004917 0.000000 0.012145 0.000000
# 3 -0.020290 -0.004917 0.036552 0.000000 -0.004916 0.000000
# 4 0.000000 0.000000 0.000000 0.023999 0.000000 0.007353
# 5 -0.002873 0.012145 -0.004916 0.000000 0.064192 0.000000
# 6 0.000000 0.000000 0.000000 0.007353 0.000000 0.038431
#
#
# Mechanical properties :
#
#
# Convention : Reuss Voigt Hill
#
# Bulk Modulus (GPa) = 57.47871 64.53156 61.00514
# Shear Modulus (GPa) = 15.48053 22.43465 18.95759
#
# Velocity S-wave (km/s) = 3.12483 3.76178 3.45800
# Velocity P-wave (km/s) = 7.01961 7.71830 7.37723
#
# Compressibility (1/GPa) = 0.01739775
#
# Stress axis : x y z
#
# Youngs Moduli (GPa) = 27.47864 32.21960 27.35806
#
# Poissons Ratio (x) = 0.58268 0.55509
# Poissons Ratio (y) = 0.49694 0.13453
# Poissons Ratio (z) = 0.55753 0.15844
#
# Static dielectric constant tensor:
#      x y z
#    x 1.498070 0.000000 0.021770 
#    y 0.000000 1.556300 0.000000 
#    z 0.021770 0.000000 1.532770 
# 
# From -- ./inp_files/111624.got.cif
#   From: 2010.05.17/outbox.cif.g08.bks.cpg/sg12_56_cif.got.tgz:111624.got - 2010.06.03 13:09:07.
