data_PCOD9173585
_publ_section_title
;
Structure prediction by ZEFSAII (Michael W. Deem and Ramdas Pophale) SiO2 
 PCOD9173585
Probable space group: C 2/M
;
_chemical_formula_sum "Si O2"
_cell_formula_units_Z 56
_cell_length_a 14.232953
_cell_length_b 17.711172
_cell_length_c 28.798070
_cell_angle_alpha 90.000000
_cell_angle_beta 27.895330
_cell_angle_gamma 90.000000
_cell_volume 3396.405648
_symmetry_space_group_name_H-M "C 2/M"
_symmetry_group_IT_number 12
_symmetry_cell_setting 'monoclinic'
loop_
_space_group_symop_operation_xyz
x,y,z
-x,y,-z
-x,-y,-z
x,-y,z
1/2+x,1/2+y,z
1/2-x,1/2+y,-z
1/2-x,1/2-y,-z
1/2+x,1/2-y,z
loop_
_atom_site_type_symbol
_atom_site_label
_atom_site_fract_x
_atom_site_fract_y
_atom_site_fract_z
Si Si1 0.017746 0.583382 0.374900
Si Si2 0.732761 0.198083 0.574945
Si Si3 0.699121 0.306893 0.348674
Si Si4 0.794370 0.878266 0.411966
Si Si5 0.203901 0.590969 0.883735
Si Si6 0.137357 0.136540 0.722403
Si Si7 0.234559 0.085955 0.248633
O O1 0.974738 0.500000 0.375086
O O2 0.251050 0.592439 0.285469
O O3 0.928559 0.648563 0.381549
O O4 0.895826 0.594774 0.476211
O O5 0.742236 0.171643 0.624270
O O6 0.686692 0.287173 0.593484
O O7 0.955538 0.191186 0.455604
O O8 0.782105 0.221972 0.307286
O O9 0.777389 0.359884 0.273303
O O10 0.788414 0.894789 0.359988
O O11 0.993719 0.913337 0.346747
O O12 0.237082 0.500000 0.870209
O O13 0.397943 0.629258 0.822560
O O14 0.188849 0.612015 0.835686
O O15 0.000000 0.607851 0.000000
O O16 0.301939 0.000000 0.227647
#
# Coordination Sequence:
#
# PCOD9173585 Si02
#       7
#     8   8   8   8   8   8   8
#     4  12  21  28  43  71 103 133 166 203 238 280
#     4  10  20  32  46  64 100 146 174 192 228 278
#     4  10  19  33  49  68  97 137 175 201 229 278
#     4  10  18  31  46  66  97 132 167 197 233 288
#     4   9  19  37  57  76  98 122 154 203 260 308
#     4  10  20  32  50  73  97 128 163 200 248 295
#     4  10  19  31  51  74  96 127 165 204 244 285
#
# _framework density 16.488019000000001
#
# number of rings (size 3 to 8) (size 9 to 14) (size 15 to 20)
#    0.000    1.857    2.857    2.571    0.000    2.857 
#    0.000    2.143    0.000    0.000    0.000    0.000 
#    0.000    5.143    0.000    0.000    0.000    0.000 
#
# Total GULP energy -156166.787313 kJ/mol
# GULP energy per Si atom -5577.385261 kJ/mol
# Density = 1.645049 g / cm^3
# Si number density = 16.488019 Si / 1000 Ang^3
#
#
#
# Elastic Constant Matrix: (Units=GPa)
#
#
# Indices 1 2 3 4 5 6 
#
# 1 77.6227 30.2882 32.6604 0.0061 1.3585 -0.0070
# 2 30.2882 58.0284 14.4308 0.0078 4.2726 -0.0091
# 3 32.6604 14.4308 73.2833 0.0052 9.1963 0.0476
# 4 0.0061 0.0078 0.0052 13.0142 -0.0039 5.8552
# 5 1.3585 4.2726 9.1963 -0.0039 9.9737 -0.0033
# 6 -0.0070 -0.0091 0.0476 5.8552 -0.0033 10.4364
#
#
#
# Elastic Compliance Matrix: (Units=1/GPa)
#
#
# Indices 1 2 3 4 5 6 
#
# 1 0.019572 -0.008842 -0.008055 -0.000024 0.008549 0.000058
# 2 -0.008842 0.022344 0.000668 -0.000021 -0.008983 0.000020
# 3 -0.008055 0.000668 0.019227 0.000046 -0.016917 -0.000124
# 4 -0.000024 -0.000021 0.000046 0.102783 -0.000009 -0.057666
# 5 0.008549 -0.008983 -0.016917 -0.000009 0.118546 0.000117
# 6 0.000058 0.000020 -0.000124 -0.057666 0.000117 0.128172
#
#
# Mechanical properties :
#
#
# Convention : Reuss Voigt Hill
#
# Bulk Modulus (GPa) = 34.86072 40.41035 37.63554
# Shear Modulus (GPa) = 11.04574 15.45520 13.25047
#
# Velocity S-wave (km/s) = 2.59110 3.06495 2.83793
# Velocity P-wave (km/s) = 5.49005 6.08994 5.79776
#
# Compressibility (1/GPa) = 0.02868558
#
# Stress axis : x y z
#
# Youngs Moduli (GPa) = 51.09213 44.75574 52.01073
#
# Poissons Ratio (x) = 0.39575 0.41892
# Poissons Ratio (y) = 0.45177 -0.03476
# Poissons Ratio (z) = 0.41152 -0.02991
#
# Static dielectric constant tensor:
#      x y z
#    x 1.573790 0.000000 0.009800 
#    y 0.000000 1.573840 0.000000 
#    z 0.009800 0.000000 1.540120 
# 
# From -- ./inp_files/361458.got.cif
#   From: 2010.05.17/outbox.cif.g08.bks.cpg/sg12_181_cif.got.tgz:361458.got - 2010.06.03 13:09:07.
