data_PCOD9173467
_publ_section_title
;
Structure prediction by ZEFSAII (Michael W. Deem and Ramdas Pophale) SiO2 
 PCOD9173467
Probable space group: C 2/M
;
_chemical_formula_sum "Si O2"
_cell_formula_units_Z 50
_cell_length_a 15.627430
_cell_length_b 7.630054
_cell_length_c 23.944108
_cell_angle_alpha 90.000000
_cell_angle_beta 130.180325
_cell_angle_gamma 90.000000
_cell_volume 2181.309127
_symmetry_space_group_name_H-M "C 2/M"
_symmetry_group_IT_number 12
_symmetry_cell_setting 'monoclinic'
loop_
_space_group_symop_operation_xyz
x,y,z
-x,y,-z
-x,-y,-z
x,-y,z
1/2+x,1/2+y,z
1/2-x,1/2+y,-z
1/2-x,1/2-y,-z
1/2+x,1/2-y,z
loop_
_atom_site_type_symbol
_atom_site_label
_atom_site_fract_x
_atom_site_fract_y
_atom_site_fract_z
Si Si1 0.262812 0.703193 0.827815
Si Si2 0.000000 0.500000 0.500000
Si Si3 0.141922 0.793776 0.597391
Si Si4 0.400330 0.286281 0.708028
Si Si5 0.113860 0.706582 0.018138
Si Si6 0.990816 0.210665 0.861937
Si Si7 0.453576 0.700218 0.326759
O O1 0.249266 0.500000 0.806912
O O2 0.284613 0.717692 0.903183
O O3 0.376245 0.769385 0.845164
O O4 0.155595 0.799387 0.758879
O O5 0.904039 0.657217 0.466626
O O6 0.274075 0.774493 0.662883
O O7 0.082594 0.723238 0.629407
O O8 0.118819 0.000000 0.577810
O O9 0.401511 0.500000 0.708053
O O10 0.477688 0.229643 0.792812
O O11 0.449821 0.219884 0.670458
O O12 0.118120 0.500000 0.029377
O O13 0.000000 0.778589 0.000000
O O14 0.094792 0.736622 0.944620
O O15 0.990661 0.000000 0.861854
O O16 0.484812 0.500000 0.352232
#
# Coordination Sequence:
#
# PCOD9173467 Si02
#       7
#     8   2   8   8   8   8   8
#     4  10  18  30  53  82 116 163 214 266 320 377
#     4  12  26  48  80  98 140 168 210 252 328 382
#     4  11  24  45  74 103 133 172 212 259 311 387
#     4  10  20  40  66  95 132 172 211 266 323 376
#     4   9  17  28  45  73 116 158 209 268 326 370
#     4   9  17  30  53  81 114 163 214 262 322 379
#     4  10  22  38  64  96 131 167 216 263 318 380
#
# _framework density 22.922013
#
# number of rings (size 3 to 8) (size 9 to 14) (size 15 to 20)
#    0.000    2.080    2.400    1.200    1.120    3.840 
#    0.000    1.600    0.000    0.000    0.000    0.000 
#    0.000    0.000    0.000    0.000    0.000    0.000 
#
# Total GULP energy -139318.447948 kJ/mol
# GULP energy per Si atom -5572.737918 kJ/mol
# Density = 2.286984 g / cm^3
# Si number density = 22.922013 Si / 1000 Ang^3
#
#
#
# Elastic Constant Matrix: (Units=GPa)
#
#
# Indices 1 2 3 4 5 6 
#
# 1 89.3429 2.4358 20.6786 0.0000 -19.0034 0.0000
# 2 2.4358 94.2706 0.5718 0.0000 -0.8281 0.0000
# 3 20.6786 0.5718 76.5255 0.0000 4.7103 0.0000
# 4 0.0000 0.0000 0.0000 13.6767 0.0000 10.9406
# 5 -19.0034 -0.8281 4.7103 0.0000 0.3368 0.0000
# 6 0.0000 0.0000 0.0000 10.9406 0.0000 5.8786
#
#
#
# Elastic Compliance Matrix: (Units=1/GPa)
#
#
# Indices 1 2 3 4 5 6 
#
# 1 -0.000096 -0.000453 0.003092 0.000000 -0.049765 0.000000
# 2 -0.000453 0.010613 0.000085 0.000000 -0.000679 0.000000
# 3 0.003092 0.000085 0.010624 0.000000 0.026110 0.000000
# 4 0.000000 0.000000 0.000000 -0.149599 0.000000 0.278416
# 5 -0.049765 -0.000679 0.026110 0.000000 -0.205642 0.000000
# 6 0.000000 0.000000 0.000000 0.278416 0.000000 -0.348045
#
#
# Mechanical properties :
#
#
# Convention : Reuss Voigt Hill
#
# Bulk Modulus (GPa) = 37.60898 34.16794 35.88846
# Shear Modulus (GPa) = -7.36671 19.74194 6.18762
#
# Velocity S-wave (km/s) = -1.79466 2.93792 1.64477
# Velocity P-wave (km/s) = 3.48548 5.14266 4.39293
#
# Compressibility (1/GPa) = 0.02658939
#
# Stress axis : x y z
#
# Youngs Moduli (GPa) = -10450.18843 94.22411 94.12502
#
# Poissons Ratio (x) = 0.04272 -0.29107
# Poissons Ratio (y) = -4.73834 -0.00800
# Poissons Ratio (z) = 32.31587 -0.00801
#
# Static dielectric constant tensor:
#      x y z
#    x 1.903970 0.000000 -0.036410 
#    y 0.000000 1.864940 0.000000 
#    z -0.036410 0.000000 1.909130 
# 
# From -- ./inp_files/362789.got.cif
#   From: 2010.05.17/outbox.cif.g08.bks.cpg/sg12_182_cif.got.tgz:362789.got - 2010.06.03 13:09:07.
