data_PCOD9173489
_publ_section_title
;
Structure prediction by ZEFSAII (Michael W. Deem and Ramdas Pophale) SiO2 
 PCOD9173489
Probable space group: C 2/M
;
_chemical_formula_sum "Si O2"
_cell_formula_units_Z 48
_cell_length_a 26.185176
_cell_length_b 18.758347
_cell_length_c 9.261345
_cell_angle_alpha 90.000000
_cell_angle_beta 28.992000
_cell_angle_gamma 90.000000
_cell_volume 2204.884989
_symmetry_space_group_name_H-M "C 2/M"
_symmetry_group_IT_number 12
_symmetry_cell_setting 'monoclinic'
loop_
_space_group_symop_operation_xyz
x,y,z
-x,y,-z
-x,-y,-z
x,-y,z
1/2+x,1/2+y,z
1/2-x,1/2+y,-z
1/2-x,1/2-y,-z
1/2+x,1/2-y,z
loop_
_atom_site_type_symbol
_atom_site_label
_atom_site_fract_x
_atom_site_fract_y
_atom_site_fract_z
Si Si1 0.606119 0.279361 0.679393
Si Si2 0.346587 0.079953 0.997268
Si Si3 0.251887 0.151204 0.742394
Si Si4 0.196684 0.824258 0.172371
Si Si5 0.834245 0.077698 0.316812
Si Si6 0.028514 0.415388 0.758439
O O1 0.709200 0.226928 0.425534
O O2 0.606926 0.308269 0.512488
O O3 0.611607 0.349550 0.765333
O O4 0.500000 0.242126 0.000000
O O5 0.446839 0.110423 0.836748
O O6 0.369704 0.000000 0.883229
O O7 0.284608 0.127276 0.034595
O O8 0.262303 0.072275 0.334062
O O9 0.212879 0.096046 0.721139
O O10 0.362153 0.123955 0.533083
O O11 0.170092 0.149974 0.077432
O O12 0.250000 0.750000 0.000000
O O13 0.889063 0.000000 0.181764
O O14 0.037560 0.500000 0.712822
O O15 0.000000 0.408462 0.000000
#
# Coordination Sequence:
#
# PCOD9173489 Si02
#       6
#     8   8   8   8   8   8
#     4  10  22  40  61  83 109 150 202 239 284 341
#     4   9  18  33  55  84 119 158 191 226 281 351
#     4  11  20  35  58  88 119 148 188 236 295 343
#     4   9  21  39  55  80 118 151 190 236 291 337
#     4  10  20  36  60  85 113 153 195 239 286 341
#     4  10  18  30  53  89 126 152 187 232 279 347
#
# _framework density 21.769843000000002
#
# number of rings (size 3 to 8) (size 9 to 14) (size 15 to 20)
#    0.000    2.167    1.667    1.500    0.000    2.333 
#    0.000    2.500    0.000    1.000    0.000    0.000 
#    0.000    0.000    0.000    0.000    0.000    0.000 
#
# Total GULP energy -133659.425866 kJ/mol
# GULP energy per Si atom -5569.142744 kJ/mol
# Density = 2.172029 g / cm^3
# Si number density = 21.769843 Si / 1000 Ang^3
#
#
#
# Elastic Constant Matrix: (Units=GPa)
#
#
# Indices 1 2 3 4 5 6 
#
# 1 78.4109 43.9116 29.4388 0.0000 24.3412 0.0000
# 2 43.9116 106.1118 9.6181 0.0000 11.4112 0.0000
# 3 29.4388 9.6181 71.8967 0.0000 19.3254 0.0000
# 4 0.0000 0.0000 0.0000 29.4579 0.0000 40.1004
# 5 24.3412 11.4112 19.3254 0.0000 28.1972 0.0000
# 6 0.0000 0.0000 0.0000 40.1004 0.0000 159.5971
#
#
#
# Elastic Compliance Matrix: (Units=1/GPa)
#
#
# Indices 1 2 3 4 5 6 
#
# 1 0.023016 -0.007640 -0.004772 0.000000 -0.013507 0.000000
# 2 -0.007640 0.012394 0.001282 0.000000 0.000701 0.000000
# 3 -0.004772 0.001282 0.018048 0.000000 -0.008769 0.000000
# 4 0.000000 0.000000 0.000000 0.051594 0.000000 -0.012963
# 5 -0.013507 0.000701 -0.008769 0.000000 0.052851 0.000000
# 6 0.000000 0.000000 0.000000 -0.012963 0.000000 0.009523
#
#
# Mechanical properties :
#
#
# Convention : Reuss Voigt Hill
#
# Bulk Modulus (GPa) = 32.05203 46.92846 39.49025
# Shear Modulus (GPa) = 24.98948 55.01384 40.00166
#
# Velocity S-wave (km/s) = 3.39173 5.03245 4.29123
# Velocity P-wave (km/s) = 5.48576 7.44116 6.53699
#
# Compressibility (1/GPa) = 0.03119928
#
# Stress axis : x y z
#
# Youngs Moduli (GPa) = 43.44807 80.68467 55.40687
#
# Poissons Ratio (x) = 0.61640 0.26438
# Poissons Ratio (y) = 0.33192 -0.07102
# Poissons Ratio (z) = 0.20732 -0.10342
#
# Static dielectric constant tensor:
#      x y z
#    x 1.994550 0.000000 -0.006950 
#    y 0.000000 3.738010 0.000000 
#    z -0.006950 0.000000 1.865010 
# 
# From -- ./inp_files/106504.got.cif
#   From: 2010.05.17/outbox.cif.g08.bks.cpg/sg12_54_cif.got.tgz:106504.got - 2010.06.03 13:09:07.
