data_PCOD9173305
_publ_section_title
;
Structure prediction by ZEFSAII (Michael W. Deem and Ramdas Pophale) SiO2 
 PCOD9173305
Probable space group: C 2/M
;
_chemical_formula_sum "Si O2"
_cell_formula_units_Z 48
_cell_length_a 22.429009
_cell_length_b 17.863311
_cell_length_c 17.287475
_cell_angle_alpha 90.000000
_cell_angle_beta 165.929199
_cell_angle_gamma 90.000000
_cell_volume 1683.935972
_symmetry_space_group_name_H-M "C 2/M"
_symmetry_group_IT_number 12
_symmetry_cell_setting 'monoclinic'
loop_
_space_group_symop_operation_xyz
x,y,z
-x,y,-z
-x,-y,-z
x,-y,z
1/2+x,1/2+y,z
1/2-x,1/2+y,-z
1/2-x,1/2-y,-z
1/2+x,1/2-y,z
loop_
_atom_site_type_symbol
_atom_site_label
_atom_site_fract_x
_atom_site_fract_y
_atom_site_fract_z
Si Si1 0.973653 0.255997 0.592868
Si Si2 0.986003 0.416769 0.677845
Si Si3 0.103269 0.083615 0.498331
Si Si4 0.582348 0.726649 0.965583
Si Si5 0.265877 0.581865 0.875223
Si Si6 0.490543 0.888268 0.860307
O O1 0.913378 0.328775 0.569700
O O2 0.000424 0.168054 0.645762
O O3 0.749814 0.261351 0.251464
O O4 0.229797 0.268614 0.870345
O O5 0.861598 0.500000 0.506138
O O6 0.204446 0.421073 0.888577
O O7 0.037579 0.416057 0.833650
O O8 0.278552 0.076659 0.644311
O O9 0.992567 0.000000 0.369637
O O10 0.268266 0.097710 0.783719
O O11 0.526618 0.639124 0.890686
O O12 0.419416 0.799751 0.763105
O O13 0.335088 0.500000 0.935950
O O14 0.000000 0.599518 0.500000
#
# Coordination Sequence:
#
# PCOD9173305 Si02
#       6
#     8   8   8   8   8   8
#     4   9  18  31  52  76  99 129 165 207 248 286
#     4  10  18  30  51  79 101 126 167 208 243 293
#     4  10  20  37  52  68  98 138 172 200 245 303
#     4   9  16  32  49  74 104 128 163 203 247 296
#     4   9  15  26  47  73 101 130 159 197 245 293
#     4  10  20  32  52  72 100 133 164 205 248 294
#
# _framework density 28.504645
#
# number of rings (size 3 to 8) (size 9 to 14) (size 15 to 20)
#    0.000    2.500    3.333    2.000    0.000    3.333 
#    0.000    8.333    0.000    2.000    0.000    4.667 
#    0.000    0.000    0.000    0.000    0.000    0.000 
#
# Total GULP energy -133992.207124 kJ/mol
# GULP energy per Si atom -5583.008630 kJ/mol
# Density = 2.843977 g / cm^3
# Si number density = 28.504645 Si / 1000 Ang^3
#
#
#
# Elastic Constant Matrix: (Units=GPa)
#
#
# Indices 1 2 3 4 5 6 
#
# 1 157.4818 76.5848 35.2031 -0.0120 -8.0077 -0.0055
# 2 76.5848 348.8427 37.4851 -0.0007 -16.4653 -0.0011
# 3 35.2031 37.4851 48.8298 -0.0248 0.3915 -0.0143
# 4 -0.0120 -0.0007 -0.0248 33.3586 -0.0070 2.3816
# 5 -8.0077 -16.4653 0.3915 -0.0070 29.6142 -0.0032
# 6 -0.0055 -0.0011 -0.0143 2.3816 -0.0032 39.4247
#
#
#
# Elastic Compliance Matrix: (Units=1/GPa)
#
#
# Indices 1 2 3 4 5 6 
#
# 1 0.008110 -0.001172 -0.004960 0.000000 0.001607 -0.000001
# 2 -0.001172 0.003389 -0.001770 -0.000001 0.001591 -0.000001
# 3 -0.004960 -0.001770 0.025435 0.000016 -0.002662 0.000007
# 4 0.000000 -0.000001 0.000016 0.030107 0.000006 -0.001819
# 5 0.001607 0.001591 -0.002662 0.000006 0.035122 0.000002
# 6 -0.000001 -0.000001 0.000007 -0.001819 0.000002 0.025475
#
#
# Mechanical properties :
#
#
# Convention : Reuss Voigt Hill
#
# Bulk Modulus (GPa) = 47.32372 94.85559 71.08965
# Shear Modulus (GPa) = 33.22571 47.53827 40.38199
#
# Velocity S-wave (km/s) = 3.41783 4.08822 3.76797
# Velocity P-wave (km/s) = 5.67570 7.45884 6.62751
#
# Compressibility (1/GPa) = 0.02113105
#
# Stress axis : x y z
#
# Youngs Moduli (GPa) = 123.30025 295.06291 39.31531
#
# Poissons Ratio (x) = 0.34571 0.19502
# Poissons Ratio (y) = 0.14446 0.06958
# Poissons Ratio (z) = 0.61162 0.52220
#
# Static dielectric constant tensor:
#      x y z
#    x 2.150560 0.000000 -0.070250 
#    y 0.000000 2.304310 -0.000010 
#    z -0.070250 -0.000010 2.414460 
# 
# From -- ./inp_files/285437.got.cif
#   From: 2010.05.17/outbox.cif.g08.bks.cpg/sg12_143_cif.got.tgz:285437.got - 2010.06.03 13:09:07.
