data_PCOD9173744
_publ_section_title
;
Structure prediction by ZEFSAII (Michael W. Deem and Ramdas Pophale) SiO2 
 PCOD9173744
Probable space group: C 2/M
;
_chemical_formula_sum "Si O2"
_cell_formula_units_Z 44
_cell_length_a 15.983640
_cell_length_b 7.426049
_cell_length_c 17.135255
_cell_angle_alpha 90.000000
_cell_angle_beta 58.354411
_cell_angle_gamma 90.000000
_cell_volume 1731.456855
_symmetry_space_group_name_H-M "C 2/M"
_symmetry_group_IT_number 12
_symmetry_cell_setting 'monoclinic'
loop_
_space_group_symop_operation_xyz
x,y,z
-x,y,-z
-x,-y,-z
x,-y,z
1/2+x,1/2+y,z
1/2-x,1/2+y,-z
1/2-x,1/2-y,-z
1/2+x,1/2-y,z
loop_
_atom_site_type_symbol
_atom_site_label
_atom_site_fract_x
_atom_site_fract_y
_atom_site_fract_z
Si Si1 0.205018 0.217235 0.794926
Si Si2 0.732736 0.500000 0.577640
Si Si3 0.432672 0.712731 0.683168
Si Si4 0.844908 0.785143 0.007255
Si Si5 0.487453 0.278783 0.191141
Si Si6 0.114792 0.799820 0.507310
O O1 0.317827 0.262366 0.728285
O O2 0.172816 0.282823 0.896799
O O3 0.123755 0.277852 0.772415
O O4 0.199624 0.000000 0.796042
O O5 0.811110 0.657670 0.564673
O O6 0.660619 0.346298 0.571294
O O7 0.449962 0.500000 0.678056
O O8 0.465733 0.786456 0.751258
O O9 0.506934 0.774858 0.579897
O O10 0.855597 0.000000 0.009227
O O11 0.750000 0.750000 0.000000
O O12 0.941441 0.721839 0.914459
O O13 0.487560 0.500000 0.192920
O O14 0.113736 0.000000 0.469369
#
# Coordination Sequence:
#
# PCOD9173744 Si02
#       6
#     8   4   8   8   8   8
#     4  10  20  32  49  73  98 131 175 212 248 301
#     4   8  14  28  48  76 104 130 170 206 250 314
#     4  10  19  32  51  75 101 132 164 206 260 303
#     4  10  18  31  50  69  94 132 174 211 250 297
#     4   9  18  33  50  69  99 136 170 209 255 301
#     4   8  15  27  47  76 105 130 169 211 252 310
#
# _framework density 25.412126000000001
#
# number of rings (size 3 to 8) (size 9 to 14) (size 15 to 20)
#    0.545    2.182    1.818    0.545    1.273    2.182 
#    0.000    1.818    0.000    2.182    0.000    7.636 
#    0.000    0.000    0.000    0.000    0.000    0.000 
#
# Total GULP energy -122533.341854 kJ/mol
# GULP energy per Si atom -5569.697357 kJ/mol
# Density = 2.535429 g / cm^3
# Si number density = 25.412126 Si / 1000 Ang^3
#
#
#
# Elastic Constant Matrix: (Units=GPa)
#
#
# Indices 1 2 3 4 5 6 
#
# 1 182.9622 5.7604 104.6765 0.0000 -24.0765 0.0004
# 2 5.7604 91.0253 17.0778 0.0000 -2.6133 0.0008
# 3 104.6765 17.0778 130.4662 0.0000 -10.5205 0.0000
# 4 0.0000 0.0000 0.0000 12.2532 0.0000 -15.7662
# 5 -24.0765 -2.6133 -10.5205 0.0000 47.0356 0.0000
# 6 0.0004 0.0008 0.0000 -15.7662 0.0000 26.3932
#
#
#
# Elastic Compliance Matrix: (Units=1/GPa)
#
#
# Indices 1 2 3 4 5 6 
#
# 1 0.010765 0.001014 -0.008473 -0.000001 0.003671 -0.000001
# 2 0.001014 0.011362 -0.002249 -0.000002 0.000647 -0.000001
# 3 -0.008473 -0.002249 0.014662 0.000001 -0.001183 0.000001
# 4 -0.000001 -0.000002 0.000001 0.352705 0.000000 0.210691
# 5 0.003671 0.000647 -0.001183 0.000000 0.022911 0.000000
# 6 -0.000001 -0.000001 0.000001 0.210691 0.000000 0.163746
#
#
# Mechanical properties :
#
#
# Convention : Reuss Voigt Hill
#
# Bulk Modulus (GPa) = 57.56087 73.27590 65.41838
# Shear Modulus (GPa) = 8.31450 35.59902 21.95676
#
# Velocity S-wave (km/s) = 1.81079 3.74688 2.94262
# Velocity P-wave (km/s) = 5.20308 6.90046 6.11099
#
# Compressibility (1/GPa) = 0.01737291
#
# Stress axis : x y z
#
# Youngs Moduli (GPa) = 92.89696 88.01075 68.20243
#
# Poissons Ratio (x) = -0.08924 0.57791
# Poissons Ratio (y) = -0.09419 0.15336
# Poissons Ratio (z) = 0.78715 0.19790
#
# Static dielectric constant tensor:
#      x y z
#    x 2.007460 0.000000 0.037980 
#    y 0.000000 2.084020 0.000000 
#    z 0.037980 0.000000 2.041200 
# 
# From -- ./inp_files/267258.got.cif
#   From: 2010.05.17/outbox.cif.g08.bks.cpg/sg12_134_cif.got.tgz:267258.got - 2010.06.03 13:09:07.
