data_PCOD9173492
_publ_section_title
;
Structure prediction by ZEFSAII (Michael W. Deem and Ramdas Pophale) SiO2 
 PCOD9173492
Probable space group: C 2/M
;
_chemical_formula_sum "Si O2"
_cell_formula_units_Z 52
_cell_length_a 14.031764
_cell_length_b 18.191812
_cell_length_c 20.382410
_cell_angle_alpha 90.000000
_cell_angle_beta 143.718755
_cell_angle_gamma 90.000000
_cell_volume 3078.800472
_symmetry_space_group_name_H-M "C 2/M"
_symmetry_group_IT_number 12
_symmetry_cell_setting 'monoclinic'
loop_
_space_group_symop_operation_xyz
x,y,z
-x,y,-z
-x,-y,-z
x,-y,z
1/2+x,1/2+y,z
1/2-x,1/2+y,-z
1/2-x,1/2-y,-z
1/2+x,1/2-y,z
loop_
_atom_site_type_symbol
_atom_site_label
_atom_site_fract_x
_atom_site_fract_y
_atom_site_fract_z
Si Si1 0.416575 0.500000 0.269900
Si Si2 0.164325 0.238293 0.253334
Si Si3 0.516177 0.753917 0.645645
Si Si4 0.083795 0.152640 0.807186
Si Si5 0.364376 0.500000 0.481439
Si Si6 0.943476 0.657297 0.044760
Si Si7 0.752749 0.338185 0.575912
Si Si8 0.554137 0.000000 0.106679
O O1 0.420997 0.572129 0.227226
O O2 0.552317 0.500000 0.400626
O O3 0.246160 0.500000 0.213054
O O4 0.329059 0.218831 0.307907
O O5 0.209319 0.294478 0.336625
O O6 0.068930 0.170754 0.232523
O O7 0.041404 0.281065 0.137566
O O8 0.577110 0.709881 0.743187
O O9 0.412106 0.696054 0.545041
O O10 0.392733 0.816293 0.601920
O O11 0.251385 0.164438 0.937924
O O12 0.500000 0.500000 0.500000
O O13 0.265929 0.424336 0.422068
O O14 0.989061 0.576629 0.097961
O O15 0.000000 0.659009 0.000000
O O16 0.500000 0.000000 0.000000
#
# Coordination Sequence:
#
# PCOD9173492 Si02
#       8
#     4   8   8   8   4   8   8   4
#     4  12  20  36  53  80 113 138 180 227 278 320
#     4  11  22  35  57  80 111 149 186 219 269 330
#     4  10  19  39  55  75 112 144 179 228 268 320
#     4  11  21  35  56  84 109 144 183 227 273 323
#     4  12  24  34  57  84 111 142 180 228 275 333
#     4  11  19  33  55  83 114 144 177 227 276 324
#     4  10  23  35  55  82 108 143 183 223 274 322
#     4  10  18  30  54  76 105 144 161 221 286 313
#
# _framework density 16.889693999999999
#
# number of rings (size 3 to 8) (size 9 to 14) (size 15 to 20)
#    0.000    1.231    6.154    1.846    2.154    0.000 
#    0.000    0.769    0.000    0.923    0.000    0.538 
#    0.000    0.000    0.000    0.000    0.000    0.000 
#
# Total GULP energy -145157.552724 kJ/mol
# GULP energy per Si atom -5582.982797 kJ/mol
# Density = 1.685125 g / cm^3
# Si number density = 16.889694 Si / 1000 Ang^3
#
#
#
# Elastic Constant Matrix: (Units=GPa)
#
#
# Indices 1 2 3 4 5 6 
#
# 1 96.5268 29.3155 33.7806 0.0000 29.0809 0.0000
# 2 29.3155 80.1960 26.4889 0.0000 17.9808 0.0000
# 3 33.7806 26.4889 75.0042 0.0001 17.7609 -0.0001
# 4 0.0000 0.0000 0.0001 15.2612 0.0001 5.5114
# 5 29.0809 17.9808 17.7609 0.0001 32.2398 0.0000
# 6 0.0000 0.0000 -0.0001 5.5114 0.0000 10.4738
#
#
#
# Elastic Compliance Matrix: (Units=1/GPa)
#
#
# Indices 1 2 3 4 5 6 
#
# 1 0.015542 -0.002022 -0.003718 0.000000 -0.010843 0.000000
# 2 -0.002022 0.015426 -0.003372 0.000000 -0.004922 0.000000
# 3 -0.003718 -0.003372 0.017203 0.000000 -0.004243 0.000000
# 4 0.000000 0.000000 0.000000 0.080899 0.000000 -0.042570
# 5 -0.010843 -0.004922 -0.004243 0.000000 0.045881 0.000000
# 6 0.000000 0.000000 0.000000 -0.042570 0.000000 0.117878
#
#
# Mechanical properties :
#
#
# Convention : Reuss Voigt Hill
#
# Bulk Modulus (GPa) = 33.39276 47.87745 40.63511
# Shear Modulus (GPa) = 15.57470 22.40442 18.98956
#
# Velocity S-wave (km/s) = 3.03997 3.64609 3.35674
# Velocity P-wave (km/s) = 5.66886 6.79220 6.25579
#
# Compressibility (1/GPa) = 0.02994661
#
# Stress axis : x y z
#
# Youngs Moduli (GPa) = 64.34274 64.82634 58.13090
#
# Poissons Ratio (x) = 0.13109 0.21613
# Poissons Ratio (y) = 0.13011 0.19600
# Poissons Ratio (z) = 0.23923 0.21857
#
# Static dielectric constant tensor:
#      x y z
#    x 1.568670 0.000000 -0.003030 
#    y 0.000000 1.556520 0.000000 
#    z -0.003030 0.000000 1.588410 
# 
# From -- ./inp_files/184344.got.cif
#   From: 2010.05.17/outbox.cif.g08.bks.cpg/sg12_93_cif.got.tgz:184344.got - 2010.06.03 13:09:07.
