data_PCOD9173979
_publ_section_title
;
Structure prediction by ZEFSAII (Michael W. Deem and Ramdas Pophale) SiO2 
 PCOD9173979
Probable space group: C 2/M
;
_chemical_formula_sum "Si O2"
_cell_formula_units_Z 64
_cell_length_a 25.464505
_cell_length_b 17.157844
_cell_length_c 12.223740
_cell_angle_alpha 90.000000
_cell_angle_beta 144.747068
_cell_angle_gamma 90.000000
_cell_volume 3082.609997
_symmetry_space_group_name_H-M "C 2/M"
_symmetry_group_IT_number 12
_symmetry_cell_setting 'monoclinic'
loop_
_space_group_symop_operation_xyz
x,y,z
-x,y,-z
-x,-y,-z
x,-y,z
1/2+x,1/2+y,z
1/2-x,1/2+y,-z
1/2-x,1/2-y,-z
1/2+x,1/2-y,z
loop_
_atom_site_type_symbol
_atom_site_label
_atom_site_fract_x
_atom_site_fract_y
_atom_site_fract_z
Si Si1 0.428242 0.589918 0.078619
Si Si2 0.470827 0.743768 0.256232
Si Si3 0.734606 0.122190 0.185265
Si Si4 0.643329 0.416380 0.420296
Si Si5 0.824407 0.714610 0.363462
Si Si6 0.077398 0.328433 0.049487
Si Si7 0.185735 0.326280 0.884401
Si Si8 0.189143 0.178918 0.301838
O O1 0.405627 0.500000 0.068929
O O2 0.426316 0.657624 0.168244
O O3 0.535174 0.591240 0.229712
O O4 0.369270 0.621050 0.876405
O O5 0.576446 0.746786 0.466917
O O6 0.411496 0.795567 0.237573
O O7 0.465392 0.783479 0.127620
O O8 0.819875 0.086856 0.393453
O O9 0.752732 0.215375 0.222046
O O10 0.646010 0.109674 0.110171
O O11 0.718963 0.110199 0.029890
O O12 0.669196 0.500000 0.417159
O O13 0.688356 0.350971 0.423447
O O14 0.818405 0.655499 0.251228
O O15 0.788384 0.680503 0.415522
O O16 0.136243 0.260986 0.208838
O O17 0.000000 0.357380 0.000000
O O18 0.250000 0.250000 0.000000
#
# Coordination Sequence:
#
# PCOD9173979 Si02
#       8
#     8   8   8   8   8   8   8   8
#     4  10  19  33  51  75 114 155 183 211 259 328
#     4  10  18  31  51  83 107 138 176 218 273 328
#     4   9  19  32  48  74 104 135 176 212 269 326
#     4  11  21  33  52  76 109 149 182 216 260 324
#     4  10  19  32  54  78 104 135 173 231 278 310
#     4   9  18  28  47  74 109 133 161 217 272 316
#     4   9  18  34  53  75 105 138 173 225 282 321
#     4  10  20  31  50  79 108 140 179 221 268 319
#
# _framework density 20.761628000000002
#
# number of rings (size 3 to 8) (size 9 to 14) (size 15 to 20)
#    0.000    2.250    1.250    4.875    1.750    2.000 
#    0.000    0.000    0.000    9.375    0.000    0.000 
#    0.000   11.250    0.000    0.000    0.000    0.000 
#
# Total GULP energy -178359.347047 kJ/mol
# GULP energy per Si atom -5573.729595 kJ/mol
# Density = 2.071437 g / cm^3
# Si number density = 20.761628 Si / 1000 Ang^3
#
#
#
# Elastic Constant Matrix: (Units=GPa)
#
#
# Indices 1 2 3 4 5 6 
#
# 1 81.3793 1.2378 25.4129 0.0000 3.3250 0.0000
# 2 1.2378 26.8468 16.5166 0.0000 -7.2254 0.0000
# 3 25.4129 16.5166 75.8155 0.0000 0.9930 0.0000
# 4 0.0000 0.0000 0.0000 3.5659 0.0000 -3.6260
# 5 3.3250 -7.2254 0.9930 0.0000 30.2672 0.0000
# 6 0.0000 0.0000 0.0000 -3.6260 0.0000 7.8366
#
#
#
# Elastic Compliance Matrix: (Units=1/GPa)
#
#
# Indices 1 2 3 4 5 6 
#
# 1 0.013894 0.002311 -0.005150 0.000000 -0.000806 0.000000
# 2 0.002311 0.047074 -0.011179 0.000000 0.011350 0.000000
# 3 -0.005150 -0.011179 0.017387 0.000000 -0.002673 0.000000
# 4 0.000000 0.000000 0.000000 0.529617 0.000000 0.245053
# 5 -0.000806 0.011350 -0.002673 0.000000 0.035925 0.000000
# 6 0.000000 0.000000 0.000000 0.245053 0.000000 0.240993
#
#
# Mechanical properties :
#
#
# Convention : Reuss Voigt Hill
#
# Bulk Modulus (GPa) = 19.87308 30.04179 24.95743
# Shear Modulus (GPa) = 5.37810 17.72555 11.55182
#
# Velocity S-wave (km/s) = 1.61122 2.92510 2.36138
# Velocity P-wave (km/s) = 3.61306 5.09014 4.41382
#
# Compressibility (1/GPa) = 0.05031932
#
# Stress axis : x y z
#
# Youngs Moduli (GPa) = 71.97256 21.24320 57.51588
#
# Poissons Ratio (x) = -0.04909 0.29622
# Poissons Ratio (y) = -0.16633 0.64294
# Poissons Ratio (z) = 0.37067 0.23747
#
# Static dielectric constant tensor:
#      x y z
#    x 1.775630 0.000000 -0.021470 
#    y 0.000000 1.772710 0.000000 
#    z -0.021470 0.000000 1.791470 
# 
# From -- ./inp_files/177776.got.cif
#   From: 2010.05.17/outbox.cif.g08.bks.cpg/sg12_89_cif.got.tgz:177776.got - 2010.06.03 13:09:07.
