data_PCOD9173675
_publ_section_title
;
Structure prediction by ZEFSAII (Michael W. Deem and Ramdas Pophale) SiO2 
 PCOD9173675
Probable space group: C 2/M
;
_chemical_formula_sum "Si O2"
_cell_formula_units_Z 40
_cell_length_a 12.330556
_cell_length_b 29.212764
_cell_length_c 10.006525
_cell_angle_alpha 90.000000
_cell_angle_beta 35.931154
_cell_angle_gamma 90.000000
_cell_volume 2115.135116
_symmetry_space_group_name_H-M "C 2/M"
_symmetry_group_IT_number 12
_symmetry_cell_setting 'monoclinic'
loop_
_space_group_symop_operation_xyz
x,y,z
-x,y,-z
-x,-y,-z
x,-y,z
1/2+x,1/2+y,z
1/2-x,1/2+y,-z
1/2-x,1/2-y,-z
1/2+x,1/2-y,z
loop_
_atom_site_type_symbol
_atom_site_label
_atom_site_fract_x
_atom_site_fract_y
_atom_site_fract_z
Si Si1 0.645166 0.050743 0.475720
Si Si2 0.977824 0.643702 0.360761
Si Si3 0.000000 0.262490 0.000000
Si Si4 0.641460 0.682449 0.054413
Si Si5 0.708272 0.298586 0.474425
Si Si6 0.500000 0.397164 0.000000
O O1 0.500000 0.045788 0.500000
O O2 0.545734 0.090965 0.659248
O O3 0.673867 0.000000 0.505554
O O4 0.836478 0.071843 0.226607
O O5 0.000000 0.645844 0.500000
O O6 0.789814 0.666663 0.501802
O O7 0.143856 0.673363 0.134038
O O8 0.838026 0.294802 0.217615
O O9 0.098299 0.226914 0.005711
O O10 0.507674 0.690259 0.314358
O O11 0.585386 0.636876 0.026334
O O12 0.750000 0.250000 0.500000
#
# Coordination Sequence:
#
# PCOD9173675 Si02
#       6
#     8   8   4   8   8   4
#     4  10  19  28  44  73 102 128 159 196 240 294
#     4  11  18  31  50  69  99 134 157 191 244 288
#     4   9  20  34  47  70  98 126 167 208 229 278
#     4  10  18  31  49  68  95 131 162 191 243 285
#     4  10  20  33  49  69  96 127 166 203 234 286
#     4  11  15  30  47  68  98 134 155 190 238 294
#
# _framework density 18.911321000000001
#
# number of rings (size 3 to 8) (size 9 to 14) (size 15 to 20)
#    0.000    1.800    6.000    2.700    0.000    3.200 
#    0.000    5.000    0.000    0.000    0.000    0.700 
#    0.000    1.600    0.000    0.000    0.000    0.000 
#
# Total GULP energy -111377.488675 kJ/mol
# GULP energy per Si atom -5568.874434 kJ/mol
# Density = 1.886828 g / cm^3
# Si number density = 18.911321 Si / 1000 Ang^3
#
#
#
# Elastic Constant Matrix: (Units=GPa)
#
#
# Indices 1 2 3 4 5 6 
#
# 1 26.5727 9.2430 10.3713 0.0000 -9.5654 0.0000
# 2 9.2430 103.7749 14.1461 0.0000 2.6159 0.0000
# 3 10.3713 14.1461 136.9031 0.0000 -10.2973 0.0000
# 4 0.0000 0.0000 0.0000 -21.6508 0.0000 -8.4428
# 5 -9.5654 2.6159 -10.2973 0.0000 25.1239 0.0000
# 6 0.0000 0.0000 0.0000 -8.4428 0.0000 12.1366
#
#
#
# Elastic Compliance Matrix: (Units=1/GPa)
#
#
# Indices 1 2 3 4 5 6 
#
# 1 0.046018 -0.004296 -0.001745 0.000000 0.017253 0.000000
# 2 -0.004296 0.010228 -0.000964 0.000000 -0.003096 0.000000
# 3 -0.001745 -0.000964 0.007732 0.000000 0.002605 0.000000
# 4 0.000000 0.000000 0.000000 -0.036332 0.000000 -0.025274
# 5 0.017253 -0.003096 0.002605 0.000000 0.047761 0.000000
# 6 0.000000 0.000000 0.000000 -0.025274 0.000000 0.064813
#
#
# Mechanical properties :
#
#
# Convention : Reuss Voigt Hill
#
# Bulk Modulus (GPa) = 20.01230 37.19682 28.60456
# Shear Modulus (GPa) = 29.25906 18.68798 23.97352
#
# Velocity S-wave (km/s) = 3.93768 3.14696 3.56431
# Velocity P-wave (km/s) = 5.59275 5.73727 5.66547
#
# Compressibility (1/GPa) = 0.04996927
#
# Stress axis : x y z
#
# Youngs Moduli (GPa) = 21.73056 97.76753 129.32932
#
# Poissons Ratio (x) = 0.41999 0.22563
# Poissons Ratio (y) = 0.09335 0.12471
# Poissons Ratio (z) = 0.03791 0.09428
#
# Static dielectric constant tensor:
#      x y z
#    x 1.658750 0.000000 0.023370 
#    y 0.000000 -0.121190 0.000000 
#    z 0.023370 0.000000 1.731800 
# 
# From -- ./inp_files/150002.got.cif
#   From: 2010.05.17/outbox.cif.g08.bks.cpg/sg12_76_cif.got.tgz:150002.got - 2010.06.03 13:09:07.
