data_PCOD9173670
_publ_section_title
;
Structure prediction by ZEFSAII (Michael W. Deem and Ramdas Pophale) SiO2 
 PCOD9173670
Probable space group: C 2/M
;
_chemical_formula_sum "Si O2"
_cell_formula_units_Z 56
_cell_length_a 14.656372
_cell_length_b 21.148193
_cell_length_c 12.101198
_cell_angle_alpha 90.000000
_cell_angle_beta 43.382999
_cell_angle_gamma 90.000000
_cell_volume 2576.344021
_symmetry_space_group_name_H-M "C 2/M"
_symmetry_group_IT_number 12
_symmetry_cell_setting 'monoclinic'
loop_
_space_group_symop_operation_xyz
x,y,z
-x,y,-z
-x,-y,-z
x,-y,z
1/2+x,1/2+y,z
1/2-x,1/2+y,-z
1/2-x,1/2-y,-z
1/2+x,1/2-y,z
loop_
_atom_site_type_symbol
_atom_site_label
_atom_site_fract_x
_atom_site_fract_y
_atom_site_fract_z
Si Si1 0.639240 0.310246 0.677248
Si Si2 0.625300 0.635451 0.446081
Si Si3 0.143813 0.426347 0.119643
Si Si4 0.640590 0.072327 0.866774
Si Si5 0.570736 0.821342 0.636619
Si Si6 0.668153 0.261828 0.225671
Si Si7 0.137318 0.832359 0.015754
O O1 0.606829 0.341247 0.585421
O O2 0.616437 0.233886 0.684717
O O3 0.794226 0.328441 0.553751
O O4 0.520572 0.338544 0.855006
O O5 0.500000 0.600723 0.500000
O O6 0.758787 0.597452 0.311098
O O7 0.647143 0.694695 0.347545
O O8 0.122229 0.500000 0.168265
O O9 0.008618 0.383986 0.252069
O O10 0.188876 0.425601 0.950824
O O11 0.265822 0.392701 0.076512
O O12 0.616957 0.000000 0.855238
O O13 0.500000 0.107180 0.000000
O O14 0.452983 0.786386 0.676104
O O15 0.666019 0.302853 0.114198
O O16 0.803514 0.222591 0.113305
#
# Coordination Sequence:
#
# PCOD9173670 Si02
#       7
#     8   8   8   8   8   8   8
#     4  10  19  30  51  71 100 125 162 208 258 279
#     4  12  19  31  47  76  93 127 166 207 238 291
#     4  10  18  31  49  67  92 133 174 199 229 291
#     4  10  21  33  44  63 100 139 167 196 233 282
#     4   9  18  32  48  70  97 131 157 205 254 297
#     4   9  17  30  50  65  94 125 160 199 251 280
#     4   9  16  31  47  66  88 126 159 201 240 291
#
# _framework density 21.736227
#
# number of rings (size 3 to 8) (size 9 to 14) (size 15 to 20)
#    0.000    2.143    4.286    1.714    0.000    0.286 
#    0.000    1.429    0.000    0.000    0.000    8.000 
#    0.000    0.000    0.000   47.143    0.000    0.000 
#
# Total GULP energy -156156.094824 kJ/mol
# GULP energy per Si atom -5577.003387 kJ/mol
# Density = 2.168675 g / cm^3
# Si number density = 21.736227 Si / 1000 Ang^3
#
#
#
# Elastic Constant Matrix: (Units=GPa)
#
#
# Indices 1 2 3 4 5 6 
#
# 1 30.3611 8.2151 14.7798 0.0000 -15.5613 -0.0001
# 2 8.2151 96.6939 53.9199 -0.0002 -16.3253 0.0000
# 3 14.7798 53.9199 146.0298 -0.0002 -32.4239 -0.0001
# 4 0.0000 -0.0002 -0.0002 10.8710 0.0001 -15.3906
# 5 -15.5613 -16.3253 -32.4239 0.0001 39.9899 0.0001
# 6 -0.0001 0.0000 -0.0001 -15.3906 0.0001 6.9407
#
#
#
# Elastic Compliance Matrix: (Units=1/GPa)
#
#
# Indices 1 2 3 4 5 6 
#
# 1 0.041237 -0.000610 -0.000537 0.000000 0.015362 0.000000
# 2 -0.000610 0.013131 -0.004450 0.000000 0.001515 0.000000
# 3 -0.000537 -0.004450 0.009873 0.000000 0.005979 0.000000
# 4 0.000000 0.000000 0.000000 -0.042998 0.000000 -0.095346
# 5 0.015362 0.001515 0.005979 0.000000 0.036450 0.000000
# 6 0.000000 0.000000 0.000000 -0.095346 0.000000 -0.067346
#
#
# Mechanical properties :
#
#
# Convention : Reuss Voigt Hill
#
# Bulk Modulus (GPa) = 18.85182 47.43493 33.14338
# Shear Modulus (GPa) = 260.07339 24.63833 142.35586
#
# Velocity S-wave (km/s) = 10.95032 3.37042 8.10152
# Velocity P-wave (km/s) = 12.98349 6.08413 10.13873
#
# Compressibility (1/GPa) = 0.05304527
#
# Stress axis : x y z
#
# Youngs Moduli (GPa) = 24.25001 76.15431 101.28418
#
# Poissons Ratio (x) = 0.04647 0.05444
# Poissons Ratio (y) = 0.01480 0.45076
# Poissons Ratio (z) = 0.01303 0.33892
#
# Static dielectric constant tensor:
#      x y z
#    x 1.897780 0.000000 -0.048200 
#    y 0.000000 1.791520 0.000000 
#    z -0.048200 0.000000 1.928720 
# 
# From -- ./inp_files/284987.got.cif
#   From: 2010.05.17/outbox.cif.g08.bks.cpg/sg12_143_cif.got.tgz:284987.got - 2010.06.03 13:09:07.
