data_PCOD9173925
_publ_section_title
;
Structure prediction by ZEFSAII (Michael W. Deem and Ramdas Pophale) SiO2 
 PCOD9173925
Probable space group: C 2/M
;
_chemical_formula_sum "Si O2"
_cell_formula_units_Z 56
_cell_length_a 31.501210
_cell_length_b 7.692686
_cell_length_c 21.094472
_cell_angle_alpha 90.000000
_cell_angle_beta 139.455721
_cell_angle_gamma 90.000000
_cell_volume 3322.851867
_symmetry_space_group_name_H-M "C 2/M"
_symmetry_group_IT_number 12
_symmetry_cell_setting 'monoclinic'
loop_
_space_group_symop_operation_xyz
x,y,z
-x,y,-z
-x,-y,-z
x,-y,z
1/2+x,1/2+y,z
1/2-x,1/2+y,-z
1/2-x,1/2-y,-z
1/2+x,1/2-y,z
loop_
_atom_site_type_symbol
_atom_site_label
_atom_site_fract_x
_atom_site_fract_y
_atom_site_fract_z
Si Si1 0.473734 0.291479 0.120265
Si Si2 0.889747 0.500000 0.382933
Si Si3 0.204434 0.201176 0.759013
Si Si4 0.938185 0.294208 0.889499
Si Si5 0.650231 0.298274 0.103707
Si Si6 0.455274 0.288695 0.244551
Si Si7 0.309209 0.706629 0.112589
Si Si8 0.993402 0.500000 0.385514
O O1 0.469628 0.500000 0.113295
O O2 0.538691 0.239172 0.155575
O O3 0.475336 0.242199 0.195578
O O4 0.408396 0.227412 0.008443
O O5 0.843268 0.330873 0.332007
O O6 0.932660 0.500000 0.366448
O O7 0.941749 0.500000 0.498533
O O8 0.280032 0.209627 0.824655
O O9 0.201725 0.268689 0.828513
O O10 0.182412 0.000000 0.730806
O O11 0.933226 0.500000 0.893232
O O12 0.876096 0.214923 0.854091
O O13 0.000000 0.225097 0.000000
O O14 0.659653 0.500000 0.097668
O O15 0.462488 0.500000 0.261543
O O16 0.378847 0.239747 0.164346
O O17 0.489661 0.170841 0.336614
O O18 0.311650 0.500000 0.119858
O O19 0.250000 0.750000 0.000000
#
# Coordination Sequence:
#
# PCOD9173925 Si02
#       8
#     8   4   8   8   8   8   8   4
#     4   9  18  31  49  75 112 153 184 219 265 315
#     4  11  24  42  60  82 103 138 186 234 279 321
#     4  11  22  37  54  79 111 140 181 226 270 326
#     4   9  17  28  43  71 110 148 190 223 253 310
#     4  10  18  31  51  75 112 153 185 220 261 319
#     4  10  21  37  53  80 112 138 182 227 267 325
#     4  10  21  32  49  76 110 150 179 208 256 313
#     4  11  24  40  64  80 101 142 184 232 283 319
#
# _framework density 16.852993000000001
#
# number of rings (size 3 to 8) (size 9 to 14) (size 15 to 20)
#    0.000    2.000    2.143    1.714    3.000    4.000 
#    0.000    1.429    0.000    0.000    0.000    1.000 
#    0.000    0.000    0.000    0.000    0.000    0.000 
#
# Total GULP energy -156093.185410 kJ/mol
# GULP energy per Si atom -5574.756622 kJ/mol
# Density = 1.681464 g / cm^3
# Si number density = 16.852993 Si / 1000 Ang^3
#
#
#
# Elastic Constant Matrix: (Units=GPa)
#
#
# Indices 1 2 3 4 5 6 
#
# 1 98.8853 16.4880 32.3160 0.0000 -18.6815 0.0000
# 2 16.4880 69.9594 33.6941 0.0000 -6.6115 -0.0001
# 3 32.3160 33.6941 87.2048 0.0000 -11.9205 0.0000
# 4 0.0000 0.0000 0.0000 19.2489 0.0000 -3.9791
# 5 -18.6815 -6.6115 -11.9205 0.0000 12.5533 0.0000
# 6 0.0000 -0.0001 0.0000 -3.9791 0.0000 23.1574
#
#
#
# Elastic Compliance Matrix: (Units=1/GPa)
#
#
# Indices 1 2 3 4 5 6 
#
# 1 0.014652 -0.000358 -0.002685 0.000000 0.019066 0.000000
# 2 -0.000358 0.017685 -0.006321 0.000000 0.002780 0.000000
# 3 -0.002685 -0.006321 0.015977 0.000000 0.007847 0.000000
# 4 0.000000 0.000000 0.000000 0.053864 0.000000 0.009255
# 5 0.019066 0.002780 0.007847 0.000000 0.116950 0.000000
# 6 0.000000 0.000000 0.000000 0.009255 0.000000 0.044773
#
#
# Mechanical properties :
#
#
# Convention : Reuss Voigt Hill
#
# Bulk Modulus (GPa) = 33.79879 46.78287 40.29083
# Shear Modulus (GPa) = 17.09455 22.56202 19.82829
#
# Velocity S-wave (km/s) = 3.18832 3.66287 3.43380
# Velocity P-wave (km/s) = 5.80107 6.76080 6.29924
#
# Compressibility (1/GPa) = 0.02958686
#
# Stress axis : x y z
#
# Youngs Moduli (GPa) = 68.25028 56.54442 62.58991
#
# Poissons Ratio (x) = 0.02025 0.16805
# Poissons Ratio (y) = 0.02444 0.39560
# Poissons Ratio (z) = 0.18325 0.35739
#
# Static dielectric constant tensor:
#      x y z
#    x 1.603080 0.000000 -0.010750 
#    y 0.000000 1.645030 0.000000 
#    z -0.010750 0.000000 1.616140 
# 
# From -- ./inp_files/291995.got.cif
#   From: 2010.05.17/outbox.cif.g08.bks.cpg/sg12_146_cif.got.tgz:291995.got - 2010.06.03 13:09:07.
