data_PCOD9173800
_publ_section_title
;
Structure prediction by ZEFSAII (Michael W. Deem and Ramdas Pophale) SiO2 
 PCOD9173800
Probable space group: C 2/M
;
_chemical_formula_sum "Si O2"
_cell_formula_units_Z 48
_cell_length_a 23.504595
_cell_length_b 8.928274
_cell_length_c 17.664044
_cell_angle_alpha 90.000000
_cell_angle_beta 120.214799
_cell_angle_gamma 90.000000
_cell_volume 3203.295214
_symmetry_space_group_name_H-M "C 2/M"
_symmetry_group_IT_number 12
_symmetry_cell_setting 'monoclinic'
loop_
_space_group_symop_operation_xyz
x,y,z
-x,y,-z
-x,-y,-z
x,-y,z
1/2+x,1/2+y,z
1/2-x,1/2+y,-z
1/2-x,1/2-y,-z
1/2+x,1/2-y,z
loop_
_atom_site_type_symbol
_atom_site_label
_atom_site_fract_x
_atom_site_fract_y
_atom_site_fract_z
Si Si1 0.851095 0.321584 0.035478
Si Si2 0.489125 0.679065 0.081513
Si Si3 0.615794 0.175526 0.240975
Si Si4 0.775706 0.178808 0.594445
Si Si5 0.754502 0.174946 0.275484
Si Si6 0.227355 0.677896 0.867302
O O1 0.851955 0.500000 0.023089
O O2 0.921021 0.250725 0.063212
O O3 0.828845 0.295154 0.107544
O O4 0.793940 0.247927 0.946483
O O5 0.487104 0.500000 0.089009
O O6 0.550260 0.746697 0.168675
O O7 0.500000 0.712871 0.000000
O O8 0.651760 0.257612 0.335227
O O9 0.674194 0.185652 0.216919
O O10 0.605453 0.000000 0.249951
O O11 0.750000 0.250000 0.500000
O O12 0.732812 0.238001 0.637470
O O13 0.775812 0.000000 0.591484
O O14 0.785182 0.247652 0.222079
O O15 0.770828 0.000000 0.293706
O O16 0.235855 0.500000 0.864223
#
# Coordination Sequence:
#
# PCOD9173800 Si02
#       6
#     8   8   8   8   8   8
#     4  10  21  33  47  66  93 129 167 205 245 288
#     4  11  22  33  47  68  96 131 169 205 244 290
#     4   9  19  32  47  70  98 128 162 197 241 292
#     4  10  18  31  50  74 103 129 160 200 246 295
#     4   9  18  30  48  71  96 126 157 195 243 290
#     4  10  19  32  48  68  93 125 165 208 246 285
#
# _framework density 14.98457
#
# number of rings (size 3 to 8) (size 9 to 14) (size 15 to 20)
#    1.000    1.167    0.000    4.500    0.000    6.000 
#    0.000    0.000    0.000    0.000    0.000    1.167 
#    0.000    9.333    0.000    0.000    0.000    0.000 
#
# Total GULP energy -133665.818671 kJ/mol
# GULP energy per Si atom -5569.409111 kJ/mol
# Density = 1.495046 g / cm^3
# Si number density = 14.984570 Si / 1000 Ang^3
#
#
#
# Elastic Constant Matrix: (Units=GPa)
#
#
# Indices 1 2 3 4 5 6 
#
# 1 78.4223 64.5054 53.1955 0.0000 -5.3036 0.0000
# 2 64.5054 128.4051 73.9618 0.0000 -10.7122 0.0000
# 3 53.1955 73.9618 114.3799 0.0000 -12.2374 0.0000
# 4 0.0000 0.0000 0.0000 28.6346 0.0000 -2.0690
# 5 -5.3036 -10.7122 -12.2374 0.0000 23.1933 0.0000
# 6 0.0000 0.0000 0.0000 -2.0690 0.0000 24.9028
#
#
#
# Elastic Compliance Matrix: (Units=1/GPa)
#
#
# Indices 1 2 3 4 5 6 
#
# 1 0.023619 -0.008879 -0.005410 0.000000 -0.001554 0.000000
# 2 -0.008879 0.015803 -0.005856 0.000000 0.002179 0.000000
# 3 -0.005410 -0.005856 0.015499 0.000000 0.004236 0.000000
# 4 0.000000 0.000000 0.000000 0.035134 0.000000 0.002919
# 5 -0.001554 0.002179 0.004236 0.000000 0.046002 0.000000
# 6 0.000000 0.000000 0.000000 0.002919 0.000000 0.040399
#
#
# Mechanical properties :
#
#
# Convention : Reuss Voigt Hill
#
# Bulk Modulus (GPa) = 68.34672 78.28140 73.31406
# Shear Modulus (GPa) = 22.56089 23.98243 23.27166
#
# Velocity S-wave (km/s) = 3.88443 4.00493 3.94514
# Velocity P-wave (km/s) = 8.11349 8.58724 8.35373
#
# Compressibility (1/GPa) = 0.01463128
#
# Stress axis : x y z
#
# Youngs Moduli (GPa) = 42.33866 63.27754 64.52101
#
# Poissons Ratio (x) = 0.56184 0.34903
# Poissons Ratio (y) = 0.37592 0.37787
# Poissons Ratio (z) = 0.22903 0.37058
#
# Static dielectric constant tensor:
#      x y z
#    x 1.486890 0.000000 -0.017510 
#    y 0.000000 1.495300 0.000000 
#    z -0.017510 0.000000 1.479940 
# 
# From -- ./inp_files/287133.got.cif
#   From: 2010.05.17/outbox.cif.g08.bks.cpg/sg12_144_cif.got.tgz:287133.got - 2010.06.03 13:09:07.
