data_PCOD9173015
_publ_section_title
;
Structure prediction by ZEFSAII (Michael W. Deem and Ramdas Pophale) SiO2 
 PCOD9173015
Probable space group: C 2/M
;
_chemical_formula_sum "Si O2"
_cell_formula_units_Z 56
_cell_length_a 21.221591
_cell_length_b 7.816149
_cell_length_c 20.409480
_cell_angle_alpha 90.000000
_cell_angle_beta 121.793231
_cell_angle_gamma 90.000000
_cell_volume 2877.389227
_symmetry_space_group_name_H-M "C 2/M"
_symmetry_group_IT_number 12
_symmetry_cell_setting 'monoclinic'
loop_
_space_group_symop_operation_xyz
x,y,z
-x,y,-z
-x,-y,-z
x,-y,z
1/2+x,1/2+y,z
1/2-x,1/2+y,-z
1/2-x,1/2-y,-z
1/2+x,1/2-y,z
loop_
_atom_site_type_symbol
_atom_site_label
_atom_site_fract_x
_atom_site_fract_y
_atom_site_fract_z
Si Si1 0.301177 0.207109 0.589921
Si Si2 0.825824 0.703659 0.003513
Si Si3 0.945482 0.707177 0.411041
Si Si4 0.740764 0.709956 0.835069
Si Si5 0.408805 0.299472 0.171808
Si Si6 0.724784 0.297942 0.679938
Si Si7 0.468018 0.200897 0.668379
O O1 0.250000 0.250000 0.500000
O O2 0.265916 0.272813 0.638571
O O3 0.385194 0.272212 0.627046
O O4 0.303643 0.000000 0.595302
O O5 0.833991 0.500000 0.006901
O O6 0.890191 0.774119 0.085151
O O7 0.750000 0.750000 0.000000
O O8 0.807904 0.762872 0.919889
O O9 0.939555 0.500000 0.405970
O O10 0.863227 0.775835 0.375667
O O11 0.000000 0.753183 0.500000
O O12 0.982076 0.771285 0.363592
O O13 0.739172 0.500000 0.834671
O O14 0.662604 0.766036 0.825422
O O15 0.745851 0.771292 0.763383
O O16 0.585978 0.500000 0.812354
O O17 0.483918 0.218700 0.239633
O O18 0.741348 0.500000 0.691361
O O19 0.459322 0.000000 0.649042
#
# Coordination Sequence:
#
# PCOD9173015 Si02
#       7
#     8   8   8   8   8   8   8
#     4  10  22  38  56  75 101 137 176 215 257 309
#     4   9  16  27  45  72 106 139 167 206 255 309
#     4  10  20  33  50  73 102 132 163 208 262 311
#     4   8  15  28  47  73 103 129 162 208 253 296
#     4  10  18  30  49  75 104 135 170 214 258 303
#     4  10  19  34  54  76 101 131 170 213 255 303
#     4  10  20  34  51  74 103 136 172 211 257 311
#
# _framework density 19.462087
#
# number of rings (size 3 to 8) (size 9 to 14) (size 15 to 20)
#    0.000    2.429    1.429    2.571    0.000    2.571 
#    0.000    0.714    0.000    0.857    0.000    6.000 
#    0.000    0.000    0.000    0.000    0.000    0.000 
#
# Total GULP energy -156142.814633 kJ/mol
# GULP energy per Si atom -5576.529094 kJ/mol
# Density = 1.941779 g / cm^3
# Si number density = 19.462087 Si / 1000 Ang^3
#
#
#
# Elastic Constant Matrix: (Units=GPa)
#
#
# Indices 1 2 3 4 5 6 
#
# 1 70.9801 3.1828 21.8356 0.0000 4.2562 0.0000
# 2 3.1828 21.9742 -10.5477 0.0000 -3.0565 0.0000
# 3 21.8356 -10.5477 106.5733 0.0000 -3.7425 0.0000
# 4 0.0000 0.0000 0.0000 19.6924 0.0000 -0.3166
# 5 4.2562 -3.0565 -3.7425 0.0000 27.6486 0.0000
# 6 0.0000 0.0000 0.0000 -0.3166 0.0000 10.2019
#
#
#
# Elastic Compliance Matrix: (Units=1/GPa)
#
#
# Indices 1 2 3 4 5 6 
#
# 1 0.015661 -0.004560 -0.003780 0.000000 -0.003427 0.000000
# 2 -0.004560 0.050100 0.006141 0.000000 0.007072 0.000000
# 3 -0.003780 0.006141 0.010861 0.000000 0.002731 0.000000
# 4 0.000000 0.000000 0.000000 0.050806 0.000000 0.001577
# 5 -0.003427 0.007072 0.002731 0.000000 0.037847 0.000000
# 6 0.000000 0.000000 0.000000 0.001577 0.000000 0.098070
#
#
# Mechanical properties :
#
#
# Convention : Reuss Voigt Hill
#
# Bulk Modulus (GPa) = 13.84578 25.38545 19.61562
# Shear Modulus (GPa) = 17.13389 23.84569 20.48979
#
# Velocity S-wave (km/s) = 2.97033 3.50414 3.24822
# Velocity P-wave (km/s) = 4.34666 5.42622 4.91616
#
# Compressibility (1/GPa) = 0.07222415
#
# Stress axis : x y z
#
# Youngs Moduli (GPa) = 63.85135 19.96022 92.06852
#
# Poissons Ratio (x) = 0.09101 0.34806
# Poissons Ratio (y) = 0.29114 -0.56539
# Poissons Ratio (z) = 0.24139 -0.12258
#
# Static dielectric constant tensor:
#      x y z
#    x 1.670190 0.000000 -0.025120 
#    y 0.000000 1.716030 0.000000 
#    z -0.025120 0.000000 1.701490 
# 
# From -- ./inp_files/319639.got.cif
#   From: 2010.05.17/outbox.cif.g08.bks.cpg/sg12_160_cif.got.tgz:319639.got - 2010.06.03 13:09:07.
