data_PCOD9173583
_publ_section_title
;
Structure prediction by ZEFSAII (Michael W. Deem and Ramdas Pophale) SiO2 
 PCOD9173583
Probable space group: C 2/M
;
_chemical_formula_sum "Si O2"
_cell_formula_units_Z 56
_cell_length_a 27.573815
_cell_length_b 8.846072
_cell_length_c 14.858668
_cell_angle_alpha 90.000000
_cell_angle_beta 102.199486
_cell_angle_gamma 90.000000
_cell_volume 3542.480316
_symmetry_space_group_name_H-M "C 2/M"
_symmetry_group_IT_number 12
_symmetry_cell_setting 'monoclinic'
loop_
_space_group_symop_operation_xyz
x,y,z
-x,y,-z
-x,-y,-z
x,-y,z
1/2+x,1/2+y,z
1/2-x,1/2+y,-z
1/2-x,1/2-y,-z
1/2+x,1/2-y,z
loop_
_atom_site_type_symbol
_atom_site_label
_atom_site_fract_x
_atom_site_fract_y
_atom_site_fract_z
Si Si1 0.286659 0.323162 0.396256
Si Si2 0.703393 0.819378 0.100230
Si Si3 0.555909 0.818177 0.538023
Si Si4 0.641619 0.818693 0.432907
Si Si5 0.376917 0.676168 0.289711
Si Si6 0.682624 0.682516 0.903063
Si Si7 0.685424 0.319853 0.282885
O O1 0.276500 0.500000 0.411259
O O2 0.311540 0.242614 0.491394
O O3 0.328315 0.316065 0.334558
O O4 0.237819 0.242107 0.341372
O O5 0.762329 0.782466 0.114297
O O6 0.681643 0.741711 0.180185
O O7 0.699158 0.000000 0.105898
O O8 0.679275 0.759575 0.998684
O O9 0.500000 0.763661 0.500000
O O10 0.593208 0.773223 0.471795
O O11 0.580084 0.761666 0.640299
O O12 0.555396 0.000000 0.539468
O O13 0.644970 0.747022 0.335789
O O14 0.643754 0.000000 0.428599
O O15 0.390499 0.500000 0.287210
O O16 0.358684 0.731661 0.185222
O O17 0.680274 0.500000 0.911108
O O18 0.684761 0.500000 0.284112
#
# Coordination Sequence:
#
# PCOD9173583 Si02
#       7
#     8   8   8   8   8   8   8
#     4  10  18  31  46  65  94 127 162 197 230 274
#     4  10  19  31  46  66  94 130 166 201 233 272
#     4   9  19  35  53  74  97 120 153 198 243 287
#     4  10  20  33  48  67  92 124 158 194 237 286
#     4   9  17  30  49  71  97 127 159 195 235 280
#     4   9  17  31  46  67  96 127 162 200 235 273
#     4  12  22  31  44  65  94 130 165 197 233 276
#
# _framework density 15.808134000000001
#
# number of rings (size 3 to 8) (size 9 to 14) (size 15 to 20)
#    0.000    2.143    1.429    3.000    0.000    2.571 
#    0.000    0.000    0.000    0.000    0.000    1.000 
#    0.000    8.000    0.000    0.000    0.000    0.000 
#
# Total GULP energy -156217.189847 kJ/mol
# GULP energy per Si atom -5579.185352 kJ/mol
# Density = 1.577215 g / cm^3
# Si number density = 15.808134 Si / 1000 Ang^3
#
#
#
# Elastic Constant Matrix: (Units=GPa)
#
#
# Indices 1 2 3 4 5 6 
#
# 1 65.4940 26.4710 54.4772 0.0000 9.6749 0.0000
# 2 26.4710 62.8932 50.6091 0.0000 -4.2456 0.0000
# 3 54.4772 50.6091 146.4531 0.0000 -3.0512 0.0000
# 4 0.0000 0.0000 0.0000 29.8245 0.0000 -0.2920
# 5 9.6749 -4.2456 -3.0512 0.0000 18.3991 0.0000
# 6 0.0000 0.0000 0.0000 -0.2920 0.0000 15.5898
#
#
#
# Elastic Compliance Matrix: (Units=1/GPa)
#
#
# Indices 1 2 3 4 5 6 
#
# 1 0.027150 -0.005767 -0.008461 0.000000 -0.017010 0.000000
# 2 -0.005767 0.023522 -0.005827 0.000000 0.007494 0.000000
# 3 -0.008461 -0.005827 0.012095 0.000000 0.005110 0.000000
# 4 0.000000 0.000000 0.000000 0.033536 0.000000 0.000628
# 5 -0.017010 0.007494 0.005110 0.000000 0.065872 0.000000
# 6 0.000000 0.000000 0.000000 0.000628 0.000000 0.064156
#
#
# Mechanical properties :
#
#
# Convention : Reuss Voigt Hill
#
# Bulk Modulus (GPa) = 44.13527 59.77277 51.95402
# Shear Modulus (GPa) = 18.24864 22.31487 20.28176
#
# Velocity S-wave (km/s) = 3.40131 3.76121 3.58578
# Velocity P-wave (km/s) = 6.58826 7.53364 7.07675
#
# Compressibility (1/GPa) = 0.02265762
#
# Stress axis : x y z
#
# Youngs Moduli (GPa) = 36.83285 42.51324 82.67659
#
# Poissons Ratio (x) = 0.24518 0.69949
# Poissons Ratio (y) = 0.21242 0.48176
# Poissons Ratio (z) = 0.31162 0.24772
#
# Static dielectric constant tensor:
#      x y z
#    x 1.518930 0.000000 -0.015410 
#    y 0.000000 1.528270 0.000000 
#    z -0.015410 0.000000 1.538720 
# 
# From -- ./inp_files/247888.got.cif
#   From: 2010.05.17/outbox.cif.g08.bks.cpg/sg12_124_cif.got.tgz:247888.got - 2010.06.03 13:09:07.
