data_PCOD9173160
_publ_section_title
;
Structure prediction by ZEFSAII (Michael W. Deem and Ramdas Pophale) SiO2 
 PCOD9173160
Probable space group: C 2/M
;
_chemical_formula_sum "Si O2"
_cell_formula_units_Z 56
_cell_length_a 23.127523
_cell_length_b 12.773122
_cell_length_c 12.507727
_cell_angle_alpha 90.000000
_cell_angle_beta 74.062333
_cell_angle_gamma 90.000000
_cell_volume 3552.887161
_symmetry_space_group_name_H-M "C 2/M"
_symmetry_group_IT_number 12
_symmetry_cell_setting 'monoclinic'
loop_
_space_group_symop_operation_xyz
x,y,z
-x,y,-z
-x,-y,-z
x,-y,z
1/2+x,1/2+y,z
1/2-x,1/2+y,-z
1/2-x,1/2-y,-z
1/2+x,1/2-y,z
loop_
_atom_site_type_symbol
_atom_site_label
_atom_site_fract_x
_atom_site_fract_y
_atom_site_fract_z
Si Si1 0.240444 0.746812 0.176538
Si Si2 0.851113 0.376125 0.639913
Si Si3 0.356121 0.125239 0.186533
Si Si4 0.460243 0.876450 0.751838
Si Si5 0.090564 0.626406 0.610743
Si Si6 0.322871 0.623404 0.972540
Si Si7 0.562628 0.748671 0.020011
O O1 0.204663 0.689804 0.288514
O O2 0.292103 0.824807 0.190684
O O3 0.195030 0.811333 0.123902
O O4 0.274181 0.661079 0.085421
O O5 0.835986 0.500000 0.639227
O O6 0.904060 0.367087 0.700881
O O7 0.876951 0.337342 0.513357
O O8 0.375140 0.153382 0.297554
O O9 0.404605 0.173375 0.080128
O O10 0.354960 0.000000 0.176964
O O11 0.521204 0.841740 0.660961
O O12 0.467014 0.000000 0.775950
O O13 0.450648 0.811238 0.864137
O O14 0.089623 0.500000 0.602967
O O15 0.319367 0.500000 0.956946
O O16 0.388576 0.659353 0.978807
O O17 0.500000 0.712383 0.000000
#
# Coordination Sequence:
#
# PCOD9173160 Si02
#       7
#     8   8   8   8   8   8   8
#     4  10  20  34  52  74  97 135 171 201 245 296
#     4  10  19  32  51  75 102 133 167 203 245 295
#     4  10  20  32  49  76 107 134 163 204 247 291
#     4  10  18  30  50  77 105 130 161 205 252 298
#     4   9  18  31  48  74 106 133 161 204 250 289
#     4  10  21  36  51  73 103 130 163 209 249 293
#     4  11  20  32  53  78 101 129 166 199 255 304
#
# _framework density 15.761829000000001
#
# number of rings (size 3 to 8) (size 9 to 14) (size 15 to 20)
#    0.000    2.000    2.857    1.714    0.000    3.143 
#    0.000    0.000    0.000    0.000    0.000    4.000 
#    0.000    0.000    0.000    0.000    0.000    0.000 
#
# Total GULP energy -156170.701836 kJ/mol
# GULP energy per Si atom -5577.525066 kJ/mol
# Density = 1.572595 g / cm^3
# Si number density = 15.761829 Si / 1000 Ang^3
#
#
#
# Elastic Constant Matrix: (Units=GPa)
#
#
# Indices 1 2 3 4 5 6 
#
# 1 90.2852 31.5804 26.1576 0.0000 -11.9531 0.0000
# 2 31.5804 60.5923 32.1015 0.0000 -9.1453 0.0000
# 3 26.1576 32.1015 107.0041 0.0000 -18.8427 0.0000
# 4 0.0000 0.0000 0.0000 19.8645 0.0000 -0.2575
# 5 -11.9531 -9.1453 -18.8427 0.0000 18.0939 0.0000
# 6 0.0000 0.0000 0.0000 -0.2575 0.0000 10.4049
#
#
#
# Elastic Compliance Matrix: (Units=1/GPa)
#
#
# Indices 1 2 3 4 5 6 
#
# 1 0.014167 -0.006215 -0.000617 0.000000 0.005575 0.000000
# 2 -0.006215 0.022673 -0.004883 0.000000 0.002268 0.000000
# 3 -0.000617 -0.004883 0.012802 0.000000 0.010457 0.000000
# 4 0.000000 0.000000 0.000000 0.050357 0.000000 0.001246
# 5 0.005575 0.002268 0.010457 0.000000 0.070986 0.000000
# 6 0.000000 0.000000 0.000000 0.001246 0.000000 0.096140
#
#
# Mechanical properties :
#
#
# Convention : Reuss Voigt Hill
#
# Bulk Modulus (GPa) = 38.15115 48.61784 43.38450
# Shear Modulus (GPa) = 16.70605 20.87547 18.79076
#
# Velocity S-wave (km/s) = 3.25915 3.64322 3.45653
# Velocity P-wave (km/s) = 6.19839 6.97207 6.59658
#
# Compressibility (1/GPa) = 0.02621153
#
# Stress axis : x y z
#
# Youngs Moduli (GPa) = 70.58718 44.10617 78.10978
#
# Poissons Ratio (x) = 0.27414 0.04818
# Poissons Ratio (y) = 0.43873 0.38141
# Poissons Ratio (z) = 0.04354 0.21537
#
# Static dielectric constant tensor:
#      x y z
#    x 1.531920 0.000000 0.001210 
#    y 0.000000 1.492000 0.000000 
#    z 0.001210 0.000000 1.518910 
# 
# From -- ./inp_files/164830.got.cif
#   From: 2010.05.17/outbox.cif.g08.bks.cpg/sg12_83_cif.got.tgz:164830.got - 2010.06.03 13:09:07.
