data_PCOD9173841
_publ_section_title
;
Structure prediction by ZEFSAII (Michael W. Deem and Ramdas Pophale) SiO2 
 PCOD9173841
Probable space group: C 2/M
;
_chemical_formula_sum "Si O2"
_cell_formula_units_Z 36
_cell_length_a 4.957085
_cell_length_b 32.446224
_cell_length_c 11.013012
_cell_angle_alpha 90.000000
_cell_angle_beta 76.417799
_cell_angle_gamma 90.000000
_cell_volume 1721.781737
_symmetry_space_group_name_H-M "C 2/M"
_symmetry_group_IT_number 12
_symmetry_cell_setting 'monoclinic'
loop_
_space_group_symop_operation_xyz
x,y,z
-x,y,-z
-x,-y,-z
x,-y,z
1/2+x,1/2+y,z
1/2-x,1/2+y,-z
1/2-x,1/2-y,-z
1/2+x,1/2-y,z
loop_
_atom_site_type_symbol
_atom_site_label
_atom_site_fract_x
_atom_site_fract_y
_atom_site_fract_z
Si Si1 0.441242 0.727571 0.731259
Si Si2 0.000000 0.792850 0.000000
Si Si3 0.723308 0.090266 0.367260
Si Si4 0.500000 0.151803 0.000000
Si Si5 0.227043 0.364333 0.733171
Si Si6 0.205906 0.000000 0.594707
O O1 0.763371 0.737614 0.682110
O O2 0.314062 0.683529 0.710270
O O3 0.423433 0.729277 0.881572
O O4 0.275934 0.820625 0.949892
O O5 0.500000 0.089265 0.500000
O O6 0.560519 0.119069 0.289907
O O7 0.021491 0.110890 0.353639
O O8 0.799358 0.042642 0.330562
O O9 0.312067 0.128701 0.118207
O O10 0.500000 0.000000 0.500000
O O11 0.000000 0.000000 0.500000
#
# Coordination Sequence:
#
# PCOD9173841 Si02
#       6
#     8   4   8   4   8   4
#     4  11  20  32  51  78 114 152 198 244 281 325
#     4  10  18  31  50  78 110 148 198 252 298 320
#     4  11  22  39  64  89 114 143 186 241 293 344
#     4  10  20  35  54  83 120 155 192 231 284 349
#     4  11  22  37  58  85 119 157 191 233 286 343
#     4  10  20  38  64  95 116 133 178 248 305 332
#
# _framework density 20.908573000000001
#
# number of rings (size 3 to 8) (size 9 to 14) (size 15 to 20)
#    0.000    1.333    0.000   10.667    0.000    0.889 
#    0.000    0.000    0.000   17.333    0.000    0.000 
#    0.000    0.000    0.000    0.000    0.000    0.000 
#
# Total GULP energy -100281.157217 kJ/mol
# GULP energy per Si atom -5571.175401 kJ/mol
# Density = 2.086098 g / cm^3
# Si number density = 20.908573 Si / 1000 Ang^3
#
#
#
# Elastic Constant Matrix: (Units=GPa)
#
#
# Indices 1 2 3 4 5 6 
#
# 1 142.6274 32.6195 -0.2028 0.0000 3.2054 0.0000
# 2 32.6195 102.4354 17.0273 0.0000 18.2845 0.0000
# 3 -0.2028 17.0273 37.8737 0.0000 -7.4855 0.0000
# 4 0.0000 0.0000 0.0000 19.9229 0.0000 -8.0593
# 5 3.2054 18.2845 -7.4855 0.0000 32.6725 0.0000
# 6 0.0000 0.0000 0.0000 -8.0593 0.0000 34.0159
#
#
#
# Elastic Compliance Matrix: (Units=1/GPa)
#
#
# Indices 1 2 3 4 5 6 
#
# 1 0.007655 -0.002929 0.001606 0.000000 0.001256 0.000000
# 2 -0.002929 0.013659 -0.007972 0.000000 -0.009183 0.000000
# 3 0.001606 -0.007972 0.032310 0.000000 0.011706 0.000000
# 4 0.000000 0.000000 0.000000 0.055514 0.000000 0.013153
# 5 0.001256 -0.009183 0.011706 0.000000 0.038304 0.000000
# 6 0.000000 0.000000 0.000000 0.013153 0.000000 0.032514
#
#
# Mechanical properties :
#
#
# Convention : Reuss Voigt Hill
#
# Bulk Modulus (GPa) = 28.54279 42.42493 35.48386
# Shear Modulus (GPa) = 23.78417 32.88844 28.33631
#
# Velocity S-wave (km/s) = 3.37639 3.97036 3.68536
# Velocity P-wave (km/s) = 5.37409 6.43064 5.92596
#
# Compressibility (1/GPa) = 0.03503512
#
# Stress axis : x y z
#
# Youngs Moduli (GPa) = 130.63058 73.21112 30.95052
#
# Poissons Ratio (x) = 0.21442 -0.04971
# Poissons Ratio (y) = 0.38260 0.24672
# Poissons Ratio (z) = -0.20979 0.58361
#
# Static dielectric constant tensor:
#      x y z
#    x 1.777390 0.000000 -0.005840 
#    y 0.000000 1.809740 0.000000 
#    z -0.005840 0.000000 1.823600 
# 
# From -- ./inp_files/115397.got.cif
#   From: 2010.05.17/outbox.cif.g08.bks.cpg/sg12_58_cif.got.tgz:115397.got - 2010.06.03 13:09:07.
