data_PCOD9173355
_publ_section_title
;
Structure prediction by ZEFSAII (Michael W. Deem and Ramdas Pophale) SiO2 
 PCOD9173355
Probable space group: C 2/M
;
_chemical_formula_sum "Si O2"
_cell_formula_units_Z 64
_cell_length_a 17.626470
_cell_length_b 15.089247
_cell_length_c 14.800145
_cell_angle_alpha 90.000000
_cell_angle_beta 125.499720
_cell_angle_gamma 90.000000
_cell_volume 3204.692996
_symmetry_space_group_name_H-M "C 2/M"
_symmetry_group_IT_number 12
_symmetry_cell_setting 'monoclinic'
loop_
_space_group_symop_operation_xyz
x,y,z
-x,y,-z
-x,-y,-z
x,-y,z
1/2+x,1/2+y,z
1/2-x,1/2+y,-z
1/2-x,1/2-y,-z
1/2+x,1/2-y,z
loop_
_atom_site_type_symbol
_atom_site_label
_atom_site_fract_x
_atom_site_fract_y
_atom_site_fract_z
Si Si1 0.809969 0.097632 0.703587
Si Si2 0.788611 0.400024 0.889925
Si Si3 0.002455 0.608180 0.397032
Si Si4 0.837569 0.703038 0.748462
Si Si5 0.800216 0.397316 0.555182
Si Si6 0.465432 0.803550 0.077823
Si Si7 0.320928 0.329995 0.032371
Si Si8 0.309973 0.901142 0.207273
O O1 0.855205 0.191642 0.759156
O O2 0.774638 0.104311 0.576811
O O3 0.721455 0.095669 0.710179
O O4 0.856288 0.000000 0.748336
O O5 0.795867 0.500000 0.860834
O O6 0.790165 0.330800 0.808060
O O7 0.700739 0.390617 0.896313
O O8 0.882029 0.374602 0.011076
O O9 0.995511 0.500000 0.393506
O O10 0.911737 0.643457 0.279409
O O11 0.000000 0.637200 0.500000
O O12 0.100898 0.629502 0.420497
O O13 0.779936 0.668110 0.623604
O O14 0.940934 0.660960 0.812115
O O15 0.807115 0.500000 0.591198
O O16 0.420454 0.715258 0.089038
O O17 0.500000 0.783207 0.000000
O O18 0.250000 0.250000 0.000000
O O19 0.278424 0.368185 0.910551
O O20 0.324723 0.000000 0.181814
#
# Coordination Sequence:
#
# PCOD9173355 Si02
#       8
#     8   8   8   8   8   8   8   8
#     4  10  20  36  55  77 107 144 184 227 273 325
#     4  10  21  37  57  82 115 151 187 229 277 335
#     4   9  16  29  48  78 111 131 160 214 278 338
#     4  11  22  37  55  81 111 151 188 225 277 332
#     4  10  20  33  54  83 113 140 174 224 281 342
#     4   9  20  36  54  78 113 148 186 237 277 322
#     4  10  20  34  51  76 110 149 185 221 264 322
#     4  10  18  30  52  75 101 135 171 216 273 324
#
# _framework density 19.970711000000001
#
# number of rings (size 3 to 8) (size 9 to 14) (size 15 to 20)
#    0.000    2.125    1.250    3.375    3.500    2.750 
#    0.000    1.250    0.000    6.375    0.000    0.000 
#    0.000    4.500    0.000    0.000    0.000    0.000 
#
# Total GULP energy -178231.725597 kJ/mol
# GULP energy per Si atom -5569.741425 kJ/mol
# Density = 1.992526 g / cm^3
# Si number density = 19.970711 Si / 1000 Ang^3
#
#
#
# Elastic Constant Matrix: (Units=GPa)
#
#
# Indices 1 2 3 4 5 6 
#
# 1 48.5595 1.3387 1.6774 0.0000 -5.6620 0.0000
# 2 1.3387 74.7342 12.7425 0.0000 -13.6066 0.0000
# 3 1.6774 12.7425 57.6939 0.0000 -16.5270 0.0000
# 4 0.0000 0.0000 0.0000 23.3449 0.0000 -3.1066
# 5 -5.6620 -13.6066 -16.5270 0.0000 18.7651 0.0000
# 6 0.0000 0.0000 0.0000 -3.1066 0.0000 17.8145
#
#
#
# Elastic Compliance Matrix: (Units=1/GPa)
#
#
# Indices 1 2 3 4 5 6 
#
# 1 0.021513 0.000898 0.001635 0.000000 0.008582 0.000000
# 2 0.000898 0.015457 -0.000203 0.000000 0.011300 0.000000
# 3 0.001635 -0.000203 0.023310 0.000000 0.020876 0.000000
# 4 0.000000 0.000000 0.000000 0.043854 0.000000 0.007647
# 5 0.008582 0.011300 0.020876 0.000000 0.082460 0.000000
# 6 0.000000 0.000000 0.000000 0.007647 0.000000 0.057468
#
#
# Mechanical properties :
#
#
# Convention : Reuss Voigt Hill
#
# Bulk Modulus (GPa) = 15.39891 23.61166 19.50528
# Shear Modulus (GPa) = 19.15363 23.00017 21.07690
#
# Velocity S-wave (km/s) = 3.10027 3.39734 3.25220
# Velocity P-wave (km/s) = 4.53245 5.21901 4.88780
#
# Compressibility (1/GPa) = 0.06493967
#
# Stress axis : x y z
#
# Youngs Moduli (GPa) = 46.48412 64.69731 42.89940
#
# Poissons Ratio (x) = -0.05813 -0.07012
# Poissons Ratio (y) = -0.04176 0.00871
# Poissons Ratio (z) = -0.07598 0.01313
#
# Static dielectric constant tensor:
#      x y z
#    x 1.726350 0.000000 -0.046170 
#    y 0.000000 1.750080 0.000000 
#    z -0.046170 0.000000 3.463690 
# 
# From -- ./inp_files/225344.got.cif
#   From: 2010.05.17/outbox.cif.g08.bks.cpg/sg12_113_cif.got.tgz:225344.got - 2010.06.03 13:09:07.
