data_PCOD9173044
_publ_section_title
;
Structure prediction by ZEFSAII (Michael W. Deem and Ramdas Pophale) SiO2 
 PCOD9173044
Probable space group: C 2/M
;
_chemical_formula_sum "Si O2"
_cell_formula_units_Z 60
_cell_length_a 25.632688
_cell_length_b 15.693295
_cell_length_c 12.523696
_cell_angle_alpha 90.000000
_cell_angle_beta 144.592372
_cell_angle_gamma 90.000000
_cell_volume 2918.848598
_symmetry_space_group_name_H-M "C 2/M"
_symmetry_group_IT_number 12
_symmetry_cell_setting 'monoclinic'
loop_
_space_group_symop_operation_xyz
x,y,z
-x,y,-z
-x,-y,-z
x,-y,z
1/2+x,1/2+y,z
1/2-x,1/2+y,-z
1/2-x,1/2-y,-z
1/2+x,1/2-y,z
loop_
_atom_site_type_symbol
_atom_site_label
_atom_site_fract_x
_atom_site_fract_y
_atom_site_fract_z
Si Si1 0.176113 0.872412 0.098273
Si Si2 0.307549 0.853448 0.499157
Si Si3 0.306988 0.905932 0.126352
Si Si4 0.500000 0.171592 0.500000
Si Si5 0.309503 0.169324 0.916714
Si Si6 0.288753 0.353883 0.454057
Si Si7 0.014732 0.142001 0.152305
Si Si8 0.007126 0.682566 0.267491
O O1 0.229545 0.891443 0.295649
O O2 0.233888 0.906369 0.097246
O O3 0.181194 0.769668 0.092188
O O4 0.072775 0.898994 0.938435
O O5 0.297955 0.749818 0.476538
O O6 0.286825 0.878228 0.585619
O O7 0.404752 0.872354 0.611657
O O8 0.405531 0.878877 0.333509
O O9 0.314731 0.000000 0.092515
O O10 0.275688 0.843963 0.979859
O O11 0.507180 0.213550 0.392595
O O12 0.245962 0.128234 0.722231
O O13 0.412420 0.136457 0.089676
O O14 0.386305 0.389787 0.649448
O O15 0.011732 0.238620 0.193043
O O16 0.000000 0.140617 0.000000
#
# Coordination Sequence:
#
# PCOD9173044 Si02
#       8
#     8   8   8   4   8   8   8   8
#     4  10  18  33  53  80 106 136 177 223 261 313
#     4   9  15  26  48  76 108 136 168 212 258 324
#     4  11  22  37  56  75 105 144 183 222 267 318
#     4  10  19  36  50  78 106 146 179 216 259 320
#     4   9  20  33  51  79 108 142 172 219 266 318
#     4   9  17  28  47  76 109 139 170 212 269 309
#     4  10  18  30  49  80 113 140 172 220 270 313
#     4   9  18  27  47  77 113 141 169 208 261 314
#
# _framework density 20.556049999999999
#
# number of rings (size 3 to 8) (size 9 to 14) (size 15 to 20)
#    0.000    2.400    2.667    0.600    5.600    0.000 
#    0.000    0.000    0.000    2.800    0.000    1.867 
#    0.000    0.000    0.000    0.000    0.000    0.000 
#
# Total GULP energy -167128.908435 kJ/mol
# GULP energy per Si atom -5570.963615 kJ/mol
# Density = 2.050926 g / cm^3
# Si number density = 20.556050 Si / 1000 Ang^3
#
#
#
# Elastic Constant Matrix: (Units=GPa)
#
#
# Indices 1 2 3 4 5 6 
#
# 1 135.0811 9.4626 62.9593 0.0000 2.0308 0.0000
# 2 9.4626 21.9934 12.4963 0.0000 -2.2042 0.0000
# 3 62.9593 12.4963 139.9100 0.0000 -6.7596 0.0000
# 4 0.0000 0.0000 0.0000 -11.6075 0.0000 2.8790
# 5 2.0308 -2.2042 -6.7596 0.0000 36.0026 0.0000
# 6 0.0000 0.0000 0.0000 2.8790 0.0000 -14.6720
#
#
#
# Elastic Compliance Matrix: (Units=1/GPa)
#
#
# Indices 1 2 3 4 5 6 
#
# 1 0.009503 -0.001857 -0.004180 0.000000 -0.001434 0.000000
# 2 -0.001857 0.048427 -0.003372 0.000000 0.002437 0.000000
# 3 -0.004180 -0.003372 0.009416 0.000000 0.001797 0.000000
# 4 0.000000 0.000000 0.000000 -0.090558 0.000000 -0.017770
# 5 -0.001434 0.002437 0.001797 0.000000 0.028343 0.000000
# 6 0.000000 0.000000 0.000000 -0.017770 0.000000 -0.071644
#
#
# Mechanical properties :
#
#
# Convention : Reuss Voigt Hill
#
# Bulk Modulus (GPa) = 20.60639 51.86900 36.23770
# Shear Modulus (GPa) = -158.63558 16.08237 -71.27661
#
# Velocity S-wave (km/s) = -8.79430 2.80012 -5.89487
# Velocity P-wave (km/s) = 9.64746 5.97846 5.35404
#
# Compressibility (1/GPa) = 0.04852863
#
# Stress axis : x y z
#
# Youngs Moduli (GPa) = 105.23332 20.64945 106.19928
#
# Poissons Ratio (x) = 0.03836 0.44387
# Poissons Ratio (y) = 0.19547 0.35808
# Poissons Ratio (z) = 0.43983 0.06963
#
# Static dielectric constant tensor:
#      x y z
#    x 1.758250 0.000000 0.022460 
#    y 0.000000 1.767450 0.000000 
#    z 0.022460 0.000000 1.742940 
# 
# From -- ./inp_files/177371.got.cif
#   From: 2010.05.17/outbox.cif.g08.bks.cpg/sg12_89_cif.got.tgz:177371.got - 2010.06.03 13:09:07.
