data_PCOD9173334
_publ_section_title
;
Structure prediction by ZEFSAII (Michael W. Deem and Ramdas Pophale) SiO2 
 PCOD9173334
Probable space group: C 2/M
;
_chemical_formula_sum "Si O2"
_cell_formula_units_Z 56
_cell_length_a 20.050250
_cell_length_b 12.306451
_cell_length_c 10.354543
_cell_angle_alpha 90.000000
_cell_angle_beta 55.631999
_cell_angle_gamma 90.000000
_cell_volume 2108.935141
_symmetry_space_group_name_H-M "C 2/M"
_symmetry_group_IT_number 12
_symmetry_cell_setting 'monoclinic'
loop_
_space_group_symop_operation_xyz
x,y,z
-x,y,-z
-x,-y,-z
x,-y,z
1/2+x,1/2+y,z
1/2-x,1/2+y,-z
1/2-x,1/2-y,-z
1/2+x,1/2-y,z
loop_
_atom_site_type_symbol
_atom_site_label
_atom_site_fract_x
_atom_site_fract_y
_atom_site_fract_z
Si Si1 0.077877 0.500000 0.822070
Si Si2 0.545847 0.381157 0.587691
Si Si3 0.692845 0.371790 0.572357
Si Si4 0.823480 0.627186 0.628401
Si Si5 0.472368 0.000000 0.684859
Si Si6 0.092922 0.729015 0.256469
Si Si7 0.905449 0.267485 0.125531
Si Si8 0.319330 0.627458 0.009760
O O1 0.124244 0.388468 0.803495
O O2 0.043768 0.500000 0.713769
O O3 0.000000 0.500000 0.000000
O O4 0.500000 0.389915 0.500000
O O5 0.530418 0.500000 0.668406
O O6 0.643722 0.371934 0.490841
O O7 0.488365 0.287294 0.705041
O O8 0.701374 0.500000 0.593106
O O9 0.776400 0.330531 0.551771
O O10 0.624101 0.316152 0.734507
O O11 0.841814 0.500000 0.593108
O O12 0.898031 0.697927 0.599931
O O13 0.763341 0.629271 0.818113
O O14 0.500000 0.000000 0.500000
O O15 0.418664 0.105420 0.778714
O O16 0.165047 0.814180 0.144168
O O17 0.869675 0.214557 0.037306
O O18 0.000000 0.272900 0.000000
O O19 0.343160 0.500000 0.979907
#
# Coordination Sequence:
#
# PCOD9173334 Si02
#       8
#     4   8   8   8   4   8   8   8
#     4  10  20  36  56  84 124 168 213 265 330 393
#     4  10  21  37  59  86 113 151 203 268 327 384
#     4   9  18  34  57  80 110 150 197 254 318 377
#     4   9  19  37  57  87 121 161 208 258 319 396
#     4  12  26  40  60  92 132 178 227 273 329 401
#     4  12  21  37  60  88 123 167 214 264 328 389
#     4  10  18  30  51  81 119 157 199 253 312 386
#     4  10  21  35  58  90 125 161 213 270 331 393
#
# _framework density 26.553682999999999
#
# number of rings (size 3 to 8) (size 9 to 14) (size 15 to 20)
#    0.000    1.857    0.714    6.000    0.000    2.286 
#    0.000    0.714   12.571    0.000    0.000    0.000 
#    0.000    0.000    0.000    0.000    0.000    0.000 
#
# Total GULP energy -155971.205475 kJ/mol
# GULP energy per Si atom -5570.400196 kJ/mol
# Density = 2.649325 g / cm^3
# Si number density = 26.553683 Si / 1000 Ang^3
#
#
#
# Elastic Constant Matrix: (Units=GPa)
#
#
# Indices 1 2 3 4 5 6 
#
# 1 177.9366 68.2350 14.5312 0.0000 16.8451 0.0000
# 2 68.2350 166.6885 9.4296 0.0000 15.4332 0.0000
# 3 14.5312 9.4296 96.5818 0.0000 -1.6240 0.0000
# 4 0.0000 0.0000 0.0000 5.5897 0.0000 13.8784
# 5 16.8451 15.4332 -1.6240 0.0000 42.5518 0.0000
# 6 0.0000 0.0000 0.0000 13.8784 0.0000 51.4440
#
#
#
# Elastic Compliance Matrix: (Units=1/GPa)
#
#
# Indices 1 2 3 4 5 6 
#
# 1 0.006850 -0.002592 -0.000808 0.000000 -0.001803 0.000000
# 2 -0.002592 0.007228 -0.000343 0.000000 -0.001609 0.000000
# 3 -0.000808 -0.000343 0.010523 0.000000 0.000846 0.000000
# 4 0.000000 0.000000 0.000000 0.541813 0.000000 -0.146168
# 5 -0.001803 -0.001609 0.000846 0.000000 0.024830 0.000000
# 6 0.000000 0.000000 0.000000 -0.146168 0.000000 0.058871
#
#
# Mechanical properties :
#
#
# Convention : Reuss Voigt Hill
#
# Bulk Modulus (GPa) = 58.42098 69.51094 63.96596
# Shear Modulus (GPa) = 7.53798 43.18451 25.36125
#
# Velocity S-wave (km/s) = 1.68669 4.03713 3.09381
# Velocity P-wave (km/s) = 5.08351 6.92572 6.07485
#
# Compressibility (1/GPa) = 0.01711714
#
# Stress axis : x y z
#
# Youngs Moduli (GPa) = 145.97519 138.34172 95.02836
#
# Poissons Ratio (x) = 0.35854 0.07678
# Poissons Ratio (y) = 0.37832 0.03258
# Poissons Ratio (z) = 0.11794 0.04743
#
# Static dielectric constant tensor:
#      x y z
#    x 2.218200 0.000000 0.124090 
#    y 0.000000 2.196190 0.000000 
#    z 0.124090 0.000000 2.494030 
# 
# From -- ./inp_files/165649.got.cif
#   From: 2010.05.17/outbox.cif.g08.bks.cpg/sg12_83_cif.got.tgz:165649.got - 2010.06.03 13:09:07.
