data_PCOD9173887
_publ_section_title
;
Structure prediction by ZEFSAII (Michael W. Deem and Ramdas Pophale) SiO2 
 PCOD9173887
Probable space group: C 2/M
;
_chemical_formula_sum "Si O2"
_cell_formula_units_Z 56
_cell_length_a 5.422647
_cell_length_b 26.183570
_cell_length_c 23.507318
_cell_angle_alpha 90.000000
_cell_angle_beta 52.712695
_cell_angle_gamma 90.000000
_cell_volume 2655.475326
_symmetry_space_group_name_H-M "C 2/M"
_symmetry_group_IT_number 12
_symmetry_cell_setting 'monoclinic'
loop_
_space_group_symop_operation_xyz
x,y,z
-x,y,-z
-x,-y,-z
x,-y,z
1/2+x,1/2+y,z
1/2-x,1/2+y,-z
1/2-x,1/2-y,-z
1/2+x,1/2-y,z
loop_
_atom_site_type_symbol
_atom_site_label
_atom_site_fract_x
_atom_site_fract_y
_atom_site_fract_z
Si Si1 0.441065 0.103694 0.424615
Si Si2 0.115709 0.058658 0.923075
Si Si3 0.883368 0.278486 0.413195
Si Si4 0.788192 0.108335 0.204290
Si Si5 0.329789 0.277508 0.240230
Si Si6 0.749365 0.442183 0.220362
Si Si7 0.468545 0.560681 0.413999
O O1 0.385537 0.164065 0.436814
O O2 0.793878 0.087731 0.386333
O O3 0.247983 0.075380 0.501357
O O4 0.295839 0.083895 0.386505
O O5 0.037905 0.091762 0.878404
O O6 0.489801 0.056868 0.866328
O O7 0.005439 0.000000 0.930906
O O8 0.000000 0.077425 0.000000
O O9 0.556525 0.259089 0.433350
O O10 0.106832 0.280143 0.326637
O O11 0.831051 0.167119 0.212152
O O12 0.433014 0.092513 0.240205
O O13 0.940110 0.077627 0.234854
O O14 0.660764 0.259874 0.218770
O O15 0.718429 0.500000 0.246436
O O16 0.477498 0.500000 0.406859
#
# Coordination Sequence:
#
# PCOD9173887 Si02
#       7
#     8   8   8   8   8   8   8
#     4  10  18  32  53  76 101 136 172 207 249 295
#     4   8  16  29  48  76 106 133 159 191 241 305
#     4  10  21  37  54  75 101 128 165 219 266 300
#     4  10  18  31  51  73  98 131 168 206 245 295
#     4  10  21  37  57  74  92 128 177 218 255 296
#     4   9  17  29  48  74 103 131 156 194 242 298
#     4  10  19  33  53  76 106 142 174 199 232 294
#
# _framework density 21.088504
#
# number of rings (size 3 to 8) (size 9 to 14) (size 15 to 20)
#    0.857    1.571    0.000    4.714    0.000    0.571 
#    0.000   10.714    0.000   10.286    0.000    0.000 
#    0.000    0.000    0.000    0.000    0.000    0.000 
#
# Total GULP energy -156283.027073 kJ/mol
# GULP energy per Si atom -5581.536681 kJ/mol
# Density = 2.104051 g / cm^3
# Si number density = 21.088504 Si / 1000 Ang^3
#
#
#
# Elastic Constant Matrix: (Units=GPa)
#
#
# Indices 1 2 3 4 5 6 
#
# 1 162.9260 52.3679 34.2930 0.0000 15.0200 0.0000
# 2 52.3679 129.8890 13.2887 0.0000 12.4199 0.0000
# 3 34.2930 13.2887 77.3734 0.0000 21.9242 0.0000
# 4 0.0000 0.0000 0.0000 48.7398 0.0000 19.3169
# 5 15.0200 12.4199 21.9242 0.0000 26.1386 0.0000
# 6 0.0000 0.0000 0.0000 19.3169 0.0000 47.8526
#
#
#
# Elastic Compliance Matrix: (Units=1/GPa)
#
#
# Indices 1 2 3 4 5 6 
#
# 1 0.007659 -0.002732 -0.002684 0.000000 -0.000852 0.000000
# 2 -0.002732 0.009049 0.000564 0.000000 -0.003203 0.000000
# 3 -0.002684 0.000564 0.017914 0.000000 -0.013751 0.000000
# 4 0.000000 0.000000 0.000000 0.024425 0.000000 -0.009860
# 5 -0.000852 -0.003203 -0.013751 0.000000 0.051803 0.000000
# 6 0.000000 0.000000 0.000000 -0.009860 0.000000 0.024878
#
#
# Mechanical properties :
#
#
# Convention : Reuss Voigt Hill
#
# Bulk Modulus (GPa) = 40.13141 63.34306 51.73724
# Shear Modulus (GPa) = 32.52312 42.56213 37.54262
#
# Velocity S-wave (km/s) = 3.93137 4.49738 4.22387
# Velocity P-wave (km/s) = 6.29912 7.55451 6.95519
#
# Compressibility (1/GPa) = 0.02491814
#
# Stress axis : x y z
#
# Youngs Moduli (GPa) = 130.55884 110.51062 55.82381
#
# Poissons Ratio (x) = 0.30192 0.14984
# Poissons Ratio (y) = 0.35669 -0.03151
# Poissons Ratio (z) = 0.35044 -0.06237
#
# Static dielectric constant tensor:
#      x y z
#    x 1.817140 0.000000 0.003570 
#    y 0.000000 1.705440 0.000000 
#    z 0.003570 0.000000 1.883440 
# 
# From -- ./inp_files/355174.got.cif
#   From: 2010.05.17/outbox.cif.g08.bks.cpg/sg12_178_cif.got.tgz:355174.got - 2010.06.03 13:09:07.
