data_PCOD9173002
_publ_section_title
;
Structure prediction by ZEFSAII (Michael W. Deem and Ramdas Pophale) SiO2 
 PCOD9173002
Probable space group: C 2/M
;
_chemical_formula_sum "Si O2"
_cell_formula_units_Z 48
_cell_length_a 24.683340
_cell_length_b 8.642953
_cell_length_c 20.972747
_cell_angle_alpha 90.000000
_cell_angle_beta 39.352265
_cell_angle_gamma 90.000000
_cell_volume 2837.069036
_symmetry_space_group_name_H-M "C 2/M"
_symmetry_group_IT_number 12
_symmetry_cell_setting 'monoclinic'
loop_
_space_group_symop_operation_xyz
x,y,z
-x,y,-z
-x,-y,-z
x,-y,z
1/2+x,1/2+y,z
1/2-x,1/2+y,-z
1/2-x,1/2-y,-z
1/2+x,1/2-y,z
loop_
_atom_site_type_symbol
_atom_site_label
_atom_site_fract_x
_atom_site_fract_y
_atom_site_fract_z
Si Si1 0.822374 0.316753 0.388276
Si Si2 0.809528 0.186127 0.888384
Si Si3 0.163358 0.812660 0.765597
Si Si4 0.005409 0.819907 0.238843
Si Si5 0.026313 0.819981 0.067901
Si Si6 0.211082 0.187820 0.858050
O O1 0.816484 0.500000 0.391427
O O2 0.750000 0.250000 0.500000
O O3 0.812229 0.251408 0.325591
O O4 0.916475 0.268316 0.327699
O O5 0.773497 0.240450 0.853278
O O6 0.908081 0.238099 0.806875
O O7 0.808684 0.000000 0.894011
O O8 0.750000 0.250000 0.000000
O O9 0.221512 0.774709 0.773690
O O10 0.065882 0.756863 0.868440
O O11 0.159540 0.000000 0.763932
O O12 0.025635 0.815033 0.144977
O O13 0.991678 0.000000 0.268647
O O14 0.027212 0.000000 0.047097
O O15 0.115592 0.754934 0.962999
O O16 0.213801 0.000000 0.862204
#
# Coordination Sequence:
#
# PCOD9173002 Si02
#       6
#     8   8   8   8   8   8
#     4  11  22  37  59  82 104 129 167 220 273 319
#     4  11  21  33  50  73 108 149 185 219 253 301
#     4   9  18  32  51  75 106 139 174 212 260 317
#     4   9  18  34  53  74 104 141 180 216 258 308
#     4   8  13  26  47  70  99 138 177 207 244 300
#     4  10  18  30  49  74 106 146 181 211 252 305
#
# _framework density 16.918869000000001
#
# number of rings (size 3 to 8) (size 9 to 14) (size 15 to 20)
#    0.000    2.333    1.667    3.500    0.000    4.000 
#    0.000    0.000    0.000    4.000    0.000    7.000 
#    0.000    0.000    0.000    0.000    0.000    0.000 
#
# Total GULP energy -133751.499222 kJ/mol
# GULP energy per Si atom -5572.979134 kJ/mol
# Density = 1.688036 g / cm^3
# Si number density = 16.918869 Si / 1000 Ang^3
#
#
#
# Elastic Constant Matrix: (Units=GPa)
#
#
# Indices 1 2 3 4 5 6 
#
# 1 163.6540 40.5651 67.0261 0.0000 -2.0779 0.0000
# 2 40.5651 49.7669 37.3671 0.0002 -1.5677 0.0001
# 3 67.0261 37.3671 99.2207 0.0003 -9.5141 -0.0001
# 4 0.0000 0.0002 0.0003 20.8607 -0.0002 -1.2559
# 5 -2.0779 -1.5677 -9.5141 -0.0002 7.7309 0.0001
# 6 0.0000 0.0001 -0.0001 -1.2559 0.0001 25.4629
#
#
#
# Elastic Compliance Matrix: (Units=1/GPa)
#
#
# Indices 1 2 3 4 5 6 
#
# 1 0.009092 -0.003636 -0.005225 0.000000 -0.004724 0.000000
# 2 -0.003636 0.029945 -0.009448 0.000000 -0.006532 0.000000
# 3 -0.005225 -0.009448 0.019102 0.000000 0.020188 0.000000
# 4 0.000000 0.000000 0.000000 0.048080 0.000001 0.002371
# 5 -0.004724 -0.006532 0.020188 0.000001 0.151603 0.000000
# 6 0.000000 0.000000 0.000000 0.002371 0.000000 0.039390
#
#
# Mechanical properties :
#
#
# Convention : Reuss Voigt Hill
#
# Bulk Modulus (GPa) = 46.46577 66.95090 56.70833
# Shear Modulus (GPa) = 14.66258 21.98977 18.32617
#
# Velocity S-wave (km/s) = 2.94707 3.60907 3.29474
# Velocity P-wave (km/s) = 6.25330 7.55148 6.93284
#
# Compressibility (1/GPa) = 0.02152122
#
# Stress axis : x y z
#
# Youngs Moduli (GPa) = 109.98805 33.39402 52.34961
#
# Poissons Ratio (x) = 0.12143 0.27355
# Poissons Ratio (y) = 0.39993 0.49458
# Poissons Ratio (z) = 0.57473 0.31550
#
# Static dielectric constant tensor:
#      x y z
#    x 1.601180 0.000000 -0.005280 
#    y 0.000000 1.581900 0.000000 
#    z -0.005280 0.000000 1.555680 
# 
# From -- ./inp_files/230389.got.cif
#   From: 2010.05.17/outbox.cif.g08.bks.cpg/sg12_116_cif.got.tgz:230389.got - 2010.06.03 13:09:07.
