data_PCOD9173097
_publ_section_title
;
Structure prediction by ZEFSAII (Michael W. Deem and Ramdas Pophale) SiO2 
 PCOD9173097
Probable space group: C 2/M
;
_chemical_formula_sum "Si O2"
_cell_formula_units_Z 64
_cell_length_a 26.005399
_cell_length_b 7.427656
_cell_length_c 19.607195
_cell_angle_alpha 90.000000
_cell_angle_beta 131.220288
_cell_angle_gamma 90.000000
_cell_volume 2848.744444
_symmetry_space_group_name_H-M "C 2/M"
_symmetry_group_IT_number 12
_symmetry_cell_setting 'monoclinic'
loop_
_space_group_symop_operation_xyz
x,y,z
-x,y,-z
-x,-y,-z
x,-y,z
1/2+x,1/2+y,z
1/2-x,1/2+y,-z
1/2-x,1/2-y,-z
1/2+x,1/2-y,z
loop_
_atom_site_type_symbol
_atom_site_label
_atom_site_fract_x
_atom_site_fract_y
_atom_site_fract_z
Si Si1 0.327269 0.218304 0.206546
Si Si2 0.299466 0.196091 0.982924
Si Si3 0.322532 0.785706 0.355326
Si Si4 0.589292 0.221461 0.014348
Si Si5 0.338054 0.784755 0.783218
Si Si6 0.034580 0.719585 0.738126
Si Si7 0.965814 0.280815 0.818968
Si Si8 0.959851 0.719918 0.534011
O O1 0.254332 0.301950 0.125974
O O2 0.344414 0.272273 0.298388
O O3 0.386453 0.272924 0.205606
O O4 0.320408 0.000000 0.197763
O O5 0.365199 0.289203 0.009808
O O6 0.324627 0.000000 0.025022
O O7 0.250000 0.250000 0.000000
O O8 0.242231 0.751610 0.295302
O O9 0.380898 0.720455 0.457794
O O10 0.329106 0.000000 0.361012
O O11 0.627066 0.282777 0.115924
O O12 0.591342 0.000000 0.018229
O O13 0.512642 0.268668 0.925463
O O14 0.388448 0.722857 0.766771
O O15 0.343450 0.000000 0.790641
O O16 0.034562 0.500000 0.738833
O O17 0.999420 0.780268 0.777391
O O18 0.994445 0.777569 0.634836
O O19 0.966757 0.500000 0.816884
O O20 0.962807 0.500000 0.537778
O O21 0.000000 0.773578 0.500000
#
# Coordination Sequence:
#
# PCOD9173097 Si02
#       8
#     8   8   8   8   8   8   8   8
#     4  10  18  30  50  74 101 130 161 205 255 300
#     4  11  21  32  47  71 104 137 166 202 249 301
#     4  10  19  31  51  77 102 129 163 207 254 299
#     4   9  17  30  48  71  96 125 166 210 245 283
#     4  10  19  33  52  72  98 132 169 206 245 297
#     4   9  16  28  49  76 102 126 165 217 254 291
#     4   9  17  29  48  72  95 125 168 214 251 284
#     4   9  15  27  48  75 102 130 165 205 251 299
#
# _framework density 22.466038000000001
#
# number of rings (size 3 to 8) (size 9 to 14) (size 15 to 20)
#    0.000    2.375    2.500    1.500    0.000    3.500 
#    0.000    0.625    0.000    6.375    0.000    0.000 
#    0.000    0.000    0.000    0.000    0.000    0.000 
#
# Total GULP energy -178530.278875 kJ/mol
# GULP energy per Si atom -5579.071215 kJ/mol
# Density = 2.241490 g / cm^3
# Si number density = 22.466038 Si / 1000 Ang^3
#
#
#
# Elastic Constant Matrix: (Units=GPa)
#
#
# Indices 1 2 3 4 5 6 
#
# 1 137.8268 -4.0140 47.6313 0.0000 24.2397 0.0000
# 2 -4.0140 61.4578 -6.9604 -0.0001 -2.4491 -0.0004
# 3 47.6313 -6.9604 116.0934 0.0000 15.5103 0.0000
# 4 0.0000 -0.0001 0.0000 8.3271 0.0000 7.9808
# 5 24.2397 -2.4491 15.5103 0.0000 33.6450 0.0000
# 6 0.0000 -0.0004 0.0000 7.9808 0.0000 7.5787
#
#
#
# Elastic Compliance Matrix: (Units=1/GPa)
#
#
# Indices 1 2 3 4 5 6 
#
# 1 0.009245 0.000045 -0.003091 -0.000003 -0.005232 0.000003
# 2 0.000045 0.016402 0.000863 0.000074 0.000764 -0.000077
# 3 -0.003091 0.000863 0.010260 0.000004 -0.002440 -0.000004
# 4 -0.000003 0.000074 0.000004-12.963312 0.000012 13.651063
# 5 -0.005232 0.000764 -0.002440 0.000012 0.034672 -0.000013
# 6 0.000003 -0.000077 -0.000004 13.651063 -0.000013-14.243353
#
#
# Mechanical properties :
#
#
# Convention : Reuss Voigt Hill
#
# Bulk Modulus (GPa) = 31.70496 43.18800 37.44648
# Shear Modulus (GPa) = -0.18436 28.49156 14.15360
#
# Velocity S-wave (km/s) = -0.28677 3.56505 2.51270
# Velocity P-wave (km/s) = 3.74612 6.01760 5.01223
#
# Compressibility (1/GPa) = 0.03154080
#
# Stress axis : x y z
#
# Youngs Moduli (GPa) = 108.16174 60.96655 97.46769
#
# Poissons Ratio (x) = -0.00276 0.30132
# Poissons Ratio (y) = -0.00489 -0.08410
# Poissons Ratio (z) = 0.33438 -0.05260
#
# Static dielectric constant tensor:
#      x y z
#    x 1.845960 0.000000 -0.006750 
#    y 0.000000 1.919520 0.000000 
#    z -0.006750 0.000000 1.842290 
# 
# From -- ./inp_files/327504.got.cif
#   From: 2010.05.17/outbox.cif.g08.bks.cpg/sg12_164_cif.got.tgz:327504.got - 2010.06.03 13:09:07.
