data_PCOD9173752
_publ_section_title
;
Structure prediction by ZEFSAII (Michael W. Deem and Ramdas Pophale) SiO2 
 PCOD9173752
Probable space group: C 2/M
;
_chemical_formula_sum "Si O2"
_cell_formula_units_Z 56
_cell_length_a 26.392617
_cell_length_b 7.642496
_cell_length_c 19.946260
_cell_angle_alpha 90.000000
_cell_angle_beta 48.265862
_cell_angle_gamma 90.000000
_cell_volume 3002.331622
_symmetry_space_group_name_H-M "C 2/M"
_symmetry_group_IT_number 12
_symmetry_cell_setting 'monoclinic'
loop_
_space_group_symop_operation_xyz
x,y,z
-x,y,-z
-x,-y,-z
x,-y,z
1/2+x,1/2+y,z
1/2-x,1/2+y,-z
1/2-x,1/2-y,-z
1/2+x,1/2-y,z
loop_
_atom_site_type_symbol
_atom_site_label
_atom_site_fract_x
_atom_site_fract_y
_atom_site_fract_z
Si Si1 0.552404 0.713875 0.896420
Si Si2 0.706811 0.711213 0.784225
Si Si3 0.636242 0.297138 0.598553
Si Si4 0.251327 0.291532 0.599327
Si Si5 0.851874 0.707840 0.912162
Si Si6 0.491637 0.711545 0.213075
Si Si7 0.251899 0.796267 0.886851
O O1 0.552662 0.500000 0.895991
O O2 0.629068 0.772341 0.843946
O O3 0.528300 0.771565 0.844144
O O4 0.500000 0.769619 0.000000
O O5 0.703733 0.500000 0.791594
O O6 0.747335 0.756354 0.681316
O O7 0.739541 0.779597 0.824189
O O8 0.623998 0.500000 0.592343
O O9 0.681541 0.222912 0.498008
O O10 0.685999 0.288250 0.619318
O O11 0.564469 0.220754 0.684859
O O12 0.247504 0.500000 0.591215
O O13 0.840128 0.500000 0.926340
O O14 0.809823 0.778060 0.885034
O O15 0.931394 0.741654 0.838346
O O16 0.817522 0.785476 0.009109
O O17 0.486703 0.500000 0.216737
O O18 0.269392 0.000000 0.861808
#
# Coordination Sequence:
#
# PCOD9173752 Si02
#       7
#     8   8   8   8   8   8   8
#     4   9  16  26  44  69  93 121 160 197 227 277
#     4  10  18  32  52  71  95 129 168 201 237 293
#     4   9  18  33  50  69  96 134 171 197 232 297
#     4  10  19  30  48  74 102 126 158 206 253 289
#     4  10  20  33  50  75 102 126 162 210 250 281
#     4  10  18  31  50  70  96 131 168 197 234 293
#     4   9  19  35  54  72  94 132 173 201 235 293
#
# _framework density 18.652170000000002
#
# number of rings (size 3 to 8) (size 9 to 14) (size 15 to 20)
#    0.000    2.429    1.429    1.714    0.000    4.571 
#    0.000    0.000    0.000    2.571    0.000    6.000 
#    0.000    0.000    0.000    0.000    0.000    0.000 
#
# Total GULP energy -156203.123251 kJ/mol
# GULP energy per Si atom -5578.682973 kJ/mol
# Density = 1.860972 g / cm^3
# Si number density = 18.652170 Si / 1000 Ang^3
#
#
#
# Elastic Constant Matrix: (Units=GPa)
#
#
# Indices 1 2 3 4 5 6 
#
# 1 96.7130 -4.8425 79.1096 -0.0008 8.7635 -0.0009
# 2 -4.8425 36.1617 -10.3835 -0.0010 2.6170 -0.0014
# 3 79.1096 -10.3835 145.7587 0.0051 10.6069 -0.0128
# 4 -0.0008 -0.0010 0.0051 13.3808 -0.0048 -1.7360
# 5 8.7635 2.6170 10.6069 -0.0048 26.5723 0.0111
# 6 -0.0009 -0.0014 -0.0128 -1.7360 0.0111 10.6453
#
#
#
# Elastic Compliance Matrix: (Units=1/GPa)
#
#
# Indices 1 2 3 4 5 6 
#
# 1 0.018719 -0.000214 -0.010018 0.000003 -0.002153 -0.000008
# 2 -0.000214 0.028589 0.002423 0.000001 -0.003712 0.000011
# 3 -0.010018 0.002423 0.012614 -0.000004 -0.001970 0.000016
# 4 0.000003 0.000001 -0.000004 0.076349 0.000009 0.012451
# 5 -0.002153 -0.003712 -0.001970 0.000009 0.039495 -0.000043
# 6 -0.000008 0.000011 0.000016 0.012451 -0.000043 0.095969
#
#
# Mechanical properties :
#
#
# Convention : Reuss Voigt Hill
#
# Bulk Modulus (GPa) = 22.57153 45.15562 33.86358
# Shear Modulus (GPa) = 16.54964 24.43633 20.49298
#
# Velocity S-wave (km/s) = 2.98195 3.62347 3.31825
# Velocity P-wave (km/s) = 4.89731 6.46281 5.73374
#
# Compressibility (1/GPa) = 0.04430359
#
# Stress axis : x y z
#
# Youngs Moduli (GPa) = 53.42175 34.97816 79.27771
#
# Poissons Ratio (x) = 0.00749 0.79422
# Poissons Ratio (y) = 0.01144 -0.19209
# Poissons Ratio (z) = 0.53519 -0.08475
#
# Static dielectric constant tensor:
#      x y z
#    x 1.628810 -0.000050 0.003380 
#    y -0.000050 1.480640 0.000010 
#    z 0.003380 0.000010 1.650700 
# 
# From -- ./inp_files/288235.got.cif
#   From: 2010.05.17/outbox.cif.g08.bks.cpg/sg12_145_cif.got.tgz:288235.got - 2010.06.03 13:09:07.
