data_PCOD9173459
_publ_section_title
;
Structure prediction by ZEFSAII (Michael W. Deem and Ramdas Pophale) SiO2 
 PCOD9173459
Probable space group: C 2/M
;
_chemical_formula_sum "Si O2"
_cell_formula_units_Z 58
_cell_length_a 20.663198
_cell_length_b 7.871833
_cell_length_c 21.469503
_cell_angle_alpha 90.000000
_cell_angle_beta 125.634006
_cell_angle_gamma 90.000000
_cell_volume 2838.279192
_symmetry_space_group_name_H-M "C 2/M"
_symmetry_group_IT_number 12
_symmetry_cell_setting 'monoclinic'
loop_
_space_group_symop_operation_xyz
x,y,z
-x,y,-z
-x,-y,-z
x,-y,z
1/2+x,1/2+y,z
1/2-x,1/2+y,-z
1/2-x,1/2-y,-z
1/2+x,1/2-y,z
loop_
_atom_site_type_symbol
_atom_site_label
_atom_site_fract_x
_atom_site_fract_y
_atom_site_fract_z
Si Si1 0.772503 0.296913 0.583125
Si Si2 0.084245 0.699268 0.019971
Si Si3 0.989391 0.295153 0.406873
Si Si4 0.000000 0.000000 0.500000
Si Si5 0.660791 0.299250 0.180215
Si Si6 0.506276 0.699093 0.859744
Si Si7 0.047694 0.701785 0.299593
Si Si8 0.810830 0.701532 0.339280
O O1 0.774319 0.500000 0.587727
O O2 0.750000 0.250000 0.500000
O O3 0.861445 0.231282 0.649726
O O4 0.712732 0.232204 0.602487
O O5 0.086659 0.500000 0.033584
O O6 0.152609 0.776975 0.101397
O O7 0.076227 0.726478 0.941808
O O8 0.000000 0.769323 0.000000
O O9 0.000664 0.500000 0.427885
O O10 0.897695 0.239175 0.367288
O O11 0.034243 0.154264 0.472865
O O12 0.012282 0.272806 0.348061
O O13 0.660553 0.500000 0.193704
O O14 0.579255 0.227596 0.164639
O O15 0.739299 0.226598 0.256598
O O16 0.507017 0.500000 0.873411
O O17 0.505445 0.725484 0.785718
O O18 0.051514 0.500000 0.291157
O O19 0.814372 0.500000 0.331389
#
# Coordination Sequence:
#
# PCOD9173459 Si02
#       8
#     8   8   8   2   8   8   8   8
#     4  11  24  37  57  83 114 147 190 238 291 351
#     4   9  17  28  46  77 114 151 187 230 284 341
#     4  10  25  44  64  89 120 156 202 249 298 356
#     4  12  26  44  68  90 112 160 206 250 296 358
#     4   9  17  31  52  81 114 150 189 234 290 344
#     4  10  18  30  53  81 113 148 190 239 284 347
#     4  10  22  40  57  82 117 156 191 241 299 348
#     4  10  21  40  60  84 117 154 189 240 299 347
#
# _framework density 20.434916999999999
#
# number of rings (size 3 to 8) (size 9 to 14) (size 15 to 20)
#    0.000    2.069    1.379    1.448    3.862    3.310 
#    0.000    0.000    0.000    0.828    0.000    0.000 
#    0.000    0.000    0.000    0.000    0.000    0.000 
#
# Total GULP energy -161500.376350 kJ/mol
# GULP energy per Si atom -5568.978495 kJ/mol
# Density = 2.038841 g / cm^3
# Si number density = 20.434917 Si / 1000 Ang^3
#
#
#
# Elastic Constant Matrix: (Units=GPa)
#
#
# Indices 1 2 3 4 5 6 
#
# 1 74.2013 3.4051 18.4319 0.0000 -1.9928 0.0000
# 2 3.4051 39.9942 1.3263 0.0000 -0.2376 0.0000
# 3 18.4319 1.3263 99.3076 0.0000 -9.1116 0.0000
# 4 0.0000 0.0000 0.0000 22.8662 0.0000 -15.5660
# 5 -1.9928 -0.2376 -9.1116 0.0000 24.7307 0.0000
# 6 0.0000 0.0000 0.0000 -15.5660 0.0000 13.2598
#
#
#
# Elastic Compliance Matrix: (Units=1/GPa)
#
#
# Indices 1 2 3 4 5 6 
#
# 1 0.014179 -0.001120 -0.002601 0.000000 0.000174 0.000000
# 2 -0.001120 0.025103 -0.000118 0.000000 0.000108 0.000000
# 3 -0.002601 -0.000118 0.010903 0.000000 0.003806 0.000000
# 4 0.000000 0.000000 0.000000 0.217726 0.000000 0.255594
# 5 0.000174 0.000108 0.003806 0.000000 0.041853 0.000000
# 6 0.000000 0.000000 0.000000 0.255594 0.000000 0.375464
#
#
# Mechanical properties :
#
#
# Convention : Reuss Voigt Hill
#
# Bulk Modulus (GPa) = 23.52430 28.86996 26.19713
# Shear Modulus (GPa) = 7.07138 24.86066 15.96602
#
# Velocity S-wave (km/s) = 1.86224 3.49173 2.79823
# Velocity P-wave (km/s) = 4.02004 5.51495 4.82573
#
# Compressibility (1/GPa) = 0.04250923
#
# Stress axis : x y z
#
# Youngs Moduli (GPa) = 70.52701 39.83509 91.71571
#
# Poissons Ratio (x) = 0.04461 0.23853
# Poissons Ratio (y) = 0.07899 0.01078
# Poissons Ratio (z) = 0.18343 0.00468
#
# Static dielectric constant tensor:
#      x y z
#    x 1.624600 0.000000 -0.038640 
#    y 0.000000 1.739070 0.000000 
#    z -0.038640 0.000000 1.770520 
# 
# From -- ./inp_files/281153.got.cif
#   From: 2010.05.17/outbox.cif.g08.bks.cpg/sg12_141_cif.got.tgz:281153.got - 2010.06.03 13:09:07.
