data_PCOD9173751
_publ_section_title
;
Structure prediction by ZEFSAII (Michael W. Deem and Ramdas Pophale) SiO2 
 PCOD9173751
Probable space group: C 2/M
;
_chemical_formula_sum "Si O2"
_cell_formula_units_Z 64
_cell_length_a 25.952268
_cell_length_b 8.810712
_cell_length_c 21.922630
_cell_angle_alpha 90.000000
_cell_angle_beta 126.429720
_cell_angle_gamma 90.000000
_cell_volume 4033.215070
_symmetry_space_group_name_H-M "C 2/M"
_symmetry_group_IT_number 12
_symmetry_cell_setting 'monoclinic'
loop_
_space_group_symop_operation_xyz
x,y,z
-x,y,-z
-x,-y,-z
x,-y,z
1/2+x,1/2+y,z
1/2-x,1/2+y,-z
1/2-x,1/2-y,-z
1/2+x,1/2-y,z
loop_
_atom_site_type_symbol
_atom_site_label
_atom_site_fract_x
_atom_site_fract_y
_atom_site_fract_z
Si Si1 0.047503 0.184729 0.586895
Si Si2 0.309005 0.681812 0.003005
Si Si3 0.304531 0.318287 0.316210
Si Si4 0.349659 0.317346 0.575595
Si Si5 0.772228 0.317943 0.164908
Si Si6 0.002627 0.816676 0.314567
Si Si7 0.236985 0.318728 0.588109
Si Si8 0.108851 0.318655 0.840891
O O1 0.120831 0.232573 0.628892
O O2 0.000000 0.237107 0.500000
O O3 0.022623 0.230121 0.636140
O O4 0.046865 0.000000 0.585268
O O5 0.308929 0.500000 0.008551
O O6 0.289973 0.719607 0.920065
O O7 0.250000 0.750000 0.000000
O O8 0.370872 0.749201 0.079746
O O9 0.303549 0.500000 0.317941
O O10 0.276001 0.262351 0.232233
O O11 0.268437 0.251717 0.349086
O O12 0.347388 0.500000 0.565977
O O13 0.422942 0.274414 0.638631
O O14 0.301919 0.276965 0.597339
O O15 0.320747 0.242635 0.494597
O O16 0.773846 0.500000 0.174284
O O17 0.835078 0.276407 0.168652
O O18 0.957073 0.743832 0.232078
O O19 0.997733 0.000000 0.307237
O O20 0.233794 0.500000 0.589522
O O21 0.108422 0.500000 0.844901
#
# Coordination Sequence:
#
# PCOD9173751 Si02
#       8
#     8   8   8   8   8   8   8   8
#     4   9  17  28  43  65  92 122 157 194 232 278
#     4   9  17  29  46  67  94 129 164 196 237 283
#     4  11  20  30  48  71  95 128 164 196 236 288
#     4   9  19  35  54  72  91 123 167 207 245 289
#     4   9  18  31  45  66  98 129 157 196 236 279
#     4  10  18  31  50  70  95 126 162 202 239 284
#     4  10  20  34  51  71  96 125 160 207 252 285
#     4  10  19  30  45  69 101 131 160 195 237 288
#
# _framework density 15.868235
#
# number of rings (size 3 to 8) (size 9 to 14) (size 15 to 20)
#    0.000    2.375    1.250    3.000    0.000    5.500 
#    0.000    0.000    0.000    1.875    0.000    0.875 
#    0.000    7.000    0.000    0.000    0.000    0.000 
#
# Total GULP energy -178429.371308 kJ/mol
# GULP energy per Si atom -5575.917853 kJ/mol
# Density = 1.583212 g / cm^3
# Si number density = 15.868235 Si / 1000 Ang^3
#
#
#
# Elastic Constant Matrix: (Units=GPa)
#
#
# Indices 1 2 3 4 5 6 
#
# 1 55.8405 25.2452 48.9408 0.0000 -5.9340 0.0000
# 2 25.2452 30.3193 42.4882 0.0000 -4.4024 0.0000
# 3 48.9408 42.4882 142.6451 0.0000 -8.6743 0.0000
# 4 0.0000 0.0000 0.0000 29.7815 0.0000 -1.7182
# 5 -5.9340 -4.4024 -8.6743 0.0000 19.5521 0.0000
# 6 0.0000 0.0000 0.0000 -1.7182 0.0000 17.3330
#
#
#
# Elastic Compliance Matrix: (Units=1/GPa)
#
#
# Indices 1 2 3 4 5 6 
#
# 1 0.030842 -0.018313 -0.004942 0.000000 0.003045 0.000000
# 2 -0.018313 0.068049 -0.013764 0.000000 0.003658 0.000000
# 3 -0.004942 -0.013764 0.012873 0.000000 0.001112 0.000000
# 4 0.000000 0.000000 0.000000 0.033771 0.000000 0.003348
# 5 0.003045 0.003658 0.001112 0.000000 0.053387 0.000000
# 6 0.000000 0.000000 0.000000 0.003348 0.000000 0.058025
#
#
# Mechanical properties :
#
#
# Convention : Reuss Voigt Hill
#
# Bulk Modulus (GPa) = 26.50584 51.35037 38.92811
# Shear Modulus (GPa) = 14.55345 20.80869 17.68107
#
# Velocity S-wave (km/s) = 3.03172 3.62517 3.34165
# Velocity P-wave (km/s) = 5.38471 7.06776 6.28285
#
# Compressibility (1/GPa) = 0.03772753
#
# Stress axis : x y z
#
# Youngs Moduli (GPa) = 32.42295 14.69521 77.68075
#
# Poissons Ratio (x) = 0.26912 0.38389
# Poissons Ratio (y) = 0.59377 1.06916
# Poissons Ratio (z) = 0.16023 0.20226
#
# Static dielectric constant tensor:
#      x y z
#    x 1.519110 0.000000 0.009140 
#    y 0.000000 1.534990 0.000000 
#    z 0.009140 0.000000 1.539310 
# 
# From -- ./inp_files/324121.got.cif
#   From: 2010.05.17/outbox.cif.g08.bks.cpg/sg12_163_cif.got.tgz:324121.got - 2010.06.03 13:09:07.
