data_PCOD9173134
_publ_section_title
;
Structure prediction by ZEFSAII (Michael W. Deem and Ramdas Pophale) SiO2 
 PCOD9173134
Probable space group: C 2/M
;
_chemical_formula_sum "Si O2"
_cell_formula_units_Z 64
_cell_length_a 25.585179
_cell_length_b 7.763677
_cell_length_c 20.707631
_cell_angle_alpha 90.000000
_cell_angle_beta 127.282521
_cell_angle_gamma 90.000000
_cell_volume 3272.750811
_symmetry_space_group_name_H-M "C 2/M"
_symmetry_group_IT_number 12
_symmetry_cell_setting 'monoclinic'
loop_
_space_group_symop_operation_xyz
x,y,z
-x,y,-z
-x,-y,-z
x,-y,z
1/2+x,1/2+y,z
1/2-x,1/2+y,-z
1/2-x,1/2-y,-z
1/2+x,1/2-y,z
loop_
_atom_site_type_symbol
_atom_site_label
_atom_site_fract_x
_atom_site_fract_y
_atom_site_fract_z
Si Si1 0.927776 0.788217 0.716488
Si Si2 0.176837 0.792741 0.468822
Si Si3 0.343704 0.707563 0.772105
Si Si4 0.324808 0.196468 0.041642
Si Si5 0.695015 0.293077 0.624350
Si Si6 0.837204 0.209638 0.259307
Si Si7 0.688454 0.704430 0.111383
Si Si8 0.069156 0.198462 0.779959
O O1 0.876820 0.732456 0.622823
O O2 0.899363 0.731275 0.764482
O O3 0.000655 0.726838 0.753615
O O4 0.927725 0.000000 0.718326
O O5 0.250000 0.750000 0.500000
O O6 0.169256 0.726992 0.536480
O O7 0.171467 0.000000 0.466628
O O8 0.347044 0.500000 0.777774
O O9 0.272323 0.752117 0.689428
O O10 0.344050 0.770421 0.846389
O O11 0.376924 0.299168 0.122999
O O12 0.332567 0.000000 0.067577
O O13 0.250000 0.250000 0.000000
O O14 0.335276 0.215110 0.973028
O O15 0.688664 0.500000 0.619085
O O16 0.661169 0.231006 0.665115
O O17 0.766452 0.263256 0.178058
O O18 0.895022 0.274149 0.256253
O O19 0.837807 0.000000 0.258959
O O20 0.677992 0.500000 0.098705
O O21 0.054360 0.000000 0.752137
#
# Coordination Sequence:
#
# PCOD9173134 Si02
#       8
#     8   8   8   8   8   8   8   8
#     4   9  18  33  52  75 105 140 177 214 256 305
#     4  10  18  30  50  75 104 135 174 219 259 303
#     4   9  17  31  51  75 103 136 173 211 252 302
#     4  12  23  36  55  79 105 132 168 215 258 306
#     4   9  17  28  46  75 104 131 168 217 262 300
#     4   9  17  30  48  72 103 135 170 211 258 305
#     4  10  19  31  52  79 103 131 170 214 257 300
#     4  10  20  35  54  74 102 141 176 211 256 308
#
# _framework density 19.555416000000001
#
# number of rings (size 3 to 8) (size 9 to 14) (size 15 to 20)
#    0.000    2.250    2.500    1.500    0.000    0.500 
#    0.000    2.500    0.000    7.500    0.000    0.000 
#    0.000    6.000    0.000    0.000    0.000    0.000 
#
# Total GULP energy -178521.190218 kJ/mol
# GULP energy per Si atom -5578.787194 kJ/mol
# Density = 1.951091 g / cm^3
# Si number density = 19.555416 Si / 1000 Ang^3
#
#
#
# Elastic Constant Matrix: (Units=GPa)
#
#
# Indices 1 2 3 4 5 6 
#
# 1 185.3172 -1.2150 74.4395 0.0000 -17.8524 0.0000
# 2 -1.2150 33.8394 -8.7030 0.0000 -2.3729 0.0000
# 3 74.4395 -8.7030 82.6840 0.0000 -15.3651 0.0000
# 4 0.0000 0.0000 0.0000 13.7141 0.0000 1.4273
# 5 -17.8524 -2.3729 -15.3651 0.0000 34.1194 0.0000
# 6 0.0000 0.0000 0.0000 1.4273 0.0000 13.2325
#
#
#
# Elastic Compliance Matrix: (Units=1/GPa)
#
#
# Indices 1 2 3 4 5 6 
#
# 1 0.008574 -0.001615 -0.007723 0.000000 0.000896 0.000000
# 2 -0.001615 0.031155 0.005434 0.000000 0.003769 0.000000
# 3 -0.007723 0.005434 0.020668 0.000000 0.005645 0.000000
# 4 0.000000 0.000000 0.000000 0.073745 0.000000 -0.007954
# 5 0.000896 0.003769 0.005645 0.000000 0.032582 0.000000
# 6 0.000000 0.000000 0.000000 -0.007954 0.000000 0.076429
#
#
# Mechanical properties :
#
#
# Convention : Reuss Voigt Hill
#
# Bulk Modulus (GPa) = 19.01546 47.87593 33.44570
# Shear Modulus (GPa) = 18.62260 28.03447 23.32854
#
# Velocity S-wave (km/s) = 3.08928 3.79039 3.45765
# Velocity P-wave (km/s) = 4.74024 6.60995 5.75158
#
# Compressibility (1/GPa) = 0.05258878
#
# Stress axis : x y z
#
# Youngs Moduli (GPa) = 116.63274 32.09737 48.38486
#
# Poissons Ratio (x) = 0.05185 0.37365
# Poissons Ratio (y) = 0.18841 -0.26292
# Poissons Ratio (z) = 0.90070 -0.17442
#
# Static dielectric constant tensor:
#      x y z
#    x 1.298380 0.000000 -0.930710 
#    y 0.000000 1.721470 0.000000 
#    z -0.930710 0.000000 -0.285820 
# 
# From -- ./inp_files/324341.got.cif
#   From: 2010.05.17/outbox.cif.g08.bks.cpg/sg12_163_cif.got.tgz:324341.got - 2010.06.03 13:09:07.
