data_PCOD9173761
_publ_section_title
;
Structure prediction by ZEFSAII (Michael W. Deem and Ramdas Pophale) SiO2 
 PCOD9173761
Probable space group: C 2/M
;
_chemical_formula_sum "Si O2"
_cell_formula_units_Z 56
_cell_length_a 26.013427
_cell_length_b 7.615266
_cell_length_c 17.428854
_cell_angle_alpha 90.000000
_cell_angle_beta 60.131632
_cell_angle_gamma 90.000000
_cell_volume 2994.033377
_symmetry_space_group_name_H-M "C 2/M"
_symmetry_group_IT_number 12
_symmetry_cell_setting 'monoclinic'
loop_
_space_group_symop_operation_xyz
x,y,z
-x,y,-z
-x,-y,-z
x,-y,z
1/2+x,1/2+y,z
1/2-x,1/2+y,-z
1/2-x,1/2-y,-z
1/2+x,1/2-y,z
loop_
_atom_site_type_symbol
_atom_site_label
_atom_site_fract_x
_atom_site_fract_y
_atom_site_fract_z
Si Si1 0.619191 0.785481 0.394289
Si Si2 0.341664 0.208762 0.896906
Si Si3 0.745294 0.290900 0.721710
Si Si4 0.694289 0.207952 0.595932
Si Si5 0.421083 0.215273 0.407119
Si Si6 0.946208 0.714798 0.713261
Si Si7 0.220294 0.788159 0.907287
O O1 0.687319 0.724130 0.338015
O O2 0.591007 0.731440 0.495942
O O3 0.582246 0.732284 0.347121
O O4 0.619846 0.000000 0.393834
O O5 0.401672 0.275124 0.813283
O O6 0.282919 0.276892 0.896523
O O7 0.341498 0.000000 0.884484
O O8 0.330749 0.238917 0.994825
O O9 0.751248 0.500000 0.726178
O O10 0.708779 0.261817 0.671670
O O11 0.716853 0.225275 0.822267
O O12 0.750000 0.250000 0.500000
O O13 0.633575 0.278326 0.604316
O O14 0.688569 0.000000 0.600373
O O15 0.485909 0.272623 0.331868
O O16 0.420661 0.000000 0.406868
O O17 0.947105 0.500000 0.713247
O O18 0.221939 0.000000 0.906080
#
# Coordination Sequence:
#
# PCOD9173761 Si02
#       7
#     8   8   8   8   8   8   8
#     4   9  14  24  43  69  97 122 150 187 233 280
#     4   9  16  27  46  71  97 121 151 191 236 286
#     4  10  18  31  50  71  97 125 157 195 234 277
#     4  11  21  33  49  70  96 127 162 198 233 273
#     4   9  17  27  43  68  96 124 157 195 231 275
#     4   9  15  25  44  71  98 123 152 192 239 280
#     4   9  17  29  46  69  97 125 152 189 236 283
#
# _framework density 18.703866999999999
#
# number of rings (size 3 to 8) (size 9 to 14) (size 15 to 20)
#    0.000    2.571    2.857    0.857    0.000    2.286 
#    0.000    0.000    0.000    2.571    0.000    7.000 
#    0.000    0.000    0.000    0.000    0.000    0.000 
#
# Total GULP energy -156184.481226 kJ/mol
# GULP energy per Si atom -5578.017187 kJ/mol
# Density = 1.866130 g / cm^3
# Si number density = 18.703867 Si / 1000 Ang^3
#
#
#
# Elastic Constant Matrix: (Units=GPa)
#
#
# Indices 1 2 3 4 5 6 
#
# 1 132.5833 -1.1584 106.3314 0.0000 -11.5039 0.0003
# 2 -1.1584 29.3405 -4.3449 0.0001 -3.0723 0.0005
# 3 106.3314 -4.3449 191.7582 0.0000 -0.8900 -0.0001
# 4 0.0000 0.0001 0.0000 16.6449 0.0000 4.2838
# 5 -11.5039 -3.0723 -0.8900 0.0000 28.9474 0.0001
# 6 0.0003 0.0005 -0.0001 4.2838 0.0001 12.6387
#
#
#
# Elastic Compliance Matrix: (Units=1/GPa)
#
#
# Indices 1 2 3 4 5 6 
#
# 1 0.014402 -0.000037 -0.007962 0.000000 0.005475 0.000000
# 2 -0.000037 0.034588 0.000821 0.000000 0.003682 -0.000001
# 3 -0.007962 0.000821 0.009635 0.000000 -0.002781 0.000000
# 4 0.000000 0.000000 0.000000 0.065820 0.000000 -0.022309
# 5 0.005475 0.003682 -0.002781 0.000000 0.037026 -0.000001
# 6 0.000000 -0.000001 0.000000 -0.022309 -0.000001 0.086684
#
#
# Mechanical properties :
#
#
# Convention : Reuss Voigt Hill
#
# Bulk Modulus (GPa) = 22.58800 61.70424 42.14612
# Shear Modulus (GPa) = 18.03308 28.50312 23.26810
#
# Velocity S-wave (km/s) = 3.10842 3.90797 3.53090
# Velocity P-wave (km/s) = 4.99859 7.30922 6.26141
#
# Compressibility (1/GPa) = 0.04427129
#
# Stress axis : x y z
#
# Youngs Moduli (GPa) = 69.43303 28.91152 103.78390
#
# Poissons Ratio (x) = 0.00107 0.82629
# Poissons Ratio (y) = 0.00258 -0.08524
# Poissons Ratio (z) = 0.55280 -0.02375
#
# Static dielectric constant tensor:
#      x y z
#    x 1.627380 0.000000 -0.006630 
#    y 0.000000 1.757940 0.000000 
#    z -0.006630 0.000000 1.643300 
# 
# From -- ./inp_files/291822.got.cif
#   From: 2010.05.17/outbox.cif.g08.bks.cpg/sg12_146_cif.got.tgz:291822.got - 2010.06.03 13:09:07.
