data_PCOD9173812
_publ_section_title
;
Structure prediction by ZEFSAII (Michael W. Deem and Ramdas Pophale) SiO2 
 PCOD9173812
Probable space group: C 2/M
;
_chemical_formula_sum "Si O2"
_cell_formula_units_Z 64
_cell_length_a 21.199033
_cell_length_b 7.615780
_cell_length_c 20.769629
_cell_angle_alpha 90.000000
_cell_angle_beta 105.792565
_cell_angle_gamma 90.000000
_cell_volume 3226.625763
_symmetry_space_group_name_H-M "C 2/M"
_symmetry_group_IT_number 12
_symmetry_cell_setting 'monoclinic'
loop_
_space_group_symop_operation_xyz
x,y,z
-x,y,-z
-x,-y,-z
x,-y,z
1/2+x,1/2+y,z
1/2-x,1/2+y,-z
1/2-x,1/2-y,-z
1/2+x,1/2-y,z
loop_
_atom_site_type_symbol
_atom_site_label
_atom_site_fract_x
_atom_site_fract_y
_atom_site_fract_z
Si Si1 0.341891 0.788158 0.070793
Si Si2 0.931641 0.715492 0.211163
Si Si3 0.695087 0.786880 0.572600
Si Si4 0.836591 0.703190 0.296857
Si Si5 0.192721 0.702163 0.217960
Si Si6 0.421196 0.215333 0.718696
Si Si7 0.801253 0.793497 0.922207
Si Si8 0.343577 0.791082 0.576488
O O1 0.398592 0.729221 0.134813
O O2 0.271394 0.725357 0.078709
O O3 0.340085 0.000000 0.071150
O O4 0.345432 0.733847 0.997480
O O5 0.930450 0.500000 0.210702
O O6 0.885608 0.777620 0.257169
O O7 0.006162 0.771611 0.242121
O O8 0.666251 0.720485 0.631950
O O9 0.660132 0.722331 0.497575
O O10 0.771696 0.739237 0.587169
O O11 0.692532 0.000000 0.572474
O O12 0.856162 0.500000 0.309830
O O13 0.762556 0.707986 0.249235
O O14 0.203078 0.500000 0.239593
O O15 0.134123 0.772315 0.245736
O O16 0.175738 0.711246 0.137942
O O17 0.397522 0.275014 0.641533
O O18 0.421509 0.000000 0.719010
O O19 0.795199 0.000000 0.908313
O O20 0.353038 0.000000 0.574081
#
# Coordination Sequence:
#
# PCOD9173812 Si02
#       8
#     8   8   8   8   8   8   8   8
#     4   9  17  31  51  74  97 127 164 201 243 292
#     4   9  17  32  51  71  99 132 165 201 246 295
#     4   9  17  27  46  73 100 127 161 205 248 289
#     4  10  18  31  50  74  99 128 166 207 249 289
#     4  11  20  31  50  76 100 127 166 206 243 288
#     4   9  18  31  49  72 100 133 166 203 244 291
#     4  10  19  32  51  76 101 127 159 204 251 288
#     4   9  16  29  46  70 100 130 164 200 243 290
#
# _framework density 19.834962000000001
#
# number of rings (size 3 to 8) (size 9 to 14) (size 15 to 20)
#    0.000    2.500    2.500    0.750    0.000    0.500 
#    0.000    1.250    0.000   12.000    0.000    0.000 
#    0.000    5.000    0.000    0.000    0.000    0.000 
#
# Total GULP energy -178516.772439 kJ/mol
# GULP energy per Si atom -5578.649139 kJ/mol
# Density = 1.978982 g / cm^3
# Si number density = 19.834962 Si / 1000 Ang^3
#
#
#
# Elastic Constant Matrix: (Units=GPa)
#
#
# Indices 1 2 3 4 5 6 
#
# 1 92.1681 -4.7083 63.9518 0.0000 11.7356 0.0000
# 2 -4.7083 39.7978 -3.6883 0.0000 1.0689 0.0000
# 3 63.9518 -3.6883 166.0800 0.0000 11.7957 0.0000
# 4 0.0000 0.0000 0.0000 11.9000 0.0000 0.0661
# 5 11.7356 1.0689 11.7957 0.0000 30.2110 0.0000
# 6 0.0000 0.0000 0.0000 0.0661 0.0000 9.4376
#
#
#
# Elastic Compliance Matrix: (Units=1/GPa)
#
#
# Indices 1 2 3 4 5 6 
#
# 1 0.015279 0.001392 -0.005582 0.000000 -0.003805 0.000000
# 2 0.001392 0.025344 0.000132 0.000000 -0.001489 0.000000
# 3 -0.005582 0.000132 0.008249 0.000000 -0.001057 0.000000
# 4 0.000000 0.000000 0.000000 0.084037 0.000000 -0.000589
# 5 -0.003805 -0.001489 -0.001057 0.000000 0.035044 0.000000
# 6 0.000000 0.000000 0.000000 -0.000589 0.000000 0.105963
#
#
# Mechanical properties :
#
#
# Convention : Reuss Voigt Hill
#
# Bulk Modulus (GPa) = 24.53581 45.46179 34.99880
# Shear Modulus (GPa) = 16.91387 26.47577 21.69482
#
# Velocity S-wave (km/s) = 2.92332 3.65746 3.31080
# Velocity P-wave (km/s) = 4.87763 6.38794 5.68318
#
# Compressibility (1/GPa) = 0.04075675
#
# Stress axis : x y z
#
# Youngs Moduli (GPa) = 65.45131 39.45707 121.23153
#
# Poissons Ratio (x) = -0.05494 0.67673
# Poissons Ratio (y) = -0.09113 -0.01606
# Poissons Ratio (z) = 0.36536 -0.00523
#
# Static dielectric constant tensor:
#      x y z
#    x 1.654430 0.000000 -0.005510 
#    y 0.000000 1.752730 0.000000 
#    z -0.005510 0.000000 1.723160 
# 
# From -- ./inp_files/319256.got.cif
#   From: 2010.05.17/outbox.cif.g08.bks.cpg/sg12_160_cif.got.tgz:319256.got - 2010.06.03 13:09:07.
