data_PCOD9173683
_publ_section_title
;
Structure prediction by ZEFSAII (Michael W. Deem and Ramdas Pophale) SiO2 
 PCOD9173683
Probable space group: C 2/M
;
_chemical_formula_sum "Si O2"
_cell_formula_units_Z 64
_cell_length_a 25.289631
_cell_length_b 9.174136
_cell_length_c 24.074106
_cell_angle_alpha 90.000000
_cell_angle_beta 46.506832
_cell_angle_gamma 90.000000
_cell_volume 4051.997595
_symmetry_space_group_name_H-M "C 2/M"
_symmetry_group_IT_number 12
_symmetry_cell_setting 'monoclinic'
loop_
_space_group_symop_operation_xyz
x,y,z
-x,y,-z
-x,-y,-z
x,-y,z
1/2+x,1/2+y,z
1/2-x,1/2+y,-z
1/2-x,1/2-y,-z
1/2+x,1/2-y,z
loop_
_atom_site_type_symbol
_atom_site_label
_atom_site_fract_x
_atom_site_fract_y
_atom_site_fract_z
Si Si1 0.061124 0.667634 0.504665
Si Si2 0.954158 0.826634 0.660677
Si Si3 0.767982 0.326347 0.093775
Si Si4 0.030077 0.825778 0.916729
Si Si5 0.114347 0.325913 0.185168
Si Si6 0.183490 0.325718 0.814635
Si Si7 0.165166 0.826649 0.349668
Si Si8 0.914343 0.673722 0.921464
O O1 0.073602 0.500000 0.511299
O O2 0.131354 0.740376 0.425683
O O3 0.000000 0.669662 0.500000
O O4 0.025412 0.758833 0.580232
O O5 0.933919 0.749669 0.732640
O O6 0.886983 0.800568 0.666177
O O7 0.961194 0.000000 0.662272
O O8 0.751997 0.500000 0.101947
O O9 0.695852 0.237160 0.132071
O O10 0.794109 0.295742 0.137699
O O11 0.834774 0.292224 0.004525
O O12 0.110249 0.758424 0.853007
O O13 0.975144 0.759594 0.911470
O O14 0.032558 0.000000 0.910534
O O15 0.000000 0.787645 0.000000
O O16 0.115222 0.500000 0.192455
O O17 0.086101 0.294645 0.143586
O O18 0.171499 0.500000 0.818970
O O19 0.252859 0.287040 0.726483
O O20 0.161774 0.000000 0.363071
O O21 0.925509 0.500000 0.921349
#
# Coordination Sequence:
#
# PCOD9173683 Si02
#       8
#     8   8   8   8   8   8   8   8
#     4   9  17  28  44  70 101 133 164 202 251 296
#     4  10  18  31  49  70 100 138 172 202 243 302
#     4  10  19  34  53  73  99 136 175 206 250 307
#     4  11  23  36  52  76 100 127 169 221 268 300
#     4  11  22  33  49  76 105 134 171 214 255 298
#     4  10  19  33  54  75  99 136 175 208 249 306
#     4   9  17  30  47  71  99 132 171 204 242 300
#     4  10  22  38  54  71  97 137 178 212 253 306
#
# _framework density 15.79468
#
# number of rings (size 3 to 8) (size 9 to 14) (size 15 to 20)
#    0.000    2.000    2.500    1.875    0.000    5.000 
#    0.000    0.000    0.000    0.000    0.000    0.875 
#    0.000    0.000    0.000    0.000    0.000    0.000 
#
# Total GULP energy -178595.829176 kJ/mol
# GULP energy per Si atom -5581.119662 kJ/mol
# Density = 1.575873 g / cm^3
# Si number density = 15.794680 Si / 1000 Ang^3
#
#
#
# Elastic Constant Matrix: (Units=GPa)
#
#
# Indices 1 2 3 4 5 6 
#
# 1 74.6673 57.5002 70.0475 0.0002 6.5298 -0.0007
# 2 57.5002 73.9500 82.7682 0.0009 3.4195 -0.0008
# 3 70.0475 82.7682 161.8373 0.0000 -5.4951 0.0000
# 4 0.0002 0.0009 0.0000 29.9715 0.0000 -2.0288
# 5 6.5298 3.4195 -5.4951 0.0000 14.8610 0.0003
# 6 -0.0007 -0.0008 0.0000 -2.0288 0.0003 21.9953
#
#
#
# Elastic Compliance Matrix: (Units=1/GPa)
#
#
# Indices 1 2 3 4 5 6 
#
# 1 0.035855 -0.022142 -0.004614 0.000000 -0.012365 0.000001
# 2 -0.022142 0.048187 -0.015298 -0.000001 -0.007015 0.000001
# 3 -0.004614 -0.015298 0.016395 0.000000 0.011610 -0.000001
# 4 0.000000 -0.000001 0.000000 0.033575 0.000000 0.003097
# 5 -0.012365 -0.007015 0.011610 0.000000 0.078631 -0.000002
# 6 0.000001 0.000001 -0.000001 0.003097 -0.000002 0.045750
#
#
# Mechanical properties :
#
#
# Convention : Reuss Voigt Hill
#
# Bulk Modulus (GPa) = 61.25473 81.23183 71.24328
# Shear Modulus (GPa) = 14.37018 20.04149 17.20583
#
# Velocity S-wave (km/s) = 3.01958 3.56599 3.30410
# Velocity P-wave (km/s) = 7.14305 8.27627 7.73045
#
# Compressibility (1/GPa) = 0.01632527
#
# Stress axis : x y z
#
# Youngs Moduli (GPa) = 27.89048 20.75268 60.99606
#
# Poissons Ratio (x) = 0.45951 0.28146
# Poissons Ratio (y) = 0.61756 0.93314
# Poissons Ratio (z) = 0.12870 0.31748
#
# Static dielectric constant tensor:
#      x y z
#    x 1.489900 0.000000 0.000700 
#    y 0.000000 1.524740 0.000000 
#    z 0.000700 0.000000 1.523520 
# 
# From -- ./inp_files/319786.got.cif
#   From: 2010.05.17/outbox.cif.g08.bks.cpg/sg12_160_cif.got.tgz:319786.got - 2010.06.03 13:09:07.
