data_PCOD9173687
_publ_section_title
;
Structure prediction by ZEFSAII (Michael W. Deem and Ramdas Pophale) SiO2 
 PCOD9173687
Probable space group: C 2/M
;
_chemical_formula_sum "Si O2"
_cell_formula_units_Z 64
_cell_length_a 30.486672
_cell_length_b 9.139855
_cell_length_c 14.123540
_cell_angle_alpha 90.000000
_cell_angle_beta 91.223296
_cell_angle_gamma 90.000000
_cell_volume 3934.539370
_symmetry_space_group_name_H-M "C 2/M"
_symmetry_group_IT_number 12
_symmetry_cell_setting 'monoclinic'
loop_
_space_group_symop_operation_xyz
x,y,z
-x,y,-z
-x,-y,-z
x,-y,z
1/2+x,1/2+y,z
1/2-x,1/2+y,-z
1/2-x,1/2-y,-z
1/2+x,1/2-y,z
loop_
_atom_site_type_symbol
_atom_site_label
_atom_site_fract_x
_atom_site_fract_y
_atom_site_fract_z
Si Si1 0.762604 0.830397 0.182218
Si Si2 0.843160 0.828421 0.333699
Si Si3 0.549178 0.675518 0.971556
Si Si4 0.684297 0.166641 0.962760
Si Si5 0.101488 0.668326 0.814404
Si Si6 0.701645 0.176395 0.492403
Si Si7 0.328503 0.825667 0.719664
Si Si8 0.628739 0.325810 0.114234
O O1 0.801265 0.819320 0.261441
O O2 0.775511 0.732316 0.093937
O O3 0.717693 0.790775 0.231418
O O4 0.761197 0.000000 0.153031
O O5 0.883298 0.756771 0.277609
O O6 0.828501 0.740001 0.425513
O O7 0.850874 0.000000 0.354048
O O8 0.551927 0.500000 0.957425
O O9 0.583772 0.712597 0.056820
O O10 0.500000 0.713239 0.000000
O O11 0.564498 0.754513 0.876251
O O12 0.643952 0.167629 0.885875
O O13 0.691651 0.000000 0.992892
O O14 0.667208 0.261879 0.049130
O O15 0.090790 0.500000 0.791817
O O16 0.750000 0.250000 0.500000
O O17 0.678954 0.210429 0.390503
O O18 0.706523 0.000000 0.499768
O O19 0.365245 0.743226 0.782013
O O20 0.335460 0.000000 0.727441
O O21 0.631989 0.500000 0.119300
#
# Coordination Sequence:
#
# PCOD9173687 Si02
#       8
#     8   8   8   8   8   8   8   8
#     4   9  17  30  45  63  89 125 166 203 240 282
#     4  10  18  31  49  70  97 131 169 211 252 289
#     4   9  18  34  55  78 104 131 158 194 243 299
#     4   9  17  29  45  65  91 125 161 199 240 281
#     4   9  17  29  47  75 103 128 161 201 243 292
#     4  11  21  34  50  70  95 129 173 217 256 290
#     4  10  21  35  47  64  94 130 165 205 249 288
#     4  10  20  33  49  70  94 125 161 198 239 291
#
# _framework density 16.266200000000001
#
# number of rings (size 3 to 8) (size 9 to 14) (size 15 to 20)
#    0.000    2.375    1.250    1.875    0.000    6.250 
#    0.000    0.000    0.000    0.000    0.000    0.875 
#    0.000    7.000    0.000    0.000    0.000    0.000 
#
# Total GULP energy -178505.074585 kJ/mol
# GULP energy per Si atom -5578.283581 kJ/mol
# Density = 1.622918 g / cm^3
# Si number density = 16.266200 Si / 1000 Ang^3
#
#
#
# Elastic Constant Matrix: (Units=GPa)
#
#
# Indices 1 2 3 4 5 6 
#
# 1 69.3277 43.4322 56.5945 0.0000 -16.6250 0.0000
# 2 43.4322 75.4935 68.2039 0.0000 -8.1607 0.0000
# 3 56.5945 68.2039 123.9818 0.0000 -7.6537 0.0000
# 4 0.0000 0.0000 0.0000 29.1057 0.0000 -3.7578
# 5 -16.6250 -8.1607 -7.6537 0.0000 20.8683 0.0000
# 6 0.0000 0.0000 0.0000 -3.7578 0.0000 17.0454
#
#
#
# Elastic Compliance Matrix: (Units=1/GPa)
#
#
# Indices 1 2 3 4 5 6 
#
# 1 0.030786 -0.008072 -0.008486 0.000000 0.018258 0.000000
# 2 -0.008072 0.028992 -0.012238 0.000000 0.000418 0.000000
# 3 -0.008486 -0.012238 0.018375 0.000000 -0.004807 0.000000
# 4 0.000000 0.000000 0.000000 0.035364 0.000000 0.007796
# 5 0.018258 0.000418 -0.004807 0.000000 0.060865 0.000000
# 6 0.000000 0.000000 0.000000 0.007796 0.000000 0.060386
#
#
# Mechanical properties :
#
#
# Convention : Reuss Voigt Hill
#
# Bulk Modulus (GPa) = 48.63476 67.25159 57.94318
# Shear Modulus (GPa) = 16.71046 20.10871 18.40959
#
# Velocity S-wave (km/s) = 3.20865 3.51982 3.36783
# Velocity P-wave (km/s) = 6.60995 7.61268 7.12897
#
# Compressibility (1/GPa) = 0.02056143
#
# Stress axis : x y z
#
# Youngs Moduli (GPa) = 32.48181 34.49254 54.42197
#
# Poissons Ratio (x) = 0.27842 0.46181
# Poissons Ratio (y) = 0.26219 0.66603
# Poissons Ratio (z) = 0.27563 0.42213
#
# Static dielectric constant tensor:
#      x y z
#    x 1.538080 0.000000 0.018270 
#    y 0.000000 1.549740 0.000000 
#    z 0.018270 0.000000 1.547530 
# 
# From -- ./inp_files/248324.got.cif
#   From: 2010.05.17/outbox.cif.g08.bks.cpg/sg12_125_cif.got.tgz:248324.got - 2010.06.03 13:09:07.
