data_PCOD9173689
_publ_section_title
;
Structure prediction by ZEFSAII (Michael W. Deem and Ramdas Pophale) SiO2 
 PCOD9173689
Probable space group: C 2/M
;
_chemical_formula_sum "Si O2"
_cell_formula_units_Z 64
_cell_length_a 20.433115
_cell_length_b 18.277508
_cell_length_c 27.635862
_cell_angle_alpha 90.000000
_cell_angle_beta 159.871211
_cell_angle_gamma 90.000000
_cell_volume 3551.804220
_symmetry_space_group_name_H-M "C 2/M"
_symmetry_group_IT_number 12
_symmetry_cell_setting 'monoclinic'
loop_
_space_group_symop_operation_xyz
x,y,z
-x,y,-z
-x,-y,-z
x,-y,z
1/2+x,1/2+y,z
1/2-x,1/2+y,-z
1/2-x,1/2-y,-z
1/2+x,1/2-y,z
loop_
_atom_site_type_symbol
_atom_site_label
_atom_site_fract_x
_atom_site_fract_y
_atom_site_fract_z
Si Si1 0.181718 0.416859 0.157472
Si Si2 0.662790 0.841643 0.340387
Si Si3 0.242596 0.584531 0.919582
Si Si4 0.897450 0.917058 0.578384
Si Si5 0.565987 0.834131 0.164122
Si Si6 0.868280 0.774184 0.955965
Si Si7 0.822545 0.915761 0.086139
Si Si8 0.471877 0.697573 0.702410
O O1 0.144207 0.500000 0.147215
O O2 0.373722 0.417803 0.260400
O O3 0.202569 0.366278 0.218198
O O4 0.000000 0.393370 0.000000
O O5 0.472124 0.887636 0.220286
O O6 0.830495 0.889814 0.479410
O O7 0.661776 0.826528 0.282551
O O8 0.641085 0.764342 0.352365
O O9 0.245725 0.500000 0.906686
O O10 0.331863 0.641497 0.944138
O O11 0.339744 0.590074 0.040054
O O12 0.845618 0.852858 0.579570
O O13 0.830073 0.000000 0.541129
O O14 0.470537 0.762992 0.073578
O O15 0.392711 0.891931 0.050200
O O16 0.662213 0.733281 0.809691
O O17 0.000000 0.767350 0.000000
O O18 0.953066 0.857815 0.204240
O O19 0.856754 0.000000 0.124399
#
# Coordination Sequence:
#
# PCOD9173689 Si02
#       8
#     8   8   8   8   8   8   8   8
#     4  10  20  33  50  73  99 127 159 196 238 285
#     4  10  21  34  49  69  97 131 164 196 242 292
#     4   9  18  32  49  71  99 127 160 204 246 285
#     4  11  22  34  50  72  98 128 162 197 237 290
#     4  10  18  31  49  71 100 130 159 197 239 285
#     4  10  19  31  50  73  96 127 165 202 243 284
#     4   9  16  28  50  76  98 125 161 199 240 280
#     4  10  19  33  50  70  97 127 162 204 240 281
#
# _framework density 18.019010999999999
#
# number of rings (size 3 to 8) (size 9 to 14) (size 15 to 20)
#    0.000    2.125    0.000    4.875    0.000    6.250 
#    0.000    1.250    0.000    0.375    0.000    0.000 
#    0.000    0.000    0.000   28.875    0.000    2.250 
#
# Total GULP energy -178456.020464 kJ/mol
# GULP energy per Si atom -5576.750639 kJ/mol
# Density = 1.797800 g / cm^3
# Si number density = 18.019011 Si / 1000 Ang^3
#
#
#
# Elastic Constant Matrix: (Units=GPa)
#
#
# Indices 1 2 3 4 5 6 
#
# 1 52.7914 38.6338 10.3366 -0.0093 -10.8645 -0.0040
# 2 38.6338 147.0916 16.3440 0.0162 -14.2741 0.0007
# 3 10.3366 16.3440 43.7012 0.0575 -17.9670 0.0088
# 4 -0.0093 0.0162 0.0575 21.4871 0.0168 -5.1645
# 5 -10.8645 -14.2741 -17.9670 0.0168 21.6803 -0.0006
# 6 -0.0040 0.0007 0.0088 -5.1645 -0.0006 27.5618
#
#
#
# Elastic Compliance Matrix: (Units=1/GPa)
#
#
# Indices 1 2 3 4 5 6 
#
# 1 0.024909 -0.005686 -0.000261 0.000011 0.008522 0.000006
# 2 -0.005686 0.008598 -0.001084 -0.000008 0.001913 -0.000002
# 3 -0.000261 -0.001084 0.034891 -0.000123 0.028070 -0.000034
# 4 0.000011 -0.000008 -0.000123 0.048735 -0.000139 0.009132
# 5 0.008522 0.001913 0.028070 -0.000139 0.074917 -0.000032
# 6 0.000006 -0.000002 -0.000034 0.009132 -0.000032 0.037993
#
#
# Mechanical properties :
#
#
# Convention : Reuss Voigt Hill
#
# Bulk Modulus (GPa) = 18.40472 41.57922 29.99197
# Shear Modulus (GPa) = 19.06807 26.03047 22.54927
#
# Velocity S-wave (km/s) = 3.25656 3.80493 3.54137
# Velocity P-wave (km/s) = 4.93725 6.51372 5.77949
#
# Compressibility (1/GPa) = 0.05433389
#
# Stress axis : x y z
#
# Youngs Moduli (GPa) = 40.14644 116.30471 28.66091
#
# Poissons Ratio (x) = 0.66134 0.00749
# Poissons Ratio (y) = 0.22828 0.03107
# Poissons Ratio (z) = 0.01049 0.12610
#
# Static dielectric constant tensor:
#      x y z
#    x 1.618110 0.000000 -0.015070 
#    y 0.000000 1.638840 -0.000020 
#    z -0.015070 -0.000020 1.651010 
# 
# From -- ./inp_files/177108.got.cif
#   From: 2010.05.17/outbox.cif.g08.bks.cpg/sg12_89_cif.got.tgz:177108.got - 2010.06.03 13:09:07.
