data_PCOD9173346
_publ_section_title
;
Structure prediction by ZEFSAII (Michael W. Deem and Ramdas Pophale) SiO2 
 PCOD9173346
Probable space group: C 2/M
;
_chemical_formula_sum "Si O2"
_cell_formula_units_Z 56
_cell_length_a 9.594716
_cell_length_b 25.579251
_cell_length_c 17.482997
_cell_angle_alpha 90.000000
_cell_angle_beta 38.754105
_cell_angle_gamma 90.000000
_cell_volume 2685.937081
_symmetry_space_group_name_H-M "C 2/M"
_symmetry_group_IT_number 12
_symmetry_cell_setting 'monoclinic'
loop_
_space_group_symop_operation_xyz
x,y,z
-x,y,-z
-x,-y,-z
x,-y,z
1/2+x,1/2+y,z
1/2-x,1/2+y,-z
1/2-x,1/2-y,-z
1/2+x,1/2-y,z
loop_
_atom_site_type_symbol
_atom_site_label
_atom_site_fract_x
_atom_site_fract_y
_atom_site_fract_z
Si Si1 0.682536 0.057833 0.737669
Si Si2 0.266484 0.357777 0.570941
Si Si3 0.160161 0.939342 0.596377
Si Si4 0.171651 0.416240 0.990918
Si Si5 0.200641 0.338195 0.202564
Si Si6 0.685601 0.441719 0.761690
Si Si7 0.318126 0.690468 0.977867
O O1 0.726773 0.100184 0.654945
O O2 0.452496 0.067884 0.878465
O O3 0.889699 0.061544 0.708224
O O4 0.691409 0.000000 0.700366
O O5 0.500000 0.332819 0.500000
O O6 0.274432 0.393182 0.490427
O O7 0.047274 0.321601 0.667012
O O8 0.239065 0.930430 0.649543
O O9 0.222501 0.000000 0.548628
O O10 0.206339 0.353357 0.972499
O O11 0.417475 0.439413 0.882245
O O12 0.000000 0.433840 0.000000
O O13 0.221673 0.398206 0.221304
O O14 0.248759 0.328821 0.092617
O O15 0.416213 0.311906 0.148489
O O16 0.762463 0.500000 0.747379
O O17 0.250000 0.750000 0.000000
#
# Coordination Sequence:
#
# PCOD9173346 Si02
#       7
#     8   8   8   8   8   8   8
#     4  10  18  30  51  84 126 168 212 253 290 352
#     4  10  20  36  59  87 125 170 208 252 289 347
#     4   9  18  32  51  82 124 180 225 240 275 344
#     4  11  20  33  57  89 118 161 210 258 323 372
#     4  10  22  41  61  96 121 155 209 242 307 378
#     4  10  21  35  54  89 136 173 203 249 301 363
#     4  10  23  43  65  89 118 148 196 264 327 382
#
# _framework density 20.849333000000001
#
# number of rings (size 3 to 8) (size 9 to 14) (size 15 to 20)
#    0.000    2.000    2.857    0.857    2.000    4.000 
#    0.000    3.571    0.000    0.857    0.000    0.000 
#    0.000    0.000    0.000    0.000    0.000    0.000 
#
# Total GULP energy -156206.187956 kJ/mol
# GULP energy per Si atom -5578.792427 kJ/mol
# Density = 2.080188 g / cm^3
# Si number density = 20.849333 Si / 1000 Ang^3
#
#
#
# Elastic Constant Matrix: (Units=GPa)
#
#
# Indices 1 2 3 4 5 6 
#
# 1 74.8436 25.3632 22.7095 0.0000 -9.1536 0.0000
# 2 25.3632 69.9725 8.0921 0.0000 -1.8096 0.0000
# 3 22.7095 8.0921 110.0823 0.0000 -20.9950 0.0000
# 4 0.0000 0.0000 0.0000 4.6293 0.0000 -4.5829
# 5 -9.1536 -1.8096 -20.9950 0.0000 40.4651 0.0000
# 6 0.0000 0.0000 0.0000 -4.5829 0.0000 6.6388
#
#
#
# Elastic Compliance Matrix: (Units=1/GPa)
#
#
# Indices 1 2 3 4 5 6 
#
# 1 0.016273 -0.005549 -0.002546 0.000000 0.002112 0.000000
# 2 -0.005549 0.016307 -0.000171 0.000000 -0.000615 0.000000
# 3 -0.002546 -0.000171 0.010555 0.000000 0.004893 0.000000
# 4 0.000000 0.000000 0.000000 0.682282 0.000000 0.470993
# 5 0.002112 -0.000615 0.004893 0.000000 0.027701 0.000000
# 6 0.000000 0.000000 0.000000 0.470993 0.000000 0.475766
#
#
# Mechanical properties :
#
#
# Convention : Reuss Voigt Hill
#
# Bulk Modulus (GPa) = 37.59270 40.80313 39.19792
# Shear Modulus (GPa) = 3.98634 23.59554 13.79094
#
# Velocity S-wave (km/s) = 1.38424 3.36775 2.57467
# Velocity P-wave (km/s) = 4.54143 5.89366 5.26117
#
# Compressibility (1/GPa) = 0.02660091
#
# Stress axis : x y z
#
# Youngs Moduli (GPa) = 61.45276 61.32442 94.74056
#
# Poissons Ratio (x) = 0.34031 0.24124
# Poissons Ratio (y) = 0.34102 0.01622
# Poissons Ratio (z) = 0.15648 0.01050
#
# Static dielectric constant tensor:
#      x y z
#    x 1.795290 0.000000 -0.040760 
#    y 0.000000 1.707050 0.000000 
#    z -0.040760 0.000000 1.791870 
# 
# From -- ./inp_files/260095.got.cif
#   From: 2010.05.17/outbox.cif.g08.bks.cpg/sg12_131_cif.got.tgz:260095.got - 2010.06.03 13:09:07.
