data_PCOD9173457
_publ_section_title
;
Structure prediction by ZEFSAII (Michael W. Deem and Ramdas Pophale) SiO2 
 PCOD9173457
Probable space group: C 2/M
;
_chemical_formula_sum "Si O2"
_cell_formula_units_Z 56
_cell_length_a 23.631588
_cell_length_b 13.208438
_cell_length_c 7.781714
_cell_angle_alpha 90.000000
_cell_angle_beta 107.812437
_cell_angle_gamma 90.000000
_cell_volume 2312.519095
_symmetry_space_group_name_H-M "C 2/M"
_symmetry_group_IT_number 12
_symmetry_cell_setting 'monoclinic'
loop_
_space_group_symop_operation_xyz
x,y,z
-x,y,-z
-x,-y,-z
x,-y,z
1/2+x,1/2+y,z
1/2-x,1/2+y,-z
1/2-x,1/2-y,-z
1/2+x,1/2-y,z
loop_
_atom_site_type_symbol
_atom_site_label
_atom_site_fract_x
_atom_site_fract_y
_atom_site_fract_z
Si Si1 0.954674 0.184865 0.714053
Si Si2 0.293024 0.385054 0.046104
Si Si3 0.675606 0.880387 0.075501
Si Si4 0.168538 0.170301 0.546795
Si Si5 0.783732 0.616415 0.488526
Si Si6 0.063437 0.387848 0.143949
Si Si7 0.578730 0.620702 0.931423
O O1 0.900658 0.146580 0.546705
O O2 0.941574 0.304608 0.714792
O O3 0.025033 0.163631 0.761091
O O4 0.939954 0.141393 0.889860
O O5 0.288500 0.500000 0.974208
O O6 0.225645 0.342002 0.991121
O O7 0.310435 0.385591 0.263176
O O8 0.353174 0.340382 0.022610
O O9 0.695792 0.867970 0.293640
O O10 0.606995 0.853000 0.030993
O O11 0.675567 0.000000 0.040530
O O12 0.184253 0.290556 0.577598
O O13 0.212370 0.134472 0.432652
O O14 0.795821 0.500000 0.449184
O O15 0.081329 0.500000 0.220764
O O16 0.000000 0.393634 0.000000
O O17 0.579950 0.500000 0.901319
#
# Coordination Sequence:
#
# PCOD9173457 Si02
#       7
#     8   8   8   8   8   8   8
#     4  11  20  34  55  81 107 134 180 223 265 313
#     4   9  19  36  55  77 106 140 177 216 268 323
#     4   8  14  28  51  76 101 132 172 215 257 306
#     4  10  19  30  55  82 102 137 180 222 257 309
#     4   9  17  30  50  78 110 138 174 217 264 313
#     4  10  18  30  53  81 106 136 178 222 258 304
#     4  10  22  38  53  73 109 147 173 215 274 322
#
# _framework density 24.216016
#
# number of rings (size 3 to 8) (size 9 to 14) (size 15 to 20)
#    0.000    2.429    2.857    2.143    0.000    2.857 
#    0.000    2.143    0.000    1.714    0.000    2.000 
#    0.000    0.000    0.000    0.000    0.000    0.571 
#
# Total GULP energy -156100.048574 kJ/mol
# GULP energy per Si atom -5575.001735 kJ/mol
# Density = 2.416090 g / cm^3
# Si number density = 24.216016 Si / 1000 Ang^3
#
#
#
# Elastic Constant Matrix: (Units=GPa)
#
#
# Indices 1 2 3 4 5 6 
#
# 1 199.5185 21.5260 23.4174 0.0000 24.5245 0.0000
# 2 21.5260 118.0565 -11.4191 0.0000 -10.4949 0.0000
# 3 23.4174 -11.4191 47.6791 0.0000 21.5383 0.0000
# 4 0.0000 0.0000 0.0000 1.0854 0.0000 -11.3602
# 5 24.5245 -10.4949 21.5383 0.0000 25.6453 0.0000
# 6 0.0000 0.0000 0.0000 -11.3602 0.0000 29.6308
#
#
#
# Elastic Compliance Matrix: (Units=1/GPa)
#
#
# Indices 1 2 3 4 5 6 
#
# 1 0.005992 -0.001679 -0.000719 0.000000 -0.005814 0.000000
# 2 -0.001679 0.009278 0.000977 0.000000 0.004582 0.000000
# 3 -0.000719 0.000977 0.033950 0.000000 -0.027426 0.000000
# 4 0.000000 0.000000 0.000000 -0.305804 0.000000 -0.117243
# 5 -0.005814 0.004582 -0.027426 0.000000 0.069462 0.000000
# 6 0.000000 0.000000 0.000000 -0.117243 0.000000 -0.011201
#
#
# Mechanical properties :
#
#
# Convention : Reuss Voigt Hill
#
# Bulk Modulus (GPa) = 21.56183 48.03365 34.79774
# Shear Modulus (GPa) = -27.77447 33.38761 2.80657
#
# Velocity S-wave (km/s) = -3.39033 3.71717 1.07772
# Velocity P-wave (km/s) = 2.53032 6.18883 3.99369
#
# Compressibility (1/GPa) = 0.04637826
#
# Stress axis : x y z
#
# Youngs Moduli (GPa) = 166.88394 107.77621 29.45533
#
# Poissons Ratio (x) = 0.18095 0.02118
# Poissons Ratio (y) = 0.28019 -0.02877
# Poissons Ratio (z) = 0.11998 -0.10528
#
# Static dielectric constant tensor:
#      x y z
#    x 2.044000 0.000000 0.035550 
#    y 0.000000 2.029950 0.000000 
#    z 0.035550 0.000000 1.916010 
# 
# From -- ./inp_files/96469.got.cif
#   From: 2010.05.17/outbox.cif.g08.bks.cpg/sg12_49_cif.got.tgz:96469.got - 2010.06.03 13:09:07.
