data_PCOD9173141
_publ_section_title
;
Structure prediction by ZEFSAII (Michael W. Deem and Ramdas Pophale) SiO2 
 PCOD9173141
Probable space group: C 2/M
;
_chemical_formula_sum "Si O2"
_cell_formula_units_Z 56
_cell_length_a 19.771288
_cell_length_b 9.186612
_cell_length_c 28.951248
_cell_angle_alpha 90.000000
_cell_angle_beta 141.154083
_cell_angle_gamma 90.000000
_cell_volume 3298.247058
_symmetry_space_group_name_H-M "C 2/M"
_symmetry_group_IT_number 12
_symmetry_cell_setting 'monoclinic'
loop_
_space_group_symop_operation_xyz
x,y,z
-x,y,-z
-x,-y,-z
x,-y,z
1/2+x,1/2+y,z
1/2-x,1/2+y,-z
1/2-x,1/2-y,-z
1/2+x,1/2-y,z
loop_
_atom_site_type_symbol
_atom_site_label
_atom_site_fract_x
_atom_site_fract_y
_atom_site_fract_z
Si Si1 0.561134 0.326068 0.103024
Si Si2 0.714853 0.174867 0.257143
Si Si3 0.572393 0.673036 0.682663
Si Si4 0.663497 0.326105 0.056394
Si Si5 0.605804 0.173914 0.292564
Si Si6 0.883491 0.171684 0.185336
Si Si7 0.649832 0.825871 0.422121
O O1 0.564796 0.500000 0.112345
O O2 0.623887 0.244586 0.176435
O O3 0.620747 0.297613 0.085815
O O4 0.436021 0.283900 0.029614
O O5 0.832069 0.219518 0.300725
O O6 0.688645 0.212005 0.296051
O O7 0.709949 0.000000 0.249617
O O8 0.551371 0.500000 0.665666
O O9 0.613040 0.694026 0.757064
O O10 0.462747 0.762273 0.618766
O O11 0.679454 0.500000 0.061008
O O12 0.774977 0.243679 0.108563
O O13 0.492355 0.254428 0.224907
O O14 0.648240 0.208766 0.366375
O O15 0.586867 0.000000 0.281080
O O16 0.884631 0.000000 0.177059
O O17 0.750000 0.750000 0.500000
O O18 0.654242 0.000000 0.429814
#
# Coordination Sequence:
#
# PCOD9173141 Si02
#       7
#     8   8   8   8   8   8   8
#     4   9  18  30  47  72 102 136 172 214 259 302
#     4  10  19  34  53  76 105 135 169 211 256 302
#     4   9  18  32  52  78 104 131 165 207 250 297
#     4   9  17  30  47  70 101 136 174 214 258 305
#     4   9  20  36  54  75 103 138 169 201 252 311
#     4  10  18  30  50  76 101 130 173 221 258 293
#     4  10  20  36  58  81 103 132 167 203 244 296
#
# _framework density 16.978715000000001
#
# number of rings (size 3 to 8) (size 9 to 14) (size 15 to 20)
#    0.000    2.571    1.429    1.714    0.000    2.857 
#    0.000    2.857    0.000    4.286    0.000    0.000 
#    0.000    0.000    0.000    0.000    0.000    0.000 
#
# Total GULP energy -156149.046716 kJ/mol
# GULP energy per Si atom -5576.751668 kJ/mol
# Density = 1.694007 g / cm^3
# Si number density = 16.978715 Si / 1000 Ang^3
#
#
#
# Elastic Constant Matrix: (Units=GPa)
#
#
# Indices 1 2 3 4 5 6 
#
# 1 115.1520 40.4050 60.4240 0.0000 15.1734 0.0000
# 2 40.4050 33.7882 53.0028 0.0000 9.1678 0.0000
# 3 60.4240 53.0028 132.3812 0.0000 20.6789 0.0000
# 4 0.0000 0.0000 0.0000 33.9950 0.0000 4.7059
# 5 15.1734 9.1678 20.6789 0.0000 16.3054 0.0000
# 6 0.0000 0.0000 0.0000 4.7059 0.0000 20.5972
#
#
#
# Elastic Compliance Matrix: (Units=1/GPa)
#
#
# Indices 1 2 3 4 5 6 
#
# 1 0.015375 -0.019452 0.001617 0.000000 -0.005422 0.000000
# 2 -0.019452 0.104568 -0.033211 0.000000 0.001427 0.000000
# 3 0.001617 -0.033211 0.021737 0.000000 -0.010400 0.000000
# 4 0.000000 0.000000 0.000000 0.030377 0.000000 -0.006940
# 5 -0.005422 0.001427 -0.010400 0.000000 0.078762 0.000000
# 6 0.000000 0.000000 0.000000 -0.006940 0.000000 0.050136
#
#
# Mechanical properties :
#
#
# Convention : Reuss Voigt Hill
#
# Bulk Modulus (GPa) = 25.25977 65.44277 45.35127
# Shear Modulus (GPa) = 12.01219 22.67884 17.34552
#
# Velocity S-wave (km/s) = 2.66275 3.65872 3.19972
# Velocity P-wave (km/s) = 4.93591 7.51505 6.35764
#
# Compressibility (1/GPa) = 0.03958865
#
# Stress axis : x y z
#
# Youngs Moduli (GPa) = 65.03865 9.56314 46.00388
#
# Poissons Ratio (x) = 0.18603 -0.07440
# Poissons Ratio (y) = 1.26516 1.52784
# Poissons Ratio (z) = -0.10519 0.31760
#
# Static dielectric constant tensor:
#      x y z
#    x 1.579410 0.000000 -0.003090 
#    y 0.000000 1.560310 0.000000 
#    z -0.003090 0.000000 1.546240 
# 
# From -- ./inp_files/275600.got.cif
#   From: 2010.05.17/outbox.cif.g08.bks.cpg/sg12_138_cif.got.tgz:275600.got - 2010.06.03 13:09:07.
