data_PCOD9173087
_publ_section_title
;
Structure prediction by ZEFSAII (Michael W. Deem and Ramdas Pophale) SiO2 
 PCOD9173087
Probable space group: C 2/M
;
_chemical_formula_sum "Si O2"
_cell_formula_units_Z 40
_cell_length_a 17.240179
_cell_length_b 30.160355
_cell_length_c 11.030289
_cell_angle_alpha 90.000000
_cell_angle_beta 158.668551
_cell_angle_gamma 90.000000
_cell_volume 2086.330568
_symmetry_space_group_name_H-M "C 2/M"
_symmetry_group_IT_number 12
_symmetry_cell_setting 'monoclinic'
loop_
_space_group_symop_operation_xyz
x,y,z
-x,y,-z
-x,-y,-z
x,-y,z
1/2+x,1/2+y,z
1/2-x,1/2+y,-z
1/2-x,1/2-y,-z
1/2+x,1/2-y,z
loop_
_atom_site_type_symbol
_atom_site_label
_atom_site_fract_x
_atom_site_fract_y
_atom_site_fract_z
Si Si1 0.342789 0.000000 0.658019
Si Si2 0.641202 0.000000 0.586860
Si Si3 0.317523 0.212519 0.000672
Si Si4 0.275219 0.273810 0.738664
Si Si5 0.490431 0.575801 0.119407
Si Si6 0.240793 0.646914 0.883718
O O1 0.191486 0.956005 0.439679
O O2 0.455683 0.000000 0.689694
O O3 0.500000 0.000000 0.000000
O O4 0.500000 0.000000 0.500000
O O5 0.795135 0.042052 0.818952
O O6 0.573778 0.215559 0.361826
O O7 0.259986 0.166656 0.981863
O O8 0.250000 0.250000 0.000000
O O9 0.227048 0.227992 0.740674
O O10 0.276854 0.312285 0.842935
O O11 0.500000 0.272061 0.000000
O O12 0.500000 0.598424 0.000000
O O13 0.420204 0.610836 0.117537
O O14 0.000000 0.630523 0.500000
#
# Coordination Sequence:
#
# PCOD9173087 Si02
#       6
#     4   4   8   8   8   8
#     4   9  19  35  56  82 112 141 167 209 272 324
#     4   9  17  31  56  82 100 133 175 209 250 312
#     4   9  18  31  48  70  98 134 172 216 264 311
#     4  10  18  30  50  73  97 134 177 218 263 312
#     4   9  17  31  53  78 103 134 174 213 252 312
#     4   9  17  29  49  75 100 130 174 222 261 300
#
# _framework density 19.172418
#
# number of rings (size 3 to 8) (size 9 to 14) (size 15 to 20)
#    0.000    2.800    0.000    4.800    0.000    0.000 
#    0.000    2.000    0.000   60.000    0.000    0.000 
#    0.000    0.000    0.000    0.000    0.000    0.000 
#
# Total GULP energy -111416.386359 kJ/mol
# GULP energy per Si atom -5570.819318 kJ/mol
# Density = 1.912878 g / cm^3
# Si number density = 19.172418 Si / 1000 Ang^3
#
#
#
# Elastic Constant Matrix: (Units=GPa)
#
#
# Indices 1 2 3 4 5 6 
#
# 1 93.5876 21.4051 51.0783 -0.0001 8.1805 0.0001
# 2 21.4051 58.2942 18.4021 0.0001 -2.2217 0.0000
# 3 51.0783 18.4021 76.8909 -0.0006 -0.3597 0.0003
# 4 -0.0001 0.0001 -0.0006 11.9700 -0.0003 10.9814
# 5 8.1805 -2.2217 -0.3597 -0.0003 31.6211 0.0001
# 6 0.0001 0.0000 0.0003 10.9814 0.0001 31.7335
#
#
#
# Elastic Compliance Matrix: (Units=1/GPa)
#
#
# Indices 1 2 3 4 5 6 
#
# 1 0.017971 -0.003260 -0.011181 -0.000001 -0.005005 0.000000
# 2 -0.003260 0.019197 -0.002419 0.000000 0.002165 0.000000
# 3 -0.011181 -0.002419 0.021026 0.000002 0.002962 -0.000001
# 4 -0.000001 0.000000 0.000002 0.122401 0.000001 -0.042357
# 5 -0.005005 0.002165 0.002962 0.000001 0.033105 -0.000001
# 6 0.000000 0.000000 -0.000001 -0.042357 -0.000001 0.046170
#
#
# Mechanical properties :
#
#
# Convention : Reuss Voigt Hill
#
# Bulk Modulus (GPa) = 40.85921 45.61597 43.23759
# Shear Modulus (GPa) = 16.57015 24.25739 20.41377
#
# Velocity S-wave (km/s) = 2.94304 3.56086 3.26659
# Velocity P-wave (km/s) = 5.73640 6.38361 6.06864
#
# Compressibility (1/GPa) = 0.02447429
#
# Stress axis : x y z
#
# Youngs Moduli (GPa) = 55.64606 52.09036 47.56063
#
# Poissons Ratio (x) = 0.16980 0.53178
# Poissons Ratio (y) = 0.18140 0.11504
# Poissons Ratio (z) = 0.62219 0.12600
#
# Static dielectric constant tensor:
#      x y z
#    x 1.720700 0.000000 -0.000030 
#    y 0.000000 1.663080 0.000000 
#    z -0.000030 0.000000 1.691920 
# 
# From -- ./inp_files/161138.got.cif
#   From: 2010.05.17/outbox.cif.g08.bks.cpg/sg12_81_cif.got.tgz:161138.got - 2010.06.03 13:09:07.
