data_PCOD9173125
_publ_section_title
;
Structure prediction by ZEFSAII (Michael W. Deem and Ramdas Pophale) SiO2 
 PCOD9173125
Probable space group: C 2/M
;
_chemical_formula_sum "Si O2"
_cell_formula_units_Z 56
_cell_length_a 19.849116
_cell_length_b 8.983774
_cell_length_c 32.268570
_cell_angle_alpha 90.000000
_cell_angle_beta 145.502840
_cell_angle_gamma 90.000000
_cell_volume 3258.940348
_symmetry_space_group_name_H-M "C 2/M"
_symmetry_group_IT_number 12
_symmetry_cell_setting 'monoclinic'
loop_
_space_group_symop_operation_xyz
x,y,z
-x,y,-z
-x,-y,-z
x,-y,z
1/2+x,1/2+y,z
1/2-x,1/2+y,-z
1/2-x,1/2-y,-z
1/2+x,1/2-y,z
loop_
_atom_site_type_symbol
_atom_site_label
_atom_site_fract_x
_atom_site_fract_y
_atom_site_fract_z
Si Si1 0.610805 0.178568 0.694792
Si Si2 0.833712 0.676850 0.183832
Si Si3 0.063878 0.322453 0.898293
Si Si4 0.088473 0.177700 0.299827
Si Si5 0.356622 0.677403 0.579364
Si Si6 0.175324 0.178821 0.254123
Si Si7 0.265291 0.177116 0.942233
O O1 0.672775 0.211701 0.770591
O O2 0.484249 0.259225 0.629868
O O3 0.700330 0.221842 0.703660
O O4 0.590901 0.000000 0.683357
O O5 0.827031 0.500000 0.175111
O O6 0.739969 0.755368 0.106206
O O7 0.963948 0.735479 0.236300
O O8 0.063587 0.500000 0.891835
O O9 0.156568 0.248880 0.913088
O O10 0.934870 0.255510 0.824782
O O11 0.117388 0.291817 0.971073
O O12 0.151200 0.211144 0.375309
O O13 0.162786 0.213806 0.296473
O O14 0.062695 0.000000 0.286128
O O15 0.354349 0.500000 0.573261
O O16 0.250000 0.750000 0.500000
O O17 0.163485 0.000000 0.243540
O O18 0.247977 0.000000 0.931717
#
# Coordination Sequence:
#
# PCOD9173125 Si02
#       7
#     8   8   8   8   8   8   8
#     4   9  20  36  54  78 107 138 170 208 257 310
#     4  10  18  30  50  75 101 132 175 220 257 301
#     4  10  20  31  47  73 102 134 174 221 265 303
#     4   9  18  32  53  78 101 132 173 211 252 304
#     4  10  20  36  58  82 106 134 169 209 253 304
#     4  10  19  34  54  76 105 138 171 211 261 311
#     4  10  19  31  47  70 101 136 176 219 263 308
#
# _framework density 17.183499999999999
#
# number of rings (size 3 to 8) (size 9 to 14) (size 15 to 20)
#    0.000    2.286    1.429    1.714    0.000    3.429 
#    0.000    1.429    0.000    8.571    0.000    0.000 
#    0.000    0.000    0.000    0.000    0.000    0.000 
#
# Total GULP energy -156193.674033 kJ/mol
# GULP energy per Si atom -5578.345501 kJ/mol
# Density = 1.714439 g / cm^3
# Si number density = 17.183500 Si / 1000 Ang^3
#
#
#
# Elastic Constant Matrix: (Units=GPa)
#
#
# Indices 1 2 3 4 5 6 
#
# 1 115.5206 40.8101 56.6704 0.0000 -3.5744 0.0000
# 2 40.8101 44.5068 52.4997 0.0000 -5.3946 0.0001
# 3 56.6704 52.4997 127.3884 0.0000 -8.8194 0.0000
# 4 0.0000 0.0000 0.0000 33.7412 0.0000 -1.0499
# 5 -3.5744 -5.3946 -8.8194 0.0000 16.6701 0.0000
# 6 0.0000 0.0001 0.0000 -1.0499 0.0000 19.8581
#
#
#
# Elastic Compliance Matrix: (Units=1/GPa)
#
#
# Indices 1 2 3 4 5 6 
#
# 1 0.013019 -0.010043 -0.001749 0.000000 -0.001384 0.000000
# 2 -0.010043 0.051843 -0.016490 0.000000 0.005900 0.000000
# 3 -0.001749 -0.016490 0.015600 0.000000 0.002542 0.000000
# 4 0.000000 0.000000 0.000000 0.029686 0.000000 0.001570
# 5 -0.001384 0.005900 0.002542 0.000000 0.062945 0.000000
# 6 0.000000 0.000000 0.000000 0.001570 0.000000 0.050440
#
#
# Mechanical properties :
#
#
# Convention : Reuss Voigt Hill
#
# Bulk Modulus (GPa) = 41.84132 65.26405 53.55268
# Shear Modulus (GPa) = 17.35730 23.21625 20.28677
#
# Velocity S-wave (km/s) = 3.18168 3.67969 3.43971
# Velocity P-wave (km/s) = 6.15630 7.49110 6.85626
#
# Compressibility (1/GPa) = 0.02389982
#
# Stress axis : x y z
#
# Youngs Moduli (GPa) = 76.80840 19.28883 64.10380
#
# Poissons Ratio (x) = 0.19372 0.11210
# Poissons Ratio (y) = 0.77139 1.05705
# Poissons Ratio (z) = 0.13431 0.31807
#
# Static dielectric constant tensor:
#      x y z
#    x 1.580820 0.000000 -0.032940 
#    y 0.000000 1.574180 0.000000 
#    z -0.032940 0.000000 1.572280 
# 
# From -- ./inp_files/314459.got.cif
#   From: 2010.05.17/outbox.cif.g08.bks.cpg/sg12_158_cif.got.tgz:314459.got - 2010.06.03 13:09:07.
