data_PCOD9173709
_publ_section_title
;
Structure prediction by ZEFSAII (Michael W. Deem and Ramdas Pophale) SiO2 
 PCOD9173709
Probable space group: C 2/M
;
_chemical_formula_sum "Si O2"
_cell_formula_units_Z 56
_cell_length_a 17.980077
_cell_length_b 14.217911
_cell_length_c 14.371064
_cell_angle_alpha 90.000000
_cell_angle_beta 125.989806
_cell_angle_gamma 90.000000
_cell_volume 2972.555935
_symmetry_space_group_name_H-M "C 2/M"
_symmetry_group_IT_number 12
_symmetry_cell_setting 'monoclinic'
loop_
_space_group_symop_operation_xyz
x,y,z
-x,y,-z
-x,-y,-z
x,-y,z
1/2+x,1/2+y,z
1/2-x,1/2+y,-z
1/2-x,1/2-y,-z
1/2+x,1/2-y,z
loop_
_atom_site_type_symbol
_atom_site_label
_atom_site_fract_x
_atom_site_fract_y
_atom_site_fract_z
Si Si1 0.127588 0.783008 0.783015
Si Si2 0.058245 0.890500 0.377262
Si Si3 0.899501 0.278033 0.445370
Si Si4 0.363786 0.105435 0.731957
Si Si5 0.696549 0.890363 0.115509
Si Si6 0.434499 0.110123 0.148448
Si Si7 0.745384 0.856599 0.529199
O O1 0.132230 0.760062 0.676883
O O2 0.220683 0.837386 0.873814
O O3 0.119579 0.683988 0.828898
O O4 0.037118 0.848317 0.732489
O O5 0.083523 0.814820 0.477272
O O6 0.149742 0.888733 0.379145
O O7 0.045943 0.000000 0.398053
O O8 0.828158 0.350056 0.441281
O O9 0.000000 0.322119 0.500000
O O10 0.321785 0.148806 0.794074
O O11 0.460472 0.146412 0.771000
O O12 0.297205 0.098345 0.595157
O O13 0.389861 0.000000 0.781488
O O14 0.723923 0.000000 0.144239
O O15 0.606047 0.885283 0.985441
O O16 0.428762 0.000000 0.174291
O O17 0.750000 0.750000 0.500000
#
# Coordination Sequence:
#
# PCOD9173709 Si02
#       7
#     8   8   8   8   8   8   8
#     4  11  21  34  53  76 107 142 171 207 255 309
#     4  10  20  33  52  79 109 139 170 209 259 310
#     4   9  19  32  50  75 107 140 172 208 248 302
#     4  10  19  33  54  77 100 128 166 216 267 304
#     4  10  20  34  55  81 103 127 168 221 271 309
#     4  10  21  37  54  74 102 136 176 218 257 303
#     4  10  18  31  49  73 107 138 166 199 242 305
#
# _framework density 18.839006000000001
#
# number of rings (size 3 to 8) (size 9 to 14) (size 15 to 20)
#    0.000    2.000    0.000    6.000    0.000    6.000 
#    0.000    1.429    0.000    7.286    0.000    0.000 
#    0.000   17.143    0.000    0.000    0.000    0.000 
#
# Total GULP energy -155885.780447 kJ/mol
# GULP energy per Si atom -5567.349302 kJ/mol
# Density = 1.879613 g / cm^3
# Si number density = 18.839006 Si / 1000 Ang^3
#
#
#
# Elastic Constant Matrix: (Units=GPa)
#
#
# Indices 1 2 3 4 5 6 
#
# 1 69.4662 13.6712 -4.0266 0.0000 1.5641 0.0000
# 2 13.6712 66.9676 0.0226 0.0000 -7.7767 0.0000
# 3 -4.0266 0.0226 27.2070 0.0000 8.1245 0.0000
# 4 0.0000 0.0000 0.0000 15.3303 0.0000 6.5624
# 5 1.5641 -7.7767 8.1245 0.0000 18.4734 0.0000
# 6 0.0000 0.0000 0.0000 6.5624 0.0000 22.5692
#
#
#
# Elastic Compliance Matrix: (Units=1/GPa)
#
#
# Indices 1 2 3 4 5 6 
#
# 1 0.015426 -0.003666 0.003611 0.000000 -0.004437 0.000000
# 2 -0.003666 0.016696 -0.003163 0.000000 0.008730 0.000000
# 3 0.003611 -0.003163 0.043493 0.000000 -0.020766 0.000000
# 4 0.000000 0.000000 0.000000 0.074504 0.000000 -0.021663
# 5 -0.004437 0.008730 -0.020766 0.000000 0.067315 0.000000
# 6 0.000000 0.000000 0.000000 -0.021663 0.000000 0.050607
#
#
# Mechanical properties :
#
#
# Convention : Reuss Voigt Hill
#
# Bulk Modulus (GPa) = 14.45511 20.33057 17.39284
# Shear Modulus (GPa) = 16.80462 21.53948 19.17205
#
# Velocity S-wave (km/s) = 2.98990 3.38501 3.19357
# Velocity P-wave (km/s) = 4.42820 5.10812 4.78026
#
# Compressibility (1/GPa) = 0.06917970
#
# Stress axis : x y z
#
# Youngs Moduli (GPa) = 64.82499 59.89528 22.99197
#
# Poissons Ratio (x) = 0.21956 -0.08303
# Poissons Ratio (y) = 0.23763 0.07273
# Poissons Ratio (z) = -0.23410 0.18947
#
# Static dielectric constant tensor:
#      x y z
#    x 1.746010 0.000000 0.022340 
#    y 0.000000 1.669730 0.000000 
#    z 0.022340 0.000000 1.647740 
# 
# From -- ./inp_files/156709.got.cif
#   From: 2010.05.17/outbox.cif.g08.bks.cpg/sg12_79_cif.got.tgz:156709.got - 2010.06.03 13:09:07.
