data_PCOD9173718
_publ_section_title
;
Structure prediction by ZEFSAII (Michael W. Deem and Ramdas Pophale) SiO2 
 PCOD9173718
Probable space group: C 2/M
;
_chemical_formula_sum "Si O2"
_cell_formula_units_Z 48
_cell_length_a 28.829926
_cell_length_b 27.030171
_cell_length_c 11.741791
_cell_angle_alpha 90.000000
_cell_angle_beta 161.251403
_cell_angle_gamma 90.000000
_cell_volume 2940.996678
_symmetry_space_group_name_H-M "C 2/M"
_symmetry_group_IT_number 12
_symmetry_cell_setting 'monoclinic'
loop_
_space_group_symop_operation_xyz
x,y,z
-x,y,-z
-x,-y,-z
x,-y,z
1/2+x,1/2+y,z
1/2-x,1/2+y,-z
1/2-x,1/2-y,-z
1/2+x,1/2-y,z
loop_
_atom_site_type_symbol
_atom_site_label
_atom_site_fract_x
_atom_site_fract_y
_atom_site_fract_z
Si Si1 0.000146 0.799329 0.875368
Si Si2 0.433228 0.444908 0.217883
Si Si3 0.157565 0.125657 0.657968
Si Si4 0.941641 0.665916 0.239147
Si Si5 0.251143 0.645285 0.871717
Si Si6 0.776586 0.762977 0.767552
O O1 0.933107 0.834744 0.624032
O O2 0.889191 0.753448 0.626609
O O3 0.000000 0.822878 0.000000
O O4 0.155458 0.783639 0.190450
O O5 0.500000 0.447966 0.500000
O O6 0.384674 0.500000 0.072447
O O7 0.564169 0.424057 0.445902
O O8 0.311685 0.402384 0.945066
O O9 0.315691 0.125813 0.969090
O O10 0.179967 0.143280 0.841119
O O11 0.000000 0.680440 0.500000
O O12 0.078626 0.646144 0.488434
O O13 0.868155 0.714193 0.013711
O O14 0.291718 0.695186 0.899487
#
# Coordination Sequence:
#
# PCOD9173718 Si02
#       6
#     8   8   8   8   8   8
#     4  11  22  33  45  67 101 134 163 191 230 278
#     4   9  17  30  51  74  94 118 154 199 248 290
#     4   9  19  32  49  69  98 126 159 199 235 285
#     4   9  19  28  45  72 101 127 156 190 236 284
#     4  10  18  31  49  74  97 123 160 196 246 278
#     4  11  20  31  49  69  98 130 161 199 228 282
#
# _framework density 16.320997999999999
#
# number of rings (size 3 to 8) (size 9 to 14) (size 15 to 20)
#    0.000    2.167    3.333    0.500    2.333    2.000 
#    0.000    0.833    0.000    5.500    0.000    0.000 
#    0.000    6.000    0.000    0.000    0.000    0.000 
#
# Total GULP energy -133672.839569 kJ/mol
# GULP energy per Si atom -5569.701649 kJ/mol
# Density = 1.628385 g / cm^3
# Si number density = 16.320998 Si / 1000 Ang^3
#
#
#
# Elastic Constant Matrix: (Units=GPa)
#
#
# Indices 1 2 3 4 5 6 
#
# 1 75.5296 33.9625 29.2594 0.0000 21.8339 0.0000
# 2 33.9625 83.9609 28.6568 0.0000 15.7167 0.0000
# 3 29.2594 28.6568 45.0573 0.0000 17.0534 0.0000
# 4 0.0000 0.0000 0.0000 6.2588 0.0000 4.0122
# 5 21.8339 15.7167 17.0534 0.0000 24.9564 0.0000
# 6 0.0000 0.0000 0.0000 4.0122 0.0000 10.4475
#
#
#
# Elastic Compliance Matrix: (Units=1/GPa)
#
#
# Indices 1 2 3 4 5 6 
#
# 1 0.020903 -0.004061 -0.006795 0.000000 -0.011087 0.000000
# 2 -0.004061 0.016304 -0.007002 0.000000 -0.001931 0.000000
# 3 -0.006795 -0.007002 0.036609 0.000000 -0.014661 0.000000
# 4 0.000000 0.000000 0.000000 0.211955 0.000000 -0.081398
# 5 -0.011087 -0.001931 -0.014661 0.000000 0.061004 0.000000
# 6 0.000000 0.000000 0.000000 -0.081398 0.000000 0.126976
#
#
# Mechanical properties :
#
#
# Convention : Reuss Voigt Hill
#
# Bulk Modulus (GPa) = 26.24623 43.14501 34.69562
# Shear Modulus (GPa) = 9.57546 15.84381 12.70963
#
# Velocity S-wave (km/s) = 2.42481 3.11909 2.79360
# Velocity P-wave (km/s) = 4.89446 6.28206 5.63116
#
# Compressibility (1/GPa) = 0.03810071
#
# Stress axis : x y z
#
# Youngs Moduli (GPa) = 47.83943 61.33429 27.31566
#
# Poissons Ratio (x) = 0.24906 0.18562
# Poissons Ratio (y) = 0.19426 0.19126
# Poissons Ratio (z) = 0.32508 0.42945
#
# Static dielectric constant tensor:
#      x y z
#    x 1.566590 0.000000 0.017630 
#    y 0.000000 1.531070 0.000000 
#    z 0.017630 0.000000 1.569220 
# 
# From -- ./inp_files/170107.got.cif
#   From: 2010.05.17/outbox.cif.g08.bks.cpg/sg12_86_cif.got.tgz:170107.got - 2010.06.03 13:09:07.
