data_PCOD9173024
_publ_section_title
;
Structure prediction by ZEFSAII (Michael W. Deem and Ramdas Pophale) SiO2 
 PCOD9173024
Probable space group: C 2/M
;
_chemical_formula_sum "Si O2"
_cell_formula_units_Z 64
_cell_length_a 31.073089
_cell_length_b 8.674473
_cell_length_c 16.511651
_cell_angle_alpha 90.000000
_cell_angle_beta 132.418555
_cell_angle_gamma 90.000000
_cell_volume 3285.593245
_symmetry_space_group_name_H-M "C 2/M"
_symmetry_group_IT_number 12
_symmetry_cell_setting 'monoclinic'
loop_
_space_group_symop_operation_xyz
x,y,z
-x,y,-z
-x,-y,-z
x,-y,z
1/2+x,1/2+y,z
1/2-x,1/2+y,-z
1/2-x,1/2-y,-z
1/2+x,1/2-y,z
loop_
_atom_site_type_symbol
_atom_site_label
_atom_site_fract_x
_atom_site_fract_y
_atom_site_fract_z
Si Si1 0.707779 0.685096 0.208870
Si Si2 0.689001 0.325472 0.904551
Si Si3 0.667120 0.681947 0.635135
Si Si4 0.199622 0.684093 0.378212
Si Si5 0.889351 0.826026 0.036039
Si Si6 0.884249 0.315417 0.588423
Si Si7 0.593045 0.180233 0.675810
Si Si8 0.016699 0.685600 0.728384
O O1 0.709317 0.500000 0.203630
O O2 0.770540 0.747927 0.258275
O O3 0.701282 0.736299 0.293425
O O4 0.650914 0.741101 0.086634
O O5 0.692711 0.500000 0.874782
O O6 0.655377 0.337350 0.946197
O O7 0.651255 0.212468 0.801382
O O8 0.750000 0.250000 0.000000
O O9 0.671082 0.500000 0.645119
O O10 0.656182 0.735560 0.529525
O O11 0.610871 0.738872 0.614987
O O12 0.207084 0.500000 0.377949
O O13 0.250000 0.750000 0.500000
O O14 0.140262 0.713223 0.353119
O O15 0.943264 0.738004 0.145436
O O16 0.908059 0.000000 0.037251
O O17 0.880874 0.500000 0.570209
O O18 0.950570 0.264850 0.658749
O O19 0.543102 0.239298 0.674639
O O20 0.582939 0.000000 0.647240
O O21 0.018772 0.500000 0.727651
#
# Coordination Sequence:
#
# PCOD9173024 Si02
#       8
#     8   8   8   8   8   8   8   8
#     4  11  22  38  60  87 121 154 189 238 294 348
#     4  10  18  30  49  75 108 147 193 237 285 342
#     4  12  24  36  56  87 118 151 195 240 291 349
#     4  11  22  38  62  89 118 150 189 235 293 350
#     4   9  20  36  55  80 112 151 188 233 290 338
#     4  10  22  41  62  84 114 152 191 238 291 344
#     4  10  20  35  54  78 112 151 192 239 287 338
#     4   9  20  39  62  84 110 153 201 237 279 338
#
# _framework density 19.478977
#
# number of rings (size 3 to 8) (size 9 to 14) (size 15 to 20)
#    0.000    1.750    1.250    3.375    0.000    4.500 
#    0.000    3.125    0.000    3.750    0.000    0.000 
#    0.000    0.000    0.000    0.000    0.000    0.000 
#
# Total GULP energy -178563.767787 kJ/mol
# GULP energy per Si atom -5580.117743 kJ/mol
# Density = 1.943464 g / cm^3
# Si number density = 19.478977 Si / 1000 Ang^3
#
#
#
# Elastic Constant Matrix: (Units=GPa)
#
#
# Indices 1 2 3 4 5 6 
#
# 1 98.2728 27.9245 20.3417 0.0000 0.4871 0.0000
# 2 27.9245 44.1660 7.5099 0.0000 -0.6238 0.0000
# 3 20.3417 7.5099 53.6681 0.0000 -12.7205 0.0000
# 4 0.0000 0.0000 0.0000 23.3623 0.0000 -4.5752
# 5 0.4871 -0.6238 -12.7205 0.0000 29.9433 0.0000
# 6 0.0000 0.0000 0.0000 -4.5752 0.0000 22.8299
#
#
#
# Elastic Compliance Matrix: (Units=1/GPa)
#
#
# Indices 1 2 3 4 5 6 
#
# 1 0.013302 -0.007676 -0.004511 0.000000 -0.002293 0.000000
# 2 -0.007676 0.027650 -0.000883 0.000000 0.000326 0.000000
# 3 -0.004511 -0.000883 0.022772 0.000000 0.009729 0.000000
# 4 0.000000 0.000000 0.000000 0.044553 0.000000 0.008928
# 5 -0.002293 0.000326 0.009729 0.000000 0.037574 0.000000
# 6 0.000000 0.000000 0.000000 0.008928 0.000000 0.045592
#
#
# Mechanical properties :
#
#
# Convention : Reuss Voigt Hill
#
# Bulk Modulus (GPa) = 26.60619 34.18436 30.39528
# Shear Modulus (GPa) = 21.72885 24.58247 23.15566
#
# Velocity S-wave (km/s) = 3.34354 3.55632 3.45157
# Velocity P-wave (km/s) = 5.34736 5.86947 5.61449
#
# Compressibility (1/GPa) = 0.03758524
#
# Stress axis : x y z
#
# Youngs Moduli (GPa) = 75.17695 36.16697 43.91278
#
# Poissons Ratio (x) = 0.27760 0.19810
# Poissons Ratio (y) = 0.57703 0.03875
# Poissons Ratio (z) = 0.33914 0.03192
#
# Static dielectric constant tensor:
#      x y z
#    x 1.621160 0.000000 -0.174450 
#    y 0.000000 1.681430 0.000000 
#    z -0.174450 0.000000 1.363580 
# 
# From -- ./inp_files/249911.got.cif
#   From: 2010.05.17/outbox.cif.g08.bks.cpg/sg12_125_cif.got.tgz:249911.got - 2010.06.03 13:09:07.
