data_PCOD9173234
_publ_section_title
;
Structure prediction by ZEFSAII (Michael W. Deem and Ramdas Pophale) SiO2 
 PCOD9173234
Probable space group: C 2/M
;
_chemical_formula_sum "Si O2"
_cell_formula_units_Z 56
_cell_length_a 26.281818
_cell_length_b 7.414617
_cell_length_c 14.978318
_cell_angle_alpha 90.000000
_cell_angle_beta 59.768485
_cell_angle_gamma 90.000000
_cell_volume 2521.853796
_symmetry_space_group_name_H-M "C 2/M"
_symmetry_group_IT_number 12
_symmetry_cell_setting 'monoclinic'
loop_
_space_group_symop_operation_xyz
x,y,z
-x,y,-z
-x,-y,-z
x,-y,z
1/2+x,1/2+y,z
1/2-x,1/2+y,-z
1/2-x,1/2-y,-z
1/2+x,1/2-y,z
loop_
_atom_site_type_symbol
_atom_site_label
_atom_site_fract_x
_atom_site_fract_y
_atom_site_fract_z
Si Si1 0.177289 0.279116 0.806933
Si Si2 0.954277 0.285845 0.113452
Si Si3 0.727629 0.285265 0.420923
Si Si4 0.739771 0.714946 0.112518
Si Si5 0.890517 0.220188 0.720496
Si Si6 0.596279 0.279669 0.493095
Si Si7 0.502846 0.716921 0.723970
O O1 0.175684 0.500000 0.806285
O O2 0.111704 0.214887 0.843663
O O3 0.223984 0.218161 0.691343
O O4 0.205680 0.221186 0.875603
O O5 0.950535 0.500000 0.101465
O O6 0.976774 0.262287 0.194485
O O7 0.000000 0.212583 0.000000
O O8 0.724191 0.500000 0.410152
O O9 0.750000 0.250000 0.500000
O O10 0.661659 0.218294 0.463019
O O11 0.737505 0.500000 0.127513
O O12 0.676011 0.783000 0.201892
O O13 0.750000 0.750000 0.000000
O O14 0.912472 0.272956 0.602281
O O15 0.937662 0.278492 0.752980
O O16 0.889083 0.000000 0.722351
O O17 0.594845 0.500000 0.495792
O O18 0.548739 0.218903 0.607732
O O19 0.502494 0.500000 0.719542
#
# Coordination Sequence:
#
# PCOD9173234 Si02
#       7
#     8   8   8   8   8   8   8
#     4   9  18  35  55  73  99 137 175 208 249 305
#     4  10  22  38  54  72  99 141 183 211 247 305
#     4  10  18  30  51  75 101 133 168 206 250 300
#     4  10  20  35  56  79 103 134 173 214 256 302
#     4   9  17  32  54  80 107 135 167 206 256 312
#     4   9  16  30  52  78 104 133 168 203 249 313
#     4  10  20  33  54  82 107 131 166 215 261 298
#
# _framework density 22.205888000000002
#
# number of rings (size 3 to 8) (size 9 to 14) (size 15 to 20)
#    0.000    2.429    1.429    1.286    2.000    2.000 
#    0.000    1.429    0.000    3.429    0.000    0.000 
#    0.000    0.000    0.000    0.000    0.000    0.000 
#
# Total GULP energy -156451.580371 kJ/mol
# GULP energy per Si atom -5587.556442 kJ/mol
# Density = 2.215535 g / cm^3
# Si number density = 22.205888 Si / 1000 Ang^3
#
#
#
# Elastic Constant Matrix: (Units=GPa)
#
#
# Indices 1 2 3 4 5 6 
#
# 1 193.0533 -1.7526 65.5156 0.0000 12.6380 0.0000
# 2 -1.7526 70.4641 -5.4966 0.0000 -8.6898 -0.0003
# 3 65.5156 -5.4966 117.8275 0.0000 18.1470 0.0000
# 4 0.0000 0.0000 0.0000 -6.0079 0.0000 15.5659
# 5 12.6380 -8.6898 18.1470 0.0000 38.9714 0.0000
# 6 0.0000 -0.0003 0.0000 15.5659 0.0000 9.3868
#
#
#
# Elastic Compliance Matrix: (Units=1/GPa)
#
#
# Indices 1 2 3 4 5 6 
#
# 1 0.006394 -0.000173 -0.003488 0.000000 -0.000488 0.000000
# 2 -0.000173 0.014602 0.000288 0.000000 0.003178 0.000000
# 3 -0.003488 0.000288 0.011048 0.000000 -0.003949 0.000000
# 4 0.000000 0.000000 0.000000 -0.031426 0.000000 0.052114
# 5 -0.000488 0.003178 -0.003949 0.000000 0.028366 0.000000
# 6 0.000000 0.000000 0.000000 0.052114 0.000000 0.020114
#
#
# Mechanical properties :
#
#
# Convention : Reuss Voigt Hill
#
# Bulk Modulus (GPa) = 39.53019 55.31974 47.42497
# Shear Modulus (GPa) = 77.78902 30.00862 53.89882
#
# Velocity S-wave (km/s) = 5.92510 3.68010 4.93204
# Velocity P-wave (km/s) = 8.04049 6.55925 7.33735
#
# Compressibility (1/GPa) = 0.02529712
#
# Stress axis : x y z
#
# Youngs Moduli (GPa) = 156.39487 68.48521 90.51237
#
# Poissons Ratio (x) = 0.01186 0.31573
# Poissons Ratio (y) = 0.02709 -0.02607
# Poissons Ratio (z) = 0.54554 -0.01973
#
# Static dielectric constant tensor:
#      x y z
#    x 1.785130 0.000000 -0.017690 
#    y 0.000000 1.882400 0.000000 
#    z -0.017690 0.000000 1.764090 
# 
# From -- ./inp_files/174468.got.cif
#   From: 2010.05.17/outbox.cif.g08.bks.cpg/sg12_88_cif.got.tgz:174468.got - 2010.06.03 13:09:07.
