data_PCOD9173350
_publ_section_title
;
Structure prediction by ZEFSAII (Michael W. Deem and Ramdas Pophale) SiO2 
 PCOD9173350
Probable space group: C 2/M
;
_chemical_formula_sum "Si O2"
_cell_formula_units_Z 64
_cell_length_a 19.548436
_cell_length_b 7.530285
_cell_length_c 24.324032
_cell_angle_alpha 90.000000
_cell_angle_beta 58.765381
_cell_angle_gamma 90.000000
_cell_volume 3061.618464
_symmetry_space_group_name_H-M "C 2/M"
_symmetry_group_IT_number 12
_symmetry_cell_setting 'monoclinic'
loop_
_space_group_symop_operation_xyz
x,y,z
-x,y,-z
-x,-y,-z
x,-y,z
1/2+x,1/2+y,z
1/2-x,1/2+y,-z
1/2-x,1/2-y,-z
1/2+x,1/2-y,z
loop_
_atom_site_type_symbol
_atom_site_label
_atom_site_fract_x
_atom_site_fract_y
_atom_site_fract_z
Si Si1 0.203859 0.217172 0.689795
Si Si2 0.490186 0.713218 0.341755
Si Si3 0.756285 0.287838 0.866730
Si Si4 0.590246 0.717453 0.977736
Si Si5 0.526462 0.283819 0.777182
Si Si6 0.879120 0.786633 0.910902
Si Si7 0.667662 0.211001 0.277789
Si Si8 0.684546 0.287462 0.573077
O O1 0.117633 0.267816 0.750541
O O2 0.274499 0.281598 0.699009
O O3 0.207211 0.276707 0.624929
O O4 0.205727 0.000000 0.687869
O O5 0.487767 0.500000 0.342323
O O6 0.491622 0.773186 0.277559
O O7 0.575183 0.762589 0.330708
O O8 0.405961 0.776760 0.401841
O O9 0.752281 0.500000 0.862894
O O10 0.664302 0.224894 0.908366
O O11 0.803352 0.255549 0.904146
O O12 0.806455 0.218219 0.793356
O O13 0.588621 0.500000 0.977319
O O14 0.500000 0.774559 0.000000
O O15 0.615899 0.774818 0.028456
O O16 0.524192 0.500000 0.778893
O O17 0.458154 0.220445 0.846281
O O18 0.882801 0.000000 0.911727
O O19 0.680263 0.000000 0.270172
O O20 0.679648 0.500000 0.579230
O O21 0.750000 0.250000 0.500000
#
# Coordination Sequence:
#
# PCOD9173350 Si02
#       8
#     8   8   8   8   8   8   8   8
#     4   8  16  30  48  72 100 127 161 201 241 282
#     4   9  17  32  51  73 101 129 161 198 236 287
#     4  10  20  32  47  71 102 130 159 206 256 292
#     4   9  19  32  47  72  99 124 165 214 252 290
#     4   8  14  26  47  71  90 120 165 203 231 276
#     4  10  18  30  52  72  91 128 170 201 242 301
#     4  10  19  30  49  75 101 129 161 204 253 288
#     4   9  18  34  56  77  99 130 165 200 236 282
#
# _framework density 20.903976
#
# number of rings (size 3 to 8) (size 9 to 14) (size 15 to 20)
#    0.000    2.875    1.250    1.875    1.750    0.500 
#    0.000    1.250    0.000    6.750    0.000    0.000 
#    0.000    0.000    0.000    0.000    0.000    0.000 
#
# Total GULP energy -178473.956199 kJ/mol
# GULP energy per Si atom -5577.311131 kJ/mol
# Density = 2.085640 g / cm^3
# Si number density = 20.903976 Si / 1000 Ang^3
#
#
#
# Elastic Constant Matrix: (Units=GPa)
#
#
# Indices 1 2 3 4 5 6 
#
# 1 184.6194 1.3668 64.4900 0.0006 -23.2241 0.0027
# 2 1.3668 50.2924 4.1229 0.0019 0.5729 0.0026
# 3 64.4900 4.1229 101.0931 0.0001 -30.0077 0.0000
# 4 0.0006 0.0019 0.0001 5.2540 -0.0002 0.8792
# 5 -23.2241 0.5729 -30.0077 -0.0002 26.3721 0.0011
# 6 0.0027 0.0026 0.0000 0.8792 0.0011 12.8820
#
#
#
# Elastic Compliance Matrix: (Units=1/GPa)
#
#
# Indices 1 2 3 4 5 6 
#
# 1 0.007017 0.000119 -0.003998 0.000000 0.001628 -0.000002
# 2 0.000119 0.020026 -0.001496 -0.000007 -0.002033 -0.000003
# 3 -0.003998 -0.001496 0.017317 0.000001 0.016216 0.000000
# 4 0.000000 -0.000007 0.000001 0.192530 0.000003 -0.013141
# 5 0.001628 -0.002033 0.016216 0.000003 0.057847 -0.000005
# 6 -0.000002 -0.000003 0.000000 -0.013141 -0.000005 0.078525
#
#
# Mechanical properties :
#
#
# Convention : Reuss Voigt Hill
#
# Bulk Modulus (GPa) = 29.75345 52.88491 41.31918
# Shear Modulus (GPa) = 12.65134 26.63663 19.64398
#
# Velocity S-wave (km/s) = 2.46277 3.57352 3.06882
# Velocity P-wave (km/s) = 4.72772 6.51004 5.68911
#
# Compressibility (1/GPa) = 0.03360955
#
# Stress axis : x y z
#
# Youngs Moduli (GPa) = 142.51145 49.93438 57.74806
#
# Poissons Ratio (x) = -0.00592 0.23088
# Poissons Ratio (y) = -0.01689 0.08637
# Poissons Ratio (z) = 0.56976 0.07468
#
# Static dielectric constant tensor:
#      x y z
#    x 1.754590 0.000000 -0.020880 
#    y 0.000000 1.817050 0.000000 
#    z -0.020880 0.000000 1.749810 
# 
# From -- ./inp_files/339319.got.cif
#   From: 2010.05.17/outbox.cif.g08.bks.cpg/sg12_170_cif.got.tgz:339319.got - 2010.06.03 13:09:07.
