data_PCOD9173082
_publ_section_title
;
Structure prediction by ZEFSAII (Michael W. Deem and Ramdas Pophale) SiO2 
 PCOD9173082
Probable space group: C 2/M
;
_chemical_formula_sum "Si O2"
_cell_formula_units_Z 64
_cell_length_a 14.862042
_cell_length_b 7.389536
_cell_length_c 24.977109
_cell_angle_alpha 90.000000
_cell_angle_beta 82.404574
_cell_angle_gamma 90.000000
_cell_volume 2719.008401
_symmetry_space_group_name_H-M "C 2/M"
_symmetry_group_IT_number 12
_symmetry_cell_setting 'monoclinic'
loop_
_space_group_symop_operation_xyz
x,y,z
-x,y,-z
-x,-y,-z
x,-y,z
1/2+x,1/2+y,z
1/2-x,1/2+y,-z
1/2-x,1/2-y,-z
1/2+x,1/2-y,z
loop_
_atom_site_type_symbol
_atom_site_label
_atom_site_fract_x
_atom_site_fract_y
_atom_site_fract_z
Si Si1 0.082574 0.781391 0.379169
Si Si2 0.730192 0.220810 0.587633
Si Si3 0.002275 0.711563 0.204363
Si Si4 0.849387 0.719944 0.292028
Si Si5 0.482474 0.778277 0.086488
Si Si6 0.663571 0.282895 0.259718
Si Si7 0.428070 0.793268 0.465107
Si Si8 0.855395 0.715552 0.002659
O O1 0.164577 0.729446 0.413324
O O2 0.112813 0.720729 0.317973
O O3 0.987674 0.704941 0.406057
O O4 0.077147 0.000000 0.379445
O O5 0.681238 0.280531 0.646718
O O6 0.668676 0.287731 0.543331
O O7 0.727890 0.000000 0.586225
O O8 0.978789 0.500000 0.203687
O O9 0.106899 0.725636 0.212965
O O10 0.941898 0.786408 0.258078
O O11 0.981506 0.786737 0.147529
O O12 0.851353 0.500000 0.296016
O O13 0.767692 0.771323 0.258233
O O14 0.397977 0.721100 0.055856
O O15 0.482867 0.000000 0.088010
O O16 0.574950 0.720949 0.048909
O O17 0.662571 0.500000 0.261014
O O18 0.500000 0.704503 0.500000
O O19 0.413656 0.000000 0.483768
O O20 0.865151 0.500000 0.002805
O O21 0.750000 0.750000 0.000000
#
# Coordination Sequence:
#
# PCOD9173082 Si02
#       8
#     8   8   8   8   8   8   8   8
#     4   9  18  33  51  67  90 127 162 188 226 286
#     4   8  15  30  48  65  90 124 154 183 228 282
#     4  10  18  30  50  73  96 127 162 192 229 285
#     4   8  15  28  47  67  89 122 159 186 220 282
#     4   8  17  32  48  69  99 130 159 193 239 289
#     4   9  18  32  48  70  97 123 154 195 237 273
#     4  10  20  32  48  72  97 119 152 201 246 278
#     4   9  17  33  53  70  93 128 166 203 239 278
#
# _framework density 23.537991999999999
#
# number of rings (size 3 to 8) (size 9 to 14) (size 15 to 20)
#    0.000    3.125    0.000    3.000    0.000    3.250 
#    0.000    5.000    0.000    1.500    0.000    0.000 
#    0.000    0.000    0.000    0.000    0.000    0.000 
#
# Total GULP energy -178668.218499 kJ/mol
# GULP energy per Si atom -5583.381828 kJ/mol
# Density = 2.348442 g / cm^3
# Si number density = 23.537992 Si / 1000 Ang^3
#
#
#
# Elastic Constant Matrix: (Units=GPa)
#
#
# Indices 1 2 3 4 5 6 
#
# 1 159.4292 -4.9556 43.4740 0.0000 20.8001 0.0000
# 2 -4.9556 85.9180 5.9610 0.0000 -1.3699 0.0000
# 3 43.4740 5.9610 51.3594 0.0000 19.1493 0.0000
# 4 0.0000 0.0000 0.0000 2.5118 0.0000 2.7782
# 5 20.8001 -1.3699 19.1493 0.0000 25.9114 0.0000
# 6 0.0000 0.0000 0.0000 2.7782 0.0000 9.9072
#
#
#
# Elastic Compliance Matrix: (Units=1/GPa)
#
#
# Indices 1 2 3 4 5 6 
#
# 1 0.008297 0.000895 -0.006435 0.000000 -0.001858 0.000000
# 2 0.000895 0.011926 -0.002911 0.000000 0.002063 0.000000
# 3 -0.006435 -0.002911 0.032282 0.000000 -0.018846 0.000000
# 4 0.000000 0.000000 0.000000 0.577144 0.000000 -0.161846
# 5 -0.001858 0.002063 -0.018846 0.000000 0.054121 0.000000
# 6 0.000000 0.000000 0.000000 -0.161846 0.000000 0.146323
#
#
# Mechanical properties :
#
#
# Convention : Reuss Voigt Hill
#
# Bulk Modulus (GPa) = 28.08703 42.85170 35.46937
# Shear Modulus (GPa) = 5.82166 24.48122 15.15144
#
# Velocity S-wave (km/s) = 1.57438 3.22851 2.53988
# Velocity P-wave (km/s) = 3.90685 5.66944 4.86857
#
# Compressibility (1/GPa) = 0.03560362
#
# Stress axis : x y z
#
# Youngs Moduli (GPa) = 120.52264 83.85371 30.97717
#
# Poissons Ratio (x) = -0.07508 0.19932
# Poissons Ratio (y) = -0.10791 0.09018
# Poissons Ratio (z) = 0.77551 0.24412
#
# Static dielectric constant tensor:
#      x y z
#    x 1.876070 0.000000 0.023560 
#    y 0.000000 1.901770 0.000000 
#    z 0.023560 0.000000 1.901470 
# 
# From -- ./inp_files/359846.got.cif
#   From: 2010.05.17/outbox.cif.g08.bks.cpg/sg12_180_cif.got.tgz:359846.got - 2010.06.03 13:09:07.
