data_PCOD9173339
_publ_section_title
;
Structure prediction by ZEFSAII (Michael W. Deem and Ramdas Pophale) SiO2 
 PCOD9173339
Probable space group: C 2/M
;
_chemical_formula_sum "Si O2"
_cell_formula_units_Z 56
_cell_length_a 21.434337
_cell_length_b 12.929151
_cell_length_c 12.114324
_cell_angle_alpha 90.000000
_cell_angle_beta 119.779320
_cell_angle_gamma 90.000000
_cell_volume 2913.877825
_symmetry_space_group_name_H-M "C 2/M"
_symmetry_group_IT_number 12
_symmetry_cell_setting 'monoclinic'
loop_
_space_group_symop_operation_xyz
x,y,z
-x,y,-z
-x,-y,-z
x,-y,z
1/2+x,1/2+y,z
1/2-x,1/2+y,-z
1/2-x,1/2-y,-z
1/2+x,1/2-y,z
loop_
_atom_site_type_symbol
_atom_site_label
_atom_site_fract_x
_atom_site_fract_y
_atom_site_fract_z
Si Si1 0.424876 0.270492 0.484293
Si Si2 0.461340 0.882654 0.717360
Si Si3 0.209829 0.171122 0.310900
Si Si4 0.784096 0.115528 0.430575
Si Si5 0.833208 0.617931 0.255827
Si Si6 0.580508 0.761264 0.107662
Si Si7 0.626458 0.118132 0.939254
O O1 0.500000 0.309540 0.500000
O O2 0.439213 0.198174 0.603815
O O3 0.365169 0.354678 0.464907
O O4 0.388554 0.195741 0.361665
O O5 0.428140 0.847931 0.804930
O O6 0.546742 0.879742 0.814411
O O7 0.440231 0.000000 0.669398
O O8 0.220318 0.122991 0.440446
O O9 0.234228 0.291726 0.342821
O O10 0.261680 0.123090 0.265663
O O11 0.127559 0.170639 0.201464
O O12 0.764725 0.000000 0.377563
O O13 0.861062 0.500000 0.282553
O O14 0.822169 0.645390 0.117705
O O15 0.500000 0.732618 0.000000
O O16 0.622467 0.806932 0.039430
O O17 0.640229 0.000000 0.987428
#
# Coordination Sequence:
#
# PCOD9173339 Si02
#       7
#     8   8   8   8   8   8   8
#     4  11  20  33  56  84 112 143 187 226 282 335
#     4  10  18  30  51  82 114 142 176 228 281 329
#     4  10  21  38  57  84 107 150 192 226 278 334
#     4  10  22  39  57  81 115 148 184 231 279 330
#     4  10  20  33  53  82 116 149 183 229 279 328
#     4  10  20  35  55  81 112 147 185 229 275 333
#     4   9  18  31  49  79 113 146 178 221 279 326
#
# _framework density 19.218377
#
# number of rings (size 3 to 8) (size 9 to 14) (size 15 to 20)
#    0.000    2.000    2.857    1.286    0.000    4.286 
#    0.000    0.000    0.000    1.714    0.000    1.000 
#    0.000    0.000    0.000    0.000    0.000    0.000 
#
# Total GULP energy -156263.132834 kJ/mol
# GULP energy per Si atom -5580.826173 kJ/mol
# Density = 1.917464 g / cm^3
# Si number density = 19.218377 Si / 1000 Ang^3
#
#
#
# Elastic Constant Matrix: (Units=GPa)
#
#
# Indices 1 2 3 4 5 6 
#
# 1 94.2986 3.5177 13.2791 0.0000 -20.4371 0.0000
# 2 3.5177 50.6363 -0.8789 0.0000 -2.9100 0.0000
# 3 13.2791 -0.8789 52.9457 0.0000 -15.3904 0.0000
# 4 0.0000 0.0000 0.0000 8.8084 0.0000 -3.2801
# 5 -20.4371 -2.9100 -15.3904 0.0000 36.1625 0.0000
# 6 0.0000 0.0000 0.0000 -3.2801 0.0000 17.8703
#
#
#
# Elastic Compliance Matrix: (Units=1/GPa)
#
#
# Indices 1 2 3 4 5 6 
#
# 1 0.012164 -0.000503 -0.001224 0.000000 0.006313 0.000000
# 2 -0.000503 0.019899 0.000958 0.000000 0.001724 0.000000
# 3 -0.001224 0.000958 0.021718 0.000000 0.008628 0.000000
# 4 0.000000 0.000000 0.000000 0.121857 0.000000 0.022367
# 5 0.006313 0.001724 0.008628 0.000000 0.035032 0.000000
# 6 0.000000 0.000000 0.000000 0.022367 0.000000 0.060064
#
#
# Mechanical properties :
#
#
# Convention : Reuss Voigt Hill
#
# Bulk Modulus (GPa) = 19.14160 25.52404 22.33282
# Shear Modulus (GPa) = 17.25997 24.69908 20.97952
#
# Velocity S-wave (km/s) = 3.00008 3.58883 3.30758
# Velocity P-wave (km/s) = 4.68853 5.52113 5.12177
#
# Compressibility (1/GPa) = 0.05224225
#
# Stress axis : x y z
#
# Youngs Moduli (GPa) = 82.21012 50.25285 46.04409
#
# Poissons Ratio (x) = 0.02530 0.05636
# Poissons Ratio (y) = 0.04139 -0.04410
# Poissons Ratio (z) = 0.10063 -0.04814
#
# Static dielectric constant tensor:
#      x y z
#    x 1.715750 0.000000 -0.003800 
#    y 0.000000 1.647910 0.000000 
#    z -0.003800 0.000000 1.659340 
# 
# From -- ./inp_files/165713.got.cif
#   From: 2010.05.17/outbox.cif.g08.bks.cpg/sg12_83_cif.got.tgz:165713.got - 2010.06.03 13:09:07.
