data_PCOD9173749
_publ_section_title
;
Structure prediction by ZEFSAII (Michael W. Deem and Ramdas Pophale) SiO2 
 PCOD9173749
Probable space group: C 2/M
;
_chemical_formula_sum "Si O2"
_cell_formula_units_Z 64
_cell_length_a 29.496190
_cell_length_b 8.744488
_cell_length_c 21.993368
_cell_angle_alpha 90.000000
_cell_angle_beta 46.525998
_cell_angle_gamma 90.000000
_cell_volume 4116.623753
_symmetry_space_group_name_H-M "C 2/M"
_symmetry_group_IT_number 12
_symmetry_cell_setting 'monoclinic'
loop_
_space_group_symop_operation_xyz
x,y,z
-x,y,-z
-x,-y,-z
x,-y,z
1/2+x,1/2+y,z
1/2-x,1/2+y,-z
1/2-x,1/2-y,-z
1/2+x,1/2-y,z
loop_
_atom_site_type_symbol
_atom_site_label
_atom_site_fract_x
_atom_site_fract_y
_atom_site_fract_z
Si Si1 0.303904 0.316310 0.993220
Si Si2 0.725775 0.317126 0.839639
Si Si3 0.897607 0.684879 0.098882
Si Si4 0.560620 0.814676 0.164233
Si Si5 0.860267 0.818865 0.685235
Si Si6 0.060478 0.676173 0.488786
Si Si7 0.032488 0.685281 0.327245
Si Si8 0.999886 0.685379 0.097088
O O1 0.304320 0.500000 0.988719
O O2 0.289982 0.272883 0.076040
O O3 0.250000 0.250000 0.000000
O O4 0.370722 0.251203 0.911395
O O5 0.729126 0.500000 0.833931
O O6 0.669444 0.257384 0.849912
O O7 0.791961 0.248203 0.759576
O O8 0.892189 0.500000 0.104082
O O9 0.935769 0.734181 0.123807
O O10 0.942891 0.727452 0.000480
O O11 0.536828 0.770590 0.252950
O O12 0.515803 0.764072 0.150338
O O13 0.564640 0.000000 0.158978
O O14 0.887452 0.771538 0.594235
O O15 0.908455 0.750277 0.690369
O O16 0.859438 0.000000 0.691956
O O17 0.081299 0.500000 0.475505
O O18 0.000000 0.676239 0.500000
O O19 0.031046 0.732573 0.579314
O O20 0.035195 0.500000 0.329252
O O21 0.998280 0.500000 0.098660
#
# Coordination Sequence:
#
# PCOD9173749 Si02
#       8
#     8   8   8   8   8   8   8   8
#     4  11  23  34  44  62  91 127 162 192 225 267
#     4  11  22  34  46  65  93 125 158 193 234 277
#     4   9  16  30  50  70  91 119 155 193 233 272
#     4  10  18  31  50  70  93 124 158 188 223 271
#     4  11  21  31  47  69  92 122 159 196 233 274
#     4   8  15  30  48  66  92 122 151 188 232 275
#     4   9  18  31  48  70  96 126 156 187 227 275
#     4   8  15  28  49  72  93 118 151 193 234 271
#
# _framework density 15.546720000000001
#
# number of rings (size 3 to 8) (size 9 to 14) (size 15 to 20)
#    0.000    2.375    1.250    4.125    0.000    7.250 
#    0.000    1.875    0.000    0.000    0.000    0.875 
#    0.000    0.000    0.000    0.000    0.000    0.000 
#
# Total GULP energy -178415.945860 kJ/mol
# GULP energy per Si atom -5575.498308 kJ/mol
# Density = 1.551133 g / cm^3
# Si number density = 15.546720 Si / 1000 Ang^3
#
#
#
# Elastic Constant Matrix: (Units=GPa)
#
#
# Indices 1 2 3 4 5 6 
#
# 1 114.5458 24.3113 66.7672 0.0018 15.0069 -0.0010
# 2 24.3113 26.2656 32.3266 0.0101 3.9729 -0.0203
# 3 66.7672 32.3266 126.6858 -0.0001 18.0264 -0.0001
# 4 0.0018 0.0101 -0.0001 20.3295 -0.0002 -5.5926
# 5 15.0069 3.9729 18.0264 -0.0002 10.0212 0.0009
# 6 -0.0010 -0.0203 -0.0001 -5.5926 0.0009 18.1867
#
#
#
# Elastic Compliance Matrix: (Units=1/GPa)
#
#
# Indices 1 2 3 4 5 6 
#
# 1 0.013897 -0.005985 -0.004265 0.000000 -0.010766 -0.000005
# 2 -0.005985 0.058245 -0.013034 -0.000012 0.009317 0.000060
# 3 -0.004265 -0.013034 0.015890 0.000003 -0.017030 -0.000013
# 4 0.000000 -0.000012 0.000003 0.053735 -0.000002 0.016524
# 5 -0.010766 0.009317 -0.017030 -0.000002 0.142851 0.000002
# 6 -0.000005 0.000060 -0.000013 0.016524 0.000002 0.060067
#
#
# Mechanical properties :
#
#
# Convention : Reuss Voigt Hill
#
# Bulk Modulus (GPa) = 24.11724 57.14526 40.63125
# Shear Modulus (GPa) = 12.34341 19.31362 15.82851
#
# Velocity S-wave (km/s) = 2.82078 3.52844 3.19427
# Velocity P-wave (km/s) = 5.11424 7.31005 6.30842
#
# Compressibility (1/GPa) = 0.04146412
#
# Stress axis : x y z
#
# Youngs Moduli (GPa) = 71.95851 17.16890 62.93157
#
# Poissons Ratio (x) = 0.10276 0.26839
# Poissons Ratio (y) = 0.43070 0.82023
# Poissons Ratio (z) = 0.30689 0.22377
#
# Static dielectric constant tensor:
#      x y z
#    x 1.507220 0.000000 0.022950 
#    y 0.000000 1.523630 0.000000 
#    z 0.022950 0.000000 1.521400 
# 
# From -- ./inp_files/326808.got.cif
#   From: 2010.05.17/outbox.cif.g08.bks.cpg/sg12_164_cif.got.tgz:326808.got - 2010.06.03 13:09:07.
