data_PCOD9173138
_publ_section_title
;
Structure prediction by ZEFSAII (Michael W. Deem and Ramdas Pophale) SiO2 
 PCOD9173138
Probable space group: C 2/M
;
_chemical_formula_sum "Si O2"
_cell_formula_units_Z 48
_cell_length_a 8.476205
_cell_length_b 33.131315
_cell_length_c 11.652289
_cell_angle_alpha 90.000000
_cell_angle_beta 134.556994
_cell_angle_gamma 90.000000
_cell_volume 2331.677446
_symmetry_space_group_name_H-M "C 2/M"
_symmetry_group_IT_number 12
_symmetry_cell_setting 'monoclinic'
loop_
_space_group_symop_operation_xyz
x,y,z
-x,y,-z
-x,-y,-z
x,-y,z
1/2+x,1/2+y,z
1/2-x,1/2+y,-z
1/2-x,1/2-y,-z
1/2+x,1/2-y,z
loop_
_atom_site_type_symbol
_atom_site_label
_atom_site_fract_x
_atom_site_fract_y
_atom_site_fract_z
Si Si1 0.840233 0.766566 0.669601
Si Si2 0.264802 0.954551 0.810165
Si Si3 0.347988 0.846928 0.322901
Si Si4 0.049209 0.380404 0.200694
Si Si5 0.179826 0.191337 0.698022
Si Si6 0.443220 0.408273 0.097623
O O1 0.750000 0.750000 0.500000
O O2 0.701010 0.800253 0.669445
O O3 0.849843 0.726079 0.746941
O O4 0.055292 0.790549 0.743070
O O5 0.315786 0.922417 0.735171
O O6 0.080053 0.938242 0.805852
O O7 0.216092 0.000000 0.747206
O O8 0.500000 0.955807 0.000000
O O9 0.500000 0.864174 0.500000
O O10 0.500066 0.855249 0.290693
O O11 0.124463 0.872981 0.202508
O O12 0.202112 0.349735 0.209864
O O13 0.802732 0.389961 0.034190
O O14 0.000000 0.185672 0.500000
O O15 0.500000 0.427008 0.000000
#
# Coordination Sequence:
#
# PCOD9173138 Si02
#       6
#     8   8   8   8   8   8
#     4  10  19  31  50  79 108 142 191 233 261 312
#     4   9  18  35  59  84 110 144 185 226 273 335
#     4  11  20  35  57  80 111 150 191 229 275 330
#     4  10  20  35  56  83 114 145 185 233 281 330
#     4  10  18  30  50  75 105 141 183 222 266 317
#     4   9  20  36  57  86 114 143 182 232 282 331
#
# _framework density 20.586037999999999
#
# number of rings (size 3 to 8) (size 9 to 14) (size 15 to 20)
#    0.000    2.167    0.000    5.500    0.000    0.333 
#    0.000    3.333    0.000   14.500    0.000    0.000 
#    0.000    0.000    0.000    0.000    0.000    0.000 
#
# Total GULP energy -133657.267721 kJ/mol
# GULP energy per Si atom -5569.052822 kJ/mol
# Density = 2.053918 g / cm^3
# Si number density = 20.586038 Si / 1000 Ang^3
#
#
#
# Elastic Constant Matrix: (Units=GPa)
#
#
# Indices 1 2 3 4 5 6 
#
# 1 111.6211 74.9718 13.0559 0.0000 0.6769 0.0000
# 2 74.9718 144.3931 6.7793 0.0000 6.3727 0.0000
# 3 13.0559 6.7793 13.0152 0.0000 8.7177 0.0000
# 4 0.0000 0.0000 0.0000 18.0360 0.0000 -2.6847
# 5 0.6769 6.3727 8.7177 0.0000 23.9438 0.0000
# 6 0.0000 0.0000 0.0000 -2.6847 0.0000 34.9324
#
#
#
# Elastic Compliance Matrix: (Units=1/GPa)
#
#
# Indices 1 2 3 4 5 6 
#
# 1 0.016367 -0.008026 -0.017667 0.000000 0.008106 0.000000
# 2 -0.008026 0.011045 0.005443 0.000000 -0.004694 0.000000
# 3 -0.017667 0.005443 0.122144 0.000000 -0.045420 0.000000
# 4 0.000000 0.000000 0.000000 0.056086 0.000000 0.004311
# 5 0.008106 -0.004694 -0.045420 0.000000 0.059322 0.000000
# 6 0.000000 0.000000 0.000000 0.004311 0.000000 0.028958
#
#
# Mechanical properties :
#
#
# Convention : Reuss Voigt Hill
#
# Bulk Modulus (GPa) = 9.16974 50.96038 30.06506
# Shear Modulus (GPa) = 13.48530 26.99725 20.24128
#
# Velocity S-wave (km/s) = 2.56221 3.62530 3.13909
# Velocity P-wave (km/s) = 3.63555 6.50633 5.27018
#
# Compressibility (1/GPa) = 0.10905440
#
# Stress axis : x y z
#
# Youngs Moduli (GPa) = 61.09755 90.54128 8.18709
#
# Poissons Ratio (x) = 0.72673 0.14464
# Poissons Ratio (y) = 0.49040 -0.04456
# Poissons Ratio (z) = 1.07941 -0.49282
#
# Static dielectric constant tensor:
#      x y z
#    x 1.877310 0.000000 -0.039630 
#    y 0.000000 1.741000 0.000000 
#    z -0.039630 0.000000 1.776480 
# 
# From -- ./inp_files/201052.got.cif
#   From: 2010.05.17/outbox.cif.g08.bks.cpg/sg12_101_cif.got.tgz:201052.got - 2010.06.03 13:09:07.
