data_PCOD9173528
_publ_section_title
;
Structure prediction by ZEFSAII (Michael W. Deem and Ramdas Pophale) SiO2 
 PCOD9173528
Probable space group: C 2/M
;
_chemical_formula_sum "Si O2"
_cell_formula_units_Z 64
_cell_length_a 17.613128
_cell_length_b 19.220012
_cell_length_c 29.805271
_cell_angle_alpha 90.000000
_cell_angle_beta 159.887370
_cell_angle_gamma 90.000000
_cell_volume 3469.551481
_symmetry_space_group_name_H-M "C 2/M"
_symmetry_group_IT_number 12
_symmetry_cell_setting 'monoclinic'
loop_
_space_group_symop_operation_xyz
x,y,z
-x,y,-z
-x,-y,-z
x,-y,z
1/2+x,1/2+y,z
1/2-x,1/2+y,-z
1/2-x,1/2-y,-z
1/2+x,1/2-y,z
loop_
_atom_site_type_symbol
_atom_site_label
_atom_site_fract_x
_atom_site_fract_y
_atom_site_fract_z
Si Si1 0.968505 0.209351 0.607390
Si Si2 0.124797 0.919587 0.498919
Si Si3 0.004675 0.320460 0.556271
Si Si4 0.661229 0.080913 0.295152
Si Si5 0.600164 0.421525 0.227840
Si Si6 0.602322 0.578048 0.337202
Si Si7 0.096561 0.415553 0.931825
Si Si8 0.826412 0.650740 0.864443
O O1 0.750000 0.250000 0.500000
O O2 0.906396 0.130233 0.560345
O O3 0.035510 0.248071 0.598717
O O4 0.167229 0.208866 0.753485
O O5 0.297132 0.890671 0.631820
O O6 0.892332 0.919797 0.396471
O O7 0.173718 0.000000 0.514636
O O8 0.783712 0.362621 0.448102
O O9 0.000000 0.310392 0.500000
O O10 0.210078 0.369790 0.681803
O O11 0.492748 0.111143 0.165652
O O12 0.600804 0.000000 0.269055
O O13 0.642082 0.500000 0.234642
O O14 0.603771 0.423914 0.283898
O O15 0.354352 0.399954 0.078464
O O16 0.661193 0.500000 0.385702
O O17 0.356405 0.598159 0.216401
O O18 0.068702 0.500000 0.918148
O O19 0.961228 0.383591 0.898151
O O20 0.000000 0.670453 0.000000
#
# Coordination Sequence:
#
# PCOD9173528 Si02
#       8
#     8   8   8   8   8   8   8   8
#     4  12  25  41  57  83 117 157 199 244 291 350
#     4   9  18  34  57  81 109 142 186 238 291 342
#     4  10  22  39  59  83 116 156 201 238 292 349
#     4   8  15  29  52  84 108 133 178 236 289 334
#     4   9  18  34  56  83 117 153 193 235 281 350
#     4  10  19  34  58  86 117 154 193 236 286 349
#     4  10  18  30  54  88 121 147 184 242 299 349
#     4  12  23  36  55  81 121 157 196 240 302 355
#
# _framework density 18.446187999999999
#
# number of rings (size 3 to 8) (size 9 to 14) (size 15 to 20)
#    0.000    2.000    3.750    1.500    1.750    2.500 
#    0.000    1.875    0.000    0.000    0.000    0.000 
#    0.000    5.500    0.000    0.000    0.000    0.000 
#
# Total GULP energy -178342.969877 kJ/mol
# GULP energy per Si atom -5573.217809 kJ/mol
# Density = 1.840420 g / cm^3
# Si number density = 18.446188 Si / 1000 Ang^3
#
#
#
# Elastic Constant Matrix: (Units=GPa)
#
#
# Indices 1 2 3 4 5 6 
#
# 1 49.0619 21.4237 36.2134 -0.0057 -9.3039 0.0047
# 2 21.4237 58.9992 38.5679 -0.0017 -6.1595 0.0011
# 3 36.2134 38.5679 129.2610 -0.0125 -15.6222 0.0001
# 4 -0.0057 -0.0017 -0.0125 22.9844 -0.0023 -0.0843
# 5 -9.3039 -6.1595 -15.6222 -0.0023 27.1092 -0.0005
# 6 0.0047 0.0011 0.0001 -0.0843 -0.0005 12.9974
#
#
#
# Elastic Compliance Matrix: (Units=1/GPa)
#
#
# Indices 1 2 3 4 5 6 
#
# 1 0.028008 -0.006101 -0.005409 0.000004 0.005109 -0.000009
# 2 -0.006101 0.022425 -0.004965 -0.000003 0.000140 0.000000
# 3 -0.005409 -0.004965 0.011149 0.000005 0.003440 0.000002
# 4 0.000004 -0.000003 0.000005 0.043509 0.000007 0.000282
# 5 0.005109 0.000140 0.003440 0.000007 0.040656 0.000000
# 6 -0.000009 0.000000 0.000002 0.000282 0.000000 0.076940
#
#
# Mechanical properties :
#
#
# Convention : Reuss Voigt Hill
#
# Bulk Modulus (GPa) = 34.92562 47.74803 41.33682
# Shear Modulus (GPa) = 18.85517 22.02601 20.44059
#
# Velocity S-wave (km/s) = 3.20061 3.45928 3.33246
# Velocity P-wave (km/s) = 5.71257 6.47277 6.10451
#
# Compressibility (1/GPa) = 0.02863228
#
# Stress axis : x y z
#
# Youngs Moduli (GPa) = 35.70450 44.59320 89.69638
#
# Poissons Ratio (x) = 0.27207 0.48514
# Poissons Ratio (y) = 0.21784 0.44532
# Poissons Ratio (z) = 0.19311 0.22140
#
# Static dielectric constant tensor:
#      x y z
#    x 1.647130 0.000000 -0.035760 
#    y 0.000000 1.650180 -0.000010 
#    z -0.035760 -0.000010 1.658820 
# 
# From -- ./inp_files/379884.got.cif
#   From: 2010.05.17/outbox.cif.g08.bks.cpg/sg12_190_cif.got.tgz:379884.got - 2010.06.03 13:09:07.
