data_PCOD9173179
_publ_section_title
;
Structure prediction by ZEFSAII (Michael W. Deem and Ramdas Pophale) SiO2 
 PCOD9173179
Probable space group: C 2/M
;
_chemical_formula_sum "Si O2"
_cell_formula_units_Z 56
_cell_length_a 20.165933
_cell_length_b 16.821811
_cell_length_c 14.382079
_cell_angle_alpha 90.000000
_cell_angle_beta 147.622491
_cell_angle_gamma 90.000000
_cell_volume 2612.572904
_symmetry_space_group_name_H-M "C 2/M"
_symmetry_group_IT_number 12
_symmetry_cell_setting 'monoclinic'
loop_
_space_group_symop_operation_xyz
x,y,z
-x,y,-z
-x,-y,-z
x,-y,z
1/2+x,1/2+y,z
1/2-x,1/2+y,-z
1/2-x,1/2-y,-z
1/2+x,1/2-y,z
loop_
_atom_site_type_symbol
_atom_site_label
_atom_site_fract_x
_atom_site_fract_y
_atom_site_fract_z
Si Si1 0.547031 0.587277 0.765219
Si Si2 0.727352 0.676749 0.094067
Si Si3 0.529420 0.094951 0.641008
Si Si4 0.646994 0.407389 0.180974
Si Si5 0.169772 0.596346 0.445399
Si Si6 0.763096 0.907916 0.367920
Si Si7 0.138861 0.166624 0.698627
O O1 0.574784 0.500000 0.839160
O O2 0.401100 0.591730 0.575287
O O3 0.610347 0.597959 0.739412
O O4 0.600432 0.657126 0.891833
O O5 0.831611 0.620265 0.173002
O O6 0.708970 0.648129 0.177940
O O7 0.785967 0.763412 0.162764
O O8 0.500000 0.121613 0.500000
O O9 0.436827 0.125797 0.610988
O O10 0.517448 0.000000 0.626354
O O11 0.681015 0.500000 0.201615
O O12 0.703156 0.388544 0.348046
O O13 0.500000 0.400762 0.000000
O O14 0.158657 0.500000 0.424616
O O15 0.176089 0.625701 0.346938
O O16 0.780101 0.861411 0.292637
O O17 0.730049 0.000000 0.309178
O O18 0.000000 0.191702 0.500000
#
# Coordination Sequence:
#
# PCOD9173179 Si02
#       7
#     8   8   8   8   8   8   8
#     4  10  20  36  60  86 110 145 193 241 285 327
#     4  12  21  33  55  83 117 146 179 231 290 344
#     4  10  18  30  50  78 113 153 190 220 267 339
#     4  10  19  31  51  80 112 146 185 233 283 332
#     4   9  17  30  52  80 108 142 189 236 274 322
#     4   9  18  37  62  85 109 144 194 243 281 324
#     4  10  22  37  57  82 116 153 190 231 281 341
#
# _framework density 21.434809000000001
#
# number of rings (size 3 to 8) (size 9 to 14) (size 15 to 20)
#    0.000    2.000    1.429    3.429    0.000    4.000 
#    0.000    0.714    6.286    0.000    0.000    4.000 
#    0.000    0.000    0.000    0.000    0.000    0.000 
#
# Total GULP energy -156328.218719 kJ/mol
# GULP energy per Si atom -5583.150669 kJ/mol
# Density = 2.138602 g / cm^3
# Si number density = 21.434809 Si / 1000 Ang^3
#
#
#
# Elastic Constant Matrix: (Units=GPa)
#
#
# Indices 1 2 3 4 5 6 
#
# 1 127.6923 8.9649 -20.2218 0.0000 -6.7679 0.0000
# 2 8.9649 39.2563 1.0172 0.0000 0.9414 0.0000
# 3 -20.2218 1.0172 13.7244 0.0000 -1.1342 0.0000
# 4 0.0000 0.0000 0.0000 11.6462 0.0000 -2.9199
# 5 -6.7679 0.9414 -1.1342 0.0000 25.1453 0.0000
# 6 0.0000 0.0000 0.0000 -2.9199 0.0000 10.8548
#
#
#
# Elastic Compliance Matrix: (Units=1/GPa)
#
#
# Indices 1 2 3 4 5 6 
#
# 1 0.010861 -0.003000 0.016538 0.000000 0.003782 0.000000
# 2 -0.003000 0.026378 -0.006548 0.000000 -0.002090 0.000000
# 3 0.016538 -0.006548 0.098471 0.000000 0.009138 0.000000
# 4 0.000000 0.000000 0.000000 0.092074 0.000000 0.024767
# 5 0.003782 -0.002090 0.009138 0.000000 0.041277 0.000000
# 6 0.000000 0.000000 0.000000 0.024767 0.000000 0.098787
#
#
# Mechanical properties :
#
#
# Convention : Reuss Voigt Hill
#
# Bulk Modulus (GPa) = 6.68032 17.79928 12.23980
# Shear Modulus (GPa) = 12.38343 22.25678 17.32010
#
# Velocity S-wave (km/s) = 2.40620 3.22584 2.84568
# Velocity P-wave (km/s) = 3.29288 4.71133 4.06446
#
# Compressibility (1/GPa) = 0.14969336
#
# Stress axis : x y z
#
# Youngs Moduli (GPa) = 92.06898 37.90974 10.15525
#
# Poissons Ratio (x) = 0.11372 -0.16795
# Poissons Ratio (y) = 0.27617 0.06649
# Poissons Ratio (z) = -1.52266 0.24822
#
# Static dielectric constant tensor:
#      x y z
#    x 1.803840 0.000000 -0.005430 
#    y 0.000000 1.759640 0.000000 
#    z -0.005430 0.000000 1.798220 
# 
# From -- ./inp_files/234717.got.cif
#   From: 2010.05.17/outbox.cif.g08.bks.cpg/sg12_118_cif.got.tgz:234717.got - 2010.06.03 13:09:07.
