data_PCOD9173725
_publ_section_title
;
Structure prediction by ZEFSAII (Michael W. Deem and Ramdas Pophale) SiO2 
 PCOD9173725
Probable space group: C 2/M
;
_chemical_formula_sum "Si O2"
_cell_formula_units_Z 56
_cell_length_a 26.215149
_cell_length_b 14.719737
_cell_length_c 9.123680
_cell_angle_alpha 90.000000
_cell_angle_beta 121.751452
_cell_angle_gamma 90.000000
_cell_volume 2993.742668
_symmetry_space_group_name_H-M "C 2/M"
_symmetry_group_IT_number 12
_symmetry_cell_setting 'monoclinic'
loop_
_space_group_symop_operation_xyz
x,y,z
-x,y,-z
-x,-y,-z
x,-y,z
1/2+x,1/2+y,z
1/2-x,1/2+y,-z
1/2-x,1/2-y,-z
1/2+x,1/2-y,z
loop_
_atom_site_type_symbol
_atom_site_label
_atom_site_fract_x
_atom_site_fract_y
_atom_site_fract_z
Si Si1 0.599038 0.397929 0.304267
Si Si2 0.713601 0.394253 0.266690
Si Si3 0.824382 0.392475 0.624431
Si Si4 0.565244 0.218830 0.110666
Si Si5 0.865224 0.896545 0.305985
Si Si6 0.357321 0.263065 0.052473
Si Si7 0.277931 0.896035 0.886602
O O1 0.576146 0.500000 0.240628
O O2 0.663729 0.391114 0.320577
O O3 0.560300 0.317192 0.179391
O O4 0.609176 0.387468 0.492321
O O5 0.718849 0.500000 0.229158
O O6 0.776467 0.362344 0.430045
O O7 0.687822 0.331989 0.100065
O O8 0.834369 0.500000 0.619937
O O9 0.885985 0.337836 0.723535
O O10 0.794269 0.381102 0.739653
O O11 0.594105 0.232458 0.994023
O O12 0.500000 0.175676 0.000000
O O13 0.793066 0.885888 0.204190
O O14 0.877923 0.000000 0.273976
O O15 0.886439 0.819365 0.227467
O O16 0.317190 0.176393 0.034698
O O17 0.293720 0.000000 0.947380
#
# Coordination Sequence:
#
# PCOD9173725 Si02
#       7
#     8   8   8   8   8   8   8
#     4   9  18  32  53  74 101 134 159 196 252 305
#     4   9  16  29  49  78 106 128 155 195 250 304
#     4   9  17  31  53  77 102 129 162 201 246 299
#     4  10  22  36  51  71  97 133 177 212 240 278
#     4  10  18  31  49  76 105 128 157 195 250 311
#     4  10  20  30  51  75 103 131 164 205 244 284
#     4   9  17  29  46  72 105 134 158 188 241 307
#
# _framework density 18.705681999999999
#
# number of rings (size 3 to 8) (size 9 to 14) (size 15 to 20)
#    0.000    2.571    1.429    0.857    2.000    2.857 
#    0.000    0.714    0.000    1.714    0.000    0.000 
#    0.000    5.714    0.000    0.000    0.000    0.000 
#
# Total GULP energy -156270.767248 kJ/mol
# GULP energy per Si atom -5581.098830 kJ/mol
# Density = 1.866311 g / cm^3
# Si number density = 18.705682 Si / 1000 Ang^3
#
#
#
# Elastic Constant Matrix: (Units=GPa)
#
#
# Indices 1 2 3 4 5 6 
#
# 1 27.2353 6.1553 12.3082 0.0000 10.1980 0.0000
# 2 6.1553 34.2270 8.0626 0.0000 -2.9586 0.0000
# 3 12.3082 8.0626 33.1553 0.0000 3.3380 0.0000
# 4 0.0000 0.0000 0.0000 20.3252 0.0000 -4.6308
# 5 10.1980 -2.9586 3.3380 0.0000 19.8991 0.0000
# 6 0.0000 0.0000 0.0000 -4.6308 0.0000 10.1061
#
#
#
# Elastic Compliance Matrix: (Units=1/GPa)
#
#
# Indices 1 2 3 4 5 6 
#
# 1 0.056162 -0.008705 -0.015974 0.000000 -0.027397 0.000000
# 2 -0.008705 0.033055 -0.005849 0.000000 0.010357 0.000000
# 3 -0.015974 -0.005849 0.037409 0.000000 0.001042 0.000000
# 4 0.000000 0.000000 0.000000 0.054935 0.000000 0.025172
# 5 -0.027397 0.010357 0.001042 0.000000 0.065659 0.000000
# 6 0.000000 0.000000 0.000000 0.025172 0.000000 0.110484
#
#
# Mechanical properties :
#
#
# Convention : Reuss Voigt Hill
#
# Bulk Modulus (GPa) = 15.25112 16.40774 15.82943
# Shear Modulus (GPa) = 11.34771 14.60553 12.97662
#
# Velocity S-wave (km/s) = 2.46569 2.79732 2.63673
# Velocity P-wave (km/s) = 4.03448 4.38451 4.21313
#
# Compressibility (1/GPa) = 0.06556896
#
# Stress axis : x y z
#
# Youngs Moduli (GPa) = 17.80566 30.25220 26.73184
#
# Poissons Ratio (x) = 0.26336 0.42701
# Poissons Ratio (y) = 0.15501 0.15636
# Poissons Ratio (z) = 0.28442 0.17695
#
# Static dielectric constant tensor:
#      x y z
#    x 1.642540 0.000000 -0.016610 
#    y 0.000000 1.680200 0.000000 
#    z -0.016610 0.000000 1.629130 
# 
# From -- ./inp_files/86314.got.cif
#   From: 2010.05.17/outbox.cif.g08.bks.cpg/sg12_44_cif.got.tgz:86314.got - 2010.06.03 13:09:07.
