data_PCOD9173472
_publ_section_title
;
Structure prediction by ZEFSAII (Michael W. Deem and Ramdas Pophale) SiO2 
 PCOD9173472
Probable space group: C 2/M
;
_chemical_formula_sum "Si O2"
_cell_formula_units_Z 48
_cell_length_a 29.818325
_cell_length_b 11.204758
_cell_length_c 22.205452
_cell_angle_alpha 90.000000
_cell_angle_beta 162.001863
_cell_angle_gamma 90.000000
_cell_volume 2292.367506
_symmetry_space_group_name_H-M "C 2/M"
_symmetry_group_IT_number 12
_symmetry_cell_setting 'monoclinic'
loop_
_space_group_symop_operation_xyz
x,y,z
-x,y,-z
-x,-y,-z
x,-y,z
1/2+x,1/2+y,z
1/2-x,1/2+y,-z
1/2-x,1/2-y,-z
1/2+x,1/2-y,z
loop_
_atom_site_type_symbol
_atom_site_label
_atom_site_fract_x
_atom_site_fract_y
_atom_site_fract_z
Si Si1 0.609128 0.372309 0.383005
Si Si2 0.432989 0.801077 0.770922
Si Si3 0.114418 0.636708 0.701270
Si Si4 0.641322 0.370836 0.221118
Si Si5 0.104297 0.784753 0.507294
Si Si6 0.746256 0.367972 0.810474
O O1 0.550975 0.500000 0.286670
O O2 0.556124 0.252100 0.282289
O O3 0.783062 0.370404 0.591546
O O4 0.575904 0.361608 0.411494
O O5 0.408997 0.684408 0.780882
O O6 0.580483 0.863930 0.979372
O O7 0.169670 0.500000 0.781488
O O8 0.216507 0.747170 0.810934
O O9 0.000000 0.627166 0.500000
O O10 0.023384 0.691872 0.640249
O O11 0.707820 0.500000 0.315564
O O12 0.754333 0.289121 0.331275
O O13 0.500000 0.378607 0.000000
O O14 0.150791 0.853321 0.627663
O O15 0.711909 0.500000 0.792969
#
# Coordination Sequence:
#
# PCOD9173472 Si02
#       6
#     8   8   8   8   8   8
#     4  10  21  36  57  82 116 155 189 233 289 349
#     4  10  21  37  53  83 116 154 192 233 286 342
#     4   9  20  37  58  85 117 152 191 240 291 338
#     4  10  18  30  53  83 114 147 188 235 279 335
#     4  10  20  36  57  86 116 149 191 238 290 344
#     4  11  22  37  60  87 116 151 193 242 289 340
#
# _framework density 20.939050999999999
#
# number of rings (size 3 to 8) (size 9 to 14) (size 15 to 20)
#    0.000    2.000    1.667    2.000    0.000    5.667 
#    0.000    5.833    0.000    0.000    0.000    0.000 
#    0.000    0.000    0.000    0.000    0.000    0.000 
#
# Total GULP energy -133701.712884 kJ/mol
# GULP energy per Si atom -5570.904704 kJ/mol
# Density = 2.089139 g / cm^3
# Si number density = 20.939051 Si / 1000 Ang^3
#
#
#
# Elastic Constant Matrix: (Units=GPa)
#
#
# Indices 1 2 3 4 5 6 
#
# 1 76.9377 27.6081 4.3636 0.0000 3.6736 0.0000
# 2 27.6081 143.8550 9.8847 0.0000 5.1474 0.0000
# 3 4.3636 9.8847 34.5670 0.0001 3.3023 0.0000
# 4 0.0000 0.0000 0.0001 17.7396 0.0000 33.8510
# 5 3.6736 5.1474 3.3023 0.0000 20.4667 0.0000
# 6 0.0000 0.0000 0.0000 33.8510 0.0000 31.7404
#
#
#
# Elastic Compliance Matrix: (Units=1/GPa)
#
#
# Indices 1 2 3 4 5 6 
#
# 1 0.014054 -0.002575 -0.000872 0.000000 -0.001734 0.000000
# 2 -0.002575 0.007607 -0.001738 0.000000 -0.001170 0.000000
# 3 -0.000872 -0.001738 0.029941 0.000000 -0.004237 0.000000
# 4 0.000000 0.000000 0.000000 -0.054460 0.000000 0.058081
# 5 -0.001734 -0.001170 -0.004237 0.000000 0.050149 0.000000
# 6 0.000000 0.000000 0.000000 0.058081 0.000000 -0.030437
#
#
# Mechanical properties :
#
#
# Convention : Reuss Voigt Hill
#
# Bulk Modulus (GPa) = 24.25364 37.67473 30.96418
# Shear Modulus (GPa) = 122.04324 28.22291 75.13308
#
# Velocity S-wave (km/s) = 7.64274 3.67530 5.99664
# Velocity P-wave (km/s) = 9.45992 6.00351 7.92251
#
# Compressibility (1/GPa) = 0.04123093
#
# Stress axis : x y z
#
# Youngs Moduli (GPa) = 71.15482 131.45796 33.39872
#
# Poissons Ratio (x) = 0.33853 0.02912
# Poissons Ratio (y) = 0.18324 0.05806
# Poissons Ratio (z) = 0.06205 0.22852
#
# Static dielectric constant tensor:
#      x y z
#    x 1.783700 0.000000 -0.022700 
#    y 0.000000 1.807190 0.000000 
#    z -0.022700 0.000000 1.767080 
# 
# From -- ./inp_files/328019.got.cif
#   From: 2010.05.17/outbox.cif.g08.bks.cpg/sg12_165_cif.got.tgz:328019.got - 2010.06.03 13:09:07.
