data_PCOD9173272
_publ_section_title
;
Structure prediction by ZEFSAII (Michael W. Deem and Ramdas Pophale) SiO2 
 PCOD9173272
Probable space group: C 2/M
;
_chemical_formula_sum "Si O2"
_cell_formula_units_Z 56
_cell_length_a 19.879137
_cell_length_b 9.387437
_cell_length_c 31.495068
_cell_angle_alpha 90.000000
_cell_angle_beta 31.533865
_cell_angle_gamma 90.000000
_cell_volume 3073.907682
_symmetry_space_group_name_H-M "C 2/M"
_symmetry_group_IT_number 12
_symmetry_cell_setting 'monoclinic'
loop_
_space_group_symop_operation_xyz
x,y,z
-x,y,-z
-x,-y,-z
x,-y,z
1/2+x,1/2+y,z
1/2-x,1/2+y,-z
1/2-x,1/2-y,-z
1/2+x,1/2-y,z
loop_
_atom_site_type_symbol
_atom_site_label
_atom_site_fract_x
_atom_site_fract_y
_atom_site_fract_z
Si Si1 0.535231 0.168072 0.652269
Si Si2 0.711615 0.332647 0.181188
Si Si3 0.769989 0.167753 0.584982
Si Si4 0.271016 0.168705 0.297135
Si Si5 0.993865 0.332478 0.575202
Si Si6 0.386385 0.663652 0.025508
Si Si7 0.938450 0.332955 0.129160
O O1 0.419252 0.259537 0.733581
O O2 0.668609 0.206628 0.603106
O O3 0.538683 0.186176 0.599873
O O4 0.511522 0.000000 0.673673
O O5 0.694922 0.500000 0.182052
O O6 0.772137 0.253191 0.108122
O O7 0.816083 0.318388 0.163157
O O8 0.704750 0.187685 0.665988
O O9 0.898974 0.258584 0.511490
O O10 0.802684 0.000000 0.563245
O O11 0.386407 0.208817 0.203499
O O12 0.143233 0.256552 0.355364
O O13 0.246039 0.000000 0.302984
O O14 0.983245 0.500000 0.571800
O O15 0.350379 0.500000 0.037089
O O16 0.500000 0.664160 0.000000
O O17 0.448295 0.738638 0.951283
O O18 0.974865 0.500000 0.109442
#
# Coordination Sequence:
#
# PCOD9173272 Si02
#       7
#     8   8   8   8   8   8   8
#     4  10  21  36  53  76 105 138 174 215 261 308
#     4  10  18  30  51  77 104 135 170 212 257 304
#     4  10  22  38  55  74 102 140 178 214 258 311
#     4  10  20  36  56  77 103 138 176 214 257 309
#     4  11  22  35  54  78 105 134 172 221 265 306
#     4   9  17  28  46  74 107 137 165 205 256 306
#     4   9  17  30  49  75 103 131 169 211 254 303
#
# _framework density 18.217853999999999
#
# number of rings (size 3 to 8) (size 9 to 14) (size 15 to 20)
#    0.000    2.143    1.429    2.143    0.000    6.286 
#    0.000    0.000    0.000    0.857    0.000    0.000 
#    0.000    0.000    0.000    0.000    0.000    0.000 
#
# Total GULP energy -156297.734889 kJ/mol
# GULP energy per Si atom -5582.061960 kJ/mol
# Density = 1.817639 g / cm^3
# Si number density = 18.217854 Si / 1000 Ang^3
#
#
#
# Elastic Constant Matrix: (Units=GPa)
#
#
# Indices 1 2 3 4 5 6 
#
# 1 28.4737 4.6475 -13.0141 0.0000 6.8933 -0.0003
# 2 4.6475 58.3191 44.1977 0.0001 4.2573 -0.0004
# 3 -13.0141 44.1977 95.9040 0.0000 17.0979 -0.0001
# 4 0.0000 0.0001 0.0000 36.2885 0.0000 -0.4617
# 5 6.8933 4.2573 17.0979 0.0000 15.8631 0.0000
# 6 -0.0003 -0.0004 -0.0001 -0.4617 0.0000 14.7705
#
#
#
# Elastic Compliance Matrix: (Units=1/GPa)
#
#
# Indices 1 2 3 4 5 6 
#
# 1 0.065234 -0.023406 0.029180 0.000000 -0.053517 0.000001
# 2 -0.023406 0.035479 -0.024315 0.000000 0.026857 0.000000
# 3 0.029180 -0.024315 0.033038 0.000000 -0.041765 0.000000
# 4 0.000000 0.000000 0.000000 0.027568 0.000000 0.000862
# 5 -0.053517 0.026857 -0.041765 0.000000 0.124103 -0.000001
# 6 0.000001 0.000000 0.000000 0.000862 -0.000001 0.067729
#
#
# Mechanical properties :
#
#
# Convention : Reuss Voigt Hill
#
# Bulk Modulus (GPa) = 10.34455 28.26211 19.30333
# Shear Modulus (GPa) = 11.83551 23.17548 17.50549
#
# Velocity S-wave (km/s) = 2.55162 3.57056 3.10320
# Velocity P-wave (km/s) = 3.79099 5.70488 4.84341
#
# Compressibility (1/GPa) = 0.09666928
#
# Stress axis : x y z
#
# Youngs Moduli (GPa) = 15.32944 28.18553 30.26773
#
# Poissons Ratio (x) = 0.65972 -0.88322
# Poissons Ratio (y) = 0.35881 0.73596
# Poissons Ratio (z) = -0.44732 0.68533
#
# Static dielectric constant tensor:
#      x y z
#    x 1.619210 0.000000 0.029380 
#    y 0.000000 1.610740 0.000000 
#    z 0.029380 0.000000 1.600820 
# 
# From -- ./inp_files/363148.got.cif
#   From: 2010.05.17/outbox.cif.g08.bks.cpg/sg12_182_cif.got.tgz:363148.got - 2010.06.03 13:09:07.
