data_PCOD9173278
_publ_section_title
;
Structure prediction by ZEFSAII (Michael W. Deem and Ramdas Pophale) SiO2 
 PCOD9173278
Probable space group: C 2/M
;
_chemical_formula_sum "Si O2"
_cell_formula_units_Z 44
_cell_length_a 16.236014
_cell_length_b 15.577360
_cell_length_c 10.609562
_cell_angle_alpha 90.000000
_cell_angle_beta 50.273344
_cell_angle_gamma 90.000000
_cell_volume 2063.739307
_symmetry_space_group_name_H-M "C 2/M"
_symmetry_group_IT_number 12
_symmetry_cell_setting 'monoclinic'
loop_
_space_group_symop_operation_xyz
x,y,z
-x,y,-z
-x,-y,-z
x,-y,z
1/2+x,1/2+y,z
1/2-x,1/2+y,-z
1/2-x,1/2-y,-z
1/2+x,1/2-y,z
loop_
_atom_site_type_symbol
_atom_site_label
_atom_site_fract_x
_atom_site_fract_y
_atom_site_fract_z
Si Si1 0.883261 0.099642 0.686076
Si Si2 0.831194 0.905580 0.263718
Si Si3 0.882817 0.405028 0.677013
Si Si4 0.058716 0.252982 0.215289
Si Si5 0.669142 0.308352 0.498117
Si Si6 0.500000 0.728840 0.000000
O O1 0.892962 0.158450 0.801809
O O2 0.809179 0.154710 0.661660
O O3 0.000000 0.098499 0.500000
O O4 0.853410 0.000000 0.735359
O O5 0.709539 0.896372 0.336921
O O6 0.843300 0.891784 0.400878
O O7 0.868704 0.000000 0.190267
O O8 0.902116 0.832139 0.133901
O O9 0.869272 0.500000 0.748753
O O10 0.876040 0.327278 0.780784
O O11 0.000000 0.403293 0.500000
O O12 0.941589 0.244124 0.394409
O O13 0.036644 0.274559 0.091650
O O14 0.750000 0.250000 0.500000
#
# Coordination Sequence:
#
# PCOD9173278 Si02
#       6
#     8   8   8   8   8   4
#     4   9  17  29  48  74 102 133 172 220 272 317
#     4  10  20  34  54  79 107 140 177 219 263 317
#     4  10  20  36  59  83 106 137 179 224 269 318
#     4  10  20  35  52  74 105 142 178 218 264 314
#     4  10  18  30  51  77 107 138 172 219 272 319
#     4  10  23  36  53  76 106 144 182 218 264 322
#
# _framework density 21.320523000000001
#
# number of rings (size 3 to 8) (size 9 to 14) (size 15 to 20)
#    0.000    2.182    0.000    4.636    0.000    5.818 
#    0.000    1.364    0.000    0.000    0.000    0.000 
#    0.000    0.000    0.000    0.000    0.000    0.000 
#
# Total GULP energy -122735.685605 kJ/mol
# GULP energy per Si atom -5578.894800 kJ/mol
# Density = 2.127200 g / cm^3
# Si number density = 21.320523 Si / 1000 Ang^3
#
#
#
# Elastic Constant Matrix: (Units=GPa)
#
#
# Indices 1 2 3 4 5 6 
#
# 1 93.1212 40.3488 7.1790 0.0000 13.4400 0.0000
# 2 40.3488 110.6113 2.1073 0.0000 20.2296 0.0000
# 3 7.1790 2.1073 20.1950 0.0000 9.3801 0.0000
# 4 0.0000 0.0000 0.0000 4.1956 0.0000 34.9167
# 5 13.4400 20.2296 9.3801 0.0000 36.6199 0.0000
# 6 0.0000 0.0000 0.0000 34.9167 0.0000 137.2545
#
#
#
# Elastic Compliance Matrix: (Units=1/GPa)
#
#
# Indices 1 2 3 4 5 6 
#
# 1 0.013156 -0.004465 -0.003534 0.000000 -0.001456 0.000000
# 2 -0.004465 0.011626 0.002947 0.000000 -0.005539 0.000000
# 3 -0.003534 0.002947 0.057455 0.000000 -0.015048 0.000000
# 4 0.000000 0.000000 0.000000 -0.213357 0.000000 0.054277
# 5 -0.001456 -0.005539 -0.015048 0.000000 0.034756 0.000000
# 6 0.000000 0.000000 0.000000 0.054277 0.000000 -0.006522
#
#
# Mechanical properties :
#
#
# Convention : Reuss Voigt Hill
#
# Bulk Modulus (GPa) = 13.86351 35.91085 24.88718
# Shear Modulus (GPa) = -72.74361 47.23351 -12.75505
#
# Velocity S-wave (km/s) = -5.84749 4.71191 -2.44857
# Velocity P-wave (km/s) = 6.25094 6.81782 1.92463
#
# Compressibility (1/GPa) = 0.07213179
#
# Stress axis : x y z
#
# Youngs Moduli (GPa) = 76.00975 86.01144 17.40480
#
# Poissons Ratio (x) = 0.38408 0.06152
# Poissons Ratio (y) = 0.33942 -0.05129
# Poissons Ratio (z) = 0.26865 -0.25345
#
# Static dielectric constant tensor:
#      x y z
#    x 1.802290 0.000000 -0.000330 
#    y 0.000000 1.816070 0.000000 
#    z -0.000330 0.000000 1.807880 
# 
# From -- ./inp_files/155825.got.cif
#   From: 2010.05.17/outbox.cif.g08.bks.cpg/sg12_78_cif.got.tgz:155825.got - 2010.06.03 13:09:07.
