data_PCOD9173153
_publ_section_title
;
Structure prediction by ZEFSAII (Michael W. Deem and Ramdas Pophale) SiO2 
 PCOD9173153
Probable space group: C 2/M
;
_chemical_formula_sum "Si O2"
_cell_formula_units_Z 64
_cell_length_a 20.209974
_cell_length_b 9.027582
_cell_length_c 20.908365
_cell_angle_alpha 90.000000
_cell_angle_beta 97.042551
_cell_angle_gamma 90.000000
_cell_volume 3785.892309
_symmetry_space_group_name_H-M "C 2/M"
_symmetry_group_IT_number 12
_symmetry_cell_setting 'monoclinic'
loop_
_space_group_symop_operation_xyz
x,y,z
-x,y,-z
-x,-y,-z
x,-y,z
1/2+x,1/2+y,z
1/2-x,1/2+y,-z
1/2-x,1/2-y,-z
1/2+x,1/2-y,z
loop_
_atom_site_type_symbol
_atom_site_label
_atom_site_fract_x
_atom_site_fract_y
_atom_site_fract_z
Si Si1 0.957698 0.319482 0.056080
Si Si2 0.662621 0.323165 0.672098
Si Si3 0.803373 0.679910 0.053641
Si Si4 0.561802 0.826785 0.458337
Si Si5 0.808911 0.821984 0.466863
Si Si6 0.817935 0.329774 0.197105
Si Si7 0.021020 0.328488 0.800853
Si Si8 0.494236 0.323256 0.330913
O O1 0.958183 0.500000 0.057233
O O2 0.879647 0.276604 0.045134
O O3 0.989551 0.273825 0.127929
O O4 0.000000 0.269975 0.000000
O O5 0.666774 0.500000 0.676431
O O6 0.692619 0.275177 0.607927
O O7 0.695578 0.256444 0.739382
O O8 0.583551 0.285666 0.663438
O O9 0.800451 0.500000 0.051413
O O10 0.790475 0.726263 0.125962
O O11 0.750000 0.750000 0.000000
O O12 0.500000 0.815850 0.500000
O O13 0.622239 0.734808 0.494988
O O14 0.538888 0.759882 0.388072
O O15 0.579725 0.000000 0.454067
O O16 0.750000 0.750000 0.500000
O O17 0.805828 0.000000 0.468922
O O18 0.797538 0.500000 0.202683
O O19 0.898373 0.327947 0.197291
O O20 0.999354 0.500000 0.792247
O O21 0.992737 0.232178 0.739642
O O22 0.501892 0.500000 0.336993
#
# Coordination Sequence:
#
# PCOD9173153 Si02
#       8
#     8   8   8   8   8   8   8   8
#     4   8  14  27  49  73  97 128 168 206 244 293
#     4   9  18  31  50  75 101 129 165 209 252 298
#     4   9  17  29  47  73 100 127 161 205 250 294
#     4  11  22  35  55  82 106 133 173 215 257 306
#     4  11  23  39  56  77 107 139 173 212 258 311
#     4   8  15  27  45  69  96 125 163 206 247 293
#     4   8  14  26  45  71  98 125 163 210 250 292
#     4  10  18  30  50  76 105 133 164 210 262 303
#
# _framework density 16.904864
#
# number of rings (size 3 to 8) (size 9 to 14) (size 15 to 20)
#    0.000    2.750    1.250    2.625    0.000    2.500 
#    0.000    1.875    2.750    1.500    0.000    0.000 
#    0.000    0.000    0.000    0.000    0.000    0.000 
#
# Total GULP energy -178291.446576 kJ/mol
# GULP energy per Si atom -5571.607705 kJ/mol
# Density = 1.686639 g / cm^3
# Si number density = 16.904864 Si / 1000 Ang^3
#
#
#
# Elastic Constant Matrix: (Units=GPa)
#
#
# Indices 1 2 3 4 5 6 
#
# 1 47.3499 23.2274 53.4578 0.0000 -8.7300 0.0000
# 2 23.2274 38.9126 48.3089 0.0000 -3.0475 0.0000
# 3 53.4578 48.3089 189.8485 0.0000 -8.6657 0.0000
# 4 0.0000 0.0000 0.0000 30.9239 0.0000 5.5879
# 5 -8.7300 -3.0475 -8.6657 0.0000 26.5630 0.0000
# 6 0.0000 0.0000 0.0000 5.5879 0.0000 19.3019
#
#
#
# Elastic Compliance Matrix: (Units=1/GPa)
#
#
# Indices 1 2 3 4 5 6 
#
# 1 0.036434 -0.012909 -0.006594 0.000000 0.008342 0.000000
# 2 -0.012909 0.042178 -0.007177 0.000000 -0.001745 0.000000
# 3 -0.006594 -0.007177 0.008947 0.000000 -0.000072 0.000000
# 4 0.000000 0.000000 0.000000 0.034122 0.000000 -0.009878
# 5 0.008342 -0.001745 -0.000072 0.000000 0.040165 0.000000
# 6 0.000000 0.000000 0.000000 -0.009878 0.000000 0.054668
#
#
# Mechanical properties :
#
#
# Convention : Reuss Voigt Hill
#
# Bulk Modulus (GPa) = 29.24032 58.45547 43.84789
# Shear Modulus (GPa) = 17.77633 25.43222 21.60427
#
# Velocity S-wave (km/s) = 3.24628 3.88291 3.57878
# Velocity P-wave (km/s) = 5.60229 7.39978 6.56287
#
# Compressibility (1/GPa) = 0.03419936
#
# Stress axis : x y z
#
# Youngs Moduli (GPa) = 27.44700 23.70917 111.76859
#
# Poissons Ratio (x) = 0.30606 0.73695
# Poissons Ratio (y) = 0.35431 0.80220
# Poissons Ratio (z) = 0.18097 0.17017
#
# Static dielectric constant tensor:
#      x y z
#    x 1.559730 0.000000 -0.012900 
#    y 0.000000 1.564700 0.000000 
#    z -0.012900 0.000000 1.586900 
# 
# From -- ./inp_files/319201.got.cif
#   From: 2010.05.17/outbox.cif.g08.bks.cpg/sg12_160_cif.got.tgz:319201.got - 2010.06.03 13:09:07.
