data_PCOD9173837
_publ_section_title
;
Structure prediction by ZEFSAII (Michael W. Deem and Ramdas Pophale) SiO2 
 PCOD9173837
Probable space group: C 2/M
;
_chemical_formula_sum "Si O2"
_cell_formula_units_Z 44
_cell_length_a 13.656848
_cell_length_b 25.632681
_cell_length_c 11.330063
_cell_angle_alpha 90.000000
_cell_angle_beta 31.857647
_cell_angle_gamma 90.000000
_cell_volume 2093.413241
_symmetry_space_group_name_H-M "C 2/M"
_symmetry_group_IT_number 12
_symmetry_cell_setting 'monoclinic'
loop_
_space_group_symop_operation_xyz
x,y,z
-x,y,-z
-x,-y,-z
x,-y,z
1/2+x,1/2+y,z
1/2-x,1/2+y,-z
1/2-x,1/2-y,-z
1/2+x,1/2-y,z
loop_
_atom_site_type_symbol
_atom_site_label
_atom_site_fract_x
_atom_site_fract_y
_atom_site_fract_z
Si Si1 0.294876 0.639374 0.748450
Si Si2 0.000000 0.085025 0.000000
Si Si3 0.334409 0.851607 0.366570
Si Si4 0.381434 0.057696 0.503123
Si Si5 0.597131 0.347822 0.119511
Si Si6 0.895725 0.260635 0.988232
O O1 0.500000 0.625372 0.500000
O O2 0.170907 0.625694 0.762130
O O3 0.290170 0.623572 0.890846
O O4 0.263627 0.701577 0.797384
O O5 0.834184 0.056327 0.236466
O O6 0.097654 0.119605 0.000174
O O7 0.399732 0.894770 0.392967
O O8 0.460278 0.799595 0.227091
O O9 0.119020 0.840269 0.619896
O O10 0.500000 0.066625 0.500000
O O11 0.431721 0.000000 0.404120
O O12 0.666841 0.289934 0.018506
O O13 0.000000 0.240902 0.000000
#
# Coordination Sequence:
#
# PCOD9173837 Si02
#       6
#     8   4   8   8   8   8
#     4   9  19  33  50  74 110 154 187 225 269 325
#     4  10  21  36  60  88 118 146 185 232 288 332
#     4   9  20  35  53  79 108 147 185 237 277 330
#     4  10  22  41  63  85 110 142 189 242 290 338
#     4  10  18  33  51  80 116 150 186 223 270 338
#     4  10  18  31  50  77 116 152 186 222 272 324
#
# _framework density 21.018305999999999
#
# number of rings (size 3 to 8) (size 9 to 14) (size 15 to 20)
#    0.000    2.364    0.909    1.364    2.545    0.000 
#    0.000    0.000    0.000   19.636    0.000    0.000 
#    0.000    0.000    0.000    0.000    0.000    0.000 
#
# Total GULP energy -122542.351772 kJ/mol
# GULP energy per Si atom -5570.106899 kJ/mol
# Density = 2.097047 g / cm^3
# Si number density = 21.018306 Si / 1000 Ang^3
#
#
#
# Elastic Constant Matrix: (Units=GPa)
#
#
# Indices 1 2 3 4 5 6 
#
# 1 119.4012 43.4746 -13.9689 0.0000 31.7018 0.0001
# 2 43.4746 79.6643 7.0218 0.0000 17.9582 0.0000
# 3 -13.9689 7.0218 68.8429 0.0002 2.9922 0.0003
# 4 0.0000 0.0000 0.0002 3.3291 0.0000 -9.6518
# 5 31.7018 17.9582 2.9922 0.0000 33.3393 -0.0001
# 6 0.0001 0.0000 0.0003 -9.6518 -0.0001 0.8527
#
#
#
# Elastic Compliance Matrix: (Units=1/GPa)
#
#
# Indices 1 2 3 4 5 6 
#
# 1 0.013498 -0.005380 0.003734 0.000000 -0.010273 0.000000
# 2 -0.005380 0.016519 -0.002622 0.000000 -0.003547 0.000000
# 3 0.003734 -0.002622 0.015705 0.000001 -0.003548 0.000001
# 4 0.000000 0.000000 0.000001 -0.009440 -0.000001 -0.106863
# 5 -0.010273 -0.003547 -0.003548 -0.000001 0.041992 0.000000
# 6 0.000000 0.000000 0.000001 -0.106863 0.000000 -0.036859
#
#
# Mechanical properties :
#
#
# Convention : Reuss Voigt Hill
#
# Bulk Modulus (GPa) = 26.89127 37.88482 32.38804
# Shear Modulus (GPa) = 80.19707 22.92960 51.56333
#
# Velocity S-wave (km/s) = 6.18374 3.30651 4.95841
# Velocity P-wave (km/s) = 7.98792 5.71325 6.94435
#
# Compressibility (1/GPa) = 0.03718680
#
# Stress axis : x y z
#
# Youngs Moduli (GPa) = 74.08382 60.53534 63.67323
#
# Poissons Ratio (x) = 0.32566 -0.23776
# Poissons Ratio (y) = 0.39855 0.16697
# Poissons Ratio (z) = -0.27664 0.15874
#
# Static dielectric constant tensor:
#      x y z
#    x 1.873470 0.000000 -0.026350 
#    y 0.000000 1.709970 0.000000 
#    z -0.026350 0.000000 1.802390 
# 
# From -- ./inp_files/149400.got.cif
#   From: 2010.05.17/outbox.cif.g08.bks.cpg/sg12_75_cif.got.tgz:149400.got - 2010.06.03 13:09:07.
