data_PCOD9173975
_publ_section_title
;
Structure prediction by ZEFSAII (Michael W. Deem and Ramdas Pophale) SiO2 
 PCOD9173975
Probable space group: C 2/M
;
_chemical_formula_sum "Si O2"
_cell_formula_units_Z 48
_cell_length_a 15.060122
_cell_length_b 15.571323
_cell_length_c 13.958546
_cell_angle_alpha 90.000000
_cell_angle_beta 133.544893
_cell_angle_gamma 90.000000
_cell_volume 2372.647510
_symmetry_space_group_name_H-M "C 2/M"
_symmetry_group_IT_number 12
_symmetry_cell_setting 'monoclinic'
loop_
_space_group_symop_operation_xyz
x,y,z
-x,y,-z
-x,-y,-z
x,-y,z
1/2+x,1/2+y,z
1/2-x,1/2+y,-z
1/2-x,1/2-y,-z
1/2+x,1/2-y,z
loop_
_atom_site_type_symbol
_atom_site_label
_atom_site_fract_x
_atom_site_fract_y
_atom_site_fract_z
Si Si1 0.416326 0.397682 0.204749
Si Si2 0.457745 0.098558 0.859304
Si Si3 0.615998 0.286892 0.421859
Si Si4 0.187841 0.400839 0.916808
Si Si5 0.423783 0.847860 0.356183
Si Si6 0.807389 0.172998 0.323584
O O1 0.435455 0.500000 0.212416
O O2 0.543629 0.346106 0.293257
O O3 0.355758 0.374404 0.263846
O O4 0.317232 0.366884 0.051520
O O5 0.570996 0.137453 0.884946
O O6 0.333134 0.150799 0.763459
O O7 0.433066 0.000000 0.807379
O O8 0.500000 0.093979 0.000000
O O9 0.750000 0.250000 0.500000
O O10 0.528103 0.206524 0.378418
O O11 0.624124 0.344130 0.525291
O O12 0.190126 0.500000 0.950457
O O13 0.154743 0.397777 0.780534
O O14 0.500000 0.890657 0.500000
O O15 0.334071 0.773929 0.329425
#
# Coordination Sequence:
#
# PCOD9173975 Si02
#       6
#     8   8   8   8   8   8
#     4  10  20  35  55  81 112 142 178 225 278 333
#     4  10  18  31  51  80 117 141 169 219 269 329
#     4  10  21  36  52  77 111 146 185 226 268 328
#     4  10  20  35  56  82 110 145 184 225 278 328
#     4   9  20  37  55  77 108 144 190 230 266 322
#     4  10  19  33  54  79 111 145 182 221 268 325
#
# _framework density 20.230566
#
# number of rings (size 3 to 8) (size 9 to 14) (size 15 to 20)
#    0.000    2.167    1.667    3.000    0.000    5.000 
#    3.000    0.833    0.000    1.000    0.000    9.333 
#    0.000    0.000    0.000    0.000    0.000    0.000 
#
# Total GULP energy -133726.403405 kJ/mol
# GULP energy per Si atom -5571.933475 kJ/mol
# Density = 2.018452 g / cm^3
# Si number density = 20.230566 Si / 1000 Ang^3
#
#
#
# Elastic Constant Matrix: (Units=GPa)
#
#
# Indices 1 2 3 4 5 6 
#
# 1 47.0846 19.7308 47.6847 0.0000 17.0271 0.0000
# 2 19.7308 38.8166 36.0875 0.0000 14.5696 0.0000
# 3 47.6847 36.0875 173.3504 0.0000 11.7500 0.0000
# 4 0.0000 0.0000 0.0000 40.9774 0.0000 0.8343
# 5 17.0271 14.5696 11.7500 0.0000 42.3947 0.0000
# 6 0.0000 0.0000 0.0000 0.8343 0.0000 11.9451
#
#
#
# Elastic Compliance Matrix: (Units=1/GPa)
#
#
# Indices 1 2 3 4 5 6 
#
# 1 0.035476 -0.007388 -0.007569 0.000000 -0.009611 0.000000
# 2 -0.007388 0.037548 -0.005209 0.000000 -0.008493 0.000000
# 3 -0.007569 -0.005209 0.008772 0.000000 0.002399 0.000000
# 4 0.000000 0.000000 0.000000 0.024438 0.000000 -0.001707
# 5 -0.009611 -0.008493 0.002399 0.000000 0.029702 0.000000
# 6 0.000000 0.000000 0.000000 -0.001707 0.000000 0.083835
#
#
# Mechanical properties :
#
#
# Convention : Reuss Voigt Hill
#
# Bulk Modulus (GPa) = 24.11711 51.80642 37.96176
# Shear Modulus (GPa) = 18.25318 29.44668 23.84993
#
# Velocity S-wave (km/s) = 3.00702 3.81931 3.43724
# Velocity P-wave (km/s) = 4.89931 6.71663 5.87862
#
# Compressibility (1/GPa) = 0.04146434
#
# Stress axis : x y z
#
# Youngs Moduli (GPa) = 28.18834 26.63274 113.99332
#
# Poissons Ratio (x) = 0.19677 0.86282
# Poissons Ratio (y) = 0.20826 0.59374
# Poissons Ratio (z) = 0.21336 0.13872
#
# Static dielectric constant tensor:
#      x y z
#    x 1.750580 0.000000 -0.028840 
#    y 0.000000 1.727920 0.000000 
#    z -0.028840 0.000000 1.782020 
# 
# From -- ./inp_files/168345.got.cif
#   From: 2010.05.17/outbox.cif.g08.bks.cpg/sg12_85_cif.got.tgz:168345.got - 2010.06.03 13:09:07.
