data_PCOD9173797
_publ_section_title
;
Structure prediction by ZEFSAII (Michael W. Deem and Ramdas Pophale) SiO2 
 PCOD9173797
Probable space group: C 2/M
;
_chemical_formula_sum "Si O2"
_cell_formula_units_Z 40
_cell_length_a 14.117520
_cell_length_b 11.749325
_cell_length_c 17.258742
_cell_angle_alpha 90.000000
_cell_angle_beta 147.464469
_cell_angle_gamma 90.000000
_cell_volume 1539.640932
_symmetry_space_group_name_H-M "C 2/M"
_symmetry_group_IT_number 12
_symmetry_cell_setting 'monoclinic'
loop_
_space_group_symop_operation_xyz
x,y,z
-x,y,-z
-x,-y,-z
x,-y,z
1/2+x,1/2+y,z
1/2-x,1/2+y,-z
1/2-x,1/2-y,-z
1/2+x,1/2-y,z
loop_
_atom_site_type_symbol
_atom_site_label
_atom_site_fract_x
_atom_site_fract_y
_atom_site_fract_z
Si Si1 0.539063 0.237042 0.916839
Si Si2 0.356603 0.125623 0.163639
Si Si3 0.741608 0.124147 0.187521
Si Si4 0.406510 0.125750 0.519337
Si Si5 0.610820 0.625453 0.495983
O O1 0.563795 0.211810 0.844345
O O2 0.343189 0.217544 0.813532
O O3 0.647309 0.347528 0.018454
O O4 0.648430 0.143070 0.041769
O O5 0.451218 0.129656 0.312245
O O6 0.384813 0.000000 0.152198
O O7 0.950419 0.127112 0.324320
O O8 0.698586 0.000000 0.190305
O O9 0.500000 0.125340 0.500000
O O10 0.307192 0.248310 0.454809
O O11 0.316486 0.000000 0.463575
O O12 0.500000 0.623312 0.500000
O O13 0.701391 0.500000 0.553493
#
# Coordination Sequence:
#
# PCOD9173797 Si02
#       5
#     8   8   8   8   8
#     4  10  19  31  48  74 104 131 166 206 254 301
#     4  10  19  32  49  75 103 134 173 211 251 302
#     4  10  18  31  50  74 100 133 168 207 255 305
#     4   9  17  31  50  71  96 132 173 208 247 299
#     4   9  17  30  50  75  97 125 169 217 255 292
#
# _framework density 25.980084000000002
#
# number of rings (size 3 to 8) (size 9 to 14) (size 15 to 20)
#    0.000    2.400    2.000    2.400    0.000    0.000 
#    0.000    3.000    0.000    4.800    0.000    2.800 
#    0.000    0.000    0.000    0.000    0.000    0.000 
#
# Total GULP energy -111536.555504 kJ/mol
# GULP energy per Si atom -5576.827775 kJ/mol
# Density = 2.592095 g / cm^3
# Si number density = 25.980084 Si / 1000 Ang^3
#
#
#
# Elastic Constant Matrix: (Units=GPa)
#
#
# Indices 1 2 3 4 5 6 
#
# 1 93.6301 22.7973 30.3600 0.0015 -20.6415 0.0011
# 2 22.7973 197.8411 22.3267 0.0013 18.9859 0.0012
# 3 30.3600 22.3267 131.1323 0.0027 -16.7432 0.0024
# 4 0.0015 0.0013 0.0027 23.8622 0.0016 -13.9878
# 5 -20.6415 18.9859 -16.7432 0.0016 50.2621 0.0013
# 6 0.0011 0.0012 0.0024 -13.9878 0.0013 -11.6594
#
#
#
# Elastic Compliance Matrix: (Units=1/GPa)
#
#
# Indices 1 2 3 4 5 6 
#
# 1 0.012936 -0.001773 -0.002015 0.000000 0.005311 0.000001
# 2 -0.001773 0.005674 -0.000963 0.000000 -0.003192 0.000000
# 3 -0.002015 -0.000963 0.008561 0.000000 0.002388 0.000002
# 4 0.000000 0.000000 0.000000 0.024604 0.000000 -0.029518
# 5 0.005311 -0.003192 0.002388 0.000000 0.024078 0.000003
# 6 0.000001 0.000000 0.000002 -0.029518 0.000003 -0.050355
#
#
# Mechanical properties :
#
#
# Convention : Reuss Voigt Hill
#
# Bulk Modulus (GPa) = 56.59554 63.73017 60.16286
# Shear Modulus (GPa) = 122.27697 35.63427 78.95562
#
# Velocity S-wave (km/s) = 6.86788 3.70753 5.51877
# Velocity P-wave (km/s) = 9.20445 6.55068 7.98853
#
# Compressibility (1/GPa) = 0.01766924
#
# Stress axis : x y z
#
# Youngs Moduli (GPa) = 77.30207 176.24595 116.80423
#
# Poissons Ratio (x) = 0.31247 0.23537
# Poissons Ratio (y) = 0.13705 0.11250
# Poissons Ratio (z) = 0.15577 0.16975
#
# Static dielectric constant tensor:
#      x y z
#    x 2.051880 0.000000 0.017930 
#    y 0.000000 2.086500 0.000000 
#    z 0.017930 0.000000 2.079130 
# 
# From -- ./inp_files/152919.got.cif
#   From: 2010.05.17/outbox.cif.g08.bks.cpg/sg12_77_cif.got.tgz:152919.got - 2010.06.03 13:09:07.
