data_PCOD9173385
_publ_section_title
;
Structure prediction by ZEFSAII (Michael W. Deem and Ramdas Pophale) SiO2 
 PCOD9173385
Probable space group: C 2/M
;
_chemical_formula_sum "Si O2"
_cell_formula_units_Z 56
_cell_length_a 25.791755
_cell_length_b 7.450516
_cell_length_c 15.656906
_cell_angle_alpha 90.000000
_cell_angle_beta 51.511223
_cell_angle_gamma 90.000000
_cell_volume 2354.969105
_symmetry_space_group_name_H-M "C 2/M"
_symmetry_group_IT_number 12
_symmetry_cell_setting 'monoclinic'
loop_
_space_group_symop_operation_xyz
x,y,z
-x,y,-z
-x,-y,-z
x,-y,z
1/2+x,1/2+y,z
1/2-x,1/2+y,-z
1/2-x,1/2-y,-z
1/2+x,1/2-y,z
loop_
_atom_site_type_symbol
_atom_site_label
_atom_site_fract_x
_atom_site_fract_y
_atom_site_fract_z
Si Si1 0.408036 0.215804 0.783495
Si Si2 0.768211 0.780417 0.260016
Si Si3 0.881048 0.719411 0.618644
Si Si4 0.996252 0.210717 0.902857
Si Si5 0.646930 0.712929 0.989693
Si Si6 0.055942 0.714641 0.615547
Si Si7 0.633620 0.714335 0.693535
O O1 0.393482 0.278298 0.702447
O O2 0.350790 0.266667 0.910153
O O3 0.484192 0.278560 0.724232
O O4 0.408626 0.000000 0.782393
O O5 0.692229 0.725672 0.335084
O O6 0.807693 0.720333 0.304903
O O7 0.768480 0.000000 0.260165
O O8 0.803680 0.721349 0.134703
O O9 0.883482 0.500000 0.617762
O O10 0.932126 0.777733 0.493265
O O11 0.926125 0.292550 0.950885
O O12 0.064166 0.290681 0.799598
O O13 0.995567 0.000000 0.878762
O O14 0.000000 0.215000 0.000000
O O15 0.644328 0.500000 0.976413
O O16 0.051277 0.500000 0.618103
O O17 0.121041 0.755734 0.605993
O O18 0.634295 0.500000 0.704643
#
# Coordination Sequence:
#
# PCOD9173385 Si02
#       7
#     8   8   8   8   8   8   8
#     4  10  20  34  53  75  99 132 172 210 249 291
#     4   9  18  32  53  78 101 132 170 201 242 305
#     4   9  19  36  53  70  98 136 176 211 240 288
#     4   9  14  24  45  72  99 126 156 195 241 292
#     4  10  18  30  52  79 103 127 161 206 254 300
#     4  10  20  34  53  75  99 132 172 210 249 291
#     4  10  18  30  52  79 103 127 161 206 254 300
#
# _framework density 23.779503999999999
#
# number of rings (size 3 to 8) (size 9 to 14) (size 15 to 20)
#    0.000    2.429    2.857    0.429    0.000    2.857 
#    0.000    1.429    0.000    6.000    0.000    0.000 
#    0.000    0.000    0.000    0.000    0.000    0.000 
#
# Total GULP energy -156129.360402 kJ/mol
# GULP energy per Si atom -5576.048586 kJ/mol
# Density = 2.372538 g / cm^3
# Si number density = 23.779504 Si / 1000 Ang^3
#
#
#
# Elastic Constant Matrix: (Units=GPa)
#
#
# Indices 1 2 3 4 5 6 
#
# 1 61.3417 -1.7465 23.8899 0.0002 13.1234 0.0000
# 2 -1.7465 72.7720 -1.1994 0.0007 0.8425 -0.0010
# 3 23.8899 -1.1994 71.7051 0.0006 19.7943 -0.0007
# 4 0.0002 0.0007 0.0006 14.7681 -0.0001 8.5413
# 5 13.1234 0.8425 19.7943 -0.0001 32.4808 0.0001
# 6 0.0000 -0.0010 -0.0007 8.5413 0.0001 5.3469
#
#
#
# Elastic Compliance Matrix: (Units=1/GPa)
#
#
# Indices 1 2 3 4 5 6 
#
# 1 0.019317 0.000433 -0.005135 0.000003 -0.004687 -0.000005
# 2 0.000433 0.013765 0.000280 -0.000028 -0.000703 0.000048
# 3 -0.005135 0.000280 0.018143 -0.000030 -0.008989 0.000051
# 4 0.000003 -0.000028 -0.000030 0.889771 0.000028 -1.421358
# 5 -0.004687 -0.000703 -0.008989 0.000028 0.038177 -0.000047
# 6 -0.000005 0.000048 0.000051 -1.421358 -0.000047 2.457563
#
#
# Mechanical properties :
#
#
# Convention : Reuss Voigt Hill
#
# Bulk Modulus (GPa) = 23.59539 27.52299 25.55919
# Shear Modulus (GPa) = 1.44521 22.84415 12.14468
#
# Velocity S-wave (km/s) = 0.78043 3.10282 2.26236
# Velocity P-wave (km/s) = 3.27967 4.94328 4.19477
#
# Compressibility (1/GPa) = 0.04238116
#
# Stress axis : x y z
#
# Youngs Moduli (GPa) = 51.76813 72.64967 55.11800
#
# Poissons Ratio (x) = -0.03147 0.28302
# Poissons Ratio (y) = -0.02243 -0.01542
# Poissons Ratio (z) = 0.26582 -0.02033
#
# Static dielectric constant tensor:
#      x y z
#    x 1.929420 0.000000 0.057210 
#    y 0.000000 1.907440 0.000000 
#    z 0.057210 0.000000 1.953670 
# 
# From -- ./inp_files/181924.got.cif
#   From: 2010.05.17/outbox.cif.g08.bks.cpg/sg12_91_cif.got.tgz:181924.got - 2010.06.03 13:09:07.
