data_PCOD9173622
_publ_section_title
;
Structure prediction by ZEFSAII (Michael W. Deem and Ramdas Pophale) SiO2 
 PCOD9173622
Probable space group: C 2/M
;
_chemical_formula_sum "Si O2"
_cell_formula_units_Z 58
_cell_length_a 28.504405
_cell_length_b 7.387397
_cell_length_c 11.292041
_cell_angle_alpha 90.000000
_cell_angle_beta 88.907990
_cell_angle_gamma 90.000000
_cell_volume 2377.371112
_symmetry_space_group_name_H-M "C 2/M"
_symmetry_group_IT_number 12
_symmetry_cell_setting 'monoclinic'
loop_
_space_group_symop_operation_xyz
x,y,z
-x,y,-z
-x,-y,-z
x,-y,z
1/2+x,1/2+y,z
1/2-x,1/2+y,-z
1/2-x,1/2-y,-z
1/2+x,1/2-y,z
loop_
_atom_site_type_symbol
_atom_site_label
_atom_site_fract_x
_atom_site_fract_y
_atom_site_fract_z
Si Si1 0.548514 0.781475 0.632302
Si Si2 0.604809 0.219660 0.390453
Si Si3 0.804949 0.284480 0.497478
Si Si4 0.194233 0.282443 0.759892
Si Si5 0.000000 0.000000 0.500000
Si Si6 0.890397 0.722372 0.868487
Si Si7 0.784032 0.708525 0.888181
Si Si8 0.599815 0.780190 0.875063
O O1 0.580802 0.727023 0.516200
O O2 0.504252 0.660251 0.602820
O O3 0.570884 0.732177 0.758348
O O4 0.541256 0.000000 0.630036
O O5 0.659350 0.278416 0.404559
O O6 0.590010 0.279778 0.260184
O O7 0.601534 0.000000 0.390012
O O8 0.810237 0.500000 0.497814
O O9 0.750000 0.250000 0.500000
O O10 0.821080 0.218150 0.368108
O O11 0.193450 0.500000 0.762100
O O12 0.247838 0.232346 0.782213
O O13 0.154100 0.222052 0.852093
O O14 0.891786 0.500000 0.867128
O O15 0.835842 0.788220 0.876726
O O16 0.914101 0.777535 0.991806
O O17 0.794591 0.500000 0.900072
O O18 0.750000 0.750000 0.000000
O O19 0.599497 0.000000 0.874847
#
# Coordination Sequence:
#
# PCOD9173622 Si02
#       8
#     8   8   8   8   2   8   8   8
#     4  10  21  42  70  95 125 159 191 245 318 380
#     4   9  17  33  57  83 115 158 206 246 299 362
#     4  10  19  31  47  72 110 158 204 249 294 343
#     4  10  18  31  48  67 103 152 203 249 291 336
#     4  12  26  44  72 108 128 140 202 258 312 398
#     4   9  17  29  52  81 111 155 212 254 284 352
#     4  11  20  30  45  70 109 156 206 257 301 336
#     4   9  16  32  56  81 110 154 198 238 293 357
#
# _framework density 24.396698000000001
#
# number of rings (size 3 to 8) (size 9 to 14) (size 15 to 20)
#    0.000    2.207    2.759    1.448    0.000    1.655 
#    2.483    0.000    3.034    1.655    0.000    4.828 
#    0.000    0.000    0.000    0.000    0.000    0.000 
#
# Total GULP energy -161457.953565 kJ/mol
# GULP energy per Si atom -5567.515640 kJ/mol
# Density = 2.434117 g / cm^3
# Si number density = 24.396698 Si / 1000 Ang^3
#
#
#
# Elastic Constant Matrix: (Units=GPa)
#
#
# Indices 1 2 3 4 5 6 
#
# 1 52.2655 2.8109 50.4437 0.0000 12.4416 0.0000
# 2 2.8109 84.9634 9.7748 0.0000 -2.6577 0.0000
# 3 50.4437 9.7748 215.5558 0.0000 9.7449 0.0000
# 4 0.0000 0.0000 0.0000 -1.1800 0.0000 10.3595
# 5 12.4416 -2.6577 9.7449 0.0000 18.8946 0.0000
# 6 0.0000 0.0000 0.0000 10.3595 0.0000 -6.0038
#
#
#
# Elastic Compliance Matrix: (Units=1/GPa)
#
#
# Indices 1 2 3 4 5 6 
#
# 1 0.028730 -0.000763 -0.005968 0.000000 -0.015947 0.000000
# 2 -0.000763 0.011925 -0.000472 0.000000 0.002423 0.000000
# 3 -0.005968 -0.000472 0.006023 0.000000 0.000757 0.000000
# 4 0.000000 0.000000 0.000000 0.059897 0.000000 0.103352
# 5 -0.015947 0.002423 0.000757 0.000000 0.063376 0.000000
# 6 0.000000 0.000000 0.000000 0.103352 0.000000 0.011772
#
#
# Mechanical properties :
#
#
# Convention : Reuss Voigt Hill
#
# Bulk Modulus (GPa) = 30.98530 53.20481 42.09506
# Shear Modulus (GPa) = 24.16790 21.65920 22.91355
#
# Velocity S-wave (km/s) = 3.15083 2.98282 3.06797
# Velocity P-wave (km/s) = 5.09560 5.80676 5.46277
#
# Compressibility (1/GPa) = 0.03227337
#
# Stress axis : x y z
#
# Youngs Moduli (GPa) = 34.80672 83.85686 166.03283
#
# Poissons Ratio (x) = 0.06396 0.99085
# Poissons Ratio (y) = 0.02655 0.07833
# Poissons Ratio (z) = 0.20772 0.03956
#
# Static dielectric constant tensor:
#      x y z
#    x 2.038230 0.000000 -0.011320 
#    y 0.000000 1.930390 0.000000 
#    z -0.011320 0.000000 1.994620 
# 
# From -- ./inp_files/186651.got.cif
#   From: 2010.05.17/outbox.cif.g08.bks.cpg/sg12_94_cif.got.tgz:186651.got - 2010.06.03 13:09:07.
