data_PCOD9173312
_publ_section_title
;
Structure prediction by ZEFSAII (Michael W. Deem and Ramdas Pophale) SiO2 
 PCOD9173312
Probable space group: C 2/M
;
_chemical_formula_sum "Si O2"
_cell_formula_units_Z 56
_cell_length_a 11.000407
_cell_length_b 18.741555
_cell_length_c 14.789381
_cell_angle_alpha 90.000000
_cell_angle_beta 90.000063
_cell_angle_gamma 90.000000
_cell_volume 3049.048782
_symmetry_space_group_name_H-M "C 2/M"
_symmetry_group_IT_number 12
_symmetry_cell_setting 'monoclinic'
loop_
_space_group_symop_operation_xyz
x,y,z
-x,y,-z
-x,-y,-z
x,-y,z
1/2+x,1/2+y,z
1/2-x,1/2+y,-z
1/2-x,1/2-y,-z
1/2+x,1/2-y,z
loop_
_atom_site_type_symbol
_atom_site_label
_atom_site_fract_x
_atom_site_fract_y
_atom_site_fract_z
Si Si1 0.366381 0.202446 0.392304
Si Si2 0.641003 0.413237 0.899027
Si Si3 0.133619 0.702446 0.392304
Si Si4 0.753636 0.914562 0.288788
Si Si5 0.000000 0.086183 0.602120
Si Si6 0.753636 0.085438 0.711212
Si Si7 0.358998 0.586763 0.899027
O O1 0.250000 0.250000 0.367028
O O2 0.500000 0.234424 0.374316
O O3 0.377772 0.397395 0.343631
O O4 0.350721 0.129316 0.337772
O O5 0.640763 0.500000 0.898473
O O6 0.723297 0.391636 0.814778
O O7 0.500000 0.392018 0.884298
O O8 0.678070 0.390316 0.000000
O O9 0.149279 0.629315 0.337773
O O10 0.141827 0.689298 0.500000
O O11 0.735530 0.000000 0.291976
O O12 0.877772 0.102604 0.656368
O O13 0.000000 0.116081 0.500000
O O14 0.000002 0.000000 0.594978
O O15 0.776704 0.108364 0.814778
O O16 0.735529 0.000000 0.708024
O O17 0.359238 0.500000 0.898473
#
# Coordination Sequence:
#
# PCOD9173312 Si02
#       7
#     8   8   8   8   8   8   8
#     4  10  23  40  56  76 105 143 180 215 262 320
#     4   8  13  23  42  72 109 142 174 215 263 314
#     4  10  23  40  56  76 105 143 180 215 262 320
#     4  10  18  30  51  79 108 138 176 220 265 311
#     4   9  16  24  39  71 107 135 165 207 254 297
#     4  10  18  30  51  79 108 138 176 220 265 311
#     4   8  13  23  42  72 109 142 174 215 263 314
#
# _framework density 18.366385000000001
#
# number of rings (size 3 to 8) (size 9 to 14) (size 15 to 20)
#    0.000    2.714    1.429    1.714    2.000    2.286 
#    0.000    1.429    0.000    1.714    0.000    4.000 
#    0.000    0.000    0.000    0.000    0.000    0.000 
#
# Total GULP energy -156067.550052 kJ/mol
# GULP energy per Si atom -5573.841073 kJ/mol
# Density = 1.832458 g / cm^3
# Si number density = 18.366385 Si / 1000 Ang^3
#
#
#
# Elastic Constant Matrix: (Units=GPa)
#
#
# Indices 1 2 3 4 5 6 
#
# 1 92.3590 31.4417 35.8355 0.0000 1.2103 0.0000
# 2 31.4417 46.4607 25.8826 0.0000 0.4168 0.0000
# 3 35.8355 25.8826 81.9971 0.0000 -0.4333 0.0000
# 4 0.0000 0.0000 0.0000 9.9322 0.0000 0.7868
# 5 1.2103 0.4168 -0.4333 0.0000 20.3149 0.0000
# 6 0.0000 0.0000 0.0000 0.7868 0.0000 20.4315
#
#
#
# Elastic Compliance Matrix: (Units=1/GPa)
#
#
# Indices 1 2 3 4 5 6 
#
# 1 0.015139 -0.007947 -0.004112 0.000000 -0.000827 0.000000
# 2 -0.007947 0.030298 -0.006092 0.000000 -0.000278 0.000000
# 3 -0.004112 -0.006092 0.015919 0.000000 0.000710 0.000000
# 4 0.000000 0.000000 0.000000 0.100990 0.000000 -0.003889
# 5 -0.000827 -0.000278 0.000710 0.000000 0.049295 0.000000
# 6 0.000000 0.000000 0.000000 -0.003889 0.000000 0.049094
#
#
# Mechanical properties :
#
#
# Convention : Reuss Voigt Hill
#
# Bulk Modulus (GPa) = 39.91364 45.23739 42.57551
# Shear Modulus (GPa) = 16.37257 18.64619 17.50938
#
# Velocity S-wave (km/s) = 2.98894 3.18973 3.09097
# Velocity P-wave (km/s) = 5.80438 6.18465 5.99753
#
# Compressibility (1/GPa) = 0.02505409
#
# Stress axis : x y z
#
# Youngs Moduli (GPa) = 66.05438 33.00573 62.81643
#
# Poissons Ratio (x) = 0.26229 0.25831
# Poissons Ratio (y) = 0.52493 0.38268
# Poissons Ratio (z) = 0.27163 0.20107
#
# Static dielectric constant tensor:
#      x y z
#    x 1.637590 0.000000 -0.000030 
#    y 0.000000 1.656340 0.000000 
#    z -0.000030 0.000000 1.638030 
# 
# From -- ./inp_files/215559.got.cif
#   From: 2010.05.17/outbox.cif.g08.bks.cpg/sg12_108_cif.got.tgz:215559.got - 2010.06.03 13:09:07.
