data_PCOD9173678
_publ_section_title
;
Structure prediction by ZEFSAII (Michael W. Deem and Ramdas Pophale) SiO2 
 PCOD9173678
Probable space group: C 2/M
;
_chemical_formula_sum "Si O2"
_cell_formula_units_Z 64
_cell_length_a 10.398795
_cell_length_b 15.336140
_cell_length_c 17.888789
_cell_angle_alpha 90.000000
_cell_angle_beta 89.332520
_cell_angle_gamma 90.000000
_cell_volume 2852.663542
_symmetry_space_group_name_H-M "C 2/M"
_symmetry_group_IT_number 12
_symmetry_cell_setting 'monoclinic'
loop_
_space_group_symop_operation_xyz
x,y,z
-x,y,-z
-x,-y,-z
x,-y,z
1/2+x,1/2+y,z
1/2-x,1/2+y,-z
1/2-x,1/2-y,-z
1/2+x,1/2-y,z
loop_
_atom_site_type_symbol
_atom_site_label
_atom_site_fract_x
_atom_site_fract_y
_atom_site_fract_z
Si Si1 0.152776 0.667862 0.022722
Si Si2 0.676722 0.144957 0.200110
Si Si3 0.878751 0.642837 0.452095
Si Si4 0.414067 0.643933 0.288574
Si Si5 0.112765 0.097938 0.053240
Si Si6 0.577014 0.141886 0.718924
Si Si7 0.127932 0.855783 0.542175
Si Si8 0.834817 0.152465 0.784638
O O1 0.158972 0.648418 0.111209
O O2 0.250000 0.750000 0.000000
O O3 0.243362 0.597333 0.981354
O O4 0.000000 0.672080 0.000000
O O5 0.554269 0.107671 0.244327
O O6 0.679117 0.244818 0.228730
O O7 0.813464 0.110701 0.227434
O O8 0.896052 0.615578 0.366342
O O9 0.873810 0.749318 0.454384
O O10 0.749327 0.614229 0.493677
O O11 0.000000 0.615183 0.500000
O O12 0.425227 0.750771 0.283300
O O13 0.369848 0.617945 0.371303
O O14 0.557454 0.613410 0.269468
O O15 0.117518 0.146978 0.131146
O O16 0.072554 0.000000 0.071019
O O17 0.000000 0.133489 0.000000
O O18 0.695278 0.114379 0.770485
O O19 0.000000 0.883164 0.500000
#
# Coordination Sequence:
#
# PCOD9173678 Si02
#       8
#     8   8   8   8   8   8   8   8
#     4  12  24  37  60  84 111 143 184 233 278 336
#     4  10  19  29  48  71 100 129 173 218 266 311
#     4   9  15  23  36  54  91 130 165 199 246 309
#     4   9  17  26  42  66  96 131 170 213 255 308
#     4  11  24  41  59  80 109 145 184 229 285 339
#     4   9  17  27  41  67  94 132 169 209 257 311
#     4   9  15  23  35  56  88 131 170 201 243 303
#     4  10  18  31  49  68  99 129 171 218 262 317
#
# _framework density 22.435174
#
# number of rings (size 3 to 8) (size 9 to 14) (size 15 to 20)
#    0.000    2.125    1.250    3.375    3.500    6.250 
#    0.000    0.000    0.000    0.000    0.000    0.000 
#    0.000    5.000    0.000    0.500    0.000    1.500 
#
# Total GULP energy -178486.504918 kJ/mol
# GULP energy per Si atom -5577.703279 kJ/mol
# Density = 2.238411 g / cm^3
# Si number density = 22.435174 Si / 1000 Ang^3
#
#
#
# Elastic Constant Matrix: (Units=GPa)
#
#
# Indices 1 2 3 4 5 6 
#
# 1 120.7302 -2.0726 16.6519 0.0000 -3.1391 0.0000
# 2 -2.0726 40.6305 -13.5345 0.0000 1.4163 0.0000
# 3 16.6519 -13.5345 81.8358 0.0000 -7.9143 0.0000
# 4 0.0000 0.0000 0.0000 -19.4415 0.0000 0.7818
# 5 -3.1391 1.4163 -7.9143 0.0000 48.3896 0.0000
# 6 0.0000 0.0000 0.0000 0.7818 0.0000 0.9927
#
#
#
# Elastic Compliance Matrix: (Units=1/GPa)
#
#
# Indices 1 2 3 4 5 6 
#
# 1 0.008527 -0.000152 -0.001734 0.000000 0.000274 0.000000
# 2 -0.000152 0.026050 0.004333 0.000000 -0.000064 0.000000
# 3 -0.001734 0.004333 0.013479 0.000000 0.001965 0.000000
# 4 0.000000 0.000000 0.000000 -0.049857 0.000000 0.039264
# 5 0.000274 -0.000064 0.001965 0.000000 0.021007 0.000000
# 6 0.000000 0.000000 0.000000 0.039264 0.000000 0.976412
#
#
# Mechanical properties :
#
#
# Convention : Reuss Voigt Hill
#
# Bulk Modulus (GPa) = 18.88564 27.25401 23.06983
# Shear Modulus (GPa) = 4.95849 22.13160 13.54504
#
# Velocity S-wave (km/s) = 1.48827 3.14422 2.45978
# Velocity P-wave (km/s) = 3.37482 5.03545 4.28632
#
# Compressibility (1/GPa) = 0.05295027
#
# Stress axis : x y z
#
# Youngs Moduli (GPa) = 117.28063 38.38780 74.18925
#
# Poissons Ratio (x) = 0.00584 0.12862
# Poissons Ratio (y) = 0.01784 -0.32147
# Poissons Ratio (z) = 0.20332 -0.16634
#
# Static dielectric constant tensor:
#      x y z
#    x 1.854860 0.000000 0.003640 
#    y 0.000000 1.846740 0.000000 
#    z 0.003640 0.000000 1.786700 
# 
# From -- ./inp_files/258107.got.cif
#   From: 2010.05.17/outbox.cif.g08.bks.cpg/sg12_130_cif.got.tgz:258107.got - 2010.06.03 13:09:07.
