data_PCOD9173399
_publ_section_title
;
Structure prediction by ZEFSAII (Michael W. Deem and Ramdas Pophale) SiO2 
 PCOD9173399
Probable space group: C 2/M
;
_chemical_formula_sum "Si O2"
_cell_formula_units_Z 64
_cell_length_a 15.488483
_cell_length_b 14.877029
_cell_length_c 20.979418
_cell_angle_alpha 90.000000
_cell_angle_beta 130.387170
_cell_angle_gamma 90.000000
_cell_volume 3682.078394
_symmetry_space_group_name_H-M "C 2/M"
_symmetry_group_IT_number 12
_symmetry_cell_setting 'monoclinic'
loop_
_space_group_symop_operation_xyz
x,y,z
-x,y,-z
-x,-y,-z
x,-y,z
1/2+x,1/2+y,z
1/2-x,1/2+y,-z
1/2-x,1/2-y,-z
1/2+x,1/2-y,z
loop_
_atom_site_type_symbol
_atom_site_label
_atom_site_fract_x
_atom_site_fract_y
_atom_site_fract_z
Si Si1 0.377007 0.898584 0.355141
Si Si2 0.706949 0.741246 0.213178
Si Si3 0.027395 0.095923 0.087467
Si Si4 0.306504 0.261257 0.126823
Si Si5 0.724452 0.603816 0.402437
Si Si6 0.576620 0.761919 0.274048
Si Si7 0.229962 0.895918 0.001168
Si Si8 0.881990 0.394101 0.588813
O O1 0.307139 0.822831 0.285521
O O2 0.331608 0.894724 0.405414
O O3 0.508579 0.884162 0.404511
O O4 0.350801 0.000000 0.319328
O O5 0.605388 0.676756 0.143294
O O6 0.756367 0.783942 0.172501
O O7 0.650298 0.790428 0.246821
O O8 0.083084 0.000000 0.129588
O O9 0.000000 0.098341 0.000000
O O10 0.906004 0.099365 0.061986
O O11 0.443963 0.256292 0.195561
O O12 0.270234 0.162936 0.081377
O O13 0.251220 0.333726 0.051790
O O14 0.685059 0.500000 0.386046
O O15 0.632464 0.670160 0.328232
O O16 0.771544 0.631189 0.494307
O O17 0.594215 0.835494 0.337568
O O18 0.271558 0.000000 0.020401
O O19 0.872203 0.500000 0.599722
#
# Coordination Sequence:
#
# PCOD9173399 Si02
#       8
#     8   8   8   8   8   8   8   8
#     4   9  17  29  51  82 111 137 171 221 282 330
#     4  11  20  33  51  79 113 140 176 224 266 319
#     4  10  18  30  52  80 106 135 169 220 282 328
#     4  11  22  37  56  81 111 143 179 222 275 320
#     4   9  19  34  55  82 110 140 178 228 278 321
#     4  11  22  35  54  82 111 146 181 220 269 324
#     4  10  22  38  57  81 108 141 182 225 270 325
#     4  10  19  34  54  78 112 149 182 217 265 324
#
# _framework density 17.381487
#
# number of rings (size 3 to 8) (size 9 to 14) (size 15 to 20)
#    0.000    1.875    3.750    1.125    0.000    3.500 
#    0.000    0.625    0.000    0.750    0.000    1.750 
#    0.000    0.000    0.000    0.000    0.000    0.000 
#
# Total GULP energy -178200.347826 kJ/mol
# GULP energy per Si atom -5568.760870 kJ/mol
# Density = 1.734193 g / cm^3
# Si number density = 17.381487 Si / 1000 Ang^3
#
#
#
# Elastic Constant Matrix: (Units=GPa)
#
#
# Indices 1 2 3 4 5 6 
#
# 1 57.7272 17.1789 19.3715 0.0000 0.4776 0.0000
# 2 17.1789 64.7179 23.7445 0.0000 -1.8447 0.0000
# 3 19.3715 23.7445 63.2486 0.0000 0.3830 0.0000
# 4 0.0000 0.0000 0.0000-1318.9814 0.0000 131.1455
# 5 0.4776 -1.8447 0.3830 0.0000 20.7312 0.0000
# 6 0.0000 0.0000 0.0000 131.1455 0.0000 6.8783
#
#
#
# Elastic Compliance Matrix: (Units=1/GPa)
#
#
# Indices 1 2 3 4 5 6 
#
# 1 0.019996 -0.003574 -0.004778 0.000000 -0.000690 0.000000
# 2 -0.003574 0.018620 -0.005907 0.000000 0.001848 0.000000
# 3 -0.004778 -0.005907 0.019496 0.000000 -0.000776 0.000000
# 4 0.000000 0.000000 0.000000 -0.000262 0.000000 0.004992
# 5 -0.000690 0.001848 -0.000776 0.000000 0.048431 0.000000
# 6 0.000000 0.000000 0.000000 0.004992 0.000000 0.050206
#
#
# Mechanical properties :
#
#
# Convention : Reuss Voigt Hill
#
# Bulk Modulus (GPa) = 33.79100 34.03148 33.91124
# Shear Modulus (GPa) = 25.65804 -249.91448 -112.12822
#
# Velocity S-wave (km/s) = 3.84626 -12.00392 -8.04053
# Velocity P-wave (km/s) = 6.26163 13.13407 8.16382
#
# Compressibility (1/GPa) = 0.02959368
#
# Stress axis : x y z
#
# Youngs Moduli (GPa) = 50.01097 53.70480 51.29186
#
# Poissons Ratio (x) = 0.19196 0.24508
# Poissons Ratio (y) = 0.17875 0.30297
# Poissons Ratio (z) = 0.23896 0.31722
#
# Static dielectric constant tensor:
#      x y z
#    x 1.610530 0.000000 -0.024510 
#    y 0.000000 1.601800 0.000000 
#    z -0.024510 0.000000 1.624060 
# 
# From -- ./inp_files/270697.got.cif
#   From: 2010.05.17/outbox.cif.g08.bks.cpg/sg12_136_cif.got.tgz:270697.got - 2010.06.03 13:09:07.
