data_PCOD9173068
_publ_section_title
;
Structure prediction by ZEFSAII (Michael W. Deem and Ramdas Pophale) SiO2 
 PCOD9173068
Probable space group: C 2/M
;
_chemical_formula_sum "Si O2"
_cell_formula_units_Z 64
_cell_length_a 20.356669
_cell_length_b 13.545703
_cell_length_c 25.699239
_cell_angle_alpha 90.000000
_cell_angle_beta 146.561247
_cell_angle_gamma 90.000000
_cell_volume 3904.953015
_symmetry_space_group_name_H-M "C 2/M"
_symmetry_group_IT_number 12
_symmetry_cell_setting 'monoclinic'
loop_
_space_group_symop_operation_xyz
x,y,z
-x,y,-z
-x,-y,-z
x,-y,z
1/2+x,1/2+y,z
1/2-x,1/2+y,-z
1/2-x,1/2-y,-z
1/2+x,1/2-y,z
loop_
_atom_site_type_symbol
_atom_site_label
_atom_site_fract_x
_atom_site_fract_y
_atom_site_fract_z
Si Si1 0.562328 0.882632 0.346107
Si Si2 0.094623 0.288484 0.845994
Si Si3 0.987704 0.384743 0.932805
Si Si4 0.947865 0.301039 0.544386
Si Si5 0.270058 0.112192 0.973058
Si Si6 0.291918 0.383492 0.424329
Si Si7 0.639916 0.773291 0.238929
Si Si8 0.826633 0.616031 0.364673
O O1 0.459157 0.835663 0.241712
O O2 0.563746 0.835832 0.404153
O O3 0.689048 0.868115 0.400220
O O4 0.543078 0.000000 0.337164
O O5 0.170188 0.189179 0.889510
O O6 0.979690 0.267765 0.805988
O O7 0.180072 0.359942 0.936546
O O8 0.951579 0.500000 0.908483
O O9 0.895335 0.321658 0.838664
O O10 0.115394 0.379016 0.988729
O O11 0.000000 0.351559 0.000000
O O12 0.903147 0.188290 0.509169
O O13 0.864388 0.363622 0.449557
O O14 0.078586 0.324782 0.608297
O O15 0.227342 0.000000 0.943992
O O16 0.319014 0.500000 0.439560
O O17 0.230737 0.343765 0.330853
O O18 0.700136 0.667178 0.272984
O O19 0.832203 0.500000 0.357407
#
# Coordination Sequence:
#
# PCOD9173068 Si02
#       8
#     8   8   8   8   8   8   8   8
#     4  10  18  30  50  72  94 122 156 194 234 275
#     4   9  18  31  48  71  94 119 155 194 233 277
#     4   9  17  30  49  71  94 122 153 185 227 277
#     4  10  19  33  49  69  94 123 158 194 230 275
#     4   9  17  31  49  68  94 124 153 189 232 277
#     4   9  18  32  50  71  95 122 153 192 237 280
#     4   9  18  32  49  69  93 122 155 192 230 274
#     4  10  20  34  50  67  91 126 162 193 228 273
#
# _framework density 16.389441999999999
#
# number of rings (size 3 to 8) (size 9 to 14) (size 15 to 20)
#    0.000    2.625    0.000    2.625    0.000    4.500 
#    0.000    6.250    0.000    0.375    0.000    0.000 
#    0.000    0.000    0.000    0.000    0.000    0.000 
#
# Total GULP energy -178342.560888 kJ/mol
# GULP energy per Si atom -5573.205028 kJ/mol
# Density = 1.635214 g / cm^3
# Si number density = 16.389442 Si / 1000 Ang^3
#
#
#
# Elastic Constant Matrix: (Units=GPa)
#
#
# Indices 1 2 3 4 5 6 
#
# 1 50.0340 42.4652 40.8974 0.0000 -25.2636 0.0000
# 2 42.4652 116.6959 49.9104 0.0000 -0.8791 0.0000
# 3 40.8974 49.9104 75.3254 0.0000 -13.5334 0.0000
# 4 0.0000 0.0000 0.0000 21.5734 0.0000 3.5700
# 5 -25.2636 -0.8791 -13.5334 0.0000 24.3824 0.0000
# 6 0.0000 0.0000 0.0000 3.5700 0.0000 23.4553
#
#
#
# Elastic Compliance Matrix: (Units=1/GPa)
#
#
# Indices 1 2 3 4 5 6 
#
# 1 0.138454 -0.037715 -0.027383 0.000000 0.126900 0.000000
# 2 -0.037715 0.022674 -0.001578 0.000000 -0.039137 0.000000
# 3 -0.027383 -0.001578 0.026748 0.000000 -0.013583 0.000000
# 4 0.000000 0.000000 0.000000 0.047551 0.000000 -0.007238
# 5 0.126900 -0.039137 -0.013583 0.000000 0.163549 0.000000
# 6 0.000000 0.000000 0.000000 -0.007238 0.000000 0.043736
#
#
# Mechanical properties :
#
#
# Convention : Reuss Voigt Hill
#
# Bulk Modulus (GPa) = 18.34063 56.51126 37.42594
# Shear Modulus (GPa) = 8.41411 21.13437 14.77424
#
# Velocity S-wave (km/s) = 2.26826 3.59487 3.00567
# Velocity P-wave (km/s) = 4.25145 7.19625 5.91019
#
# Compressibility (1/GPa) = 0.05452376
#
# Stress axis : x y z
#
# Youngs Moduli (GPa) = 7.22259 44.10381 37.38560
#
# Poissons Ratio (x) = 1.66339 1.02373
# Poissons Ratio (y) = 0.27240 0.05899
# Poissons Ratio (z) = 0.19778 0.06959
#
# Static dielectric constant tensor:
#      x y z
#    x 1.547530 0.000000 0.003590 
#    y 0.000000 1.540030 0.000000 
#    z 0.003590 0.000000 1.538120 
# 
# From -- ./inp_files/367834.got.cif
#   From: 2010.05.17/outbox.cif.g08.bks.cpg/sg12_184_cif.got.tgz:367834.got - 2010.06.03 13:09:07.
