data_PCOD9173712
_publ_section_title
;
Structure prediction by ZEFSAII (Michael W. Deem and Ramdas Pophale) SiO2 
 PCOD9173712
Probable space group: C 2/M
;
_chemical_formula_sum "Si O2"
_cell_formula_units_Z 56
_cell_length_a 13.026754
_cell_length_b 14.672250
_cell_length_c 13.442835
_cell_angle_alpha 90.000000
_cell_angle_beta 123.817074
_cell_angle_gamma 90.000000
_cell_volume 2134.666522
_symmetry_space_group_name_H-M "C 2/M"
_symmetry_group_IT_number 12
_symmetry_cell_setting 'monoclinic'
loop_
_space_group_symop_operation_xyz
x,y,z
-x,y,-z
-x,-y,-z
x,-y,z
1/2+x,1/2+y,z
1/2-x,1/2+y,-z
1/2-x,1/2-y,-z
1/2+x,1/2-y,z
loop_
_atom_site_type_symbol
_atom_site_label
_atom_site_fract_x
_atom_site_fract_y
_atom_site_fract_z
Si Si1 0.806357 0.607800 0.472982
Si Si2 0.715903 0.838922 0.751719
Si Si3 0.553108 0.396583 0.427987
Si Si4 0.572240 0.896422 0.253676
Si Si5 0.010180 0.208983 0.118157
Si Si6 0.244520 0.859969 0.011982
Si Si7 0.711608 0.626312 0.784006
O O1 0.787126 0.500000 0.449114
O O2 0.848449 0.639288 0.386780
O O3 0.673069 0.646571 0.440691
O O4 0.900097 0.619070 0.615005
O O5 0.860395 0.841446 0.800312
O O6 0.695699 0.734455 0.767848
O O7 0.703751 0.888682 0.852378
O O8 0.500000 0.351286 0.500000
O O9 0.592044 0.500000 0.477362
O O10 0.429814 0.404861 0.296266
O O11 0.507865 0.803237 0.179740
O O12 0.702570 0.898286 0.262980
O O13 0.522427 0.000000 0.212596
O O14 0.903879 0.133821 0.067328
O O15 0.000000 0.244305 0.000000
O O16 0.280777 0.898586 0.924221
O O17 0.250000 0.750000 0.000000
#
# Coordination Sequence:
#
# PCOD9173712 Si02
#       7
#     8   8   8   8   8   8   8
#     4  10  20  35  53  75 109 145 176 214 261 314
#     4   9  19  34  53  76 104 138 176 215 259 311
#     4  10  18  31  49  73 109 141 167 210 268 314
#     4  10  20  34  52  77 109 140 173 213 259 313
#     4   9  18  33  53  76 103 134 171 217 263 309
#     4   9  18  34  54  74 102 132 168 219 267 304
#     4  10  18  31  53  79 104 135 175 219 265 309
#
# _framework density 26.233606999999999
#
# number of rings (size 3 to 8) (size 9 to 14) (size 15 to 20)
#    0.000    2.429    1.429    2.143    0.000    2.571 
#    2.571    1.429    0.000    9.000    0.000    8.000 
#    0.000    0.000    0.000    0.000    0.000    0.000 
#
# Total GULP energy -156262.540368 kJ/mol
# GULP energy per Si atom -5580.805013 kJ/mol
# Density = 2.617390 g / cm^3
# Si number density = 26.233607 Si / 1000 Ang^3
#
#
#
# Elastic Constant Matrix: (Units=GPa)
#
#
# Indices 1 2 3 4 5 6 
#
# 1 77.3852 2.8236 33.8299 0.0000 -18.0501 0.0000
# 2 2.8236 53.7635 23.3828 0.0000 -15.8898 0.0000
# 3 33.8299 23.3828 203.0766 0.0000 -67.9838 0.0000
# 4 0.0000 0.0000 0.0000 101.0495 0.0000 -19.5437
# 5 -18.0501 -15.8898 -67.9838 0.0000 45.6924 0.0000
# 6 0.0000 0.0000 0.0000 -19.5437 0.0000 14.6761
#
#
#
# Elastic Compliance Matrix: (Units=1/GPa)
#
#
# Indices 1 2 3 4 5 6 
#
# 1 0.014382 0.001024 -0.000981 0.000000 0.004577 0.000000
# 2 0.001024 0.020804 -0.000017 0.000000 0.007614 0.000000
# 3 -0.000981 -0.000017 0.009878 0.000000 0.014304 0.000000
# 4 0.000000 0.000000 0.000000 0.013329 0.000000 0.017750
# 5 0.004577 0.007614 0.014304 0.000000 0.047623 0.000000
# 6 0.000000 0.000000 0.000000 0.017750 0.000000 0.091775
#
#
# Mechanical properties :
#
#
# Convention : Reuss Voigt Hill
#
# Bulk Modulus (GPa) = 22.16553 50.47756 36.32155
# Shear Modulus (GPa) = 23.49868 50.56284 37.03076
#
# Velocity S-wave (km/s) = 2.99615 4.39499 3.76117
# Velocity P-wave (km/s) = 4.52071 6.71103 5.72166
#
# Compressibility (1/GPa) = 0.04511509
#
# Stress axis : x y z
#
# Youngs Moduli (GPa) = 69.53295 48.06789 101.23376
#
# Poissons Ratio (x) = -0.04924 0.09935
# Poissons Ratio (y) = -0.07123 0.00174
# Poissons Ratio (z) = 0.06824 0.00083
#
# Static dielectric constant tensor:
#      x y z
#    x 2.248840 0.000000 0.029280 
#    y 0.000000 1.947020 0.000000 
#    z 0.029280 0.000000 2.127870 
# 
# From -- ./inp_files/146211.got.cif
#   From: 2010.05.17/outbox.cif.g08.bks.cpg/sg12_74_cif.got.tgz:146211.got - 2010.06.03 13:09:07.
