data_PCOD9173147
_publ_section_title
;
Structure prediction by ZEFSAII (Michael W. Deem and Ramdas Pophale) SiO2 
 PCOD9173147
Probable space group: C 2/M
;
_chemical_formula_sum "Si O2"
_cell_formula_units_Z 64
_cell_length_a 13.731367
_cell_length_b 15.154236
_cell_length_c 16.876709
_cell_angle_alpha 90.000000
_cell_angle_beta 106.784949
_cell_angle_gamma 90.000000
_cell_volume 3362.226100
_symmetry_space_group_name_H-M "C 2/M"
_symmetry_group_IT_number 12
_symmetry_cell_setting 'monoclinic'
loop_
_space_group_symop_operation_xyz
x,y,z
-x,y,-z
-x,-y,-z
x,-y,z
1/2+x,1/2+y,z
1/2-x,1/2+y,-z
1/2-x,1/2-y,-z
1/2+x,1/2-y,z
loop_
_atom_site_type_symbol
_atom_site_label
_atom_site_fract_x
_atom_site_fract_y
_atom_site_fract_z
Si Si1 0.503696 0.594472 0.809521
Si Si2 0.203090 0.310824 0.738809
Si Si3 0.659502 0.404154 0.105096
Si Si4 0.704219 0.679470 0.874076
Si Si5 0.114334 0.731824 0.997114
Si Si6 0.736701 0.778113 0.405618
Si Si7 0.987093 0.247031 0.688445
Si Si8 0.578501 0.399708 0.591355
O O1 0.473234 0.500000 0.765216
O O2 0.452746 0.594459 0.883260
O O3 0.624684 0.602024 0.843035
O O4 0.467206 0.684599 0.759660
O O5 0.265066 0.383562 0.803028
O O6 0.229506 0.221637 0.794851
O O7 0.231465 0.295294 0.653631
O O8 0.080790 0.314556 0.718300
O O9 0.683029 0.500000 0.076459
O O10 0.655106 0.323921 0.044099
O O11 0.807458 0.662541 0.945787
O O12 0.638072 0.751792 0.910275
O O13 0.000000 0.717351 0.000000
O O14 0.750000 0.750000 0.500000
O O15 0.616874 0.791478 0.362966
O O16 0.812321 0.859857 0.407688
O O17 0.029210 0.171558 0.638773
O O18 0.500000 0.402138 0.500000
O O19 0.588389 0.500000 0.624164
#
# Coordination Sequence:
#
# PCOD9173147 Si02
#       8
#     8   8   8   8   8   8   8   8
#     4  10  18  30  50  76 103 132 171 217 267 312
#     4   9  20  34  51  74 105 142 182 221 266 329
#     4  10  19  31  49  77 109 134 168 218 272 321
#     4   9  19  32  48  73 102 139 171 211 261 311
#     4  10  18  31  50  73 105 136 174 210 255 319
#     4  11  20  34  54  81 108 142 185 229 277 334
#     4  10  19  34  55  75 104 144 185 223 268 329
#     4  10  20  34  52  79 109 138 179 232 279 320
#
# _framework density 19.035008000000001
#
# number of rings (size 3 to 8) (size 9 to 14) (size 15 to 20)
#    0.000    2.125    3.750    0.375    0.000    0.750 
#    0.000    1.250    0.000    0.375    0.000   13.125 
#    0.000    0.000    0.000    0.000    0.000    0.000 
#
# Total GULP energy -178148.225227 kJ/mol
# GULP energy per Si atom -5567.132038 kJ/mol
# Density = 1.899168 g / cm^3
# Si number density = 19.035008 Si / 1000 Ang^3
#
#
#
# Elastic Constant Matrix: (Units=GPa)
#
#
# Indices 1 2 3 4 5 6 
#
# 1 106.7323 15.8521 15.3817 0.0000 16.7651 0.0000
# 2 15.8521 45.6876 0.2318 0.0000 5.9248 0.0000
# 3 15.3817 0.2318 71.9845 0.0000 -0.4044 0.0000
# 4 0.0000 0.0000 0.0000 16.3216 0.0000 3.3036
# 5 16.7651 5.9248 -0.4044 0.0000 38.1428 0.0000
# 6 0.0000 0.0000 0.0000 3.3036 0.0000 17.9549
#
#
#
# Elastic Compliance Matrix: (Units=1/GPa)
#
#
# Indices 1 2 3 4 5 6 
#
# 1 0.010856 -0.003197 -0.002334 0.000000 -0.004300 0.000000
# 2 -0.003197 0.023280 0.000596 0.000000 -0.002205 0.000000
# 3 -0.002334 0.000596 0.014395 0.000000 0.001086 0.000000
# 4 0.000000 0.000000 0.000000 0.063639 0.000000 -0.011709
# 5 -0.004300 -0.002205 0.001086 0.000000 0.028461 0.000000
# 6 0.000000 0.000000 0.000000 -0.011709 0.000000 0.057850
#
#
# Mechanical properties :
#
#
# Convention : Reuss Voigt Hill
#
# Bulk Modulus (GPa) = 25.86610 31.92617 28.89614
# Shear Modulus (GPa) = 22.60028 27.34645 24.97336
#
# Velocity S-wave (km/s) = 3.44946 3.79442 3.62604
# Velocity P-wave (km/s) = 5.42985 6.00046 5.72227
#
# Compressibility (1/GPa) = 0.03866063
#
# Stress axis : x y z
#
# Youngs Moduli (GPa) = 92.11710 42.95540 69.47003
#
# Poissons Ratio (x) = 0.13734 0.16211
# Poissons Ratio (y) = 0.29451 -0.04139
# Poissons Ratio (z) = 0.21496 -0.02559
#
# Static dielectric constant tensor:
#      x y z
#    x 1.699470 0.000000 0.002930 
#    y 0.000000 1.646920 0.000000 
#    z 0.002930 0.000000 1.740610 
# 
# From -- ./inp_files/263936.got.cif
#   From: 2010.05.17/outbox.cif.g08.bks.cpg/sg12_132_cif.got.tgz:263936.got - 2010.06.03 13:09:07.
