data_PCOD9173410
_publ_section_title
;
Structure prediction by ZEFSAII (Michael W. Deem and Ramdas Pophale) SiO2 
 PCOD9173410
Probable space group: C 2/M
;
_chemical_formula_sum "Si O2"
_cell_formula_units_Z 56
_cell_length_a 27.162832
_cell_length_b 13.808639
_cell_length_c 9.250986
_cell_angle_alpha 90.000000
_cell_angle_beta 72.031863
_cell_angle_gamma 90.000000
_cell_volume 3300.643905
_symmetry_space_group_name_H-M "C 2/M"
_symmetry_group_IT_number 12
_symmetry_cell_setting 'monoclinic'
loop_
_space_group_symop_operation_xyz
x,y,z
-x,y,-z
-x,-y,-z
x,-y,z
1/2+x,1/2+y,z
1/2-x,1/2+y,-z
1/2-x,1/2-y,-z
1/2+x,1/2-y,z
loop_
_atom_site_type_symbol
_atom_site_label
_atom_site_fract_x
_atom_site_fract_y
_atom_site_fract_z
Si Si1 0.280169 0.885597 0.055373
Si Si2 0.441191 0.891136 0.092405
Si Si3 0.291654 0.766662 0.336000
Si Si4 0.115895 0.722461 0.084228
Si Si5 0.682619 0.385910 0.929649
Si Si6 0.122007 0.608927 0.584959
Si Si7 0.054711 0.613595 0.371756
O O1 0.273843 0.837258 0.219785
O O2 0.288357 0.000000 0.065188
O O3 0.331088 0.837372 0.938527
O O4 0.231607 0.870828 0.992783
O O5 0.430089 0.889613 0.271512
O O6 0.427351 0.000000 0.053666
O O7 0.500000 0.873649 0.000000
O O8 0.404368 0.814692 0.051266
O O9 0.250000 0.750000 0.500000
O O10 0.306548 0.670120 0.231271
O O11 0.338873 0.816108 0.379935
O O12 0.070962 0.687786 0.232171
O O13 0.134155 0.832561 0.050722
O O14 0.675366 0.500000 0.915727
O O15 0.144239 0.500000 0.577802
O O16 0.101935 0.623555 0.442499
O O17 0.053102 0.500000 0.325065
O O18 0.000000 0.633113 0.500000
#
# Coordination Sequence:
#
# PCOD9173410 Si02
#       7
#     8   8   8   8   8   8   8
#     4  10  20  36  56  80 107 141 182 221 266 325
#     4  10  18  30  52  81 107 134 170 214 268 329
#     4  11  22  34  54  80 110 141 179 221 274 328
#     4  11  19  34  57  77 105 145 180 214 264 322
#     4  10  23  39  56  78 107 145 192 233 261 307
#     4  10  20  33  50  78 113 141 166 209 270 331
#     4  10  21  34  52  84 117 141 170 213 269 335
#
# _framework density 16.966387000000001
#
# number of rings (size 3 to 8) (size 9 to 14) (size 15 to 20)
#    0.000    1.714    2.857    4.286    4.000    3.429 
#    0.000    0.000    0.000    0.857    0.000    0.000 
#    0.000    0.000    0.000    0.000    0.000    0.000 
#
# Total GULP energy -156046.979605 kJ/mol
# GULP energy per Si atom -5573.106414 kJ/mol
# Density = 1.692777 g / cm^3
# Si number density = 16.966387 Si / 1000 Ang^3
#
#
#
# Elastic Constant Matrix: (Units=GPa)
#
#
# Indices 1 2 3 4 5 6 
#
# 1 43.4722 31.7668 17.1695 0.0000 -0.8280 0.0000
# 2 31.7668 111.3023 33.9395 0.0000 -2.8883 0.0000
# 3 17.1695 33.9395 90.1763 0.0000 -16.3973 0.0000
# 4 0.0000 0.0000 0.0000 13.1562 0.0000 -2.6891
# 5 -0.8280 -2.8883 -16.3973 0.0000 26.6658 0.0000
# 6 0.0000 0.0000 0.0000 -2.6891 0.0000 26.5826
#
#
#
# Elastic Compliance Matrix: (Units=1/GPa)
#
#
# Indices 1 2 3 4 5 6 
#
# 1 0.029749 -0.007579 -0.003144 0.000000 -0.001831 0.000000
# 2 -0.007579 0.012127 -0.003294 0.000000 -0.000947 0.000000
# 3 -0.003144 -0.003294 0.014462 0.000000 0.008439 0.000000
# 4 0.000000 0.000000 0.000000 0.077615 0.000000 0.007852
# 5 -0.001831 -0.000947 0.008439 0.000000 0.042531 0.000000
# 6 0.000000 0.000000 0.000000 0.007852 0.000000 0.038413
#
#
# Mechanical properties :
#
#
# Convention : Reuss Voigt Hill
#
# Bulk Modulus (GPa) = 35.33084 45.63359 40.48222
# Shear Modulus (GPa) = 19.81249 24.08591 21.94920
#
# Velocity S-wave (km/s) = 3.42094 3.77188 3.60069
# Velocity P-wave (km/s) = 6.03929 6.77675 6.41862
#
# Compressibility (1/GPa) = 0.02830388
#
# Stress axis : x y z
#
# Youngs Moduli (GPa) = 33.61488 82.45753 69.14621
#
# Poissons Ratio (x) = 0.62497 0.21743
# Poissons Ratio (y) = 0.25478 0.22773
# Poissons Ratio (z) = 0.10570 0.27157
#
# Static dielectric constant tensor:
#      x y z
#    x 1.613640 0.000000 -0.002420 
#    y 0.000000 1.572050 0.000000 
#    z -0.002420 0.000000 1.601200 
# 
# From -- ./inp_files/103981.got.cif
#   From: 2010.05.17/outbox.cif.g08.bks.cpg/sg12_52_cif.got.tgz:103981.got - 2010.06.03 13:09:07.
