data_PCOD9173931
_publ_section_title
;
Structure prediction by ZEFSAII (Michael W. Deem and Ramdas Pophale) SiO2 
 PCOD9173931
Probable space group: C 2/M
;
_chemical_formula_sum "Si O2"
_cell_formula_units_Z 56
_cell_length_a 20.574733
_cell_length_b 7.854715
_cell_length_c 21.286331
_cell_angle_alpha 90.000000
_cell_angle_beta 49.986260
_cell_angle_gamma 90.000000
_cell_volume 2634.705064
_symmetry_space_group_name_H-M "C 2/M"
_symmetry_group_IT_number 12
_symmetry_cell_setting 'monoclinic'
loop_
_space_group_symop_operation_xyz
x,y,z
-x,y,-z
-x,-y,-z
x,-y,z
1/2+x,1/2+y,z
1/2-x,1/2+y,-z
1/2-x,1/2-y,-z
1/2+x,1/2-y,z
loop_
_atom_site_type_symbol
_atom_site_label
_atom_site_fract_x
_atom_site_fract_y
_atom_site_fract_z
Si Si1 0.437739 0.206143 0.408915
Si Si2 0.789516 0.798138 0.909093
Si Si3 0.744708 0.793224 0.804040
Si Si4 0.398329 0.701170 0.620981
Si Si5 0.363587 0.800100 0.244160
Si Si6 0.786088 0.694556 0.576678
Si Si7 0.485297 0.794319 0.770999
O O1 0.506186 0.258878 0.419025
O O2 0.342557 0.267012 0.484509
O O3 0.475903 0.267252 0.319269
O O4 0.433871 0.000000 0.410724
O O5 0.741121 0.728236 0.877287
O O6 0.888050 0.750082 0.842065
O O7 0.784526 0.000000 0.907533
O O8 0.750000 0.750000 0.000000
O O9 0.838368 0.758520 0.718066
O O10 0.679043 0.726851 0.792398
O O11 0.736407 0.000000 0.809705
O O12 0.390038 0.500000 0.612310
O O13 0.355056 0.799477 0.590704
O O14 0.295565 0.785580 0.343438
O O15 0.452454 0.728911 0.212938
O O16 0.376023 0.000000 0.224404
O O17 0.762311 0.500000 0.578678
O O18 0.491056 0.000000 0.765971
#
# Coordination Sequence:
#
# PCOD9173931 Si02
#       7
#     8   8   8   8   8   8   8
#     4  10  20  32  48  75 113 149 185 230 282 327
#     4  11  22  39  62  88 113 138 176 226 280 339
#     4   8  16  33  56  80 106 139 180 224 269 320
#     4  10  18  31  51  76 105 143 192 236 273 320
#     4   9  19  37  58  80 110 149 192 230 268 322
#     4  10  20  32  47  74 112 152 189 230 277 324
#     4  10  21  38  59  83 112 147 185 229 279 329
#
# _framework density 21.254750000000001
#
# number of rings (size 3 to 8) (size 9 to 14) (size 15 to 20)
#    0.000    2.286    1.429    2.571    0.000    4.000 
#    0.000    1.429    0.000    4.286    0.000    0.000 
#    0.000    0.000    0.000    0.000    0.000    0.000 
#
# Total GULP energy -156289.135418 kJ/mol
# GULP energy per Si atom -5581.754836 kJ/mol
# Density = 2.120637 g / cm^3
# Si number density = 21.254750 Si / 1000 Ang^3
#
#
#
# Elastic Constant Matrix: (Units=GPa)
#
#
# Indices 1 2 3 4 5 6 
#
# 1 97.7369 1.6930 47.4018 -0.0004 -2.3730 0.0004
# 2 1.6930 28.8419 0.0682 -0.0007 3.4637 0.0011
# 3 47.4018 0.0682 116.9502 -0.0004 18.3579 0.0004
# 4 -0.0004 -0.0007 -0.0004 23.8524 0.0003 -4.1126
# 5 -2.3730 3.4637 18.3579 0.0003 12.5092 -0.0004
# 6 0.0004 0.0011 0.0004 -4.1126 -0.0004 13.7002
#
#
#
# Elastic Compliance Matrix: (Units=1/GPa)
#
#
# Indices 1 2 3 4 5 6 
#
# 1 0.014805 -0.002781 -0.008524 0.000000 0.016088 0.000000
# 2 -0.002781 0.036750 0.003620 0.000001 -0.016015 -0.000003
# 3 -0.008524 0.003620 0.016131 0.000000 -0.026292 -0.000001
# 4 0.000000 0.000001 0.000000 0.044213 -0.000002 0.013272
# 5 0.016088 -0.016015 -0.026292 -0.000002 0.126012 0.000005
# 6 0.000000 -0.000003 -0.000001 0.013272 0.000005 0.076976
#
#
# Mechanical properties :
#
#
# Convention : Reuss Voigt Hill
#
# Bulk Modulus (GPa) = 19.11539 37.98390 28.54964
# Shear Modulus (GPa) = 14.38044 22.97010 18.67527
#
# Velocity S-wave (km/s) = 2.60393 3.29097 2.96740
# Velocity P-wave (km/s) = 4.24895 5.68773 5.02015
#
# Compressibility (1/GPa) = 0.05231388
#
# Stress axis : x y z
#
# Youngs Moduli (GPa) = 67.54667 27.21103 61.99364
#
# Poissons Ratio (x) = 0.07567 0.52845
# Poissons Ratio (y) = 0.18784 -0.22440
# Poissons Ratio (z) = 0.57579 -0.09850
#
# Static dielectric constant tensor:
#      x y z
#    x 1.798250 0.000000 0.030920 
#    y 0.000000 1.791730 0.000000 
#    z 0.030920 0.000000 1.683910 
# 
# From -- ./inp_files/319655.got.cif
#   From: 2010.05.17/outbox.cif.g08.bks.cpg/sg12_160_cif.got.tgz:319655.got - 2010.06.03 13:09:07.
