data_PCOD9173874
_publ_section_title
;
Structure prediction by ZEFSAII (Michael W. Deem and Ramdas Pophale) SiO2 
 PCOD9173874
Probable space group: C 2/M
;
_chemical_formula_sum "Si O2"
_cell_formula_units_Z 52
_cell_length_a 5.367749
_cell_length_b 25.675187
_cell_length_c 21.033736
_cell_angle_alpha 90.000000
_cell_angle_beta 126.308796
_cell_angle_gamma 90.000000
_cell_volume 2335.982832
_symmetry_space_group_name_H-M "C 2/M"
_symmetry_group_IT_number 12
_symmetry_cell_setting 'monoclinic'
loop_
_space_group_symop_operation_xyz
x,y,z
-x,y,-z
-x,-y,-z
x,-y,z
1/2+x,1/2+y,z
1/2-x,1/2+y,-z
1/2-x,1/2-y,-z
1/2+x,1/2-y,z
loop_
_atom_site_type_symbol
_atom_site_label
_atom_site_fract_x
_atom_site_fract_y
_atom_site_fract_z
Si Si1 0.873436 0.884850 0.053275
Si Si2 0.390688 0.272601 0.888351
Si Si3 0.691278 0.440827 0.741843
Si Si4 0.928796 0.559006 0.420727
Si Si5 0.976572 0.730213 0.705142
Si Si6 0.629293 0.500000 0.947696
Si Si7 0.640695 0.111208 0.717626
O O1 0.019699 0.833079 0.105987
O O2 0.500000 0.879897 0.000000
O O3 0.000000 0.883973 0.000000
O O4 0.956622 0.942857 0.091289
O O5 0.696275 0.238442 0.922562
O O6 0.151064 0.255116 0.797096
O O7 0.751176 0.500000 0.773765
O O8 0.439611 0.444320 0.646839
O O9 0.982904 0.413263 0.755568
O O10 0.498708 0.406160 0.762871
O O11 0.054680 0.500000 0.438830
O O12 0.000000 0.582544 0.500000
O O13 0.023741 0.588061 0.370798
O O14 0.117744 0.764357 0.669410
O O15 0.081060 0.671924 0.707055
O O16 0.500000 0.500000 0.000000
O O17 0.000000 0.500000 0.000000
#
# Coordination Sequence:
#
# PCOD9173874 Si02
#       7
#     8   8   8   8   8   4   8
#     4  10  19  32  53  78 106 140 168 206 251 308
#     4  10  21  35  52  78 105 132 168 218 266 307
#     4   9  17  29  48  75 103 130 159 195 248 310
#     4   8  16  29  48  77 107 131 158 196 252 318
#     4  10  21  37  55  73  94 133 183 220 253 300
#     4   8  16  30  48  70  96 138 174 192 225 293
#     4  10  18  31  51  72  96 136 170 205 249 296
#
# _framework density 22.260439000000002
#
# number of rings (size 3 to 8) (size 9 to 14) (size 15 to 20)
#    0.923    1.692    0.000    2.769    0.000    2.462 
#    0.000    2.308    5.077    0.923    4.000    0.000 
#    0.000    0.000    0.000    0.000    0.000    0.000 
#
# Total GULP energy -144886.354649 kJ/mol
# GULP energy per Si atom -5572.552102 kJ/mol
# Density = 2.220977 g / cm^3
# Si number density = 22.260439 Si / 1000 Ang^3
#
#
#
# Elastic Constant Matrix: (Units=GPa)
#
#
# Indices 1 2 3 4 5 6 
#
# 1 148.4264 28.2857 21.2502 0.0000 -33.6055 0.0000
# 2 28.2857 106.0509 -0.3789 0.0000 -10.2837 0.0000
# 3 21.2502 -0.3789 34.4226 0.0000 -5.4611 0.0000
# 4 0.0000 0.0000 0.0000 55.0800 0.0000 -19.4016
# 5 -33.6055 -10.2837 -5.4611 0.0000 20.9277 0.0000
# 6 0.0000 0.0000 0.0000 -19.4016 0.0000 40.8434
#
#
#
# Elastic Compliance Matrix: (Units=1/GPa)
#
#
# Indices 1 2 3 4 5 6 
#
# 1 0.011353 -0.001458 -0.004429 0.000000 0.016358 0.000000
# 2 -0.001458 0.010116 0.001490 0.000000 0.003019 0.000000
# 3 -0.004429 0.001490 0.032119 0.000000 0.002001 0.000000
# 4 0.000000 0.000000 0.000000 0.021804 0.000000 0.010357
# 5 0.016358 0.003019 0.002001 0.000000 0.076058 0.000000
# 6 0.000000 0.000000 0.000000 0.010357 0.000000 0.029404
#
#
# Mechanical properties :
#
#
# Convention : Reuss Voigt Hill
#
# Bulk Modulus (GPa) = 22.32410 43.02378 32.67394
# Shear Modulus (GPa) = 24.44049 39.35308 31.89678
#
# Velocity S-wave (km/s) = 3.31710 4.20914 3.78946
# Velocity P-wave (km/s) = 4.97205 6.55682 5.81864
#
# Compressibility (1/GPa) = 0.04479463
#
# Stress axis : x y z
#
# Youngs Moduli (GPa) = 88.08210 98.85033 31.13424
#
# Poissons Ratio (x) = 0.14409 0.13791
# Poissons Ratio (y) = 0.12839 -0.04640
# Poissons Ratio (z) = 0.39015 -0.14731
#
# Static dielectric constant tensor:
#      x y z
#    x 1.853820 0.000000 -0.012330 
#    y 0.000000 1.817390 0.000000 
#    z -0.012330 0.000000 1.827670 
# 
# From -- ./inp_files/331207.got.cif
#   From: 2010.05.17/outbox.cif.g08.bks.cpg/sg12_166_cif.got.tgz:331207.got - 2010.06.03 13:09:07.
