data_PCOD9173235
_publ_section_title
;
Structure prediction by ZEFSAII (Michael W. Deem and Ramdas Pophale) SiO2 
 PCOD9173235
Probable space group: C 2/M
;
_chemical_formula_sum "Si O2"
_cell_formula_units_Z 52
_cell_length_a 22.805978
_cell_length_b 13.266134
_cell_length_c 8.835758
_cell_angle_alpha 90.000000
_cell_angle_beta 86.820340
_cell_angle_gamma 90.000000
_cell_volume 2669.118096
_symmetry_space_group_name_H-M "C 2/M"
_symmetry_group_IT_number 12
_symmetry_cell_setting 'monoclinic'
loop_
_space_group_symop_operation_xyz
x,y,z
-x,y,-z
-x,-y,-z
x,-y,z
1/2+x,1/2+y,z
1/2-x,1/2+y,-z
1/2-x,1/2-y,-z
1/2+x,1/2-y,z
loop_
_atom_site_type_symbol
_atom_site_label
_atom_site_fract_x
_atom_site_fract_y
_atom_site_fract_z
Si Si1 0.000000 0.229458 0.000000
Si Si2 0.393883 0.728790 0.827581
Si Si3 0.940507 0.613107 0.232261
Si Si4 0.671406 0.887077 0.945283
Si Si5 0.413679 0.113467 0.576425
Si Si6 0.274415 0.323738 0.726759
Si Si7 0.272894 0.889437 0.589082
O O1 0.055009 0.178172 0.078591
O O2 0.971010 0.303152 0.127689
O O3 0.423823 0.800072 0.696899
O O4 0.343203 0.663961 0.754911
O O5 0.355990 0.806117 0.937135
O O6 0.961858 0.500000 0.191807
O O7 0.872305 0.614105 0.192329
O O8 0.943788 0.629520 0.410466
O O9 0.735010 0.862447 0.870335
O O10 0.669357 0.000000 0.012165
O O11 0.343292 0.114677 0.558934
O O12 0.428117 0.000000 0.627817
O O13 0.259313 0.205452 0.698051
O O14 0.257135 0.374837 0.570110
O O15 0.257377 0.000000 0.652371
#
# Coordination Sequence:
#
# PCOD9173235 Si02
#       7
#     4   8   8   8   8   8   8
#     4  10  21  34  42  60  97 138 176 208 241 280
#     4  10  21  32  45  68 100 137 176 208 239 287
#     4   9  17  29  48  68  95 131 165 200 245 302
#     4  10  18  31  50  75 106 136 163 203 254 305
#     4   9  16  29  47  69  95 126 160 200 246 297
#     4  10  18  30  51  75 101 135 169 202 255 305
#     4   9  17  30  50  78 107 129 157 205 261 310
#
# _framework density 19.482089999999999
#
# number of rings (size 3 to 8) (size 9 to 14) (size 15 to 20)
#    0.000    2.462    1.538    1.615    0.000    3.077 
#    0.000    1.538    0.000    0.000    0.000    2.154 
#    0.000    7.385    0.000    0.308    0.000    0.692 
#
# Total GULP energy -145036.601772 kJ/mol
# GULP energy per Si atom -5578.330837 kJ/mol
# Density = 1.943775 g / cm^3
# Si number density = 19.482090 Si / 1000 Ang^3
#
#
#
# Elastic Constant Matrix: (Units=GPa)
#
#
# Indices 1 2 3 4 5 6 
#
# 1 93.6475 6.6003 18.7575 0.0000 30.6937 0.0000
# 2 6.6003 24.8038 -5.0261 0.0000 5.3339 0.0000
# 3 18.7575 -5.0261 55.4228 0.0000 15.1979 0.0000
# 4 0.0000 0.0000 0.0000 8.7967 0.0000 -0.5349
# 5 30.6937 5.3339 15.1979 0.0000 43.3335 0.0000
# 6 0.0000 0.0000 0.0000 -0.5349 0.0000 12.4779
#
#
#
# Elastic Compliance Matrix: (Units=1/GPa)
#
#
# Indices 1 2 3 4 5 6 
#
# 1 0.014292 -0.002417 -0.002613 0.000000 -0.008909 0.000000
# 2 -0.002417 0.043516 0.006377 0.000000 -0.005881 0.000000
# 3 -0.002613 0.006377 0.021258 0.000000 -0.006390 0.000000
# 4 0.000000 0.000000 0.000000 0.113977 0.000000 0.004886
# 5 -0.008909 -0.005881 -0.006390 0.000000 0.032352 0.000000
# 6 0.000000 0.000000 0.000000 0.004886 0.000000 0.080351
#
#
# Mechanical properties :
#
#
# Convention : Reuss Voigt Hill
#
# Bulk Modulus (GPa) = 12.23083 23.83751 18.03417
# Shear Modulus (GPa) = 15.13749 23.15778 19.14763
#
# Velocity S-wave (km/s) = 2.79049 3.45145 3.13842
# Velocity P-wave (km/s) = 4.08339 5.30523 4.73390
#
# Compressibility (1/GPa) = 0.08176062
#
# Stress axis : x y z
#
# Youngs Moduli (GPa) = 69.96817 22.97989 47.04119
#
# Poissons Ratio (x) = 0.05554 0.12293
# Poissons Ratio (y) = 0.16910 -0.29998
# Poissons Ratio (z) = 0.18284 -0.14654
#
# Static dielectric constant tensor:
#      x y z
#    x 1.730340 0.000000 0.051170 
#    y 0.000000 1.675610 0.000000 
#    z 0.051170 0.000000 1.691100 
# 
# From -- ./inp_files/95768.got.cif
#   From: 2010.05.17/outbox.cif.g08.bks.cpg/sg12_48_cif.got.tgz:95768.got - 2010.06.03 13:09:07.
