data_PCOD9173290
_publ_section_title
;
Structure prediction by ZEFSAII (Michael W. Deem and Ramdas Pophale) SiO2 
 PCOD9173290
Probable space group: C 2/M
;
_chemical_formula_sum "Si O2"
_cell_formula_units_Z 64
_cell_length_a 29.344146
_cell_length_b 12.972701
_cell_length_c 15.896560
_cell_angle_alpha 90.000000
_cell_angle_beta 145.171840
_cell_angle_gamma 90.000000
_cell_volume 3456.051346
_symmetry_space_group_name_H-M "C 2/M"
_symmetry_group_IT_number 12
_symmetry_cell_setting 'monoclinic'
loop_
_space_group_symop_operation_xyz
x,y,z
-x,y,-z
-x,-y,-z
x,-y,z
1/2+x,1/2+y,z
1/2-x,1/2+y,-z
1/2-x,1/2-y,-z
1/2+x,1/2-y,z
loop_
_atom_site_type_symbol
_atom_site_label
_atom_site_fract_x
_atom_site_fract_y
_atom_site_fract_z
Si Si1 0.992622 0.875034 0.391353
Si Si2 0.912212 0.229226 0.873848
Si Si3 0.419452 0.114741 0.039614
Si Si4 0.731726 0.174265 0.093466
Si Si5 0.905090 0.385432 0.705536
Si Si6 0.758187 0.712053 0.416563
Si Si7 0.680628 0.380351 0.944169
Si Si8 0.664736 0.377993 0.588300
O O1 0.909082 0.847414 0.220393
O O2 0.000000 0.838620 0.500000
O O3 0.071736 0.847573 0.458295
O O4 0.992281 0.000000 0.395179
O O5 0.909210 0.299264 0.952630
O O6 0.908068 0.305969 0.787430
O O7 0.828021 0.169942 0.742674
O O8 0.000000 0.177528 0.000000
O O9 0.352683 0.127362 0.008160
O O10 0.411293 0.000000 0.989112
O O11 0.509327 0.123618 0.209226
O O12 0.765236 0.131582 0.056972
O O13 0.793891 0.142498 0.259393
O O14 0.716451 0.297029 0.062715
O O15 0.898083 0.500000 0.730827
O O16 0.831995 0.365296 0.532953
O O17 0.750000 0.750000 0.500000
O O18 0.786899 0.808769 0.404333
O O19 0.679046 0.500000 0.968916
O O20 0.669544 0.500000 0.575753
#
# Coordination Sequence:
#
# PCOD9173290 Si02
#       8
#     8   8   8   8   8   8   8   8
#     4   9  17  32  56  82 110 142 178 227 276 324
#     4   9  17  31  52  75 100 132 173 222 275 316
#     4  10  18  30  51  78 104 131 175 229 268 313
#     4  11  21  32  56  86 107 145 184 228 272 324
#     4   9  19  33  49  73 106 141 173 213 272 331
#     4  10  21  34  51  78 108 142 179 225 281 334
#     4  10  21  37  53  80 117 149 180 221 277 326
#     4  11  21  35  58  84 108 139 189 242 283 322
#
# _framework density 18.518242999999998
#
# number of rings (size 3 to 8) (size 9 to 14) (size 15 to 20)
#    0.000    2.125    2.500    1.500    1.750    3.500 
#    0.000    0.625    0.000    0.375    0.000    3.500 
#    0.000    0.000    0.000    0.000    0.000    0.000 
#
# Total GULP energy -178277.819825 kJ/mol
# GULP energy per Si atom -5571.181870 kJ/mol
# Density = 1.847609 g / cm^3
# Si number density = 18.518243 Si / 1000 Ang^3
#
#
#
# Elastic Constant Matrix: (Units=GPa)
#
#
# Indices 1 2 3 4 5 6 
#
# 1 73.6360 -3.5247 26.5194 0.0000 26.2257 0.0000
# 2 -3.5247 27.0374 5.3372 0.0000 3.8822 0.0000
# 3 26.5194 5.3372 84.6795 0.0000 39.7817 0.0000
# 4 0.0000 0.0000 0.0000 22.2422 0.0000 0.6367
# 5 26.2257 3.8822 39.7817 0.0000 35.5656 0.0000
# 6 0.0000 0.0000 0.0000 0.6367 0.0000 10.0875
#
#
#
# Elastic Compliance Matrix: (Units=1/GPa)
#
#
# Indices 1 2 3 4 5 6 
#
# 1 0.019012 0.004517 0.001220 0.000000 -0.015877 0.000000
# 2 0.004517 0.038683 -0.000641 0.000000 -0.006836 0.000000
# 3 0.001220 -0.000641 0.024988 0.000000 -0.028780 0.000000
# 4 0.000000 0.000000 0.000000 0.045041 0.000000 -0.002843
# 5 -0.015877 -0.006836 -0.028780 0.000000 0.072762 0.000000
# 6 0.000000 0.000000 0.000000 -0.002843 0.000000 0.099312
#
#
# Mechanical properties :
#
#
# Convention : Reuss Voigt Hill
#
# Bulk Modulus (GPa) = 10.76714 26.89074 18.82894
# Shear Modulus (GPa) = 15.59753 24.04716 19.82235
#
# Velocity S-wave (km/s) = 2.90535 3.60747 3.27528
# Velocity P-wave (km/s) = 4.13301 5.64841 4.94905
#
# Compressibility (1/GPa) = 0.09287519
#
# Stress axis : x y z
#
# Youngs Moduli (GPa) = 52.59914 25.85128 40.01894
#
# Poissons Ratio (x) = -0.11678 -0.04883
# Poissons Ratio (y) = -0.23761 0.02566
# Poissons Ratio (z) = -0.06418 0.01658
#
# Static dielectric constant tensor:
#      x y z
#    x 1.670930 0.000000 0.049160 
#    y 0.000000 1.635090 0.000000 
#    z 0.049160 0.000000 1.678630 
# 
# From -- ./inp_files/245953.got.cif
#   From: 2010.05.17/outbox.cif.g08.bks.cpg/sg12_123_cif.got.tgz:245953.got - 2010.06.03 13:09:07.
