data_PCOD9173293
_publ_section_title
;
Structure prediction by ZEFSAII (Michael W. Deem and Ramdas Pophale) SiO2 
 PCOD9173293
Probable space group: C 2/M
;
_chemical_formula_sum "Si O2"
_cell_formula_units_Z 56
_cell_length_a 10.569385
_cell_length_b 21.226680
_cell_length_c 12.930080
_cell_angle_alpha 90.000000
_cell_angle_beta 88.663776
_cell_angle_gamma 90.000000
_cell_volume 2900.112779
_symmetry_space_group_name_H-M "C 2/M"
_symmetry_group_IT_number 12
_symmetry_cell_setting 'monoclinic'
loop_
_space_group_symop_operation_xyz
x,y,z
-x,y,-z
-x,-y,-z
x,-y,z
1/2+x,1/2+y,z
1/2-x,1/2+y,-z
1/2-x,1/2-y,-z
1/2+x,1/2-y,z
loop_
_atom_site_type_symbol
_atom_site_label
_atom_site_fract_x
_atom_site_fract_y
_atom_site_fract_z
Si Si1 0.361420 0.071976 0.547920
Si Si2 0.639025 0.928060 0.048565
Si Si3 0.234735 0.571844 0.827115
Si Si4 0.847305 0.192757 0.732688
Si Si5 0.034036 0.384708 0.248445
Si Si6 0.637514 0.332188 0.504594
Si Si7 0.093677 0.252519 0.708415
O O1 0.500000 0.087553 0.500000
O O2 0.384383 0.078953 0.669149
O O3 0.253273 0.120486 0.517639
O O4 0.331144 0.000000 0.518796
O O5 0.621328 0.881022 0.144583
O O6 0.668680 0.000000 0.082873
O O7 0.500000 0.930895 0.000000
O O8 0.727047 0.911600 0.949445
O O9 0.275878 0.500000 0.815877
O O10 0.318052 0.621781 0.765023
O O11 0.092793 0.578288 0.783001
O O12 0.847336 0.199101 0.607903
O O13 0.724643 0.234044 0.765412
O O14 0.985993 0.211837 0.766816
O O15 0.979419 0.319809 0.297476
O O16 0.500000 0.365382 0.500000
O O17 0.625022 0.282411 0.599209
#
# Coordination Sequence:
#
# PCOD9173293 Si02
#       7
#     8   8   8   8   8   8   8
#     4  11  22  34  52  80 109 137 175 224 273 314
#     4   8  14  27  49  77 107 136 169 213 268 321
#     4   9  17  31  53  80 107 137 175 218 266 317
#     4  10  20  34  54  76 105 140 176 221 262 311
#     4  10  18  30  51  78 106 135 172 223 268 310
#     4  10  22  37  52  74 106 145 184 217 259 319
#     4  10  20  33  51  75 103 138 177 212 256 310
#
# _framework density 19.309594000000001
#
# number of rings (size 3 to 8) (size 9 to 14) (size 15 to 20)
#    0.000    2.286    0.000    5.143    0.000    6.000 
#    0.000    2.857    0.000    3.429    0.000    3.000 
#    0.000   25.143    0.000    0.143    0.000    0.000 
#
# Total GULP energy -155961.049489 kJ/mol
# GULP energy per Si atom -5570.037482 kJ/mol
# Density = 1.926564 g / cm^3
# Si number density = 19.309594 Si / 1000 Ang^3
#
#
#
# Elastic Constant Matrix: (Units=GPa)
#
#
# Indices 1 2 3 4 5 6 
#
# 1 103.2045 45.1935 13.0342 0.0000 -7.4165 0.0000
# 2 45.1935 82.9764 20.2911 0.0000 -10.5970 0.0000
# 3 13.0342 20.2911 33.7454 0.0000 1.6600 0.0000
# 4 0.0000 0.0000 0.0000 16.2621 0.0000 -13.6025
# 5 -7.4165 -10.5970 1.6600 0.0000 10.1740 0.0000
# 6 0.0000 0.0000 0.0000 -13.6025 0.0000 15.2778
#
#
#
# Elastic Compliance Matrix: (Units=1/GPa)
#
#
# Indices 1 2 3 4 5 6 
#
# 1 0.012821 -0.006270 -0.001331 0.000000 0.003032 0.000000
# 2 -0.006270 0.020472 -0.010799 0.000000 0.018514 0.000000
# 3 -0.001331 -0.010799 0.037543 0.000000 -0.018343 0.000000
# 4 0.000000 0.000000 0.000000 0.240886 0.000000 0.214470
# 5 0.003032 0.018514 -0.018343 0.000000 0.122777 0.000000
# 6 0.000000 0.000000 0.000000 0.214470 0.000000 0.256406
#
#
# Mechanical properties :
#
#
# Convention : Reuss Voigt Hill
#
# Bulk Modulus (GPa) = 29.38018 41.88487 35.63253
# Shear Modulus (GPa) = 6.76543 17.76997 12.26770
#
# Velocity S-wave (km/s) = 1.87384 3.03688 2.52328
# Velocity P-wave (km/s) = 4.46431 5.83397 5.19448
#
# Compressibility (1/GPa) = 0.03403655
#
# Stress axis : x y z
#
# Youngs Moduli (GPa) = 77.99474 48.84722 26.63596
#
# Poissons Ratio (x) = 0.30630 0.03545
# Poissons Ratio (y) = 0.48907 0.28763
# Poissons Ratio (z) = 0.10381 0.52748
#
# Static dielectric constant tensor:
#      x y z
#    x 1.709520 0.000000 -0.034780 
#    y 0.000000 1.696200 0.000000 
#    z -0.034780 0.000000 1.710080 
# 
# From -- ./inp_files/133258.got.cif
#   From: 2010.05.17/outbox.cif.g08.bks.cpg/sg12_67_cif.got.tgz:133258.got - 2010.06.03 13:09:07.
