data_PCOD9173444
_publ_section_title
;
Structure prediction by ZEFSAII (Michael W. Deem and Ramdas Pophale) SiO2 
 PCOD9173444
Probable space group: C 2/M
;
_chemical_formula_sum "Si O2"
_cell_formula_units_Z 56
_cell_length_a 10.971951
_cell_length_b 18.557943
_cell_length_c 15.702948
_cell_angle_alpha 90.000000
_cell_angle_beta 106.851650
_cell_angle_gamma 90.000000
_cell_volume 3060.084359
_symmetry_space_group_name_H-M "C 2/M"
_symmetry_group_IT_number 12
_symmetry_cell_setting 'monoclinic'
loop_
_space_group_symop_operation_xyz
x,y,z
-x,y,-z
-x,-y,-z
x,-y,z
1/2+x,1/2+y,z
1/2-x,1/2+y,-z
1/2-x,1/2-y,-z
1/2+x,1/2-y,z
loop_
_atom_site_type_symbol
_atom_site_label
_atom_site_fract_x
_atom_site_fract_y
_atom_site_fract_z
Si Si1 0.114123 0.648910 0.686700
Si Si2 0.351661 0.726806 0.948960
Si Si3 0.802906 0.919298 0.849566
Si Si4 0.785346 0.200229 0.231991
Si Si5 0.511553 0.417081 0.741376
Si Si6 0.321650 0.341696 0.580443
Si Si7 0.332689 0.172449 0.610112
O O1 0.174219 0.597827 0.770848
O O2 0.129009 0.730018 0.726965
O O3 0.204200 0.646880 0.622078
O O4 0.968943 0.634511 0.634437
O O5 0.327850 0.642915 0.922407
O O6 0.315412 0.771217 0.856739
O O7 0.500000 0.737914 0.000000
O O8 0.250000 0.750000 0.000000
O O9 0.912687 0.913365 0.799773
O O10 0.802478 0.000000 0.884241
O O11 0.718667 0.174499 0.304758
O O12 0.873087 0.136345 0.216147
O O13 0.548917 0.500000 0.736979
O O14 0.437593 0.386662 0.643247
O O15 0.353946 0.256523 0.588457
O O16 0.270651 0.358901 0.476301
#
# Coordination Sequence:
#
# PCOD9173444 Si02
#       7
#     8   8   8   8   8   8   8
#     4   9  17  31  55  78 112 148 186 236 274 333
#     4  11  24  39  65  92 116 146 189 249 298 347
#     4   9  20  37  61  86 111 148 187 228 282 347
#     4  10  21  34  55  79 112 145 191 230 293 345
#     4  10  19  37  58  81 118 154 191 233 277 335
#     4   9  18  30  49  84 110 148 198 236 277 318
#     4  10  18  30  53  78 114 149 190 241 279 333
#
# _framework density 18.300149000000001
#
# number of rings (size 3 to 8) (size 9 to 14) (size 15 to 20)
#    0.000    2.286    1.429    2.143    4.000    0.857 
#    0.000    3.571    0.000    4.286    0.000    0.000 
#    0.000    0.000    0.000    0.000    0.000    0.000 
#
# Total GULP energy -156253.686705 kJ/mol
# GULP energy per Si atom -5580.488811 kJ/mol
# Density = 1.825850 g / cm^3
# Si number density = 18.300149 Si / 1000 Ang^3
#
#
#
# Elastic Constant Matrix: (Units=GPa)
#
#
# Indices 1 2 3 4 5 6 
#
# 1 57.2070 33.7552 33.9930 0.0000 20.9649 0.0000
# 2 33.7552 99.0655 33.9603 0.0000 1.4971 0.0000
# 3 33.9930 33.9603 86.2512 0.0000 6.6947 0.0000
# 4 0.0000 0.0000 0.0000 20.4198 0.0000 -2.1364
# 5 20.9649 1.4971 6.6947 0.0000 21.9307 0.0000
# 6 0.0000 0.0000 0.0000 -2.1364 0.0000 19.3104
#
#
#
# Elastic Compliance Matrix: (Units=1/GPa)
#
#
# Indices 1 2 3 4 5 6 
#
# 1 0.043854 -0.010931 -0.010021 0.000000 -0.038118 0.000000
# 2 -0.010931 0.014403 -0.002148 0.000000 0.010123 0.000000
# 3 -0.010021 -0.002148 0.016014 0.000000 0.004838 0.000000
# 4 0.000000 0.000000 0.000000 0.049545 0.000000 0.005481
# 5 -0.038118 0.010123 0.004838 0.000000 0.079870 0.000000
# 6 0.000000 0.000000 0.000000 0.005481 0.000000 0.052392
#
#
# Mechanical properties :
#
#
# Convention : Reuss Voigt Hill
#
# Bulk Modulus (GPa) = 35.62609 49.54896 42.58753
# Shear Modulus (GPa) = 16.04439 21.71985 18.88212
#
# Velocity S-wave (km/s) = 2.96418 3.44883 3.21565
# Velocity P-wave (km/s) = 5.58794 6.55696 6.09175
#
# Compressibility (1/GPa) = 0.02806931
#
# Stress axis : x y z
#
# Youngs Moduli (GPa) = 22.80280 69.43215 62.44619
#
# Poissons Ratio (x) = 0.75900 0.62577
# Poissons Ratio (y) = 0.24927 0.13415
# Poissons Ratio (z) = 0.22850 0.14916
#
# Static dielectric constant tensor:
#      x y z
#    x 1.629130 0.000000 0.002750 
#    y 0.000000 1.622060 0.000000 
#    z 0.002750 0.000000 1.636280 
# 
# From -- ./inp_files/206265.got.cif
#   From: 2010.05.17/outbox.cif.g08.bks.cpg/sg12_104_cif.got.tgz:206265.got - 2010.06.03 13:09:07.
