data_PCOD9173623
_publ_section_title
;
Structure prediction by ZEFSAII (Michael W. Deem and Ramdas Pophale) SiO2 
 PCOD9173623
Probable space group: C 2/M
;
_chemical_formula_sum "Si O2"
_cell_formula_units_Z 64
_cell_length_a 27.829336
_cell_length_b 9.894749
_cell_length_c 11.938389
_cell_angle_alpha 90.000000
_cell_angle_beta 99.597733
_cell_angle_gamma 90.000000
_cell_volume 3241.391042
_symmetry_space_group_name_H-M "C 2/M"
_symmetry_group_IT_number 12
_symmetry_cell_setting 'monoclinic'
loop_
_space_group_symop_operation_xyz
x,y,z
-x,y,-z
-x,-y,-z
x,-y,z
1/2+x,1/2+y,z
1/2-x,1/2+y,-z
1/2-x,1/2-y,-z
1/2+x,1/2-y,z
loop_
_atom_site_type_symbol
_atom_site_label
_atom_site_fract_x
_atom_site_fract_y
_atom_site_fract_z
Si Si1 0.224785 0.144765 0.347505
Si Si2 0.283108 0.744565 0.174809
Si Si3 0.446355 0.656402 0.198671
Si Si4 0.525848 0.844203 0.132633
Si Si5 0.893503 0.842554 0.934808
Si Si6 0.131225 0.845770 0.635987
Si Si7 0.187905 0.353798 0.038190
Si Si8 0.674465 0.846636 0.471404
O O1 0.249526 0.161431 0.237743
O O2 0.272731 0.146885 0.445975
O O3 0.188074 0.263732 0.365544
O O4 0.200345 0.000000 0.352442
O O5 0.319897 0.666102 0.269387
O O6 0.244304 0.651477 0.095992
O O7 0.312520 0.828837 0.094852
O O8 0.464272 0.500000 0.211761
O O9 0.488751 0.766205 0.200267
O O10 0.412639 0.681553 0.294016
O O11 0.415143 0.663144 0.070718
O O12 0.571926 0.747147 0.130541
O O13 0.536298 0.000000 0.168431
O O14 0.500000 0.848802 0.000000
O O15 0.842067 0.767845 0.920276
O O16 0.891254 0.000000 0.902473
O O17 0.139282 0.739621 0.538817
O O18 0.126921 0.000000 0.593142
O O19 0.166581 0.500000 0.058342
O O20 0.658006 0.000000 0.446455
#
# Coordination Sequence:
#
# PCOD9173623 Si02
#       8
#     8   8   8   8   8   8   8   8
#     4   9  17  31  47  63  84 117 155 192 234 278
#     4  10  21  33  47  66  91 125 163 202 235 270
#     4   9  17  29  45  66  90 121 154 186 229 280
#     4   9  17  29  45  66  88 114 149 190 234 278
#     4  10  19  32  47  63  88 121 157 195 233 276
#     4  10  18  31  48  67  93 126 159 190 229 280
#     4  11  22  33  47  67  92 124 164 204 237 272
#     4   9  18  29  44  67  90 114 148 191 237 280
#
# _framework density 19.744610000000002
#
# number of rings (size 3 to 8) (size 9 to 14) (size 15 to 20)
#    0.000    2.375    1.250    1.875    0.000    9.000 
#    0.000    0.000    0.000    0.000    0.000    0.000 
#    0.000    1.000    0.000    8.750    0.000    3.375 
#
# Total GULP energy -178419.075198 kJ/mol
# GULP energy per Si atom -5575.596100 kJ/mol
# Density = 1.969967 g / cm^3
# Si number density = 19.744610 Si / 1000 Ang^3
#
#
#
# Elastic Constant Matrix: (Units=GPa)
#
#
# Indices 1 2 3 4 5 6 
#
# 1 75.1911 66.2043 22.1670 0.0000 -34.2931 0.0000
# 2 66.2043 183.1065 30.9130 0.0000 -40.1041 0.0000
# 3 22.1670 30.9130 26.2052 0.0000 -21.7616 0.0000
# 4 0.0000 0.0000 0.0000 5.7196 0.0000 -11.8897
# 5 -34.2931 -40.1041 -21.7616 0.0000 28.2856 0.0000
# 6 0.0000 0.0000 0.0000 -11.8897 0.0000 27.1913
#
#
#
# Elastic Compliance Matrix: (Units=1/GPa)
#
#
# Indices 1 2 3 4 5 6 
#
# 1 0.034153 -0.004764 0.015248 0.000000 0.046384 0.000000
# 2 -0.004764 0.008586 -0.002176 0.000000 0.004723 0.000000
# 3 0.015248 -0.002176 0.112484 0.000000 0.101940 0.000000
# 4 0.000000 0.000000 0.000000 1.920607 0.000000 0.839808
# 5 0.046384 0.004723 0.101940 0.000000 0.176713 0.000000
# 6 0.000000 0.000000 0.000000 0.839808 0.000000 0.403992
#
#
# Mechanical properties :
#
#
# Convention : Reuss Voigt Hill
#
# Bulk Modulus (GPa) = 5.81943 58.11904 31.96923
# Shear Modulus (GPa) = 1.85378 23.25388 12.55383
#
# Velocity S-wave (km/s) = 0.97001 3.43553 2.52426
# Velocity P-wave (km/s) = 2.05141 6.72581 4.97216
#
# Compressibility (1/GPa) = 0.17183828
#
# Stress axis : x y z
#
# Youngs Moduli (GPa) = 29.27973 116.47505 8.89018
#
# Poissons Ratio (x) = 0.55486 -0.13555
# Poissons Ratio (y) = 0.13948 0.01935
# Poissons Ratio (z) = -0.44645 0.25346
#
# Static dielectric constant tensor:
#      x y z
#    x 1.680480 0.000000 0.011290 
#    y 0.000000 1.712060 0.000000 
#    z 0.011290 0.000000 1.702370 
# 
# From -- ./inp_files/248363.got.cif
#   From: 2010.05.17/outbox.cif.g08.bks.cpg/sg12_125_cif.got.tgz:248363.got - 2010.06.03 13:09:07.
