data_PCOD9173669
_publ_section_title
;
Structure prediction by ZEFSAII (Michael W. Deem and Ramdas Pophale) SiO2 
 PCOD9173669
Probable space group: C 2/M
;
_chemical_formula_sum "Si O2"
_cell_formula_units_Z 48
_cell_length_a 27.903873
_cell_length_b 8.952911
_cell_length_c 21.345505
_cell_angle_alpha 90.000000
_cell_angle_beta 146.161416
_cell_angle_gamma 90.000000
_cell_volume 2969.459326
_symmetry_space_group_name_H-M "C 2/M"
_symmetry_group_IT_number 12
_symmetry_cell_setting 'monoclinic'
loop_
_space_group_symop_operation_xyz
x,y,z
-x,y,-z
-x,-y,-z
x,-y,z
1/2+x,1/2+y,z
1/2-x,1/2+y,-z
1/2-x,1/2-y,-z
1/2+x,1/2-y,z
loop_
_atom_site_type_symbol
_atom_site_label
_atom_site_fract_x
_atom_site_fract_y
_atom_site_fract_z
Si Si1 0.358962 0.174636 0.956167
Si Si2 0.227798 0.677885 0.909415
Si Si3 0.028656 0.171403 0.104404
Si Si4 0.575811 0.319251 0.669244
Si Si5 0.386069 0.318869 0.433567
Si Si6 0.301944 0.176436 0.748853
O O1 0.457113 0.231447 0.062054
O O2 0.353373 0.000000 0.966660
O O3 0.299865 0.269661 0.937979
O O4 0.324172 0.190045 0.847109
O O5 0.225476 0.500000 0.911288
O O6 0.137587 0.741205 0.785493
O O7 0.250000 0.750000 0.000000
O O8 0.124415 0.237681 0.208860
O O9 0.026422 0.000000 0.122937
O O10 0.000000 0.174386 0.000000
O O11 0.582519 0.500000 0.682087
O O12 0.475240 0.275776 0.563397
O O13 0.606316 0.278866 0.631701
O O14 0.383591 0.500000 0.431558
O O15 0.295877 0.267387 0.364383
O O16 0.306478 0.000000 0.738843
#
# Coordination Sequence:
#
# PCOD9173669 Si02
#       6
#     8   8   8   8   8   8
#     4  10  18  31  49  67  92 125 162 201 239 284
#     4  12  24  36  50  69  95 128 166 205 243 285
#     4   9  17  27  40  64  97 128 157 193 238 284
#     4   9  16  31  50  70  95 127 163 198 237 284
#     4   8  14  26  49  73  97 128 160 193 235 288
#     4   9  15  26  45  70  96 128 162 190 230 286
#
# _framework density 16.164559000000001
#
# number of rings (size 3 to 8) (size 9 to 14) (size 15 to 20)
#    0.000    2.500    1.667    3.500    0.000    2.667 
#    0.000    2.500    0.000    0.000    0.000    1.167 
#    0.000    0.000    0.000    0.000    0.000    0.000 
#
# Total GULP energy -133763.736725 kJ/mol
# GULP energy per Si atom -5573.489030 kJ/mol
# Density = 1.612777 g / cm^3
# Si number density = 16.164559 Si / 1000 Ang^3
#
#
#
# Elastic Constant Matrix: (Units=GPa)
#
#
# Indices 1 2 3 4 5 6 
#
# 1 36.7218 28.1597 48.8494 0.0000 23.8178 0.0000
# 2 28.1597 79.3850 49.1636 0.0000 6.8207 0.0000
# 3 48.8494 49.1636 122.3671 0.0000 28.1379 0.0000
# 4 0.0000 0.0000 0.0000 19.7532 0.0000 3.9250
# 5 23.8178 6.8207 28.1379 0.0000 34.6764 0.0000
# 6 0.0000 0.0000 0.0000 3.9250 0.0000 23.4663
#
#
#
# Elastic Compliance Matrix: (Units=1/GPa)
#
#
# Indices 1 2 3 4 5 6 
#
# 1 0.102856 -0.018390 -0.022447 0.000000 -0.048816 0.000000
# 2 -0.018390 0.020260 -0.003426 0.000000 0.011426 0.000000
# 3 -0.022447 -0.003426 0.018206 0.000000 0.001318 0.000000
# 4 0.000000 0.000000 0.000000 0.052365 0.000000 -0.008759
# 5 -0.048816 0.011426 0.001318 0.000000 0.059051 0.000000
# 6 0.000000 0.000000 0.000000 -0.008759 0.000000 0.044079
#
#
# Mechanical properties :
#
#
# Convention : Reuss Voigt Hill
#
# Bulk Modulus (GPa) = 18.94037 54.53547 36.73792
# Shear Modulus (GPa) = 12.40870 23.06591 17.73731
#
# Velocity S-wave (km/s) = 2.77365 3.78159 3.31614
# Velocity P-wave (km/s) = 4.69044 7.27174 6.11876
#
# Compressibility (1/GPa) = 0.05279727
#
# Stress axis : x y z
#
# Youngs Moduli (GPa) = 9.72229 49.35795 54.92547
#
# Poissons Ratio (x) = 0.90767 1.23292
# Poissons Ratio (y) = 0.17879 0.18818
# Poissons Ratio (z) = 0.21824 0.16911
#
# Static dielectric constant tensor:
#      x y z
#    x 1.532120 0.000000 0.029310 
#    y 0.000000 1.538540 0.000000 
#    z 0.029310 0.000000 1.546650 
# 
# From -- ./inp_files/329126.got.cif
#   From: 2010.05.17/outbox.cif.g08.bks.cpg/sg12_165_cif.got.tgz:329126.got - 2010.06.03 13:09:07.
