data_PCOD9173598
_publ_section_title
;
Structure prediction by ZEFSAII (Michael W. Deem and Ramdas Pophale) SiO2 
 PCOD9173598
Probable space group: C 2/M
;
_chemical_formula_sum "Si O2"
_cell_formula_units_Z 60
_cell_length_a 19.827694
_cell_length_b 27.318325
_cell_length_c 9.734123
_cell_angle_alpha 90.000000
_cell_angle_beta 50.544977
_cell_angle_gamma 90.000000
_cell_volume 4071.083109
_symmetry_space_group_name_H-M "C 2/M"
_symmetry_group_IT_number 12
_symmetry_cell_setting 'monoclinic'
loop_
_space_group_symop_operation_xyz
x,y,z
-x,y,-z
-x,-y,-z
x,-y,z
1/2+x,1/2+y,z
1/2-x,1/2+y,-z
1/2-x,1/2-y,-z
1/2+x,1/2-y,z
loop_
_atom_site_type_symbol
_atom_site_label
_atom_site_fract_x
_atom_site_fract_y
_atom_site_fract_z
Si Si1 0.842903 0.375148 0.570486
Si Si2 0.911068 0.555893 0.706057
Si Si3 0.582848 0.796282 0.063891
Si Si4 0.817242 0.179825 0.332841
Si Si5 0.500000 0.290340 0.000000
Si Si6 0.599119 0.223824 0.357086
Si Si7 0.755813 0.783159 0.690550
Si Si8 0.008648 0.602637 0.830937
O O1 0.848052 0.410171 0.696590
O O2 0.745606 0.360850 0.650952
O O3 0.887654 0.323767 0.562036
O O4 0.898851 0.398059 0.371362
O O5 0.880952 0.500000 0.756559
O O6 0.000000 0.556413 0.500000
O O7 0.939608 0.577057 0.816804
O O8 0.538146 0.746530 0.066877
O O9 0.609547 0.791978 0.187053
O O10 0.515962 0.840235 0.132611
O O11 0.670909 0.807325 0.866278
O O12 0.918709 0.178753 0.162265
O O13 0.798774 0.183806 0.518210
O O14 0.782339 0.232418 0.322574
O O15 0.500000 0.241436 0.500000
O O16 0.669602 0.264660 0.303515
O O17 0.000000 0.584331 0.000000
#
# Coordination Sequence:
#
# PCOD9173598 Si02
#       8
#     8   8   8   8   4   8   8   8
#     4  10  18  31  47  65  86 121 153 185 227 269
#     4   9  18  33  49  67  90 116 147 184 229 279
#     4  11  18  27  40  61  87 121 159 186 217 263
#     4   9  18  30  43  60  87 120 154 189 227 260
#     4  10  20  30  42  62  90 124 160 190 224 252
#     4  11  17  27  42  58  86 121 161 188 219 255
#     4   9  19  27  39  60  87 119 154 191 218 258
#     4  11  19  28  46  67  92 122 152 185 222 268
#
# _framework density 14.738092999999999
#
# number of rings (size 3 to 8) (size 9 to 14) (size 15 to 20)
#    0.000    2.000    3.333    2.400    3.733    0.267 
#    0.000    0.000    0.000    0.000    0.000    0.467 
#    0.000    0.000    0.000    3.467    0.000    0.000 
#
# Total GULP energy -167104.064078 kJ/mol
# GULP energy per Si atom -5570.135469 kJ/mol
# Density = 1.470455 g / cm^3
# Si number density = 14.738093 Si / 1000 Ang^3
#
#
#
# Elastic Constant Matrix: (Units=GPa)
#
#
# Indices 1 2 3 4 5 6 
#
# 1 77.2962 20.2985 46.5571 0.0000 2.7645 0.0000
# 2 20.2985 37.1121 15.7354 0.0000 0.8111 0.0000
# 3 46.5571 15.7354 92.3572 0.0000 1.7374 0.0000
# 4 0.0000 0.0000 0.0000 0.3047 0.0000 -5.3447
# 5 2.7645 0.8111 1.7374 0.0000 33.1018 0.0000
# 6 0.0000 0.0000 0.0000 -5.3447 0.0000 9.7663
#
#
#
# Elastic Compliance Matrix: (Units=1/GPa)
#
#
# Indices 1 2 3 4 5 6 
#
# 1 0.020285 -0.007270 -0.008967 0.000000 -0.001045 0.000000
# 2 -0.007270 0.031656 -0.001727 0.000000 -0.000078 0.000000
# 3 -0.008967 -0.001727 0.015643 0.000000 -0.000030 0.000000
# 4 0.000000 0.000000 0.000000 -0.381643 0.000000 -0.208859
# 5 -0.001045 -0.000078 -0.000030 0.000000 0.030301 0.000000
# 6 0.000000 0.000000 0.000000 -0.208859 0.000000 -0.011907
#
#
# Mechanical properties :
#
#
# Convention : Reuss Voigt Hill
#
# Bulk Modulus (GPa) = 31.59093 41.32749 36.45921
# Shear Modulus (GPa) = -20.06531 16.91287 -1.57622
#
# Velocity S-wave (km/s) = -3.69380 3.39124 -1.03528
# Velocity P-wave (km/s) = 1.81362 6.59061 4.83350
#
# Compressibility (1/GPa) = 0.03165466
#
# Stress axis : x y z
#
# Youngs Moduli (GPa) = 49.29765 31.58989 63.92741
#
# Poissons Ratio (x) = 0.22966 0.57326
# Poissons Ratio (y) = 0.35839 0.11041
# Poissons Ratio (z) = 0.44207 0.05456
#
# Static dielectric constant tensor:
#      x y z
#    x 1.503100 0.000000 0.019630 
#    y 0.000000 1.470450 0.000000 
#    z 0.019630 0.000000 1.517790 
# 
# From -- ./inp_files/80341.got.cif
#   From: 2010.05.17/outbox.cif.g08.bks.cpg/sg12_41_cif.got.tgz:80341.got - 2010.06.03 13:09:07.
