data_PCOD9173025
_publ_section_title
;
Structure prediction by ZEFSAII (Michael W. Deem and Ramdas Pophale) SiO2 
 PCOD9173025
Probable space group: C 2/M
;
_chemical_formula_sum "Si O2"
_cell_formula_units_Z 64
_cell_length_a 33.445798
_cell_length_b 8.016549
_cell_length_c 15.838002
_cell_angle_alpha 90.000000
_cell_angle_beta 44.906248
_cell_angle_gamma 90.000000
_cell_volume 2997.799741
_symmetry_space_group_name_H-M "C 2/M"
_symmetry_group_IT_number 12
_symmetry_cell_setting 'monoclinic'
loop_
_space_group_symop_operation_xyz
x,y,z
-x,y,-z
-x,-y,-z
x,-y,z
1/2+x,1/2+y,z
1/2-x,1/2+y,-z
1/2-x,1/2-y,-z
1/2+x,1/2-y,z
loop_
_atom_site_type_symbol
_atom_site_label
_atom_site_fract_x
_atom_site_fract_y
_atom_site_fract_z
Si Si1 0.840680 0.699733 0.633516
Si Si2 0.721494 0.188185 0.627005
Si Si3 0.907873 0.303180 0.008944
Si Si4 0.469501 0.694329 0.750286
Si Si5 0.587043 0.194751 0.627409
Si Si6 0.780260 0.188687 0.192622
Si Si7 0.563687 0.299465 0.378874
Si Si8 0.586009 0.809244 0.814123
O O1 0.834106 0.500000 0.633615
O O2 0.865039 0.765669 0.506996
O O3 0.778521 0.763091 0.754243
O O4 0.888152 0.729519 0.632812
O O5 0.750000 0.250000 0.500000
O O6 0.732866 0.308608 0.687700
O O7 0.654181 0.183154 0.714406
O O8 0.739838 0.000000 0.620887
O O9 0.920394 0.500000 0.989126
O O10 0.840223 0.281224 0.097471
O O11 0.927411 0.237663 0.072563
O O12 0.938467 0.218726 0.885149
O O13 0.484197 0.500000 0.716112
O O14 0.528225 0.792789 0.665629
O O15 0.431557 0.745471 0.727107
O O16 0.574973 0.269992 0.738740
O O17 0.601364 0.000000 0.621156
O O18 0.789177 0.000000 0.148482
O O19 0.500000 0.247981 0.500000
O O20 0.566597 0.500000 0.382859
O O21 0.563085 0.000000 0.847259
#
# Coordination Sequence:
#
# PCOD9173025 Si02
#       8
#     8   8   8   8   8   8   8   8
#     4  10  21  35  58  89 118 146 183 233 285 340
#     4  10  18  30  49  75 109 151 195 238 282 333
#     4  10  21  39  60  82 110 152 198 233 272 332
#     4  11  23  39  58  82 112 147 185 234 289 337
#     4  10  19  34  56  83 113 148 187 229 277 333
#     4  10  20  36  56  82 115 149 186 234 286 337
#     4  10  21  39  60  83 114 147 181 229 290 346
#     4   8  17  33  52  75 108 147 188 229 273 326
#
# _framework density 21.348991000000002
#
# number of rings (size 3 to 8) (size 9 to 14) (size 15 to 20)
#    0.000    2.125    1.250    3.000    0.000    4.750 
#    0.000    8.125    0.000    0.000    0.000    0.000 
#    0.000    0.000    0.000    0.000    0.000    0.000 
#
# Total GULP energy -178490.108775 kJ/mol
# GULP energy per Si atom -5577.815899 kJ/mol
# Density = 2.130040 g / cm^3
# Si number density = 21.348991 Si / 1000 Ang^3
#
#
#
# Elastic Constant Matrix: (Units=GPa)
#
#
# Indices 1 2 3 4 5 6 
#
# 1 101.0513 5.5455 12.1918 0.0000 2.9667 0.0000
# 2 5.5455 33.2275 0.3294 -0.0002 3.8187 0.0000
# 3 12.1918 0.3294 60.7646 0.0000 11.6035 0.0001
# 4 0.0000 -0.0002 0.0000 15.5222 0.0000 4.0538
# 5 2.9667 3.8187 11.6035 0.0000 34.1716 0.0000
# 6 0.0000 0.0000 0.0001 4.0538 0.0000 19.9154
#
#
#
# Elastic Compliance Matrix: (Units=1/GPa)
#
#
# Indices 1 2 3 4 5 6 
#
# 1 0.010235 -0.001687 -0.002043 0.000000 -0.000006 0.000000
# 2 -0.001687 0.030781 0.000856 0.000000 -0.003584 0.000000
# 3 -0.002043 0.000856 0.018015 0.000000 -0.006035 0.000000
# 4 0.000000 0.000000 0.000000 0.068041 0.000000 -0.013850
# 5 -0.000006 -0.003584 -0.006035 0.000000 0.031715 0.000000
# 6 0.000000 0.000000 0.000000 -0.013850 0.000000 0.053032
#
#
# Mechanical properties :
#
#
# Convention : Reuss Voigt Hill
#
# Bulk Modulus (GPa) = 18.76818 25.68632 22.22725
# Shear Modulus (GPa) = 21.24702 25.72029 23.48366
#
# Velocity S-wave (km/s) = 3.15814 3.47472 3.32021
# Velocity P-wave (km/s) = 4.70199 5.30622 5.01322
#
# Compressibility (1/GPa) = 0.05328168
#
# Stress axis : x y z
#
# Youngs Moduli (GPa) = 97.70146 32.48805 55.50989
#
# Poissons Ratio (x) = 0.05482 0.11342
# Poissons Ratio (y) = 0.16485 -0.04752
# Poissons Ratio (z) = 0.19963 -0.02781
#
# Static dielectric constant tensor:
#      x y z
#    x 1.802760 0.000000 0.003040 
#    y 0.000000 1.773980 0.000000 
#    z 0.003040 0.000000 1.809620 
# 
# From -- ./inp_files/249772.got.cif
#   From: 2010.05.17/outbox.cif.g08.bks.cpg/sg12_125_cif.got.tgz:249772.got - 2010.06.03 13:09:07.
