data_PCOD9173936
_publ_section_title
;
Structure prediction by ZEFSAII (Michael W. Deem and Ramdas Pophale) SiO2 
 PCOD9173936
Probable space group: C 2/M
;
_chemical_formula_sum "Si O2"
_cell_formula_units_Z 56
_cell_length_a 20.309031
_cell_length_b 8.778058
_cell_length_c 28.479150
_cell_angle_alpha 90.000000
_cell_angle_beta 145.386084
_cell_angle_gamma 90.000000
_cell_volume 2884.007479
_symmetry_space_group_name_H-M "C 2/M"
_symmetry_group_IT_number 12
_symmetry_cell_setting 'monoclinic'
loop_
_space_group_symop_operation_xyz
x,y,z
-x,y,-z
-x,-y,-z
x,-y,z
1/2+x,1/2+y,z
1/2-x,1/2+y,-z
1/2-x,1/2-y,-z
1/2+x,1/2-y,z
loop_
_atom_site_type_symbol
_atom_site_label
_atom_site_fract_x
_atom_site_fract_y
_atom_site_fract_z
Si Si1 0.501135 0.823779 0.076463
Si Si2 0.732479 0.682517 0.248178
Si Si3 0.261471 0.816909 0.905534
Si Si4 0.403248 0.183868 0.271345
Si Si5 0.918194 0.323053 0.135410
Si Si6 0.842126 0.182665 0.693459
Si Si7 0.329629 0.817344 0.587396
O O1 0.621743 0.737664 0.153081
O O2 0.444286 0.818625 0.095393
O O3 0.526471 0.000000 0.079610
O O4 0.396134 0.766922 0.982184
O O5 0.727536 0.500000 0.246854
O O6 0.849168 0.727540 0.289929
O O7 0.718924 0.735826 0.293958
O O8 0.181521 0.756100 0.816913
O O9 0.199016 0.753553 0.915563
O O10 0.261635 0.000000 0.906754
O O11 0.536236 0.229268 0.342603
O O12 0.397548 0.000000 0.263547
O O13 0.919003 0.500000 0.150537
O O14 0.024889 0.235941 0.222409
O O15 0.794932 0.255376 0.618229
O O16 0.836786 0.000000 0.687385
O O17 0.250000 0.750000 0.500000
O O18 0.324285 0.000000 0.583850
#
# Coordination Sequence:
#
# PCOD9173936 Si02
#       7
#     8   8   8   8   8   8   8
#     4   9  20  34  49  76 113 153 194 237 282 328
#     4   9  20  38  59  82 112 153 195 232 273 331
#     4  11  21  32  50  78 113 151 194 240 284 329
#     4  10  22  40  59  82 113 150 189 230 283 339
#     4  10  18  31  51  76 110 150 192 235 282 332
#     4  10  19  35  60  87 114 145 186 231 280 335
#     4  11  23  40  64  90 116 144 181 229 283 342
#
# _framework density 19.417425000000001
#
# number of rings (size 3 to 8) (size 9 to 14) (size 15 to 20)
#    0.000    2.000    1.429    2.143    0.000    4.000 
#    0.000    3.571    0.000    4.286    0.000    0.000 
#    0.000    0.000    0.000    0.000    0.000    0.000 
#
# Total GULP energy -156347.366305 kJ/mol
# GULP energy per Si atom -5583.834511 kJ/mol
# Density = 1.937323 g / cm^3
# Si number density = 19.417425 Si / 1000 Ang^3
#
#
#
# Elastic Constant Matrix: (Units=GPa)
#
#
# Indices 1 2 3 4 5 6 
#
# 1 97.2730 23.0164 44.9239 0.0000 2.3450 0.0000
# 2 23.0164 36.0494 27.7538 0.0000 -4.0395 0.0000
# 3 44.9239 27.7538 100.5704 0.0000 -20.1960 0.0000
# 4 0.0000 0.0000 0.0000 28.3556 0.0000 -2.5298
# 5 2.3450 -4.0395 -20.1960 0.0000 20.4739 0.0000
# 6 0.0000 0.0000 0.0000 -2.5298 0.0000 20.6692
#
#
#
# Elastic Compliance Matrix: (Units=1/GPa)
#
#
# Indices 1 2 3 4 5 6 
#
# 1 0.015128 -0.005118 -0.007352 0.000000 -0.009995 0.000000
# 2 -0.005118 0.037134 -0.007946 0.000000 0.000074 0.000000
# 3 -0.007352 -0.007946 0.019048 0.000000 0.018063 0.000000
# 4 0.000000 0.000000 0.000000 0.035656 0.000000 0.004364
# 5 -0.009995 0.000074 0.018063 0.000000 0.067820 0.000000
# 6 0.000000 0.000000 0.000000 0.004364 0.000000 0.048915
#
#
# Mechanical properties :
#
#
# Convention : Reuss Voigt Hill
#
# Bulk Modulus (GPa) = 32.81309 47.25343 40.03326
# Shear Modulus (GPa) = 18.20217 23.11299 20.65758
#
# Velocity S-wave (km/s) = 3.06504 3.45385 3.26524
# Velocity P-wave (km/s) = 5.42784 6.34774 5.90573
#
# Compressibility (1/GPa) = 0.03047564
#
# Stress axis : x y z
#
# Youngs Moduli (GPa) = 66.10347 26.92977 52.49986
#
# Poissons Ratio (x) = 0.13784 0.38598
# Poissons Ratio (y) = 0.33834 0.41718
# Poissons Ratio (z) = 0.48600 0.21399
#
# Static dielectric constant tensor:
#      x y z
#    x 1.735710 0.000000 -0.023140 
#    y 0.000000 1.650080 0.000000 
#    z -0.023140 0.000000 1.654920 
# 
# From -- ./inp_files/348620.got.cif
#   From: 2010.05.17/outbox.cif.g08.bks.cpg/sg12_175_cif.got.tgz:348620.got - 2010.06.03 13:09:07.
