data_PCOD9173971
_publ_section_title
;
Structure prediction by ZEFSAII (Michael W. Deem and Ramdas Pophale) SiO2 
 PCOD9173971
Probable space group: C 2/M
;
_chemical_formula_sum "Si O2"
_cell_formula_units_Z 40
_cell_length_a 27.062250
_cell_length_b 7.388184
_cell_length_c 14.484911
_cell_angle_alpha 90.000000
_cell_angle_beta 138.728495
_cell_angle_gamma 90.000000
_cell_volume 1910.365608
_symmetry_space_group_name_H-M "C 2/M"
_symmetry_group_IT_number 12
_symmetry_cell_setting 'monoclinic'
loop_
_space_group_symop_operation_xyz
x,y,z
-x,y,-z
-x,-y,-z
x,-y,z
1/2+x,1/2+y,z
1/2-x,1/2+y,-z
1/2-x,1/2-y,-z
1/2+x,1/2-y,z
loop_
_atom_site_type_symbol
_atom_site_label
_atom_site_fract_x
_atom_site_fract_y
_atom_site_fract_z
Si Si1 0.919230 0.000000 0.265153
Si Si2 0.660028 0.779012 0.189214
Si Si3 0.590310 0.782153 0.902969
Si Si4 0.941816 0.295764 0.796993
Si Si5 0.097948 0.000000 0.547717
Si Si6 0.317957 0.705679 0.481417
O O1 0.897601 0.826220 0.173715
O O2 0.886522 0.000000 0.322090
O O3 0.009423 0.000000 0.405094
O O4 0.589876 0.715895 0.152594
O O5 0.737731 0.716101 0.342711
O O6 0.660904 0.000000 0.195901
O O7 0.648936 0.737042 0.066511
O O8 0.510577 0.719067 0.835224
O O9 0.588872 0.000000 0.886613
O O10 0.966518 0.500000 0.852925
O O11 0.870058 0.299914 0.628695
O O12 0.135423 0.830159 0.547274
O O13 0.306076 0.500000 0.501431
#
# Coordination Sequence:
#
# PCOD9173971 Si02
#       6
#     4   8   8   8   4   8
#     4  11  20  40  58  81 104 140 187 233 273 315
#     4   9  18  32  53  75 113 145 171 214 275 321
#     4  10  20  36  56  80 112 142 181 223 267 324
#     4  10  18  31  51  80 108 143 178 214 261 328
#     4   9  20  36  61  74 104 139 181 235 279 311
#     4   9  17  34  53  74 104 144 174 221 270 317
#
# _framework density 20.938400000000001
#
# number of rings (size 3 to 8) (size 9 to 14) (size 15 to 20)
#    0.600    1.800    2.000    1.200    0.000    2.400 
#    3.600    5.000    0.000    0.000    0.000    0.000 
#    0.000    0.000    0.000    0.000    0.000    0.000 
#
# Total GULP energy -111544.803811 kJ/mol
# GULP energy per Si atom -5577.240191 kJ/mol
# Density = 2.089074 g / cm^3
# Si number density = 20.938400 Si / 1000 Ang^3
#
#
#
# Elastic Constant Matrix: (Units=GPa)
#
#
# Indices 1 2 3 4 5 6 
#
# 1 49.7362 4.6352 15.3468 0.0000 -24.0237 0.0000
# 2 4.6352 79.6374 21.5179 0.0000 -12.8420 0.0000
# 3 15.3468 21.5179 110.7213 0.0000 -18.6895 0.0000
# 4 0.0000 0.0000 0.0000 22.3850 0.0000 -2.3145
# 5 -24.0237 -12.8420 -18.6895 0.0000 48.9729 0.0000
# 6 0.0000 0.0000 0.0000 -2.3145 0.0000 7.8679
#
#
#
# Elastic Compliance Matrix: (Units=1/GPa)
#
#
# Indices 1 2 3 4 5 6 
#
# 1 0.026676 0.000962 -0.001746 0.000000 0.012672 0.000000
# 2 0.000962 0.013621 -0.002242 0.000000 0.003188 0.000000
# 3 -0.001746 -0.002242 0.010117 0.000000 0.002417 0.000000
# 4 0.000000 0.000000 0.000000 0.046074 0.000000 0.013554
# 5 0.012672 0.003188 0.002417 0.000000 0.028394 0.000000
# 6 0.000000 0.000000 0.000000 0.013554 0.000000 0.131086
#
#
# Mechanical properties :
#
#
# Convention : Reuss Voigt Hill
#
# Bulk Modulus (GPa) = 22.54114 35.89942 29.22028
# Shear Modulus (GPa) = 18.06311 29.08482 23.57397
#
# Velocity S-wave (km/s) = 2.94033 3.73106 3.35904
# Velocity P-wave (km/s) = 4.72400 5.97859 5.38794
#
# Compressibility (1/GPa) = 0.04436333
#
# Stress axis : x y z
#
# Youngs Moduli (GPa) = 37.48698 73.41665 98.83991
#
# Poissons Ratio (x) = -0.07066 0.17253
# Poissons Ratio (y) = -0.03608 0.22164
# Poissons Ratio (z) = 0.06543 0.16463
#
# Static dielectric constant tensor:
#      x y z
#    x 1.754240 0.000000 0.020960 
#    y 0.000000 1.772310 0.000000 
#    z 0.020960 0.000000 1.744550 
# 
# From -- ./inp_files/172611.got.cif
#   From: 2010.05.17/outbox.cif.g08.bks.cpg/sg12_87_cif.got.tgz:172611.got - 2010.06.03 13:09:07.
