data_PCOD9173757
_publ_section_title
;
Structure prediction by ZEFSAII (Michael W. Deem and Ramdas Pophale) SiO2 
 PCOD9173757
Probable space group: C 2/M
;
_chemical_formula_sum "Si O2"
_cell_formula_units_Z 64
_cell_length_a 28.334641
_cell_length_b 19.405057
_cell_length_c 9.018913
_cell_angle_alpha 90.000000
_cell_angle_beta 131.214367
_cell_angle_gamma 90.000000
_cell_volume 3730.343876
_symmetry_space_group_name_H-M "C 2/M"
_symmetry_group_IT_number 12
_symmetry_cell_setting 'monoclinic'
loop_
_space_group_symop_operation_xyz
x,y,z
-x,y,-z
-x,-y,-z
x,-y,z
1/2+x,1/2+y,z
1/2-x,1/2+y,-z
1/2-x,1/2-y,-z
1/2+x,1/2-y,z
loop_
_atom_site_type_symbol
_atom_site_label
_atom_site_fract_x
_atom_site_fract_y
_atom_site_fract_z
Si Si1 0.637462 0.853018 0.591673
Si Si2 0.481634 0.078291 0.614760
Si Si3 0.213064 0.424514 0.197939
Si Si4 0.747126 0.918490 0.616939
Si Si5 0.581034 0.078885 0.042827
Si Si6 0.072304 0.713236 0.202162
Si Si7 0.688215 0.280893 0.280989
Si Si8 0.792967 0.297245 0.986450
O O1 0.591535 0.917317 0.517102
O O2 0.696866 0.880356 0.620427
O O3 0.594753 0.795204 0.419569
O O4 0.656901 0.825636 0.792622
O O5 0.500000 0.113951 0.500000
O O6 0.505070 0.000000 0.656635
O O7 0.518321 0.104181 0.832590
O O8 0.232531 0.500000 0.186819
O O9 0.225639 0.419369 0.399855
O O10 0.137218 0.419477 0.040371
O O11 0.240342 0.363923 0.155840
O O12 0.803068 0.862557 0.727104
O O13 0.756616 0.000000 0.676378
O O14 0.591074 0.136367 0.184815
O O15 0.576533 0.000000 0.090516
O O16 0.124189 0.762579 0.233846
O O17 0.000000 0.728262 0.000000
O O18 0.750000 0.250000 0.500000
O O19 0.685565 0.244020 0.115023
O O20 0.750000 0.250000 0.000000
#
# Coordination Sequence:
#
# PCOD9173757 Si02
#       8
#     8   8   8   8   8   8   8   8
#     4  12  22  33  55  82 116 146 196 235 280 343
#     4  10  21  32  44  69 113 159 190 227 270 321
#     4  10  20  35  55  78 110 150 194 232 280 340
#     4  11  22  38  62  85 108 149 197 245 290 342
#     4  10  18  31  50  71 108 157 195 222 265 328
#     4  12  23  37  57  84 114 155 196 241 284 338
#     4  12  21  43  62  80 118 156 192 239 288 349
#     4  12  22  35  56  83 112 157 186 239 294 335
#
# _framework density 17.156594999999999
#
# number of rings (size 3 to 8) (size 9 to 14) (size 15 to 20)
#    0.000    0.875    7.500    1.125    0.000    2.750 
#    0.000    0.000    0.000    0.375    0.000    0.000 
#    0.000    1.000    0.000    0.000    0.000    0.000 
#
# Total GULP energy -178174.124701 kJ/mol
# GULP energy per Si atom -5567.941397 kJ/mol
# Density = 1.711755 g / cm^3
# Si number density = 17.156595 Si / 1000 Ang^3
#
#
#
# Elastic Constant Matrix: (Units=GPa)
#
#
# Indices 1 2 3 4 5 6 
#
# 1 59.0783 28.5950 16.4146 0.0000 0.9284 0.0000
# 2 28.5950 87.0829 31.8133 0.0000 2.1740 0.0000
# 3 16.4146 31.8133 78.7062 0.0000 -9.8183 0.0000
# 4 0.0000 0.0000 0.0000 21.6963 0.0000 -0.4695
# 5 0.9284 2.1740 -9.8183 0.0000 24.0375 0.0000
# 6 0.0000 0.0000 0.0000 -0.4695 0.0000 24.4372
#
#
#
# Elastic Compliance Matrix: (Units=1/GPa)
#
#
# Indices 1 2 3 4 5 6 
#
# 1 0.020368 -0.005938 -0.001979 0.000000 -0.001058 0.000000
# 2 -0.005938 0.015511 -0.005456 0.000000 -0.003402 0.000000
# 3 -0.001979 -0.005456 0.016221 0.000000 0.007196 0.000000
# 4 0.000000 0.000000 0.000000 0.046110 0.000000 0.000886
# 5 -0.001058 -0.003402 0.007196 0.000000 0.044889 0.000000
# 6 0.000000 0.000000 0.000000 0.000886 0.000000 0.040938
#
#
# Mechanical properties :
#
#
# Convention : Reuss Voigt Hill
#
# Bulk Modulus (GPa) = 39.44303 42.05702 40.75003
# Shear Modulus (GPa) = 22.80653 23.90383 23.35518
#
# Velocity S-wave (km/s) = 3.64993 3.73671 3.69358
# Velocity P-wave (km/s) = 6.38769 6.57146 6.48023
#
# Compressibility (1/GPa) = 0.02535302
#
# Stress axis : x y z
#
# Youngs Moduli (GPa) = 49.09756 64.46923 61.64816
#
# Poissons Ratio (x) = 0.38285 0.12203
# Poissons Ratio (y) = 0.29156 0.33633
# Poissons Ratio (z) = 0.09718 0.35172
#
# Static dielectric constant tensor:
#      x y z
#    x 1.631470 0.000000 -0.048240 
#    y 0.000000 1.621270 0.000000 
#    z -0.048240 0.000000 1.689140 
# 
# From -- ./inp_files/106418.got.cif
#   From: 2010.05.17/outbox.cif.g08.bks.cpg/sg12_54_cif.got.tgz:106418.got - 2010.06.03 13:09:07.
