data_PCOD9173850
_publ_section_title
;
Structure prediction by ZEFSAII (Michael W. Deem and Ramdas Pophale) SiO2 
 PCOD9173850
Probable space group: C 2/M
;
_chemical_formula_sum "Si O2"
_cell_formula_units_Z 44
_cell_length_a 14.624180
_cell_length_b 26.062358
_cell_length_c 11.925495
_cell_angle_alpha 90.000000
_cell_angle_beta 148.084654
_cell_angle_gamma 90.000000
_cell_volume 2402.939194
_symmetry_space_group_name_H-M "C 2/M"
_symmetry_group_IT_number 12
_symmetry_cell_setting 'monoclinic'
loop_
_space_group_symop_operation_xyz
x,y,z
-x,y,-z
-x,-y,-z
x,-y,z
1/2+x,1/2+y,z
1/2-x,1/2+y,-z
1/2-x,1/2-y,-z
1/2+x,1/2-y,z
loop_
_atom_site_type_symbol
_atom_site_label
_atom_site_fract_x
_atom_site_fract_y
_atom_site_fract_z
Si Si1 0.220923 0.612387 0.864212
Si Si2 0.720990 0.500000 0.343994
Si Si3 0.842276 0.210738 0.747164
Si Si4 0.500000 0.737410 0.500000
Si Si5 0.680723 0.110555 0.555122
Si Si6 0.690083 0.500000 0.054711
Si Si7 0.594111 0.710146 0.836236
O O1 0.237750 0.609652 0.746245
O O2 0.260024 0.554513 0.946841
O O3 0.018828 0.623727 0.668791
O O4 0.336300 0.657158 0.036935
O O5 0.787123 0.554012 0.459155
O O6 0.773280 0.500000 0.266466
O O7 0.515149 0.500000 0.140682
O O8 0.670497 0.230264 0.634540
O O9 0.792865 0.157899 0.632628
O O10 0.940049 0.238128 0.745919
O O11 0.000000 0.205435 0.000000
O O12 0.545521 0.704400 0.656086
O O13 0.750000 0.750000 0.000000
#
# Coordination Sequence:
#
# PCOD9173850 Si02
#       7
#     8   4   8   4   8   4   8
#     4  10  19  32  53  79 113 149 191 230 283 340
#     4   9  17  25  45  75 116 148 180 221 279 342
#     4  12  22  39  61  82 117 151 189 235 286 344
#     4  12  26  42  58  84 112 152 198 236 286 342
#     4  10  18  31  50  82 113 149 184 226 283 345
#     4   9  17  29  47  74 109 151 185 228 279 337
#     4  12  23  39  61  84 116 153 191 239 287 340
#
# _framework density 18.310908999999999
#
# number of rings (size 3 to 8) (size 9 to 14) (size 15 to 20)
#    0.000    1.273    3.636    4.364    2.545    2.182 
#    0.000    0.000    0.000    0.545    0.000    0.000 
#    0.000    7.273    0.000    0.000    0.000    0.091 
#
# Total GULP energy -122495.076886 kJ/mol
# GULP energy per Si atom -5567.958040 kJ/mol
# Density = 1.826923 g / cm^3
# Si number density = 18.310909 Si / 1000 Ang^3
#
#
#
# Elastic Constant Matrix: (Units=GPa)
#
#
# Indices 1 2 3 4 5 6 
#
# 1 85.6310 24.0760 41.8255 0.0000 14.9672 0.0000
# 2 24.0760 92.7042 41.7310 0.0000 11.6558 0.0000
# 3 41.8255 41.7310 84.4426 0.0000 7.3561 0.0000
# 4 0.0000 0.0000 0.0000 27.6451 0.0000 9.5574
# 5 14.9672 11.6558 7.3561 0.0000 34.1056 0.0000
# 6 0.0000 0.0000 0.0000 9.5574 0.0000 17.1126
#
#
#
# Elastic Compliance Matrix: (Units=1/GPa)
#
#
# Indices 1 2 3 4 5 6 
#
# 1 0.016373 -0.000162 -0.007551 0.000000 -0.005502 0.000000
# 2 -0.000162 0.014255 -0.006672 0.000000 -0.003362 0.000000
# 3 -0.007551 -0.006672 0.018744 0.000000 0.001551 0.000000
# 4 0.000000 0.000000 0.000000 0.044829 0.000000 -0.025037
# 5 -0.005502 -0.003362 0.001551 0.000000 0.032549 0.000000
# 6 0.000000 0.000000 0.000000 -0.025037 0.000000 0.072420
#
#
# Mechanical properties :
#
#
# Convention : Reuss Voigt Hill
#
# Bulk Modulus (GPa) = 48.53362 53.11588 50.82475
# Shear Modulus (GPa) = 21.29411 26.11565 23.70488
#
# Velocity S-wave (km/s) = 3.41386 3.78065 3.60193
# Velocity P-wave (km/s) = 6.48861 6.93747 6.71679
#
# Compressibility (1/GPa) = 0.02060427
#
# Stress axis : x y z
#
# Youngs Moduli (GPa) = 61.07581 70.15081 53.34918
#
# Poissons Ratio (x) = 0.01133 0.40283
# Poissons Ratio (y) = 0.00987 0.35594
# Poissons Ratio (z) = 0.46117 0.46804
#
# Static dielectric constant tensor:
#      x y z
#    x 1.689400 0.000000 0.018670 
#    y 0.000000 1.713590 0.000000 
#    z 0.018670 0.000000 1.665530 
# 
# From -- ./inp_files/149419.got.cif
#   From: 2010.05.17/outbox.cif.g08.bks.cpg/sg12_75_cif.got.tgz:149419.got - 2010.06.03 13:09:07.
