data_PCOD9173424
_publ_section_title
;
Structure prediction by ZEFSAII (Michael W. Deem and Ramdas Pophale) SiO2 
 PCOD9173424
Probable space group: C 2/M
;
_chemical_formula_sum "Si O2"
_cell_formula_units_Z 56
_cell_length_a 34.235815
_cell_length_b 7.498149
_cell_length_c 10.900800
_cell_angle_alpha 90.000000
_cell_angle_beta 58.814597
_cell_angle_gamma 90.000000
_cell_volume 2393.928624
_symmetry_space_group_name_H-M "C 2/M"
_symmetry_group_IT_number 12
_symmetry_cell_setting 'monoclinic'
loop_
_space_group_symop_operation_xyz
x,y,z
-x,y,-z
-x,-y,-z
x,-y,z
1/2+x,1/2+y,z
1/2-x,1/2+y,-z
1/2-x,1/2-y,-z
1/2+x,1/2-y,z
loop_
_atom_site_type_symbol
_atom_site_label
_atom_site_fract_x
_atom_site_fract_y
_atom_site_fract_z
Si Si1 0.406066 0.784068 0.423173
Si Si2 0.189292 0.207684 0.523806
Si Si3 0.504987 0.206177 0.856099
Si Si4 0.231061 0.298752 0.199870
Si Si5 0.814843 0.780388 0.198761
Si Si6 0.638170 0.216651 0.250041
Si Si7 0.406422 0.706865 0.936717
O O1 0.365372 0.724305 0.400378
O O2 0.454586 0.718873 0.293992
O O3 0.391214 0.725555 0.583650
O O4 0.405889 0.000000 0.427855
O O5 0.209594 0.304855 0.372524
O O6 0.201372 0.274470 0.639636
O O7 0.201507 0.000000 0.493142
O O8 0.455834 0.209296 0.872058
O O9 0.518510 0.000000 0.853584
O O10 0.500000 0.287221 0.000000
O O11 0.238395 0.500000 0.142926
O O12 0.280341 0.216989 0.148562
O O13 0.190398 0.217786 0.185411
O O14 0.814272 0.000000 0.197803
O O15 0.866217 0.720735 0.089031
O O16 0.614264 0.276793 0.165320
O O17 0.640012 0.000000 0.247257
O O18 0.412644 0.500000 0.957103
#
# Coordination Sequence:
#
# PCOD9173424 Si02
#       7
#     8   8   8   8   8   8   8
#     4   9  19  36  57  78 105 142 175 211 263 315
#     4  10  18  30  52  82 111 135 169 218 265 313
#     4  10  21  38  60  84 107 134 173 216 257 311
#     4   9  18  35  56  75 103 143 180 214 258 313
#     4   9  19  34  51  75 108 144 176 212 265 317
#     4   9  19  36  55  75 101 137 180 220 258 305
#     4  11  23  37  54  77 108 142 175 217 265 311
#
# _framework density 23.392512
#
# number of rings (size 3 to 8) (size 9 to 14) (size 15 to 20)
#    0.000    2.429    0.000    3.000    0.000    4.286 
#    0.000    7.143    0.000    0.000    0.000    0.000 
#    0.000    0.000    0.000    0.000    0.000    0.000 
#
# Total GULP energy -156446.703876 kJ/mol
# GULP energy per Si atom -5587.382281 kJ/mol
# Density = 2.333927 g / cm^3
# Si number density = 23.392512 Si / 1000 Ang^3
#
#
#
# Elastic Constant Matrix: (Units=GPa)
#
#
# Indices 1 2 3 4 5 6 
#
# 1 103.1039 -13.2174 20.2871 0.0000 -0.5360 0.0000
# 2 -13.2174 72.0837 2.5343 0.0000 -4.5276 0.0000
# 3 20.2871 2.5343 75.2544 0.0000 5.7124 0.0000
# 4 0.0000 0.0000 0.0000 6.8575 0.0000 5.4806
# 5 -0.5360 -4.5276 5.7124 0.0000 44.4162 0.0000
# 6 0.0000 0.0000 0.0000 5.4806 0.0000 11.1794
#
#
#
# Elastic Compliance Matrix: (Units=1/GPa)
#
#
# Indices 1 2 3 4 5 6 
#
# 1 0.010554 0.002085 -0.002970 0.000000 0.000722 0.000000
# 2 0.002085 0.014400 -0.001172 0.000000 0.001644 0.000000
# 3 -0.002970 -0.001172 0.014280 0.000000 -0.001992 0.000000
# 4 0.000000 0.000000 0.000000 0.239767 0.000000 -0.117543
# 5 0.000722 0.001644 -0.001992 0.000000 0.022947 0.000000
# 6 0.000000 0.000000 0.000000 -0.117543 0.000000 0.147074
#
#
# Mechanical properties :
#
#
# Convention : Reuss Voigt Hill
#
# Bulk Modulus (GPa) = 28.47414 29.96111 29.21763
# Shear Modulus (GPa) = 10.75635 28.54649 19.65142
#
# Velocity S-wave (km/s) = 2.14667 3.49711 2.90155
# Velocity P-wave (km/s) = 4.28287 5.39835 4.87263
#
# Compressibility (1/GPa) = 0.03511958
#
# Stress axis : x y z
#
# Youngs Moduli (GPa) = 94.74684 69.44673 70.02974
#
# Poissons Ratio (x) = -0.14480 0.20801
# Poissons Ratio (y) = -0.19755 0.08206
# Poissons Ratio (z) = 0.28143 0.08138
#
# Static dielectric constant tensor:
#      x y z
#    x 1.860210 0.000000 -0.022300 
#    y 0.000000 1.897460 0.000000 
#    z -0.022300 0.000000 1.894530 
# 
# From -- ./inp_files/186467.got.cif
#   From: 2010.05.17/outbox.cif.g08.bks.cpg/sg12_94_cif.got.tgz:186467.got - 2010.06.03 13:09:07.
