data_PCOD9173705
_publ_section_title
;
Structure prediction by ZEFSAII (Michael W. Deem and Ramdas Pophale) SiO2 
 PCOD9173705
Probable space group: C 2/M
;
_chemical_formula_sum "Si O2"
_cell_formula_units_Z 56
_cell_length_a 21.084939
_cell_length_b 8.263548
_cell_length_c 17.427432
_cell_angle_alpha 90.000000
_cell_angle_beta 89.964742
_cell_angle_gamma 90.000000
_cell_volume 3036.492534
_symmetry_space_group_name_H-M "C 2/M"
_symmetry_group_IT_number 12
_symmetry_cell_setting 'monoclinic'
loop_
_space_group_symop_operation_xyz
x,y,z
-x,y,-z
-x,-y,-z
x,-y,z
1/2+x,1/2+y,z
1/2-x,1/2+y,-z
1/2-x,1/2-y,-z
1/2+x,1/2-y,z
loop_
_atom_site_type_symbol
_atom_site_label
_atom_site_fract_x
_atom_site_fract_y
_atom_site_fract_z
Si Si1 0.676834 0.306063 0.503844
Si Si2 0.008928 0.802027 0.911573
Si Si3 0.823516 0.307466 0.331648
Si Si4 0.636535 0.307822 0.827588
Si Si5 0.116521 0.801787 0.177530
Si Si6 0.260691 0.691783 0.914116
Si Si7 0.324679 0.302798 0.664103
O O1 0.674267 0.500000 0.508316
O O2 0.750000 0.250000 0.500000
O O3 0.651643 0.235773 0.583561
O O4 0.650861 0.254215 0.420433
O O5 0.949759 0.750301 0.859138
O O6 0.074925 0.747942 0.873720
O O7 0.009371 0.000000 0.912043
O O8 0.000000 0.750931 0.000000
O O9 0.822902 0.500000 0.322607
O O10 0.863164 0.232589 0.262398
O O11 0.749295 0.251443 0.326299
O O12 0.639185 0.500000 0.837449
O O13 0.700533 0.236026 0.862778
O O14 0.174592 0.745445 0.123966
O O15 0.133287 0.749685 0.264038
O O16 0.116302 0.000000 0.177879
O O17 0.266672 0.500000 0.915865
O O18 0.250000 0.750000 0.000000
O O19 0.323235 0.500000 0.664708
#
# Coordination Sequence:
#
# PCOD9173705 Si02
#       7
#     8   8   8   8   8   8   8
#     4   9  16  26  44  73 106 136 168 211 262 316
#     4   9  18  32  50  74 102 134 174 216 257 308
#     4  10  18  31  49  73 104 138 174 211 259 311
#     4  11  21  33  52  79 106 133 171 217 262 313
#     4   9  16  30  52  74  99 133 172 214 257 304
#     4  11  21  34  54  77 103 134 169 214 265 313
#     4   8  14  26  46  73 100 128 167 211 255 301
#
# _framework density 18.442332
#
# number of rings (size 3 to 8) (size 9 to 14) (size 15 to 20)
#    0.000    2.429    1.429    3.429    0.000    2.286 
#    0.000    0.000    0.000   10.286    0.000    6.000 
#    0.000    0.000    0.000    0.000    0.000    0.000 
#
# Total GULP energy -156116.706383 kJ/mol
# GULP energy per Si atom -5575.596657 kJ/mol
# Density = 1.840036 g / cm^3
# Si number density = 18.442332 Si / 1000 Ang^3
#
#
#
# Elastic Constant Matrix: (Units=GPa)
#
#
# Indices 1 2 3 4 5 6 
#
# 1 35.1413 -8.5451 -11.1833 0.0000 -2.6306 0.0000
# 2 -8.5451 6.4768 -16.3859 0.0000 0.3278 0.0000
# 3 -11.1833 -16.3859 84.5960 0.0000 2.7660 0.0000
# 4 0.0000 0.0000 0.0000 26.5789 0.0000 -0.0316
# 5 -2.6306 0.3278 2.7660 0.0000 26.7681 0.0000
# 6 0.0000 0.0000 0.0000 -0.0316 0.0000 13.0700
#
#
#
# Elastic Compliance Matrix: (Units=1/GPa)
#
#
# Indices 1 2 3 4 5 6 
#
# 1 -0.922234 -2.995653 -0.702774 0.000000 0.018667 0.000000
# 2 -2.995653 -9.425304 -2.223324 0.000000 0.050752 0.000000
# 3 -0.702774 -2.223324 -0.512096 0.000000 0.011074 0.000000
# 4 0.000000 0.000000 0.000000 0.037624 0.000000 0.000091
# 5 0.018667 0.050752 0.011074 0.000000 0.037427 0.000000
# 6 0.000000 0.000000 0.000000 0.000091 0.000000 0.076511
#
#
# Mechanical properties :
#
#
# Convention : Reuss Voigt Hill
#
# Bulk Modulus (GPa) = -0.04405 5.99836 2.97716
# Shear Modulus (GPa) = -0.77733 24.10530 11.66399
#
# Velocity S-wave (km/s) = -0.64993 3.61926 2.51760
# Velocity P-wave (km/s) = 0.76625 4.55246 3.17315
#
# Compressibility (1/GPa) = -22.70313602
#
# Stress axis : x y z
#
# Youngs Moduli (GPa) = -1.08432 -0.10610 -1.95276
#
# Poissons Ratio (x) = -0.31783 -1.37235
# Poissons Ratio (y) = -3.24826 -4.34162
# Poissons Ratio (z) = -0.76203 -0.23589
#
# Static dielectric constant tensor:
#      x y z
#    x 1.612200 0.000000 0.004780 
#    y 0.000000 1.656920 0.000000 
#    z 0.004780 0.000000 1.668120 
# 
# From -- ./inp_files/280259.got.cif
#   From: 2010.05.17/outbox.cif.g08.bks.cpg/sg12_141_cif.got.tgz:280259.got - 2010.06.03 13:09:07.
