data_PCOD9173529
_publ_section_title
;
Structure prediction by ZEFSAII (Michael W. Deem and Ramdas Pophale) SiO2 
 PCOD9173529
Probable space group: C 2/M
;
_chemical_formula_sum "Si O2"
_cell_formula_units_Z 48
_cell_length_a 14.978272
_cell_length_b 18.347072
_cell_length_c 9.543756
_cell_angle_alpha 90.000000
_cell_angle_beta 101.879319
_cell_angle_gamma 90.000000
_cell_volume 2566.525765
_symmetry_space_group_name_H-M "C 2/M"
_symmetry_group_IT_number 12
_symmetry_cell_setting 'monoclinic'
loop_
_space_group_symop_operation_xyz
x,y,z
-x,y,-z
-x,-y,-z
x,-y,z
1/2+x,1/2+y,z
1/2-x,1/2+y,-z
1/2-x,1/2-y,-z
1/2+x,1/2-y,z
loop_
_atom_site_type_symbol
_atom_site_label
_atom_site_fract_x
_atom_site_fract_y
_atom_site_fract_z
Si Si1 0.963554 0.730312 0.826378
Si Si2 0.461182 0.500000 0.224083
Si Si3 0.063266 0.157278 0.654904
Si Si4 0.253085 0.715740 0.210266
Si Si5 0.267475 0.129265 0.082906
Si Si6 0.968782 0.422611 0.151534
Si Si7 0.363105 0.500000 0.890683
O O1 0.853385 0.727429 0.785818
O O2 0.014253 0.794724 0.760639
O O3 0.993179 0.651966 0.774139
O O4 0.000000 0.734373 0.000000
O O5 0.435866 0.573197 0.297660
O O6 0.567553 0.500000 0.215872
O O7 0.412278 0.500000 0.057531
O O8 0.166794 0.185824 0.664504
O O9 0.000000 0.165584 0.500000
O O10 0.282423 0.796135 0.171363
O O11 0.255886 0.659173 0.079892
O O12 0.360706 0.085102 0.111067
O O13 0.193763 0.075033 0.124432
O O14 0.996555 0.500000 0.225334
O O15 0.000000 0.423308 0.000000
#
# Coordination Sequence:
#
# PCOD9173529 Si02
#       7
#     8   4   8   8   8   8   4
#     4  11  21  39  63  92 123 156 201 259 307 362
#     4  11  25  40  58  88 125 156 208 260 302 359
#     4  12  26  43  62  85 125 172 209 249 300 364
#     4  11  21  35  59  87 120 157 199 250 299 356
#     4  11  18  33  56  91 120 144 194 251 311 354
#     4  10  18  30  54  88 123 148 183 245 310 361
#     4  11  22  34  63  96 114 157 197 257 311 372
#
# _framework density 18.702325999999999
#
# number of rings (size 3 to 8) (size 9 to 14) (size 15 to 20)
#    0.000    1.000    7.500    2.250    2.333    0.667 
#    1.500    0.000    0.000    0.500    0.000    0.000 
#    0.000    0.000    0.000    0.000    0.000    0.000 
#
# Total GULP energy -133822.752334 kJ/mol
# GULP energy per Si atom -5575.948014 kJ/mol
# Density = 1.865976 g / cm^3
# Si number density = 18.702326 Si / 1000 Ang^3
#
#
#
# Elastic Constant Matrix: (Units=GPa)
#
#
# Indices 1 2 3 4 5 6 
#
# 1 123.3452 27.2228 14.9069 0.0000 11.3856 0.0000
# 2 27.2228 125.1298 18.2638 0.0000 1.7448 0.0000
# 3 14.9069 18.2638 34.1989 0.0000 16.0113 0.0000
# 4 0.0000 0.0000 0.0000 0.9392 0.0000 3.4329
# 5 11.3856 1.7448 16.0113 0.0000 20.7550 0.0000
# 6 0.0000 0.0000 0.0000 3.4329 0.0000 32.6438
#
#
#
# Elastic Compliance Matrix: (Units=1/GPa)
#
#
# Indices 1 2 3 4 5 6 
#
# 1 0.008989 -0.001729 -0.001181 0.000000 -0.003875 0.000000
# 2 -0.001729 0.009271 -0.006694 0.000000 0.005333 0.000000
# 3 -0.001181 -0.006694 0.051287 0.000000 -0.038355 0.000000
# 4 0.000000 0.000000 0.000000 1.729688 0.000000 -0.181899
# 5 -0.003875 0.005333 -0.038355 0.000000 0.079447 0.000000
# 6 0.000000 0.000000 0.000000 -0.181899 0.000000 0.049763
#
#
# Mechanical properties :
#
#
# Convention : Reuss Voigt Hill
#
# Bulk Modulus (GPa) = 19.86525 44.82901 32.34713
# Shear Modulus (GPa) = 2.54526 25.68629 14.11578
#
# Velocity S-wave (km/s) = 1.16786 3.71000 2.75027
# Velocity P-wave (km/s) = 3.53035 6.50952 5.23628
#
# Compressibility (1/GPa) = 0.05033916
#
# Stress axis : x y z
#
# Youngs Moduli (GPa) = 111.24230 107.86746 19.49804
#
# Poissons Ratio (x) = 0.18654 0.02302
# Poissons Ratio (y) = 0.19238 0.13052
# Poissons Ratio (z) = 0.13132 0.72208
#
# Static dielectric constant tensor:
#      x y z
#    x 1.690480 0.000000 -0.003210 
#    y 0.000000 1.653920 0.000000 
#    z -0.003210 0.000000 1.630620 
# 
# From -- ./inp_files/61786.got.cif
#   From: 2010.05.17/outbox.cif.g08.bks.cpg/sg12_31_cif.got.tgz:61786.got - 2010.06.03 13:09:07.
