data_PCOD9173155
_publ_section_title
;
Structure prediction by ZEFSAII (Michael W. Deem and Ramdas Pophale) SiO2 
 PCOD9173155
Probable space group: C 2/M
;
_chemical_formula_sum "Si O2"
_cell_formula_units_Z 56
_cell_length_a 20.362592
_cell_length_b 9.369859
_cell_length_c 16.946215
_cell_angle_alpha 90.000000
_cell_angle_beta 90.098096
_cell_angle_gamma 90.000000
_cell_volume 3233.241843
_symmetry_space_group_name_H-M "C 2/M"
_symmetry_group_IT_number 12
_symmetry_cell_setting 'monoclinic'
loop_
_space_group_symop_operation_xyz
x,y,z
-x,y,-z
-x,-y,-z
x,-y,z
1/2+x,1/2+y,z
1/2-x,1/2+y,-z
1/2-x,1/2-y,-z
1/2+x,1/2-y,z
loop_
_atom_site_type_symbol
_atom_site_label
_atom_site_fract_x
_atom_site_fract_y
_atom_site_fract_z
Si Si1 0.418424 0.669314 0.345436
Si Si2 0.920186 0.664154 0.502684
Si Si3 0.109899 0.667919 0.184513
Si Si4 0.364210 0.329620 0.176517
Si Si5 0.234132 0.329480 0.081214
Si Si6 0.023120 0.667724 0.913976
Si Si7 0.923906 0.168998 0.660892
O O1 0.408844 0.500000 0.359508
O O2 0.398776 0.758146 0.422420
O O3 0.379637 0.713005 0.266599
O O4 0.496780 0.690149 0.331388
O O5 0.898397 0.500000 0.506780
O O6 0.902349 0.752514 0.580666
O O7 0.000000 0.663863 0.500000
O O8 0.120441 0.500000 0.203460
O O9 0.165064 0.710507 0.121095
O O10 0.109851 0.760647 0.263420
O O11 0.038699 0.681359 0.144313
O O12 0.374709 0.500000 0.172769
O O13 0.291650 0.299585 0.144487
O O14 0.416056 0.253398 0.119960
O O15 0.232906 0.500000 0.066397
O O16 0.250000 0.250000 0.000000
O O17 0.040537 0.500000 0.920424
O O18 0.000000 0.717035 0.000000
O O19 0.912332 0.000000 0.656440
#
# Coordination Sequence:
#
# PCOD9173155 Si02
#       7
#     8   8   8   8   8   8   8
#     4   9  17  30  48  74 106 135 169 211 259 309
#     4   9  17  28  46  74 107 139 170 206 254 310
#     4  10  20  34  52  75 105 138 174 216 262 311
#     4  10  20  35  54  77 104 136 174 217 262 310
#     4  10  22  39  57  76 103 140 180 220 263 313
#     4  10  20  33  51  75 103 134 169 214 265 313
#     4  10  18  30  50  76 106 138 172 212 260 309
#
# _framework density 17.320077000000001
#
# number of rings (size 3 to 8) (size 9 to 14) (size 15 to 20)
#    0.000    2.286    1.429    1.714    0.000    5.429 
#    0.000    0.000    0.000    0.857    0.000    0.000 
#    0.000    0.000    0.000    0.000    0.000    0.000 
#
# Total GULP energy -156216.978630 kJ/mol
# GULP energy per Si atom -5579.177808 kJ/mol
# Density = 1.728066 g / cm^3
# Si number density = 17.320077 Si / 1000 Ang^3
#
#
#
# Elastic Constant Matrix: (Units=GPa)
#
#
# Indices 1 2 3 4 5 6 
#
# 1 15.4580 7.1485 -17.8741 0.0000 -5.5305 0.0000
# 2 7.1485 50.7868 42.9124 0.0000 -4.4414 0.0000
# 3 -17.8741 42.9124 93.9819 0.0000 -0.7065 0.0000
# 4 0.0000 0.0000 0.0000 38.4463 0.0000 -2.6213
# 5 -5.5305 -4.4414 -0.7065 0.0000 24.1364 0.0000
# 6 0.0000 0.0000 0.0000 -2.6213 0.0000 17.0071
#
#
#
# Elastic Compliance Matrix: (Units=1/GPa)
#
#
# Indices 1 2 3 4 5 6 
#
# 1 0.251160 -0.118150 0.102007 0.000000 0.038794 0.000000
# 2 -0.118150 0.088378 -0.062919 0.000000 -0.012651 0.000000
# 3 0.102007 -0.062919 0.058871 0.000000 0.013519 0.000000
# 4 0.000000 0.000000 0.000000 0.026287 0.000000 0.004052
# 5 0.038794 -0.012651 0.013519 0.000000 0.048388 0.000000
# 6 0.000000 0.000000 0.000000 0.004052 0.000000 0.059424
#
#
# Mechanical properties :
#
#
# Convention : Reuss Voigt Hill
#
# Bulk Modulus (GPa) = 4.16175 24.95560 14.55867
# Shear Modulus (GPa) = 6.48737 24.45393 15.47065
#
# Velocity S-wave (km/s) = 1.93745 3.76158 2.99192
# Velocity P-wave (km/s) = 2.72268 5.77111 4.51214
#
# Compressibility (1/GPa) = 0.24028380
#
# Stress axis : x y z
#
# Youngs Moduli (GPa) = 3.98152 11.31504 16.98618
#
# Poissons Ratio (x) = 1.33688 -1.73270
# Poissons Ratio (y) = 0.47042 1.06876
# Poissons Ratio (z) = -0.40614 0.71193
#
# Static dielectric constant tensor:
#      x y z
#    x 1.575230 0.000000 0.014220 
#    y 0.000000 1.579460 0.000000 
#    z 0.014220 0.000000 1.573700 
# 
# From -- ./inp_files/280240.got.cif
#   From: 2010.05.17/outbox.cif.g08.bks.cpg/sg12_141_cif.got.tgz:280240.got - 2010.06.03 13:09:07.
