data_PCOD9173912
_publ_section_title
;
Structure prediction by ZEFSAII (Michael W. Deem and Ramdas Pophale) SiO2 
 PCOD9173912
Probable space group: C 2/M
;
_chemical_formula_sum "Si O2"
_cell_formula_units_Z 48
_cell_length_a 17.876630
_cell_length_b 17.073259
_cell_length_c 15.674289
_cell_angle_alpha 90.000000
_cell_angle_beta 24.148299
_cell_angle_gamma 90.000000
_cell_volume 1957.127913
_symmetry_space_group_name_H-M "C 2/M"
_symmetry_group_IT_number 12
_symmetry_cell_setting 'monoclinic'
loop_
_space_group_symop_operation_xyz
x,y,z
-x,y,-z
-x,-y,-z
x,-y,z
1/2+x,1/2+y,z
1/2-x,1/2+y,-z
1/2-x,1/2-y,-z
1/2+x,1/2-y,z
loop_
_atom_site_type_symbol
_atom_site_label
_atom_site_fract_x
_atom_site_fract_y
_atom_site_fract_z
Si Si1 0.699670 0.000000 0.586958
Si Si2 0.811415 0.338687 0.936921
Si Si3 0.698472 0.833978 0.252304
Si Si4 0.218379 0.000000 0.294270
Si Si5 0.786478 0.500000 0.753278
Si Si6 0.293590 0.168535 0.408965
Si Si7 0.217256 0.169289 0.289367
Si Si8 0.272001 0.000000 0.973281
O O1 0.776948 0.914689 0.478416
O O2 0.487192 0.000000 0.776967
O O3 0.733707 0.000000 0.654186
O O4 0.844718 0.348699 0.801655
O O5 0.695655 0.415892 0.083640
O O6 0.990448 0.340139 0.807070
O O7 0.750000 0.250000 0.000000
O O8 0.500000 0.826625 0.500000
O O9 0.785678 0.914063 0.198633
O O10 0.791154 0.749439 0.170410
O O11 0.291654 0.083706 0.184456
O O12 0.000000 0.000000 0.500000
O O13 0.761796 0.500000 0.881398
O O14 0.000000 0.500000 0.500000
O O15 0.250000 0.250000 0.500000
O O16 0.238754 0.175828 0.368304
O O17 0.000000 0.166109 0.500000
#
# Coordination Sequence:
#
# PCOD9173912 Si02
#       8
#     4   8   8   4   4   8   8   4
#     4   8  16  28  45  69  99 134 172 210 253 304
#     4  10  20  35  54  78 106 138 174 216 264 314
#     4   9  16  29  49  73  99 128 164 207 252 302
#     4   8  14  24  39  61  93 127 158 195 243 286
#     4   8  14  24  44  71  94 121 162 206 247 294
#     4  10  18  31  51  75 102 136 175 216 258 308
#     4   9  16  27  44  68  96 127 162 203 245 291
#     4   8  16  32  52  71 100 138 172 207 257 318
#
# _framework density 24.525735000000001
#
# number of rings (size 3 to 8) (size 9 to 14) (size 15 to 20)
#    0.000    3.000    0.000    2.000    0.000    1.333 
#    0.000    2.500    0.000    0.000    0.000   10.500 
#    0.000    0.000    0.000    0.000    0.000    0.000 
#
# Total GULP energy -133637.685881 kJ/mol
# GULP energy per Si atom -5568.236912 kJ/mol
# Density = 2.446991 g / cm^3
# Si number density = 24.525735 Si / 1000 Ang^3
#
#
#
# Elastic Constant Matrix: (Units=GPa)
#
#
# Indices 1 2 3 4 5 6 
#
# 1 72.6232 27.4842 6.5522 -0.0178 -9.2542 -0.0047
# 2 27.4842 329.4789 16.8494 -0.0315 2.5522 -0.0065
# 3 6.5522 16.8494 22.5472 -0.0234 -7.6238 0.0009
# 4 -0.0178 -0.0315 -0.0234 25.3117 0.0273 -24.4495
# 5 -9.2542 2.5522 -7.6238 0.0273 37.2040 -0.0024
# 6 -0.0047 -0.0065 0.0009 -24.4495 -0.0024 90.8169
#
#
#
# Elastic Compliance Matrix: (Units=1/GPa)
#
#
# Indices 1 2 3 4 5 6 
#
# 1 0.014833 -0.001143 -0.002345 0.000005 0.003287 0.000002
# 2 -0.001143 0.003263 -0.002448 0.000003 -0.001010 0.000001
# 3 -0.002345 -0.002448 0.050200 0.000041 0.009872 0.000011
# 4 0.000005 0.000003 0.000041 0.053392 -0.000029 0.014374
# 5 0.003287 -0.001010 0.009872 -0.000029 0.029789 -0.000007
# 6 0.000002 0.000001 0.000011 0.014374 -0.000007 0.014881
#
#
# Mechanical properties :
#
#
# Convention : Reuss Voigt Hill
#
# Bulk Modulus (GPa) = 17.72266 58.49122 38.10694
# Shear Modulus (GPa) = 25.37586 55.58408 40.47997
#
# Velocity S-wave (km/s) = 3.22011 4.76579 4.06705
# Velocity P-wave (km/s) = 4.58991 7.36100 6.13399
#
# Compressibility (1/GPa) = 0.05642493
#
# Stress axis : x y z
#
# Youngs Moduli (GPa) = 67.41879 306.42466 19.92022
#
# Poissons Ratio (x) = 0.35020 0.04671
# Poissons Ratio (y) = 0.07705 0.04877
# Poissons Ratio (z) = 0.15808 0.75015
#
# Static dielectric constant tensor:
#      x y z
#    x 1.954160 0.000050 -0.073020 
#    y 0.000050 2.118800 -0.000040 
#    z -0.073020 -0.000040 2.003290 
# 
# From -- ./inp_files/226792.got.cif
#   From: 2010.05.17/outbox.cif.g08.bks.cpg/sg12_114_cif.got.tgz:226792.got - 2010.06.03 13:09:07.
