data_PCOD9173560
_publ_section_title
;
Structure prediction by ZEFSAII (Michael W. Deem and Ramdas Pophale) SiO2 
 PCOD9173560
Probable space group: C 2/M
;
_chemical_formula_sum "Si O2"
_cell_formula_units_Z 36
_cell_length_a 28.032331
_cell_length_b 13.928420
_cell_length_c 9.345340
_cell_angle_alpha 90.000000
_cell_angle_beta 149.547241
_cell_angle_gamma 90.000000
_cell_volume 1849.339193
_symmetry_space_group_name_H-M "C 2/M"
_symmetry_group_IT_number 12
_symmetry_cell_setting 'monoclinic'
loop_
_space_group_symop_operation_xyz
x,y,z
-x,y,-z
-x,-y,-z
x,-y,z
1/2+x,1/2+y,z
1/2-x,1/2+y,-z
1/2-x,1/2-y,-z
1/2+x,1/2-y,z
loop_
_atom_site_type_symbol
_atom_site_label
_atom_site_fract_x
_atom_site_fract_y
_atom_site_fract_z
Si Si1 0.576079 0.709163 0.827924
Si Si2 0.221084 0.000000 0.840606
Si Si3 0.438001 0.000000 0.481543
Si Si4 0.455674 0.819362 0.735162
Si Si5 0.105332 0.000000 0.833157
Si Si6 0.733263 0.287640 0.793907
O O1 0.500000 0.714943 0.500000
O O2 0.520896 0.740458 0.825994
O O3 0.614233 0.600369 0.937151
O O4 0.666781 0.774068 0.026023
O O5 0.171863 0.000000 0.867604
O O6 0.200331 0.898467 0.712042
O O7 0.331501 0.000000 0.154333
O O8 0.500000 0.000000 0.500000
O O9 0.454057 0.092936 0.620261
O O10 0.350949 0.777348 0.483785
O O11 0.500000 0.847984 0.000000
O O12 0.000000 0.000000 0.500000
O O13 0.750000 0.250000 0.000000
#
# Coordination Sequence:
#
# PCOD9173560 Si02
#       6
#     8   4   4   8   4   8
#     4  11  20  38  62  91 122 165 218 263 312 378
#     4  12  20  35  65  99 117 156 223 271 305 364
#     4  12  23  41  70  95 120 167 219 265 309 387
#     4  12  26  42  61  95 137 168 204 267 333 379
#     4  10  18  30  57  88 119 155 209 260 303 359
#     4  12  21  39  65  94 126 166 219 268 313 381
#
# _framework density 19.466412999999999
#
# number of rings (size 3 to 8) (size 9 to 14) (size 15 to 20)
#    0.000    0.444    6.667    3.667    0.000    0.889 
#    0.000    2.222    0.000    0.000    0.000    0.000 
#    0.000    0.000    0.000    0.000    0.000    0.000 
#
# Total GULP energy -100615.267607 kJ/mol
# GULP energy per Si atom -5589.737089 kJ/mol
# Density = 1.942211 g / cm^3
# Si number density = 19.466413 Si / 1000 Ang^3
#
#
#
# Elastic Constant Matrix: (Units=GPa)
#
#
# Indices 1 2 3 4 5 6 
#
# 1 79.8823 10.2033 33.9249 0.0000 25.1148 0.0000
# 2 10.2033 129.7586 10.8449 0.0000 2.4134 0.0000
# 3 33.9249 10.8449 85.8380 0.0000 9.9429 0.0000
# 4 0.0000 0.0000 0.0000 17.0418 0.0000 1.3644
# 5 25.1148 2.4134 9.9429 0.0000 39.0820 0.0000
# 6 0.0000 0.0000 0.0000 1.3644 0.0000 62.6459
#
#
#
# Elastic Compliance Matrix: (Units=1/GPa)
#
#
# Indices 1 2 3 4 5 6 
#
# 1 0.018374 -0.000755 -0.005980 0.000000 -0.010239 0.000000
# 2 -0.000755 0.007822 -0.000711 0.000000 0.000183 0.000000
# 3 -0.005980 -0.000711 0.014068 0.000000 0.000308 0.000000
# 4 0.000000 0.000000 0.000000 0.058782 0.000000 -0.001280
# 5 -0.010239 0.000183 0.000308 0.000000 0.032078 0.000000
# 6 0.000000 0.000000 0.000000 -0.001280 0.000000 0.015991
#
#
# Mechanical properties :
#
#
# Convention : Reuss Voigt Hill
#
# Bulk Modulus (GPa) = 39.41468 45.04721 42.23095
# Shear Modulus (GPa) = 29.33197 39.78765 34.55981
#
# Velocity S-wave (km/s) = 3.88596 4.52587 4.21807
# Velocity P-wave (km/s) = 6.35813 7.10652 6.74271
#
# Compressibility (1/GPa) = 0.02537126
#
# Stress axis : x y z
#
# Youngs Moduli (GPa) = 54.42544 127.84468 71.08551
#
# Poissons Ratio (x) = 0.09646 0.42511
# Poissons Ratio (y) = 0.04107 0.05056
# Poissons Ratio (z) = 0.32548 0.09093
#
# Static dielectric constant tensor:
#      x y z
#    x 1.647440 0.000000 0.006630 
#    y 0.000000 1.819480 0.000000 
#    z 0.006630 0.000000 1.655570 
# 
# From -- ./inp_files/104904.got.cif
#   From: 2010.05.17/outbox.cif.g08.bks.cpg/sg12_53_cif.got.tgz:104904.got - 2010.06.03 13:09:07.
