data_PCOD9173851
_publ_section_title
;
Structure prediction by ZEFSAII (Michael W. Deem and Ramdas Pophale) SiO2 
 PCOD9173851
Probable space group: C 2/M
;
_chemical_formula_sum "Si O2"
_cell_formula_units_Z 56
_cell_length_a 26.462970
_cell_length_b 14.442806
_cell_length_c 25.468609
_cell_angle_alpha 90.000000
_cell_angle_beta 17.384870
_cell_angle_gamma 90.000000
_cell_volume 2908.437250
_symmetry_space_group_name_H-M "C 2/M"
_symmetry_group_IT_number 12
_symmetry_cell_setting 'monoclinic'
loop_
_space_group_symop_operation_xyz
x,y,z
-x,y,-z
-x,-y,-z
x,-y,z
1/2+x,1/2+y,z
1/2-x,1/2+y,-z
1/2-x,1/2-y,-z
1/2+x,1/2-y,z
loop_
_atom_site_type_symbol
_atom_site_label
_atom_site_fract_x
_atom_site_fract_y
_atom_site_fract_z
Si Si1 0.823905 0.805200 0.555563
Si Si2 0.484173 0.891488 0.078211
Si Si3 0.698265 0.851275 0.570146
Si Si4 0.183970 0.104940 0.971334
Si Si5 0.698028 0.108803 0.026290
Si Si6 0.718861 0.600240 0.626458
Si Si7 0.301152 0.703690 0.820112
O O1 0.680898 0.838557 0.737170
O O2 0.789599 0.862067 0.535401
O O3 0.802128 0.695190 0.564419
O O4 0.015067 0.819989 0.384068
O O5 0.473499 0.000000 0.103309
O O6 0.500000 0.884452 0.000000
O O7 0.648244 0.846330 0.942325
O O8 0.750000 0.750000 0.500000
O O9 0.498754 0.862302 0.777677
O O10 0.748924 0.906235 0.468036
O O11 0.981918 0.110692 0.165702
O O12 0.238886 0.000000 0.903986
O O13 0.227208 0.120810 0.989782
O O14 0.269593 0.186307 0.853622
O O15 0.708623 0.000000 0.002483
O O16 0.792728 0.168280 0.888730
O O17 0.773778 0.500000 0.594626
#
# Coordination Sequence:
#
# PCOD9173851 Si02
#       7
#     8   8   8   8   8   8   8
#     4  11  23  39  63  90 122 162 202 252 306 368
#     4  11  26  48  69  90 117 151 203 266 317 363
#     4  10  18  31  50  82 126 167 204 242 290 348
#     4  10  20  34  56  89 130 170 206 244 290 355
#     4  11  21  33  52  84 126 169 207 248 294 353
#     4  10  19  34  56  89 130 169 205 243 291 356
#     4  12  22  39  64  89 123 161 204 250 307 365
#
# _framework density 19.254327
#
# number of rings (size 3 to 8) (size 9 to 14) (size 15 to 20)
#    0.000    1.286    2.857    4.714    0.000    4.000 
#    0.000    1.429    0.000    1.714    0.000    2.000 
#    0.000    0.000    0.000    0.000    0.000    0.000 
#
# Total GULP energy -156393.393675 kJ/mol
# GULP energy per Si atom -5585.478346 kJ/mol
# Density = 1.921050 g / cm^3
# Si number density = 19.254327 Si / 1000 Ang^3
#
#
#
# Elastic Constant Matrix: (Units=GPa)
#
#
# Indices 1 2 3 4 5 6 
#
# 1 25.6697 25.1205 22.1331 0.0002 10.0352 -0.0017
# 2 25.1205 127.0421 38.8623 -0.0153 4.3953 0.0029
# 3 22.1331 38.8623 130.3584 0.0220 -4.6804 -0.0086
# 4 0.0002 -0.0153 0.0220 65.4797 -0.0034 -15.5071
# 5 10.0352 4.3953 -4.6804 -0.0034 16.1971 0.0029
# 6 -0.0017 0.0029 -0.0086 -15.5071 0.0029 28.5857
#
#
#
# Elastic Compliance Matrix: (Units=1/GPa)
#
#
# Indices 1 2 3 4 5 6 
#
# 1 0.078666 -0.010138 -0.012111 0.000001 -0.049488 0.000008
# 2 -0.010138 0.010128 -0.001183 0.000003 0.003191 -0.000001
# 3 -0.012111 -0.001183 0.010470 -0.000003 0.010850 0.000000
# 4 0.000001 0.000003 -0.000003 0.017523 0.000000 0.009506
# 5 -0.049488 0.003191 0.010850 0.000000 0.094670 -0.000010
# 6 0.000008 -0.000001 0.000000 0.009506 -0.000010 0.040139
#
#
# Mechanical properties :
#
#
# Convention : Reuss Voigt Hill
#
# Bulk Modulus (GPa) = 19.08434 50.58911 34.83673
# Shear Modulus (GPa) = 15.82645 35.18278 25.50461
#
# Velocity S-wave (km/s) = 2.87011 4.27929 3.64348
# Velocity P-wave (km/s) = 4.57347 7.12374 5.98599
#
# Compressibility (1/GPa) = 0.05239898
#
# Stress axis : x y z
#
# Youngs Moduli (GPa) = 12.71193 98.73961 95.51318
#
# Poissons Ratio (x) = 1.00103 1.15675
# Poissons Ratio (y) = 0.12888 0.11303
# Poissons Ratio (z) = 0.15395 0.11684
#
# Static dielectric constant tensor:
#      x y z
#    x 1.650710 0.000000 -0.014710 
#    y 0.000000 1.701420 0.000010 
#    z -0.014710 0.000010 1.675460 
# 
# From -- ./inp_files/349716.got.cif
#   From: 2010.05.17/outbox.cif.g08.bks.cpg/sg12_175_cif.got.tgz:349716.got - 2010.06.03 13:09:07.
