data_PCOD9173383
_publ_section_title
;
Structure prediction by ZEFSAII (Michael W. Deem and Ramdas Pophale) SiO2 
 PCOD9173383
Probable space group: C 2/M
;
_chemical_formula_sum "Si O2"
_cell_formula_units_Z 48
_cell_length_a 20.155617
_cell_length_b 27.884453
_cell_length_c 10.237101
_cell_angle_alpha 90.000000
_cell_angle_beta 25.116331
_cell_angle_gamma 90.000000
_cell_volume 2442.133756
_symmetry_space_group_name_H-M "C 2/M"
_symmetry_group_IT_number 12
_symmetry_cell_setting 'monoclinic'
loop_
_space_group_symop_operation_xyz
x,y,z
-x,y,-z
-x,-y,-z
x,-y,z
1/2+x,1/2+y,z
1/2-x,1/2+y,-z
1/2-x,1/2-y,-z
1/2+x,1/2-y,z
loop_
_atom_site_type_symbol
_atom_site_label
_atom_site_fract_x
_atom_site_fract_y
_atom_site_fract_z
Si Si1 0.531323 0.805054 0.597580
Si Si2 0.121598 0.593474 0.404315
Si Si3 0.115982 0.000000 0.418479
Si Si4 0.045730 0.819971 0.785446
Si Si5 0.477938 0.000000 0.697631
Si Si6 0.522748 0.400741 0.305055
Si Si7 0.703559 0.233773 0.790186
O O1 0.500000 0.803778 0.500000
O O2 0.610827 0.855324 0.492547
O O3 0.648193 0.761985 0.418683
O O4 0.374868 0.799073 0.959873
O O5 0.000000 0.597041 0.500000
O O6 0.063211 0.548292 0.590821
O O7 0.295342 0.586812 0.041459
O O8 0.000000 0.000000 0.500000
O O9 0.075254 0.948755 0.556225
O O10 0.296085 0.000000 0.054989
O O11 0.221417 0.798356 0.458691
O O12 0.018414 0.854856 0.710809
O O13 0.000000 0.847122 0.000000
O O14 0.925465 0.774715 0.005982
O O15 0.500000 0.000000 0.500000
O O16 0.500000 0.390189 0.500000
#
# Coordination Sequence:
#
# PCOD9173383 Si02
#       7
#     8   8   4   8   4   8   8
#     4  10  20  32  54  85 118 146 187 237 294 337
#     4  10  19  32  52  81 120 146 186 228 292 338
#     4  10  20  34  57  90 120 152 190 233 293 348
#     4  11  24  41  61  84 116 157 200 241 292 345
#     4  10  18  30  52  78 115 153 185 226 286 349
#     4  11  22  37  61  90 120 151 194 242 292 346
#     4  10  22  38  56  78 113 156 199 235 283 352
#
# _framework density 19.654941999999998
#
# number of rings (size 3 to 8) (size 9 to 14) (size 15 to 20)
#    0.000    1.667    1.667    5.500    7.000    2.667 
#    0.000    0.417    0.000    0.000    0.000    1.167 
#    0.000    0.000    0.000    0.000    0.000    0.000 
#
# Total GULP energy -133816.780958 kJ/mol
# GULP energy per Si atom -5575.699207 kJ/mol
# Density = 1.961021 g / cm^3
# Si number density = 19.654942 Si / 1000 Ang^3
#
#
#
# Elastic Constant Matrix: (Units=GPa)
#
#
# Indices 1 2 3 4 5 6 
#
# 1 35.9405 22.0283 24.6927 0.0010 17.6057 -0.0009
# 2 22.0283 97.2720 61.5022 0.0006 17.1410 0.0021
# 3 24.6927 61.5022 195.0315 0.0022 9.1056 -0.0016
# 4 0.0010 0.0006 0.0022 53.5694 -0.0007 8.7110
# 5 17.6057 17.1410 9.1056 -0.0007 26.0998 0.0017
# 6 -0.0009 0.0021 -0.0016 8.7110 0.0017 11.7916
#
#
#
# Elastic Compliance Matrix: (Units=1/GPa)
#
#
# Indices 1 2 3 4 5 6 
#
# 1 0.045663 -0.003328 -0.003452 -0.000003 -0.027412 0.000010
# 2 -0.003328 0.014539 -0.003886 0.000000 -0.005948 -0.000003
# 3 -0.003452 -0.003886 0.006671 0.000000 0.002553 0.000001
# 4 -0.000003 0.000000 0.000000 0.021216 0.000003 -0.015673
# 5 -0.027412 -0.005948 0.002553 0.000003 0.059821 -0.000012
# 6 0.000010 -0.000003 0.000001 -0.015673 -0.000012 0.096385
#
#
# Mechanical properties :
#
#
# Convention : Reuss Voigt Hill
#
# Bulk Modulus (GPa) = 21.95796 60.52115 41.23956
# Shear Modulus (GPa) = 17.80584 32.96021 25.38303
#
# Velocity S-wave (km/s) = 3.01312 4.09949 3.59755
# Velocity P-wave (km/s) = 4.82713 7.29839 6.18739
#
# Compressibility (1/GPa) = 0.04554157
#
# Stress axis : x y z
#
# Youngs Moduli (GPa) = 21.89944 68.78019 149.91142
#
# Poissons Ratio (x) = 0.22888 0.51752
# Poissons Ratio (y) = 0.07288 0.58253
# Poissons Ratio (z) = 0.07560 0.26727
#
# Static dielectric constant tensor:
#      x y z
#    x 1.705040 0.000000 0.019750 
#    y 0.000000 1.809060 0.000000 
#    z 0.019750 0.000000 1.693040 
# 
# From -- ./inp_files/178601.got.cif
#   From: 2010.05.17/outbox.cif.g08.bks.cpg/sg12_90_cif.got.tgz:178601.got - 2010.06.03 13:09:07.
