data_PCOD9173377
_publ_section_title
;
Structure prediction by ZEFSAII (Michael W. Deem and Ramdas Pophale) SiO2 
 PCOD9173377
Probable space group: C 2/M
;
_chemical_formula_sum "Si O2"
_cell_formula_units_Z 56
_cell_length_a 19.588984
_cell_length_b 7.543262
_cell_length_c 20.121683
_cell_angle_alpha 90.000000
_cell_angle_beta 66.838229
_cell_angle_gamma 90.000000
_cell_volume 2733.625094
_symmetry_space_group_name_H-M "C 2/M"
_symmetry_group_IT_number 12
_symmetry_cell_setting 'monoclinic'
loop_
_space_group_symop_operation_xyz
x,y,z
-x,y,-z
-x,-y,-z
x,-y,z
1/2+x,1/2+y,z
1/2-x,1/2+y,-z
1/2-x,1/2-y,-z
1/2+x,1/2-y,z
loop_
_atom_site_type_symbol
_atom_site_label
_atom_site_fract_x
_atom_site_fract_y
_atom_site_fract_z
Si Si1 0.792346 0.802291 0.667407
Si Si2 0.627790 0.782165 0.762030
Si Si3 0.999255 0.714851 0.289972
Si Si4 0.840829 0.285407 0.793187
Si Si5 0.955736 0.290497 0.579757
Si Si6 0.784546 0.210395 0.057545
Si Si7 0.067504 0.297224 0.930245
O O1 0.710215 0.720283 0.708077
O O2 0.820837 0.802674 0.731879
O O3 0.866516 0.726611 0.604486
O O4 0.781837 0.000000 0.644447
O O5 0.570636 0.726934 0.726294
O O6 0.597695 0.724903 0.847008
O O7 0.631750 0.000000 0.763757
O O8 0.994142 0.500000 0.294990
O O9 0.014230 0.777935 0.360046
O O10 0.074840 0.758137 0.221383
O O11 0.837443 0.500000 0.785438
O O12 0.778938 0.230191 0.867776
O O13 0.970593 0.500000 0.576914
O O14 0.000000 0.215339 0.500000
O O15 0.861783 0.296356 0.048136
O O16 0.795209 0.000000 0.060541
O O17 0.750000 0.250000 0.000000
O O18 0.044277 0.500000 0.923800
O O19 0.000000 0.216650 0.000000
#
# Coordination Sequence:
#
# PCOD9173377 Si02
#       7
#     8   8   8   8   8   8   8
#     4  10  18  30  52  78 104 131 165 211 263 316
#     4   9  17  30  50  76 103 133 170 216 262 312
#     4   8  15  29  51  75  97 127 174 213 249 304
#     4   9  18  33  53  73  96 134 178 217 256 310
#     4   9  18  34  55  77 103 137 176 214 252 305
#     4  11  23  36  53  76 106 139 181 230 276 324
#     4  10  21  36  55  76 104 143 186 226 271 330
#
# _framework density 20.485617000000001
#
# number of rings (size 3 to 8) (size 9 to 14) (size 15 to 20)
#    0.000    2.571    1.429    1.714    2.000    1.143 
#    0.000    0.714    0.000    7.714    0.000    0.000 
#    0.000    0.000    0.000    0.000    0.000    0.000 
#
# Total GULP energy -155905.779652 kJ/mol
# GULP energy per Si atom -5568.063559 kJ/mol
# Density = 2.043899 g / cm^3
# Si number density = 20.485617 Si / 1000 Ang^3
#
#
#
# Elastic Constant Matrix: (Units=GPa)
#
#
# Indices 1 2 3 4 5 6 
#
# 1 167.7095 -0.7354 69.8417 0.0000 -25.2296 0.0007
# 2 -0.7354 40.4309 6.5272 0.0000 -2.4349 0.0010
# 3 69.8417 6.5272 135.7693 -0.0001 -30.5398 0.0002
# 4 0.0000 0.0000 -0.0001 -1.3470 -0.0002 3.1144
# 5 -25.2296 -2.4349 -30.5398 -0.0002 27.6610 0.0006
# 6 0.0007 0.0010 0.0002 3.1144 0.0006 8.9513
#
#
#
# Elastic Compliance Matrix: (Units=1/GPa)
#
#
# Indices 1 2 3 4 5 6 
#
# 1 0.007880 0.000892 -0.003275 -0.000001 0.003649 0.000000
# 2 0.000892 0.025056 -0.001309 -0.000004 0.001573 -0.000002
# 3 -0.003275 -0.001309 0.011196 -0.000002 0.009258 0.000000
# 4 -0.000001 -0.000004 -0.000002 -0.411423 -0.000010 0.143146
# 5 0.003649 0.001573 0.009258 -0.000010 0.049841 0.000000
# 6 0.000000 -0.000002 0.000000 0.143146 0.000000 0.061911
#
#
# Mechanical properties :
#
#
# Convention : Reuss Voigt Hill
#
# Bulk Modulus (GPa) = 27.21435 55.01963 41.11699
# Shear Modulus (GPa) = -21.19492 24.93817 1.87162
#
# Velocity S-wave (km/s) = -3.22005 3.49284 0.95688
# Velocity P-wave (km/s) = 0.71519 6.57134 4.61904
#
# Compressibility (1/GPa) = 0.03674533
#
# Stress axis : x y z
#
# Youngs Moduli (GPa) = 126.91002 39.91073 89.31892
#
# Poissons Ratio (x) = -0.03560 0.29256
# Poissons Ratio (y) = -0.11319 0.11696
# Poissons Ratio (z) = 0.41568 0.05226
#
# Static dielectric constant tensor:
#      x y z
#    x 1.717880 0.000000 -0.022440 
#    y 0.000000 1.791870 0.000000 
#    z -0.022440 0.000000 1.785780 
# 
# From -- ./inp_files/313709.got.cif
#   From: 2010.05.17/outbox.cif.g08.bks.cpg/sg12_157_cif.got.tgz:313709.got - 2010.06.03 13:09:07.
