data_PCOD9173420
_publ_section_title
;
Structure prediction by ZEFSAII (Michael W. Deem and Ramdas Pophale) SiO2 
 PCOD9173420
Probable space group: C 2/M
;
_chemical_formula_sum "Si O2"
_cell_formula_units_Z 48
_cell_length_a 24.163890
_cell_length_b 18.686762
_cell_length_c 20.789432
_cell_angle_alpha 90.000000
_cell_angle_beta 162.726021
_cell_angle_gamma 90.000000
_cell_volume 2787.494642
_symmetry_space_group_name_H-M "C 2/M"
_symmetry_group_IT_number 12
_symmetry_cell_setting 'monoclinic'
loop_
_space_group_symop_operation_xyz
x,y,z
-x,y,-z
-x,-y,-z
x,-y,z
1/2+x,1/2+y,z
1/2-x,1/2+y,-z
1/2-x,1/2-y,-z
1/2+x,1/2-y,z
loop_
_atom_site_type_symbol
_atom_site_label
_atom_site_fract_x
_atom_site_fract_y
_atom_site_fract_z
Si Si1 0.930476 0.415191 0.622258
Si Si2 0.228881 0.830453 0.508208
Si Si3 0.276193 0.792362 0.194869
Si Si4 0.306364 0.328409 0.036590
Si Si5 0.032426 0.305148 0.105220
Si Si6 0.809799 0.679232 0.371095
O O1 0.938064 0.500000 0.629403
O O2 0.797638 0.384621 0.530212
O O3 0.851641 0.383539 0.467433
O O4 0.136361 0.381559 0.862756
O O5 0.250000 0.750000 0.500000
O O6 0.357466 0.839146 0.713692
O O7 0.015195 0.842902 0.291058
O O8 0.490966 0.780620 0.414531
O O9 0.264795 0.839859 0.247094
O O10 0.181199 0.825722 0.027204
O O11 0.167695 0.720464 0.091548
O O12 0.250000 0.250000 0.000000
O O13 0.153902 0.233294 0.224021
O O14 0.000000 0.341903 0.000000
#
# Coordination Sequence:
#
# PCOD9173420 Si02
#       6
#     8   8   8   8   8   8
#     4  11  23  36  53  81 115 148 184 226 273 323
#     4  12  19  34  58  84 103 143 186 227 273 323
#     4   9  16  27  46  73 103 139 179 223 255 307
#     4  11  19  33  56  79 106 142 191 233 269 315
#     4  10  18  30  52  82 108 133 177 229 271 316
#     4   9  17  30  46  70 106 144 175 213 261 316
#
# _framework density 17.219764999999999
#
# number of rings (size 3 to 8) (size 9 to 14) (size 15 to 20)
#    0.000    1.667    5.000    1.000    0.000    0.667 
#    0.000    6.667    0.000   10.000    0.000    1.167 
#    0.000    0.000    0.000    0.000    0.000    0.000 
#
# Total GULP energy -133722.652072 kJ/mol
# GULP energy per Si atom -5571.777170 kJ/mol
# Density = 1.718057 g / cm^3
# Si number density = 17.219765 Si / 1000 Ang^3
#
#
#
# Elastic Constant Matrix: (Units=GPa)
#
#
# Indices 1 2 3 4 5 6 
#
# 1 91.3889 38.1122 46.7121 0.0171 -10.2509 0.0083
# 2 38.1122 66.1377 29.6828 0.0517 -1.0141 0.0307
# 3 46.7121 29.6828 86.6790 0.0197 -14.6621 0.0184
# 4 0.0171 0.0517 0.0197 16.0915 0.0186 0.9960
# 5 -10.2509 -1.0141 -14.6621 0.0186 36.9724 0.0084
# 6 0.0083 0.0307 0.0184 0.9960 0.0084 13.9350
#
#
#
# Elastic Compliance Matrix: (Units=1/GPa)
#
#
# Indices 1 2 3 4 5 6 
#
# 1 0.017536 -0.007073 -0.006687 0.000009 0.002016 0.000012
# 2 -0.007073 0.020869 -0.003826 -0.000050 -0.002906 -0.000031
# 3 -0.006687 -0.003826 0.017279 -0.000007 0.004893 -0.000013
# 4 0.000009 -0.000050 -0.000007 0.062421 -0.000032 -0.004461
# 5 0.002016 -0.002906 0.004893 -0.000032 0.029467 -0.000017
# 6 0.000012 -0.000031 -0.000013 -0.004461 -0.000017 0.072081
#
#
# Mechanical properties :
#
#
# Convention : Reuss Voigt Hill
#
# Bulk Modulus (GPa) = 48.75583 52.57997 50.66790
# Shear Modulus (GPa) = 19.10862 22.04633 20.57748
#
# Velocity S-wave (km/s) = 3.33482 3.58200 3.46062
# Velocity P-wave (km/s) = 6.57293 6.90714 6.74210
#
# Compressibility (1/GPa) = 0.02051037
#
# Stress axis : x y z
#
# Youngs Moduli (GPa) = 57.02485 47.91886 57.87533
#
# Poissons Ratio (x) = 0.33894 0.38702
# Poissons Ratio (y) = 0.40335 0.22144
# Poissons Ratio (z) = 0.38134 0.18334
#
# Static dielectric constant tensor:
#      x y z
#    x 1.627250 0.000000 -0.028110 
#    y 0.000000 1.551710 0.000000 
#    z -0.028110 0.000000 1.659820 
# 
# From -- ./inp_files/285935.got.cif
#   From: 2010.05.17/outbox.cif.g08.bks.cpg/sg12_143_cif.got.tgz:285935.got - 2010.06.03 13:09:07.
