data_PCOD9173365
_publ_section_title
;
Structure prediction by ZEFSAII (Michael W. Deem and Ramdas Pophale) SiO2 
 PCOD9173365
Probable space group: C 2/M
;
_chemical_formula_sum "Si O2"
_cell_formula_units_Z 64
_cell_length_a 31.917807
_cell_length_b 8.788412
_cell_length_c 15.139421
_cell_angle_alpha 90.000000
_cell_angle_beta 118.707715
_cell_angle_gamma 90.000000
_cell_volume 3724.711723
_symmetry_space_group_name_H-M "C 2/M"
_symmetry_group_IT_number 12
_symmetry_cell_setting 'monoclinic'
loop_
_space_group_symop_operation_xyz
x,y,z
-x,y,-z
-x,-y,-z
x,-y,z
1/2+x,1/2+y,z
1/2-x,1/2+y,-z
1/2-x,1/2-y,-z
1/2+x,1/2-y,z
loop_
_atom_site_type_symbol
_atom_site_label
_atom_site_fract_x
_atom_site_fract_y
_atom_site_fract_z
Si Si1 0.034806 0.317203 0.869424
Si Si2 0.619471 0.816649 0.091172
Si Si3 0.691689 0.181635 0.849036
Si Si4 0.803668 0.181379 0.957234
Si Si5 0.884558 0.818073 0.360775
Si Si6 0.924948 0.684466 0.773586
Si Si7 0.973124 0.818332 0.327116
Si Si8 0.421954 0.182389 0.570952
O O1 0.035240 0.500000 0.854349
O O2 0.044897 0.233697 0.787570
O O3 0.980811 0.274984 0.842903
O O4 0.073650 0.282847 0.982947
O O5 0.665022 0.742408 0.091490
O O6 0.607182 0.762783 0.177585
O O7 0.625302 0.000000 0.097768
O O8 0.747561 0.219458 0.890467
O O9 0.658494 0.253599 0.741001
O O10 0.686333 0.000000 0.843463
O O11 0.679014 0.244303 0.933384
O O12 0.808005 0.000000 0.968852
O O13 0.933674 0.776476 0.359475
O O14 0.888041 0.750859 0.462168
O O15 0.881804 0.000000 0.361332
O O16 0.923440 0.500000 0.773661
O O17 0.910701 0.732092 0.660260
O O18 0.024009 0.738532 0.392583
O O19 0.979904 0.000000 0.336239
O O20 0.420858 0.000000 0.566494
#
# Coordination Sequence:
#
# PCOD9173365 Si02
#       8
#     8   8   8   8   8   8   8   8
#     4   9  17  29  47  72 101 133 169 206 243 289
#     4  10  18  30  52  76  99 132 171 206 246 299
#     4  10  21  37  56  76 100 132 166 199 242 299
#     4  10  21  36  53  77 107 131 157 201 251 296
#     4  11  22  34  51  75 103 132 164 207 254 297
#     4   8  16  31  49  71  99 132 171 212 246 281
#     4  10  20  32  46  69 103 136 164 201 250 297
#     4  10  20  34  52  72  98 134 174 211 244 287
#
# _framework density 17.182538000000001
#
# number of rings (size 3 to 8) (size 9 to 14) (size 15 to 20)
#    0.000    2.250    0.000    4.125    0.000    9.000 
#    0.000    3.125    0.000    4.500    0.000    0.000 
#    0.000    0.000    0.000    0.000    0.000    0.000 
#
# Total GULP energy -178629.146946 kJ/mol
# GULP energy per Si atom -5582.160842 kJ/mol
# Density = 1.714343 g / cm^3
# Si number density = 17.182538 Si / 1000 Ang^3
#
#
#
# Elastic Constant Matrix: (Units=GPa)
#
#
# Indices 1 2 3 4 5 6 
#
# 1 92.8917 28.2379 54.1242 0.0000 -24.2266 0.0000
# 2 28.2379 28.6700 38.6596 0.0000 -3.2520 0.0000
# 3 54.1242 38.6596 123.6602 0.0000 -8.9957 0.0000
# 4 0.0000 0.0000 0.0000 18.0532 0.0000 2.8141
# 5 -24.2266 -3.2520 -8.9957 0.0000 18.6959 0.0000
# 6 0.0000 0.0000 0.0000 2.8141 0.0000 24.2064
#
#
#
# Elastic Compliance Matrix: (Units=1/GPa)
#
#
# Indices 1 2 3 4 5 6 
#
# 1 0.025434 -0.016609 -0.003888 0.000000 0.028198 0.000000
# 2 -0.016609 0.071184 -0.016217 0.000000 -0.016943 0.000000
# 3 -0.003888 -0.016217 0.014805 0.000000 -0.000736 0.000000
# 4 0.000000 0.000000 0.000000 0.056414 0.000000 -0.006559
# 5 0.028198 -0.016943 -0.000736 0.000000 0.086726 0.000000
# 6 0.000000 0.000000 0.000000 -0.006559 0.000000 0.042074
#
#
# Mechanical properties :
#
#
# Convention : Reuss Voigt Hill
#
# Bulk Modulus (GPa) = 26.31987 54.14058 40.23022
# Shear Modulus (GPa) = 13.06403 20.47111 16.76757
#
# Velocity S-wave (km/s) = 2.76036 3.45540 3.12725
# Velocity P-wave (km/s) = 5.05079 6.89182 6.04184
#
# Compressibility (1/GPa) = 0.03799412
#
# Stress axis : x y z
#
# Youngs Moduli (GPa) = 39.31776 14.04804 67.54488
#
# Poissons Ratio (x) = 0.23332 0.26264
# Poissons Ratio (y) = 0.65302 1.09539
# Poissons Ratio (z) = 0.15288 0.22782
#
# Static dielectric constant tensor:
#      x y z
#    x 1.576900 0.000000 -0.008950 
#    y 0.000000 1.575490 0.000000 
#    z -0.008950 0.000000 1.579420 
# 
# From -- ./inp_files/249158.got.cif
#   From: 2010.05.17/outbox.cif.g08.bks.cpg/sg12_125_cif.got.tgz:249158.got - 2010.06.03 13:09:07.
