data_PCOD9173056
_publ_section_title
;
Structure prediction by ZEFSAII (Michael W. Deem and Ramdas Pophale) SiO2 
 PCOD9173056
Probable space group: C 2/M
;
_chemical_formula_sum "Si O2"
_cell_formula_units_Z 56
_cell_length_a 19.613061
_cell_length_b 7.281095
_cell_length_c 16.489884
_cell_angle_alpha 90.000000
_cell_angle_beta 83.004573
_cell_angle_gamma 90.000000
_cell_volume 2337.300983
_symmetry_space_group_name_H-M "C 2/M"
_symmetry_group_IT_number 12
_symmetry_cell_setting 'monoclinic'
loop_
_space_group_symop_operation_xyz
x,y,z
-x,y,-z
-x,-y,-z
x,-y,z
1/2+x,1/2+y,z
1/2-x,1/2+y,-z
1/2-x,1/2-y,-z
1/2+x,1/2-y,z
loop_
_atom_site_type_symbol
_atom_site_label
_atom_site_fract_x
_atom_site_fract_y
_atom_site_fract_z
Si Si1 0.361589 0.775390 0.640617
Si Si2 0.504297 0.709253 0.118489
Si Si3 0.340803 0.277255 0.916257
Si Si4 0.638648 0.724924 0.909854
Si Si5 0.424498 0.218406 0.470715
Si Si6 0.008516 0.277555 0.696496
Si Si7 0.752417 0.792239 0.223438
O O1 0.371163 0.714103 0.546015
O O2 0.431774 0.723186 0.677649
O O3 0.294508 0.710991 0.698665
O O4 0.360660 0.000000 0.641670
O O5 0.513380 0.500000 0.089327
O O6 0.580538 0.786783 0.107293
O O7 0.440274 0.786839 0.078383
O O8 0.480143 0.710103 0.215115
O O9 0.337376 0.500000 0.910604
O O10 0.295726 0.202568 0.849759
O O11 0.324986 0.223304 0.011277
O O12 0.638400 0.500000 0.907436
O O13 0.678739 0.791209 0.824454
O O14 0.500000 0.242947 0.500000
O O15 0.435585 0.286414 0.377918
O O16 0.412991 0.000000 0.466365
O O17 0.009293 0.500000 0.697155
O O18 0.768977 0.000000 0.246462
#
# Coordination Sequence:
#
# PCOD9173056 Si02
#       7
#     8   8   8   8   8   8   8
#     4   8  13  23  42  68  91 111 141 182 224 261
#     4  10  19  31  47  65  90 123 155 182 214 264
#     4  10  19  32  49  66  88 119 154 187 221 264
#     4   9  19  33  47  65  89 122 156 182 216 267
#     4   7  11  20  38  64  90 113 138 176 220 261
#     4   9  15  26  45  68  91 113 145 187 224 257
#     4  10  18  30  50  71  91 113 146 192 229 259
#
# _framework density 23.959257999999998
#
# number of rings (size 3 to 8) (size 9 to 14) (size 15 to 20)
#    0.000    3.000    1.429    2.571    0.000    1.714 
#    0.000    1.429    0.000    7.286    0.000    0.000 
#    0.000    0.000    0.000    0.000    0.000    0.000 
#
# Total GULP energy -156276.950911 kJ/mol
# GULP energy per Si atom -5581.319675 kJ/mol
# Density = 2.390473 g / cm^3
# Si number density = 23.959258 Si / 1000 Ang^3
#
#
#
# Elastic Constant Matrix: (Units=GPa)
#
#
# Indices 1 2 3 4 5 6 
#
# 1 64.2538 -6.6995 -5.2666 0.0000 -25.1870 0.0000
# 2 -6.6995 105.4194 -1.9959 0.0000 -4.1770 0.0000
# 3 -5.2666 -1.9959 116.8657 0.0000 -34.5971 0.0000
# 4 0.0000 0.0000 0.0000 7.5246 0.0000 4.3577
# 5 -25.1870 -4.1770 -34.5971 0.0000 42.5160 0.0000
# 6 0.0000 0.0000 0.0000 4.3577 0.0000 2.8591
#
#
#
# Elastic Compliance Matrix: (Units=1/GPa)
#
#
# Indices 1 2 3 4 5 6 
#
# 1 0.024540 0.002518 0.007280 0.000000 0.020709 0.000000
# 2 0.002518 0.009811 0.001328 0.000000 0.003536 0.000000
# 3 0.007280 0.001328 0.013467 0.000000 0.015402 0.000000
# 4 0.000000 0.000000 0.000000 1.132659 0.000000 -1.726330
# 5 0.020709 0.003536 0.015402 0.000000 0.048670 0.000000
# 6 0.000000 0.000000 0.000000 -1.726330 0.000000 2.980928
#
#
# Mechanical properties :
#
#
# Convention : Reuss Voigt Hill
#
# Bulk Modulus (GPa) = 14.27147 28.73498 21.50323
# Shear Modulus (GPa) = 1.18732 30.61332 15.90032
#
# Velocity S-wave (km/s) = 0.70472 3.57840 2.57892
# Velocity P-wave (km/s) = 2.57520 5.39376 4.22636
#
# Compressibility (1/GPa) = 0.07006985
#
# Stress axis : x y z
#
# Youngs Moduli (GPa) = 40.74916 101.92441 74.25465
#
# Poissons Ratio (x) = -0.25664 -0.54055
# Poissons Ratio (y) = -0.10260 -0.09860
# Poissons Ratio (z) = -0.29664 -0.13534
#
# Static dielectric constant tensor:
#      x y z
#    x 1.892720 0.000000 -0.053050 
#    y 0.000000 1.903470 0.000000 
#    z -0.053050 0.000000 1.928000 
# 
# From -- ./inp_files/280230.got.cif
#   From: 2010.05.17/outbox.cif.g08.bks.cpg/sg12_141_cif.got.tgz:280230.got - 2010.06.03 13:09:07.
