data_PCOD9173453
_publ_section_title
;
Structure prediction by ZEFSAII (Michael W. Deem and Ramdas Pophale) SiO2 
 PCOD9173453
Probable space group: C 2/M
;
_chemical_formula_sum "Si O2"
_cell_formula_units_Z 64
_cell_length_a 31.745320
_cell_length_b 8.558906
_cell_length_c 25.398722
_cell_angle_alpha 90.000000
_cell_angle_beta 29.532190
_cell_angle_gamma 90.000000
_cell_volume 3401.571727
_symmetry_space_group_name_H-M "C 2/M"
_symmetry_group_IT_number 12
_symmetry_cell_setting 'monoclinic'
loop_
_space_group_symop_operation_xyz
x,y,z
-x,y,-z
-x,-y,-z
x,-y,z
1/2+x,1/2+y,z
1/2-x,1/2+y,-z
1/2-x,1/2-y,-z
1/2+x,1/2-y,z
loop_
_atom_site_type_symbol
_atom_site_label
_atom_site_fract_x
_atom_site_fract_y
_atom_site_fract_z
Si Si1 0.478045 0.246420 0.580294
Si Si2 0.589552 0.685838 0.241672
Si Si3 0.712565 0.322720 0.241332
Si Si4 0.940523 0.684050 0.838613
Si Si5 0.791873 0.683574 0.529848
Si Si6 0.668059 0.677416 0.402910
Si Si7 0.731689 0.316707 0.925096
Si Si8 0.114561 0.183399 0.671490
O O1 0.500000 0.163942 0.500000
O O2 0.450157 0.199623 0.670085
O O3 0.388875 0.329509 0.662319
O O4 0.567933 0.325701 0.496295
O O5 0.574428 0.500000 0.269102
O O6 0.553744 0.730410 0.224026
O O7 0.690838 0.720846 0.132336
O O8 0.745465 0.500000 0.201476
O O9 0.716217 0.267709 0.297635
O O10 0.755716 0.215124 0.150873
O O11 0.929611 0.500000 0.842415
O O12 0.028523 0.720106 0.772832
O O13 0.858578 0.753333 0.957247
O O14 0.803921 0.500000 0.505344
O O15 0.816804 0.720732 0.562282
O O16 0.848333 0.779272 0.426943
O O17 0.692830 0.721929 0.625407
O O18 0.694699 0.500000 0.385333
O O19 0.740252 0.500000 0.927545
O O20 0.095369 0.000000 0.696619
#
# Coordination Sequence:
#
# PCOD9173453 Si02
#       8
#     8   8   8   8   8   8   8   8
#     4   9  17  30  50  76 106 142 180 214 250 298
#     4  11  21  34  53  78 110 145 182 221 260 310
#     4   9  18  33  52  76 107 144 184 222 263 312
#     4  12  24  38  57  80 105 134 175 225 273 320
#     4  10  21  36  55  80 111 142 174 217 265 315
#     4  10  18  30  53  80 107 142 182 221 264 317
#     4  11  22  37  55  76 106 143 181 221 267 315
#     4  10  21  38  57  78 106 141 178 215 265 323
#
# _framework density 18.814833
#
# number of rings (size 3 to 8) (size 9 to 14) (size 15 to 20)
#    0.000    1.750    0.000    6.375    0.000    4.750 
#    0.000    2.500    0.000   14.250    0.000    5.250 
#    0.000    0.000    0.000    0.000    0.000    0.000 
#
# Total GULP energy -178290.321886 kJ/mol
# GULP energy per Si atom -5571.572559 kJ/mol
# Density = 1.877201 g / cm^3
# Si number density = 18.814833 Si / 1000 Ang^3
#
#
#
# Elastic Constant Matrix: (Units=GPa)
#
#
# Indices 1 2 3 4 5 6 
#
# 1 74.8209 18.7857 30.4583 -0.0015 7.8954 0.0057
# 2 18.7857 67.7712 22.5302 0.0024 -0.3386 0.0062
# 3 30.4583 22.5302 81.7706 0.0036 -2.0183 0.0000
# 4 -0.0015 0.0024 0.0036 -3.7146 0.0065 -1.6001
# 5 7.8954 -0.3386 -2.0183 0.0065 18.1486 -0.0030
# 6 0.0057 0.0062 0.0000 -1.6001 -0.0030 13.9696
#
#
#
# Elastic Compliance Matrix: (Units=1/GPa)
#
#
# Indices 1 2 3 4 5 6 
#
# 1 0.017354 -0.002901 -0.005869 -0.000024 -0.008256 -0.000010
# 2 -0.002901 0.016729 -0.003500 0.000013 0.001185 -0.000005
# 3 -0.005869 -0.003500 0.015483 0.000019 0.004210 0.000007
# 4 -0.000024 0.000013 0.000019 -0.256553 0.000100 -0.029385
# 5 -0.008256 0.001185 0.004210 0.000100 0.059183 0.000027
# 6 -0.000010 -0.000005 0.000007 -0.029385 0.000027 0.068218
#
#
# Mechanical properties :
#
#
# Convention : Reuss Voigt Hill
#
# Bulk Modulus (GPa) = 39.95452 40.87902 40.41677
# Shear Modulus (GPa) = -107.05477 15.85330 -45.60073
#
# Velocity S-wave (km/s) = -7.55133 2.90590 -4.92841
# Velocity P-wave (km/s) = 7.39922 5.74745 3.29509
#
# Compressibility (1/GPa) = 0.02502846
#
# Stress axis : x y z
#
# Youngs Moduli (GPa) = 57.62428 59.77677 64.58506
#
# Poissons Ratio (x) = 0.17339 0.37902
# Poissons Ratio (y) = 0.16715 0.22602
# Poissons Ratio (z) = 0.33817 0.20920
#
# Static dielectric constant tensor:
#      x y z
#    x 1.658450 0.000000 0.017460 
#    y 0.000000 1.642150 0.000000 
#    z 0.017460 0.000000 1.657070 
# 
# From -- ./inp_files/353327.got.cif
#   From: 2010.05.17/outbox.cif.g08.bks.cpg/sg12_177_cif.got.tgz:353327.got - 2010.06.03 13:09:07.
