data_PCOD9173414
_publ_section_title
;
Structure prediction by ZEFSAII (Michael W. Deem and Ramdas Pophale) SiO2 
 PCOD9173414
Probable space group: C 2/M
;
_chemical_formula_sum "Si O2"
_cell_formula_units_Z 64
_cell_length_a 28.771504
_cell_length_b 13.493616
_cell_length_c 15.276382
_cell_angle_alpha 90.000000
_cell_angle_beta 38.144171
_cell_angle_gamma 90.000000
_cell_volume 3663.097660
_symmetry_space_group_name_H-M "C 2/M"
_symmetry_group_IT_number 12
_symmetry_cell_setting 'monoclinic'
loop_
_space_group_symop_operation_xyz
x,y,z
-x,y,-z
-x,-y,-z
x,-y,z
1/2+x,1/2+y,z
1/2-x,1/2+y,-z
1/2-x,1/2-y,-z
1/2+x,1/2-y,z
loop_
_atom_site_type_symbol
_atom_site_label
_atom_site_fract_x
_atom_site_fract_y
_atom_site_fract_z
Si Si1 0.130340 0.116600 0.131936
Si Si2 0.000532 0.746907 0.600170
Si Si3 0.992137 0.615975 0.243429
Si Si4 0.679354 0.116590 0.566454
Si Si5 0.354976 0.385868 0.593245
Si Si6 0.771572 0.279894 0.329974
Si Si7 0.871824 0.257998 0.010900
Si Si8 0.744995 0.113071 0.921770
O O1 0.213589 0.135284 0.048397
O O2 0.070968 0.183697 0.272476
O O3 0.115287 0.000000 0.166146
O O4 0.122296 0.151078 0.043503
O O5 0.073706 0.814543 0.509051
O O6 0.000000 0.715844 0.500000
O O7 0.001395 0.656729 0.667143
O O8 0.012033 0.500000 0.207451
O O9 0.906525 0.628323 0.338250
O O10 0.049147 0.684657 0.103880
O O11 0.734085 0.180006 0.422939
O O12 0.689726 0.162197 0.647612
O O13 0.697416 0.000000 0.539258
O O14 0.376591 0.500000 0.545186
O O15 0.295567 0.347118 0.609855
O O16 0.310624 0.381989 0.751202
O O17 0.829102 0.259175 0.165885
O O18 0.821028 0.318434 0.015594
O O19 0.717166 0.000000 0.965801
#
# Coordination Sequence:
#
# PCOD9173414 Si02
#       8
#     8   8   8   8   8   8   8   8
#     4  10  20  32  49  76 108 148 192 228 274 328
#     4  11  20  33  54  80 113 151 189 230 276 326
#     4  10  22  39  57  83 116 151 188 231 282 334
#     4  10  21  39  63  86 111 142 185 237 287 339
#     4  10  18  30  52  81 110 140 183 230 277 323
#     4  10  21  38  59  86 111 141 187 233 287 335
#     4  10  21  35  55  77 114 149 183 231 278 337
#     4   9  17  30  49  74 104 142 188 231 269 317
#
# _framework density 17.471551999999999
#
# number of rings (size 3 to 8) (size 9 to 14) (size 15 to 20)
#    0.000    2.000    2.500    1.500    0.000    3.250 
#    0.000    1.250    0.000    0.000    0.000    3.500 
#    0.000    0.000    0.000    0.000    0.000    0.000 
#
# Total GULP energy -178540.440458 kJ/mol
# GULP energy per Si atom -5579.388764 kJ/mol
# Density = 1.743179 g / cm^3
# Si number density = 17.471552 Si / 1000 Ang^3
#
#
#
# Elastic Constant Matrix: (Units=GPa)
#
#
# Indices 1 2 3 4 5 6 
#
# 1 89.5073 38.4936 34.3188 0.0000 9.7786 0.0000
# 2 38.4936 74.2525 21.7377 0.0000 2.5141 0.0000
# 3 34.3188 21.7377 70.7466 0.0000 9.4420 0.0000
# 4 0.0000 0.0000 0.0000 17.7143 0.0000 -4.5388
# 5 9.7786 2.5141 9.4420 0.0000 23.9644 0.0000
# 6 0.0000 0.0000 0.0000 -4.5388 0.0000 23.7278
#
#
#
# Elastic Compliance Matrix: (Units=1/GPa)
#
#
# Indices 1 2 3 4 5 6 
#
# 1 0.016657 -0.006912 -0.005432 0.000000 -0.003932 0.000000
# 2 -0.006912 0.017668 -0.002327 0.000000 0.001884 0.000000
# 3 -0.005432 -0.002327 0.018109 0.000000 -0.004674 0.000000
# 4 0.000000 0.000000 0.000000 0.059361 0.000000 0.011355
# 5 -0.003932 0.001884 -0.004674 0.000000 0.044977 0.000000
# 6 0.000000 0.000000 0.000000 0.011355 0.000000 0.044317
#
#
# Mechanical properties :
#
#
# Convention : Reuss Voigt Hill
#
# Bulk Modulus (GPa) = 43.30459 47.06740 45.18599
# Shear Modulus (GPa) = 20.99712 22.41173 21.70443
#
# Velocity S-wave (km/s) = 3.47044 3.58544 3.52841
# Velocity P-wave (km/s) = 6.39517 6.64368 6.52061
#
# Compressibility (1/GPa) = 0.02309224
#
# Stress axis : x y z
#
# Youngs Moduli (GPa) = 60.03491 56.59831 55.22188
#
# Poissons Ratio (x) = 0.39121 0.29995
# Poissons Ratio (y) = 0.41496 0.12852
# Poissons Ratio (z) = 0.32609 0.13172
#
# Static dielectric constant tensor:
#      x y z
#    x 1.588470 0.000000 -0.004880 
#    y 0.000000 1.587410 0.000000 
#    z -0.004880 0.000000 1.581330 
# 
# From -- ./inp_files/232476.got.cif
#   From: 2010.05.17/outbox.cif.g08.bks.cpg/sg12_117_cif.got.tgz:232476.got - 2010.06.03 13:09:07.
