data_PCOD9173139
_publ_section_title
;
Structure prediction by ZEFSAII (Michael W. Deem and Ramdas Pophale) SiO2 
 PCOD9173139
Probable space group: C 2/M
;
_chemical_formula_sum "Si O2"
_cell_formula_units_Z 44
_cell_length_a 23.001630
_cell_length_b 20.772985
_cell_length_c 5.037603
_cell_angle_alpha 90.000000
_cell_angle_beta 71.945781
_cell_angle_gamma 90.000000
_cell_volume 2288.516442
_symmetry_space_group_name_H-M "C 2/M"
_symmetry_group_IT_number 12
_symmetry_cell_setting 'monoclinic'
loop_
_space_group_symop_operation_xyz
x,y,z
-x,y,-z
-x,-y,-z
x,-y,z
1/2+x,1/2+y,z
1/2-x,1/2+y,-z
1/2-x,1/2-y,-z
1/2+x,1/2-y,z
loop_
_atom_site_type_symbol
_atom_site_label
_atom_site_fract_x
_atom_site_fract_y
_atom_site_fract_z
Si Si1 0.854745 0.071222 0.818978
Si Si2 0.383384 0.262066 0.229555
Si Si3 0.809090 0.789481 0.828730
Si Si4 0.455282 0.138848 0.312059
Si Si5 0.934275 0.101261 0.206104
Si Si6 0.045114 0.500000 0.684190
O O1 0.810107 0.132718 0.854985
O O2 0.910620 0.080077 0.528610
O O3 0.828123 0.000000 0.816539
O O4 0.884132 0.076634 0.068050
O O5 0.325877 0.277033 0.499976
O O6 0.410837 0.196603 0.302308
O O7 0.429998 0.321052 0.208795
O O8 0.362723 0.264575 0.952665
O O9 0.750000 0.750000 0.000000
O O10 0.500000 0.150041 0.500000
O O11 0.422201 0.069094 0.378266
O O12 0.500000 0.134354 0.000000
O O13 0.000000 0.080948 0.000000
O O14 0.000000 0.500000 0.500000
O O15 0.000000 0.500000 0.000000
#
# Coordination Sequence:
#
# PCOD9173139 Si02
#       6
#     8   8   8   8   8   4
#     4  10  21  35  53  76 103 138 174 209 255 314
#     4  10  20  33  53  78 101 134 175 215 258 305
#     4  10  21  38  57  73  97 133 177 224 267 306
#     4  10  18  30  50  75 107 139 167 202 251 313
#     4  10  20  32  49  78 111 140 169 203 246 306
#     4   8  16  28  44  68  98 140 168 186 238 304
#
# _framework density 19.226427000000001
#
# number of rings (size 3 to 8) (size 9 to 14) (size 15 to 20)
#    0.000    2.182    0.000    3.273    0.000    5.091 
#    0.000    0.000    4.000    0.000    0.000    0.000 
#    0.000    0.000    0.000    0.000    0.000    0.000 
#
# Total GULP energy -122590.439776 kJ/mol
# GULP energy per Si atom -5572.292717 kJ/mol
# Density = 1.918267 g / cm^3
# Si number density = 19.226427 Si / 1000 Ang^3
#
#
#
# Elastic Constant Matrix: (Units=GPa)
#
#
# Indices 1 2 3 4 5 6 
#
# 1 22.5444 34.3093 1.5592 0.0000 -0.3508 0.0000
# 2 34.3093 181.6098 -1.9890 0.0000 -5.1294 0.0000
# 3 1.5592 -1.9890 80.3577 0.0000 13.2958 0.0000
# 4 0.0000 0.0000 0.0000 11.4360 0.0000 1.2420
# 5 -0.3508 -5.1294 13.2958 0.0000 33.8256 0.0000
# 6 0.0000 0.0000 0.0000 1.2420 0.0000 5.8101
#
#
#
# Elastic Compliance Matrix: (Units=1/GPa)
#
#
# Indices 1 2 3 4 5 6 
#
# 1 0.062448 -0.011830 -0.001406 0.000000 -0.000594 0.000000
# 2 -0.011830 0.007771 0.000264 0.000000 0.000952 0.000000
# 3 -0.001406 0.000264 0.013342 0.000000 -0.005219 0.000000
# 4 0.000000 0.000000 0.000000 0.089521 0.000000 -0.019136
# 5 -0.000594 0.000952 -0.005219 0.000000 0.031753 0.000000
# 6 0.000000 0.000000 0.000000 -0.019136 0.000000 0.176206
#
#
# Mechanical properties :
#
#
# Convention : Reuss Voigt Hill
#
# Bulk Modulus (GPa) = 17.35589 39.14123 28.24856
# Shear Modulus (GPa) = 11.73187 26.92315 19.32751
#
# Velocity S-wave (km/s) = 2.47289 3.74614 3.17402
# Velocity P-wave (km/s) = 4.14732 6.25409 5.30632
#
# Compressibility (1/GPa) = 0.05761731
#
# Stress axis : x y z
#
# Youngs Moduli (GPa) = 16.01335 128.68482 74.95311
#
# Poissons Ratio (x) = 1.52230 0.10541
# Poissons Ratio (y) = 0.18943 -0.01982
# Poissons Ratio (z) = 0.02252 -0.03402
#
# Static dielectric constant tensor:
#      x y z
#    x 1.632270 0.000000 -0.000210 
#    y 0.000000 1.765930 0.000000 
#    z -0.000210 0.000000 1.652260 
# 
# From -- ./inp_files/20906.got.cif
#   From: 2010.05.17/outbox.cif.g08.bks.cpg/sg12_11_cif.got.tgz:20906.got - 2010.06.03 13:09:07.
