data_PCOD9173357
_publ_section_title
;
Structure prediction by ZEFSAII (Michael W. Deem and Ramdas Pophale) SiO2 
 PCOD9173357
Probable space group: C 2/M
;
_chemical_formula_sum "Si O2"
_cell_formula_units_Z 48
_cell_length_a 19.270021
_cell_length_b 8.002701
_cell_length_c 27.132384
_cell_angle_alpha 90.000000
_cell_angle_beta 150.540654
_cell_angle_gamma 90.000000
_cell_volume 2057.787143
_symmetry_space_group_name_H-M "C 2/M"
_symmetry_group_IT_number 12
_symmetry_cell_setting 'monoclinic'
loop_
_space_group_symop_operation_xyz
x,y,z
-x,y,-z
-x,-y,-z
x,-y,z
1/2+x,1/2+y,z
1/2-x,1/2+y,-z
1/2-x,1/2-y,-z
1/2+x,1/2-y,z
loop_
_atom_site_type_symbol
_atom_site_label
_atom_site_fract_x
_atom_site_fract_y
_atom_site_fract_z
Si Si1 0.904974 0.702727 0.701524
Si Si2 0.301140 0.500000 0.917469
Si Si3 0.227054 0.314655 0.040872
Si Si4 0.915700 0.300420 0.602440
Si Si5 0.136631 0.000000 0.155550
Si Si6 0.913976 0.687083 0.817776
Si Si7 0.578443 0.299786 0.499979
O O1 0.909177 0.500000 0.701509
O O2 0.966163 0.764869 0.687178
O O3 0.956502 0.742435 0.788480
O O4 0.740954 0.757541 0.601625
O O5 0.291346 0.500000 0.852939
O O6 0.232662 0.665143 0.898161
O O7 0.466615 0.500000 0.037398
O O8 0.286528 0.500000 0.085740
O O9 0.057011 0.329971 0.937556
O O10 0.250000 0.250000 0.000000
O O11 0.925533 0.500000 0.608178
O O12 0.750000 0.250000 0.500000
O O13 0.979686 0.239844 0.590436
O O14 0.169342 0.834829 0.207324
O O15 0.848255 0.500000 0.774129
O O16 0.500000 0.234026 0.500000
O O17 0.581376 0.500000 0.505530
#
# Coordination Sequence:
#
# PCOD9173357 Si02
#       7
#     8   4   8   8   4   8   8
#     4   8  15  30  49  68  94 127 159 201 245 289
#     4   9  18  32  50  74 104 125 160 216 235 287
#     4  10  18  30  52  75  99 132 165 201 248 289
#     4   9  16  28  47  70  95 121 160 203 240 283
#     4   9  18  32  50  76  99 126 169 200 243 290
#     4   9  18  32  51  73  99 131 162 202 246 294
#     4   9  17  30  49  70  96 129 160 198 245 291
#
# _framework density 23.326028999999998
#
# number of rings (size 3 to 8) (size 9 to 14) (size 15 to 20)
#    0.000    3.000    0.833    1.500    0.000    1.000 
#    7.500    3.333    3.667    0.000    0.000    0.000 
#    0.000    0.000    0.000    0.000    0.000    0.000 
#
# Total GULP energy -133861.076160 kJ/mol
# GULP energy per Si atom -5577.544840 kJ/mol
# Density = 2.327294 g / cm^3
# Si number density = 23.326029 Si / 1000 Ang^3
#
#
#
# Elastic Constant Matrix: (Units=GPa)
#
#
# Indices 1 2 3 4 5 6 
#
# 1 143.8656 61.5912 47.2851 -0.0001 -56.2237 0.0000
# 2 61.5912 137.6556 21.9774 -0.0002 -29.6780 0.0003
# 3 47.2851 21.9774 94.9101 0.0001 -27.4289 0.0001
# 4 -0.0001 -0.0002 0.0001 16.7420 0.0001 -14.4218
# 5 -56.2237 -29.6780 -27.4289 0.0001 48.6304 0.0000
# 6 0.0000 0.0003 0.0001 -14.4218 0.0000 30.8971
#
#
#
# Elastic Compliance Matrix: (Units=1/GPa)
#
#
# Indices 1 2 3 4 5 6 
#
# 1 0.014280 -0.003145 -0.002592 0.000000 0.013128 0.000000
# 2 -0.003145 0.009082 0.000018 0.000000 0.001916 0.000000
# 3 -0.002592 0.000018 0.013095 0.000000 0.004400 0.000000
# 4 0.000000 0.000000 0.000000 0.099897 -0.000001 0.046629
# 5 0.013128 0.001916 0.004400 -0.000001 0.039393 0.000000
# 6 0.000000 0.000000 0.000000 0.046629 0.000000 0.054130
#
#
# Mechanical properties :
#
#
# Convention : Reuss Voigt Hill
#
# Bulk Modulus (GPa) = 39.97063 70.90431 55.43747
# Shear Modulus (GPa) = 20.02760 35.62576 27.82668
#
# Velocity S-wave (km/s) = 2.93336 3.91230 3.45765
# Velocity P-wave (km/s) = 5.35216 7.13241 6.30543
#
# Compressibility (1/GPa) = 0.02501837
#
# Stress axis : x y z
#
# Youngs Moduli (GPa) = 70.02826 110.10754 76.36391
#
# Poissons Ratio (x) = 0.34629 0.19794
# Poissons Ratio (y) = 0.22024 -0.00135
# Poissons Ratio (z) = 0.18152 -0.00195
#
# Static dielectric constant tensor:
#      x y z
#    x 1.899940 0.000000 0.052060 
#    y 0.000000 1.865510 0.000000 
#    z 0.052060 0.000000 1.958360 
# 
# From -- ./inp_files/342070.got.cif
#   From: 2010.05.17/outbox.cif.g08.bks.cpg/sg12_172_cif.got.tgz:342070.got - 2010.06.03 13:09:07.
