data_PCOD9173128
_publ_section_title
;
Structure prediction by ZEFSAII (Michael W. Deem and Ramdas Pophale) SiO2 
 PCOD9173128
Probable space group: C 2/M
;
_chemical_formula_sum "Si O2"
_cell_formula_units_Z 56
_cell_length_a 21.113680
_cell_length_b 8.796037
_cell_length_c 28.148253
_cell_angle_alpha 90.000000
_cell_angle_beta 42.048087
_cell_angle_gamma 90.000000
_cell_volume 3501.207039
_symmetry_space_group_name_H-M "C 2/M"
_symmetry_group_IT_number 12
_symmetry_cell_setting 'monoclinic'
loop_
_space_group_symop_operation_xyz
x,y,z
-x,y,-z
-x,-y,-z
x,-y,z
1/2+x,1/2+y,z
1/2-x,1/2+y,-z
1/2-x,1/2-y,-z
1/2+x,1/2-y,z
loop_
_atom_site_type_symbol
_atom_site_label
_atom_site_fract_x
_atom_site_fract_y
_atom_site_fract_z
Si Si1 0.173222 0.182163 0.578912
Si Si2 0.980907 0.678636 0.211551
Si Si3 0.027517 0.680880 0.341731
Si Si4 0.576062 0.316889 0.416498
Si Si5 0.615523 0.321619 0.205699
Si Si6 0.319319 0.178717 0.923206
Si Si7 0.221628 0.681885 0.654511
O O1 0.250000 0.250000 0.500000
O O2 0.071551 0.245868 0.619480
O O3 0.201891 0.238101 0.615474
O O4 0.172284 0.000000 0.577385
O O5 0.987120 0.500000 0.222972
O O6 0.872175 0.708650 0.261111
O O7 0.015137 0.784111 0.235767
O O8 0.068373 0.700157 0.126580
O O9 0.020394 0.500000 0.342956
O O10 0.049889 0.735758 0.382244
O O11 0.107697 0.739379 0.260340
O O12 0.500000 0.282991 0.500000
O O13 0.575165 0.500000 0.409447
O O14 0.680338 0.271320 0.376343
O O15 0.629099 0.500000 0.203664
O O16 0.685876 0.252963 0.126585
O O17 0.301551 0.000000 0.929639
O O18 0.250000 0.250000 0.000000
O O19 0.227967 0.500000 0.642417
#
# Coordination Sequence:
#
# PCOD9173128 Si02
#       7
#     8   8   8   8   8   8   8
#     4  12  23  34  52  75  99 128 168 214 264 319
#     4   8  16  29  47  71 102 135 168 205 251 306
#     4  12  23  37  54  74 104 138 175 220 266 315
#     4  10  22  38  55  76 103 137 178 223 271 321
#     4  10  18  30  50  75 102 134 172 212 255 306
#     4   9  16  27  45  74 112 142 170 207 257 312
#     4  10  19  35  55  74 102 136 171 215 265 316
#
# _framework density 15.994484
#
# number of rings (size 3 to 8) (size 9 to 14) (size 15 to 20)
#    0.857    1.000    1.429    4.714    0.000    2.000 
#    0.000    0.000    0.000    0.000    0.000    1.000 
#    0.000    8.000    0.000    0.000    0.000    0.000 
#
# Total GULP energy -155890.729142 kJ/mol
# GULP energy per Si atom -5567.526041 kJ/mol
# Density = 1.595808 g / cm^3
# Si number density = 15.994484 Si / 1000 Ang^3
#
#
#
# Elastic Constant Matrix: (Units=GPa)
#
#
# Indices 1 2 3 4 5 6 
#
# 1 90.4426 48.2940 55.5363 0.0000 0.3494 0.0000
# 2 48.2940 96.4664 63.3310 0.0000 2.2679 -0.0001
# 3 55.5363 63.3310 143.2334 0.0000 -1.6591 0.0000
# 4 0.0000 0.0000 0.0000 27.4021 0.0000 4.4669
# 5 0.3494 2.2679 -1.6591 0.0000 20.3091 0.0000
# 6 0.0000 -0.0001 0.0000 4.4669 0.0000 20.9819
#
#
#
# Elastic Compliance Matrix: (Units=1/GPa)
#
#
# Indices 1 2 3 4 5 6 
#
# 1 0.016480 -0.005716 -0.003862 0.000000 0.000039 0.000000
# 2 -0.005716 0.016684 -0.005186 0.000000 -0.002188 0.000000
# 3 -0.003862 -0.005186 0.010790 0.000000 0.001527 0.000000
# 4 0.000000 0.000000 0.000000 0.037806 0.000000 -0.008048
# 5 0.000039 -0.002188 0.001527 0.000000 0.049607 0.000000
# 6 0.000000 0.000000 0.000000 -0.008048 0.000000 0.049374
#
#
# Mechanical properties :
#
#
# Convention : Reuss Voigt Hill
#
# Bulk Modulus (GPa) = 69.31966 73.82944 71.57455
# Shear Modulus (GPa) = 23.24745 24.60402 23.92574
#
# Velocity S-wave (km/s) = 3.81657 3.92635 3.87185
# Velocity P-wave (km/s) = 7.92814 8.17401 8.05202
#
# Compressibility (1/GPa) = 0.01442592
#
# Stress axis : x y z
#
# Youngs Moduli (GPa) = 60.67836 59.93789 92.68026
#
# Poissons Ratio (x) = 0.34260 0.35795
# Poissons Ratio (y) = 0.34683 0.48063
# Poissons Ratio (z) = 0.23435 0.31083
#
# Static dielectric constant tensor:
#      x y z
#    x 1.521950 0.000000 -0.023210 
#    y 0.000000 1.534710 0.000000 
#    z -0.023210 0.000000 1.562110 
# 
# From -- ./inp_files/345456.got.cif
#   From: 2010.05.17/outbox.cif.g08.bks.cpg/sg12_173_cif.got.tgz:345456.got - 2010.06.03 13:09:07.
