data_PCOD9173770
_publ_section_title
;
Structure prediction by ZEFSAII (Michael W. Deem and Ramdas Pophale) SiO2 
 PCOD9173770
Probable space group: C 2/M
;
_chemical_formula_sum "Si O2"
_cell_formula_units_Z 64
_cell_length_a 7.682807
_cell_length_b 27.222161
_cell_length_c 21.538334
_cell_angle_alpha 90.000000
_cell_angle_beta 58.976661
_cell_angle_gamma 90.000000
_cell_volume 3860.236199
_symmetry_space_group_name_H-M "C 2/M"
_symmetry_group_IT_number 12
_symmetry_cell_setting 'monoclinic'
loop_
_space_group_symop_operation_xyz
x,y,z
-x,y,-z
-x,-y,-z
x,-y,z
1/2+x,1/2+y,z
1/2-x,1/2+y,-z
1/2-x,1/2-y,-z
1/2+x,1/2-y,z
loop_
_atom_site_type_symbol
_atom_site_label
_atom_site_fract_x
_atom_site_fract_y
_atom_site_fract_z
Si Si1 0.068445 0.284566 0.553805
Si Si2 0.559871 0.853929 0.664899
Si Si3 0.688325 0.556706 0.012891
Si Si4 0.920388 0.891366 0.841984
Si Si5 0.356547 0.942242 0.752036
Si Si6 0.052632 0.557631 0.851160
Si Si7 0.842321 0.211021 0.690629
Si Si8 0.376405 0.698384 0.245356
O O1 0.250000 0.250000 0.500000
O O2 0.000000 0.304553 0.500000
O O3 0.121136 0.329885 0.588394
O O4 0.923525 0.247417 0.620527
O O5 0.505713 0.910808 0.680681
O O6 0.728056 0.834944 0.682095
O O7 0.342767 0.827843 0.718772
O O8 0.692108 0.500000 0.035429
O O9 0.655140 0.592586 0.076334
O O10 0.500000 0.560434 0.000000
O O11 0.892037 0.565371 0.936338
O O12 0.746269 0.908288 0.826418
O O13 0.127683 0.921576 0.790594
O O14 0.976058 0.834121 0.824166
O O15 0.437859 0.933859 0.807318
O O16 0.358951 0.000000 0.739124
O O17 0.112915 0.500000 0.841651
O O18 0.676175 0.244764 0.757020
O O19 0.022224 0.197366 0.704519
#
# Coordination Sequence:
#
# PCOD9173770 Si02
#       8
#     8   8   8   8   8   8   8   8
#     4  11  18  30  51  80 106 128 160 207 257 307
#     4  10  20  33  51  76 107 137 165 208 259 295
#     4  10  18  31  50  72 102 134 169 219 266 306
#     4  11  20  31  48  77 103 136 170 210 263 314
#     4  10  20  34  51  75 105 138 175 209 249 309
#     4  10  19  31  50  74 101 135 171 215 265 305
#     4  11  18  35  52  75 107 132 165 209 257 309
#     4  10  20  31  50  74 103 135 169 207 258 308
#
# _framework density 16.579297
#
# number of rings (size 3 to 8) (size 9 to 14) (size 15 to 20)
#    0.000    1.625    5.000    3.000    0.000    1.000 
#    0.000    0.000    0.000    0.375    0.000   14.000 
#    0.000    0.000    0.000    0.000    0.000    0.000 
#
# Total GULP energy -178279.734395 kJ/mol
# GULP energy per Si atom -5571.241700 kJ/mol
# Density = 1.654156 g / cm^3
# Si number density = 16.579297 Si / 1000 Ang^3
#
#
#
# Elastic Constant Matrix: (Units=GPa)
#
#
# Indices 1 2 3 4 5 6 
#
# 1 70.9489 1.6470 0.9973 0.0000 -5.3227 0.0000
# 2 1.6470 53.5545 26.8184 0.0000 -9.5366 0.0000
# 3 0.9973 26.8184 57.7070 0.0000 -1.6189 0.0000
# 4 0.0000 0.0000 0.0000 29.2497 0.0000 -5.8484
# 5 -5.3227 -9.5366 -1.6189 0.0000 20.1234 0.0000
# 6 0.0000 0.0000 0.0000 -5.8484 0.0000 16.4049
#
#
#
# Elastic Compliance Matrix: (Units=1/GPa)
#
#
# Indices 1 2 3 4 5 6 
#
# 1 0.014388 0.000438 -0.000340 0.000000 0.003986 0.000000
# 2 0.000438 0.026860 -0.012158 0.000000 0.011867 0.000000
# 3 -0.000340 -0.012158 0.022872 0.000000 -0.004012 0.000000
# 4 0.000000 0.000000 0.000000 0.036812 0.000000 0.013124
# 5 0.003986 0.011867 -0.004012 0.000000 0.056049 0.000000
# 6 0.000000 0.000000 0.000000 0.013124 0.000000 0.065636
#
#
# Mechanical properties :
#
#
# Convention : Reuss Voigt Hill
#
# Bulk Modulus (GPa) = 24.99961 26.79286 25.89624
# Shear Modulus (GPa) = 19.22545 23.33880 21.28212
#
# Velocity S-wave (km/s) = 3.40899 3.75601 3.58670
# Velocity P-wave (km/s) = 5.53232 5.91656 5.72766
#
# Compressibility (1/GPa) = 0.04000063
#
# Stress axis : x y z
#
# Youngs Moduli (GPa) = 69.50101 37.22950 43.72098
#
# Poissons Ratio (x) = -0.01629 0.01488
# Poissons Ratio (y) = -0.03042 0.53154
# Poissons Ratio (z) = 0.02365 0.45262
#
# Static dielectric constant tensor:
#      x y z
#    x -16.755270 0.000000 -11.929740 
#    y 0.000000 1.646750 0.000000 
#    z -11.929740 0.000000 -6.180910 
# 
# From -- ./inp_files/302556.got.cif
#   From: 2010.05.17/outbox.cif.g08.bks.cpg/sg12_152_cif.got.tgz:302556.got - 2010.06.03 13:09:07.
