data_PCOD9173148
_publ_section_title
;
Structure prediction by ZEFSAII (Michael W. Deem and Ramdas Pophale) SiO2 
 PCOD9173148
Probable space group: C 2/M
;
_chemical_formula_sum "Si O2"
_cell_formula_units_Z 40
_cell_length_a 14.104945
_cell_length_b 17.633631
_cell_length_c 14.974200
_cell_angle_alpha 90.000000
_cell_angle_beta 139.704899
_cell_angle_gamma 90.000000
_cell_volume 2408.663509
_symmetry_space_group_name_H-M "C 2/M"
_symmetry_group_IT_number 12
_symmetry_cell_setting 'monoclinic'
loop_
_space_group_symop_operation_xyz
x,y,z
-x,y,-z
-x,-y,-z
x,-y,z
1/2+x,1/2+y,z
1/2-x,1/2+y,-z
1/2-x,1/2-y,-z
1/2+x,1/2-y,z
loop_
_atom_site_type_symbol
_atom_site_label
_atom_site_fract_x
_atom_site_fract_y
_atom_site_fract_z
Si Si1 0.649279 0.086611 0.818123
Si Si2 0.447406 0.778602 0.731487
Si Si3 0.375608 0.245578 0.480752
Si Si4 0.218319 0.585364 0.658407
Si Si5 0.967881 0.147304 0.079999
O O1 0.536013 0.144805 0.779671
O O2 0.659146 0.095415 0.717224
O O3 0.611633 0.000000 0.810057
O O4 0.812802 0.105553 0.970079
O O5 0.429053 0.742100 0.619778
O O6 0.280194 0.786516 0.645569
O O7 0.529362 0.721303 0.856270
O O8 0.500000 0.267112 0.500000
O O9 0.341044 0.155568 0.441728
O O10 0.181581 0.500000 0.601551
O O11 0.394132 0.595928 0.791063
O O12 0.000000 0.168556 0.000000
#
# Coordination Sequence:
#
# PCOD9173148 Si02
#       5
#     8   8   8   8   8
#     4  10  18  30  50  76 104 126 156 204 253 300
#     4  10  20  32  50  74  99 134 169 198 242 293
#     4  10  19  33  49  72 104 132 165 202 240 293
#     4   9  17  29  49  77 107 129 148 195 262 309
#     4   9  18  32  50  75 102 131 164 197 243 298
#
# _framework density 16.606719999999999
#
# number of rings (size 3 to 8) (size 9 to 14) (size 15 to 20)
#    0.000    2.400    2.000    1.200    0.000    3.600 
#    0.000    0.000    0.000    1.200    0.000    0.000 
#    0.000    0.000    0.000    0.000    0.000    0.000 
#
# Total GULP energy -111552.474050 kJ/mol
# GULP energy per Si atom -5577.623702 kJ/mol
# Density = 1.656892 g / cm^3
# Si number density = 16.606720 Si / 1000 Ang^3
#
#
#
# Elastic Constant Matrix: (Units=GPa)
#
#
# Indices 1 2 3 4 5 6 
#
# 1 79.2622 30.5362 5.7129 0.0000 20.3266 0.0000
# 2 30.5362 87.6840 7.9388 0.0000 7.3037 0.0000
# 3 5.7129 7.9388 40.0719 0.0000 5.2941 0.0000
# 4 0.0000 0.0000 0.0000 13.0325 0.0000 -4.4238
# 5 20.3266 7.3037 5.2941 0.0000 29.8340 0.0000
# 6 0.0000 0.0000 0.0000 -4.4238 0.0000 24.0696
#
#
#
# Elastic Compliance Matrix: (Units=1/GPa)
#
#
# Indices 1 2 3 4 5 6 
#
# 1 0.017299 -0.005143 -0.000058 0.000000 -0.010517 0.000000
# 2 -0.005143 0.013326 -0.001985 0.000000 0.000594 0.000000
# 3 -0.000058 -0.001985 0.025894 0.000000 -0.004070 0.000000
# 4 0.000000 0.000000 0.000000 0.081837 0.000000 0.015041
# 5 -0.010517 0.000594 -0.004070 0.000000 0.041261 0.000000
# 6 0.000000 0.000000 0.000000 0.015041 0.000000 0.044311
#
#
# Mechanical properties :
#
#
# Convention : Reuss Voigt Hill
#
# Bulk Modulus (GPa) = 23.72674 32.82155 28.27414
# Shear Modulus (GPa) = 19.81384 24.24256 22.02820
#
# Velocity S-wave (km/s) = 3.45791 3.82488 3.64602
# Velocity P-wave (km/s) = 5.50102 6.27003 5.89807
#
# Compressibility (1/GPa) = 0.04214654
#
# Stress axis : x y z
#
# Youngs Moduli (GPa) = 57.80686 75.04138 38.61850
#
# Poissons Ratio (x) = 0.38595 0.00224
# Poissons Ratio (y) = 0.29731 0.07667
# Poissons Ratio (z) = 0.00335 0.14898
#
# Static dielectric constant tensor:
#      x y z
#    x 1.554730 0.000000 0.023570 
#    y 0.000000 1.534630 0.000000 
#    z 0.023570 0.000000 1.589570 
# 
# From -- ./inp_files/60385.got.cif
#   From: 2010.05.17/outbox.cif.g08.bks.cpg/sg12_31_cif.got.tgz:60385.got - 2010.06.03 13:09:07.
