data_PCOD9173340
_publ_section_title
;
Structure prediction by ZEFSAII (Michael W. Deem and Ramdas Pophale) SiO2 
 PCOD9173340
Probable space group: C 2/M
;
_chemical_formula_sum "Si O2"
_cell_formula_units_Z 64
_cell_length_a 26.058400
_cell_length_b 23.824206
_cell_length_c 11.913446
_cell_angle_alpha 90.000000
_cell_angle_beta 30.170430
_cell_angle_gamma 90.000000
_cell_volume 3717.093241
_symmetry_space_group_name_H-M "C 2/M"
_symmetry_group_IT_number 12
_symmetry_cell_setting 'monoclinic'
loop_
_space_group_symop_operation_xyz
x,y,z
-x,y,-z
-x,-y,-z
x,-y,z
1/2+x,1/2+y,z
1/2-x,1/2+y,-z
1/2-x,1/2-y,-z
1/2+x,1/2-y,z
loop_
_atom_site_type_symbol
_atom_site_label
_atom_site_fract_x
_atom_site_fract_y
_atom_site_fract_z
Si Si1 0.294707 0.936026 0.964682
Si Si2 0.951192 0.713866 0.467304
Si Si3 0.252883 0.646762 0.148640
Si Si4 0.485468 0.662013 0.660301
Si Si5 0.180869 0.564706 0.466082
Si Si6 0.460004 0.891453 0.822259
Si Si7 0.190514 0.565948 0.713590
Si Si8 0.622459 0.435770 0.482992
O O1 0.278018 0.894723 0.893869
O O2 0.394327 0.919334 0.847078
O O3 0.302773 0.000000 0.910487
O O4 0.199294 0.931971 0.230931
O O5 0.833689 0.694386 0.687551
O O6 0.961672 0.778607 0.414442
O O7 0.000000 0.708063 0.500000
O O8 0.010583 0.671017 0.273058
O O9 0.246697 0.609457 0.272633
O O10 0.366223 0.667940 0.912269
O O11 0.500000 0.650840 0.500000
O O12 0.536040 0.610436 0.630586
O O13 0.209758 0.500000 0.389605
O O14 0.186244 0.574573 0.589233
O O15 0.064750 0.575578 0.646003
O O16 0.389680 0.896865 0.065447
O O17 0.164772 0.500000 0.785595
O O18 0.303136 0.574631 0.551935
O O19 0.583852 0.500000 0.561066
#
# Coordination Sequence:
#
# PCOD9173340 Si02
#       8
#     8   8   8   8   8   8   8   8
#     4  10  18  30  51  82 114 145 174 222 280 329
#     4  10  22  37  54  81 113 146 184 225 276 332
#     4  11  22  36  53  82 115 142 182 230 276 328
#     4  11  23  38  59  82 108 149 183 225 277 339
#     4  10  20  33  53  83 117 151 187 228 274 325
#     4  10  18  32  55  81 115 150 186 227 269 328
#     4   9  18  34  57  83 111 150 194 227 267 326
#     4   9  19  35  56  82 109 139 184 230 273 324
#
# _framework density 17.217755
#
# number of rings (size 3 to 8) (size 9 to 14) (size 15 to 20)
#    0.000    2.000    2.500    2.625    0.000    6.250 
#    0.000    2.500    0.000   12.000    0.000    0.000 
#    0.000    0.000    0.000    0.000    0.000    0.000 
#
# Total GULP energy -178607.283767 kJ/mol
# GULP energy per Si atom -5581.477618 kJ/mol
# Density = 1.717857 g / cm^3
# Si number density = 17.217755 Si / 1000 Ang^3
#
#
#
# Elastic Constant Matrix: (Units=GPa)
#
#
# Indices 1 2 3 4 5 6 
#
# 1 53.8349 40.4689 30.4609 0.0001 1.7335 -0.0001
# 2 40.4689 103.0940 50.0920 0.0000 -15.0127 0.0000
# 3 30.4609 50.0920 81.4933 0.0000 -15.8222 0.0000
# 4 0.0001 0.0000 0.0000 14.4804 0.0000 -6.0671
# 5 1.7335 -15.0127 -15.8222 0.0000 18.0533 0.0000
# 6 -0.0001 0.0000 0.0000 -6.0671 0.0000 19.7036
#
#
#
# Elastic Compliance Matrix: (Units=1/GPa)
#
#
# Indices 1 2 3 4 5 6 
#
# 1 0.033264 -0.011544 -0.009426 0.000000 -0.021055 0.000000
# 2 -0.011544 0.018203 -0.004483 0.000000 0.012317 0.000000
# 3 -0.009426 -0.004483 0.021693 0.000000 0.016189 0.000000
# 4 0.000000 0.000000 0.000000 0.079288 0.000000 0.024414
# 5 -0.021055 0.012317 0.016189 0.000000 0.081844 0.000000
# 6 0.000000 0.000000 0.000000 0.024414 0.000000 0.058270
#
#
# Mechanical properties :
#
#
# Convention : Reuss Voigt Hill
#
# Bulk Modulus (GPa) = 44.93269 53.38509 49.15889
# Shear Modulus (GPa) = 14.24966 18.27415 16.26190
#
# Velocity S-wave (km/s) = 2.87995 3.26138 3.07658
# Velocity P-wave (km/s) = 6.10018 6.72720 6.42135
#
# Compressibility (1/GPa) = 0.02225551
#
# Stress axis : x y z
#
# Youngs Moduli (GPa) = 30.06217 54.93575 46.09840
#
# Poissons Ratio (x) = 0.63417 0.43451
# Poissons Ratio (y) = 0.34703 0.20664
# Poissons Ratio (z) = 0.28336 0.24626
#
# Static dielectric constant tensor:
#      x y z
#    x 1.569710 0.000000 0.004030 
#    y 0.000000 1.570680 0.000000 
#    z 0.004030 0.000000 1.584910 
# 
# From -- ./inp_files/178406.got.cif
#   From: 2010.05.17/outbox.cif.g08.bks.cpg/sg12_90_cif.got.tgz:178406.got - 2010.06.03 13:09:07.
