data_PCOD9173822
_publ_section_title
;
Structure prediction by ZEFSAII (Michael W. Deem and Ramdas Pophale) SiO2 
 PCOD9173822
Probable space group: C 2/M
;
_chemical_formula_sum "Si O2"
_cell_formula_units_Z 56
_cell_length_a 28.719374
_cell_length_b 18.660813
_cell_length_c 18.520708
_cell_angle_alpha 90.000000
_cell_angle_beta 165.774103
_cell_angle_gamma 90.000000
_cell_volume 2439.207555
_symmetry_space_group_name_H-M "C 2/M"
_symmetry_group_IT_number 12
_symmetry_cell_setting 'monoclinic'
loop_
_space_group_symop_operation_xyz
x,y,z
-x,y,-z
-x,-y,-z
x,-y,z
1/2+x,1/2+y,z
1/2-x,1/2+y,-z
1/2-x,1/2-y,-z
1/2+x,1/2-y,z
loop_
_atom_site_type_symbol
_atom_site_label
_atom_site_fract_x
_atom_site_fract_y
_atom_site_fract_z
Si Si1 0.729789 0.416724 0.129476
Si Si2 0.271436 0.326026 0.573399
Si Si3 0.222800 0.833860 0.976053
Si Si4 0.280119 0.327832 0.749761
Si Si5 0.233805 0.917785 0.566199
Si Si6 0.732244 0.582145 0.849275
Si Si7 0.228758 0.836403 0.701339
O O1 0.783641 0.500000 0.201071
O O2 0.794370 0.383364 0.302773
O O3 0.792036 0.366443 0.156116
O O4 0.497922 0.415199 0.782310
O O5 0.250000 0.250000 0.500000
O O6 0.197091 0.327109 0.543755
O O7 0.198233 0.384614 0.406992
O O8 0.495143 0.340787 0.917577
O O9 0.294708 0.878539 0.015803
O O10 0.997357 0.845368 0.639506
O O11 0.250000 0.750000 0.000000
O O12 0.264945 0.247767 0.757971
O O13 0.298348 0.870690 0.731269
O O14 0.287894 0.000000 0.656165
O O15 0.500000 0.582439 0.500000
O O16 0.793816 0.500000 0.940257
O O17 0.796326 0.623959 0.874477
#
# Coordination Sequence:
#
# PCOD9173822 Si02
#       7
#     8   8   8   8   8   8   8
#     4   9  18  32  50  75 102 131 172 213 250 294
#     4  10  19  34  52  77 105 132 165 208 253 303
#     4  10  19  31  50  75 102 133 168 208 253 295
#     4  10  20  32  54  78 100 135 168 206 256 297
#     4   9  17  30  51  76 101 131 167 211 255 293
#     4   9  17  29  47  71  98 126 164 211 251 287
#     4  10  18  31  50  76 102 129 168 209 250 301
#
# _framework density 22.958275
#
# number of rings (size 3 to 8) (size 9 to 14) (size 15 to 20)
#    0.000    2.429    1.429    1.714    0.000    4.000 
#    0.000    2.857    0.000    5.143    0.000    0.000 
#    0.000    0.000    0.000    0.000    0.000    0.000 
#
# Total GULP energy -156550.902681 kJ/mol
# GULP energy per Si atom -5591.103667 kJ/mol
# Density = 2.290602 g / cm^3
# Si number density = 22.958275 Si / 1000 Ang^3
#
#
#
# Elastic Constant Matrix: (Units=GPa)
#
#
# Indices 1 2 3 4 5 6 
#
# 1 182.7846 86.5743 48.6267 0.0000 -41.5697 0.0000
# 2 86.5743 149.4924 17.9155 0.0000 -34.4875 0.0000
# 3 48.6267 17.9155 85.7345 0.0001 -12.9926 0.0000
# 4 0.0000 0.0000 0.0001 1.6709 0.0000 5.7971
# 5 -41.5697 -34.4875 -12.9926 0.0000 38.3817 0.0000
# 6 0.0000 0.0000 0.0000 5.7971 0.0000 29.9554
#
#
#
# Elastic Compliance Matrix: (Units=1/GPa)
#
#
# Indices 1 2 3 4 5 6 
#
# 1 0.009551 -0.003769 -0.003768 0.000000 0.005682 0.000000
# 2 -0.003769 0.009960 0.000837 0.000000 0.005151 0.000000
# 3 -0.003768 0.000837 0.013831 -0.000003 0.001353 0.000001
# 4 0.000000 0.000000 -0.000003 1.821301 -0.000002 -0.352465
# 5 0.005682 0.005151 0.001353 -0.000002 0.037294 0.000000
# 6 0.000000 0.000000 0.000001 -0.352465 0.000000 0.101593
#
#
# Mechanical properties :
#
#
# Convention : Reuss Voigt Hill
#
# Bulk Modulus (GPa) = 50.14642 80.47163 65.30902
# Shear Modulus (GPa) = 2.48314 31.66127 17.07221
#
# Velocity S-wave (km/s) = 1.04112 3.71762 2.72990
# Velocity P-wave (km/s) = 4.83064 7.31813 6.20041
#
# Compressibility (1/GPa) = 0.01994160
#
# Stress axis : x y z
#
# Youngs Moduli (GPa) = 104.70565 100.40402 72.29960
#
# Poissons Ratio (x) = 0.37837 0.27245
# Poissons Ratio (y) = 0.39458 -0.06050
# Poissons Ratio (z) = 0.39456 -0.08402
#
# Static dielectric constant tensor:
#      x y z
#    x 1.856460 0.000000 0.036500 
#    y 0.000000 1.793140 0.000000 
#    z 0.036500 0.000000 1.923660 
# 
# From -- ./inp_files/293877.got.cif
#   From: 2010.05.17/outbox.cif.g08.bks.cpg/sg12_147_cif.got.tgz:293877.got - 2010.06.03 13:09:07.
