data_PCOD9173203
_publ_section_title
;
Structure prediction by ZEFSAII (Michael W. Deem and Ramdas Pophale) SiO2 
 PCOD9173203
Probable space group: C 2/M
;
_chemical_formula_sum "Si O2"
_cell_formula_units_Z 64
_cell_length_a 12.984067
_cell_length_b 28.711022
_cell_length_c 14.144891
_cell_angle_alpha 90.000000
_cell_angle_beta 38.372598
_cell_angle_gamma 90.000000
_cell_volume 3273.344820
_symmetry_space_group_name_H-M "C 2/M"
_symmetry_group_IT_number 12
_symmetry_cell_setting 'monoclinic'
loop_
_space_group_symop_operation_xyz
x,y,z
-x,y,-z
-x,-y,-z
x,-y,z
1/2+x,1/2+y,z
1/2-x,1/2+y,-z
1/2-x,1/2-y,-z
1/2+x,1/2-y,z
loop_
_atom_site_type_symbol
_atom_site_label
_atom_site_fract_x
_atom_site_fract_y
_atom_site_fract_z
Si Si1 0.078906 0.553302 0.216667
Si Si2 0.034588 0.180786 0.706439
Si Si3 0.856914 0.620785 0.472860
Si Si4 0.484641 0.222254 0.851784
Si Si5 0.214772 0.946622 0.734439
Si Si6 0.331949 0.176869 0.775746
Si Si7 0.758330 0.222347 0.791177
Si Si8 0.880240 0.891474 0.961889
O O1 0.043699 0.500000 0.216597
O O2 0.176581 0.552757 0.248006
O O3 0.918775 0.585972 0.345180
O O4 0.216097 0.579039 0.054321
O O5 0.926553 0.195578 0.693435
O O6 0.940014 0.141322 0.834266
O O7 0.213702 0.158715 0.555949
O O8 0.030618 0.227504 0.773893
O O9 0.797545 0.586936 0.598445
O O10 0.023191 0.648657 0.377470
O O11 0.408896 0.192811 0.821115
O O12 0.646956 0.202730 0.787216
O O13 0.348680 0.224600 0.033707
O O14 0.029110 0.926568 0.879021
O O15 0.208269 0.000000 0.705507
O O16 0.288965 0.223055 0.750149
O O17 0.178798 0.143575 0.911702
#
# Coordination Sequence:
#
# PCOD9173203 Si02
#       8
#     8   8   8   8   8   8   8   8
#     4  10  20  33  48  71 102 134 168 206 249 301
#     4  10  19  36  48  74 106 133 171 213 239 293
#     4  10  22  32  49  66 102 141 164 199 249 288
#     4  10  19  32  54  75 100 134 166 210 260 290
#     4  10  20  33  48  71 102 134 168 206 249 301
#     4  10  19  36  48  74 106 133 171 213 239 293
#     4  10  19  32  54  75 100 134 166 210 260 290
#     4  10  18  30  51  70  98 133 170 211 243 280
#
# _framework density 19.551866
#
# number of rings (size 3 to 8) (size 9 to 14) (size 15 to 20)
#    0.000    2.000    2.500    2.250    0.000   10.000 
#    0.000    1.875    0.000    0.000    0.000    0.000 
#    0.000   70.000    0.000    0.000    0.000    0.000 
#
# Total GULP energy -178688.779862 kJ/mol
# GULP energy per Si atom -5584.024371 kJ/mol
# Density = 1.950737 g / cm^3
# Si number density = 19.551866 Si / 1000 Ang^3
#
#
#
# Elastic Constant Matrix: (Units=GPa)
#
#
# Indices 1 2 3 4 5 6 
#
# 1 70.3768 15.8344 11.6556 0.0000 -15.7352 0.0000
# 2 15.8344 90.9299 31.7601 0.0000 -10.0652 0.0000
# 3 11.6556 31.7601 102.8485 0.0000 -18.9279 0.0000
# 4 0.0000 0.0000 0.0000 25.2758 0.0000 -6.7270
# 5 -15.7352 -10.0652 -18.9279 0.0000 19.8741 0.0000
# 6 0.0000 0.0000 0.0000 -6.7270 0.0000 12.1687
#
#
#
# Elastic Compliance Matrix: (Units=1/GPa)
#
#
# Indices 1 2 3 4 5 6 
#
# 1 0.017595 -0.001921 0.001193 0.000000 0.014094 0.000000
# 2 -0.001921 0.012704 -0.003397 0.000000 0.001679 0.000000
# 3 0.001193 -0.003397 0.012724 0.000000 0.011343 0.000000
# 4 0.000000 0.000000 0.000000 0.046389 0.000000 0.025644
# 5 0.014094 0.001679 0.011343 0.000000 0.073129 0.000000
# 6 0.000000 0.000000 0.000000 0.025644 0.000000 0.096354
#
#
# Mechanical properties :
#
#
# Convention : Reuss Voigt Hill
#
# Bulk Modulus (GPa) = 28.75627 42.51729 35.63678
# Shear Modulus (GPa) = 17.93820 25.12406 21.53113
#
# Velocity S-wave (km/s) = 3.03226 3.58857 3.32208
# Velocity P-wave (km/s) = 5.19606 6.24208 5.74294
#
# Compressibility (1/GPa) = 0.03477503
#
# Stress axis : x y z
#
# Youngs Moduli (GPa) = 56.83423 78.71500 78.59047
#
# Poissons Ratio (x) = 0.15117 -0.09375
# Poissons Ratio (y) = 0.10915 0.26693
# Poissons Ratio (z) = -0.06780 0.26736
#
# Static dielectric constant tensor:
#      x y z
#    x 1.677090 0.000000 -0.002670 
#    y 0.000000 1.709650 0.000000 
#    z -0.002670 0.000000 1.747250 
# 
# From -- ./inp_files/273176.got.cif
#   From: 2010.05.17/outbox.cif.g08.bks.cpg/sg12_137_cif.got.tgz:273176.got - 2010.06.03 13:09:07.
