data_PCOD9173542
_publ_section_title
;
Structure prediction by ZEFSAII (Michael W. Deem and Ramdas Pophale) SiO2 
 PCOD9173542
Probable space group: C 2/M
;
_chemical_formula_sum "Si O2"
_cell_formula_units_Z 52
_cell_length_a 13.992812
_cell_length_b 11.094249
_cell_length_c 22.546959
_cell_angle_alpha 90.000000
_cell_angle_beta 45.445405
_cell_angle_gamma 90.000000
_cell_volume 2494.169055
_symmetry_space_group_name_H-M "C 2/M"
_symmetry_group_IT_number 12
_symmetry_cell_setting 'monoclinic'
loop_
_space_group_symop_operation_xyz
x,y,z
-x,y,-z
-x,-y,-z
x,-y,z
1/2+x,1/2+y,z
1/2-x,1/2+y,-z
1/2-x,1/2-y,-z
1/2+x,1/2-y,z
loop_
_atom_site_type_symbol
_atom_site_label
_atom_site_fract_x
_atom_site_fract_y
_atom_site_fract_z
Si Si1 0.272158 0.365816 0.257210
Si Si2 0.962968 0.766176 0.822044
Si Si3 0.075837 0.500000 0.120179
Si Si4 0.789292 0.500000 0.181576
Si Si5 0.397224 0.632730 0.488128
Si Si6 0.338358 0.129351 0.561822
Si Si7 0.432966 0.298790 0.701597
Si Si8 0.224799 0.000000 0.077129
O O1 0.314227 0.500000 0.222697
O O2 0.403092 0.282879 0.197380
O O3 0.224017 0.363619 0.346212
O O4 0.140418 0.326592 0.279594
O O5 0.910507 0.629155 0.852037
O O6 0.998308 0.792611 0.737667
O O7 0.863436 0.876452 0.882700
O O8 0.926321 0.500000 0.157591
O O9 0.181980 0.500000 0.020596
O O10 0.692692 0.388920 0.239233
O O11 0.808170 0.500000 0.102360
O O12 0.500000 0.629340 0.500000
O O13 0.333694 0.500000 0.514635
O O14 0.306643 0.749316 0.540280
O O15 0.477550 0.658244 0.392426
O O16 0.500000 0.126178 0.500000
O O17 0.298340 0.000000 0.552407
#
# Coordination Sequence:
#
# PCOD9173542 Si02
#       8
#     8   8   4   4   8   8   8   4
#     4  11  21  38  63  83 122 171 209 245 298 375
#     4  11  25  41  64  95 124 161 203 248 313 368
#     4  12  23  42  67  99 125 150 200 266 306 359
#     4  10  21  38  67  92 118 164 208 240 307 374
#     4  10  18  30  55  85 117 161 204 253 309 342
#     4   9  17  31  52  80 111 159 206 246 299 347
#     4  11  21  38  61  89 127 162 207 255 299 365
#     4  10  23  46  67  89 127 166 194 244 314 387
#
# _framework density 20.848627
#
# number of rings (size 3 to 8) (size 9 to 14) (size 15 to 20)
#    0.000    1.538    6.154    0.692    1.077    0.000 
#    1.385    0.769    0.000    0.923    0.000    0.000 
#    0.000    0.000    0.000    0.000    0.000    0.000 
#
# Total GULP energy -145028.947580 kJ/mol
# GULP energy per Si atom -5578.036445 kJ/mol
# Density = 2.080117 g / cm^3
# Si number density = 20.848627 Si / 1000 Ang^3
#
#
#
# Elastic Constant Matrix: (Units=GPa)
#
#
# Indices 1 2 3 4 5 6 
#
# 1 53.5991 -6.4392 -9.2236 0.0000 -1.4780 0.0000
# 2 -6.4392 151.7529 14.4949 0.0000 -2.7489 0.0000
# 3 -9.2236 14.4949 62.7538 0.0000 5.2960 0.0000
# 4 0.0000 0.0000 0.0000 25.6554 0.0000 1.4011
# 5 -1.4780 -2.7489 5.2960 0.0000 15.3278 0.0000
# 6 0.0000 0.0000 0.0000 1.4011 0.0000 5.7701
#
#
#
# Elastic Compliance Matrix: (Units=1/GPa)
#
#
# Indices 1 2 3 4 5 6 
#
# 1 0.019204 0.000586 0.002598 0.000000 0.001059 0.000000
# 2 0.000586 0.006805 -0.001641 0.000000 0.001844 0.000000
# 3 0.002598 -0.001641 0.017201 0.000000 -0.005987 0.000000
# 4 0.000000 0.000000 0.000000 0.039502 0.000000 -0.009592
# 5 0.001059 0.001844 -0.005987 0.000000 0.067742 0.000000
# 6 0.000000 0.000000 0.000000 -0.009592 0.000000 0.175635
#
#
# Mechanical properties :
#
#
# Convention : Reuss Voigt Hill
#
# Bulk Modulus (GPa) = 21.60067 29.53001 25.56534
# Shear Modulus (GPa) = 14.77384 27.30225 21.03804
#
# Velocity S-wave (km/s) = 2.66489 3.62269 3.18006
# Velocity P-wave (km/s) = 4.45556 5.62968 5.07668
#
# Compressibility (1/GPa) = 0.04629485
#
# Stress axis : x y z
#
# Youngs Moduli (GPa) = 52.07336 146.95750 58.13450
#
# Poissons Ratio (x) = -0.08610 -0.15102
# Poissons Ratio (y) = -0.03051 0.09541
# Poissons Ratio (z) = -0.13528 0.24119
#
# Static dielectric constant tensor:
#      x y z
#    x 1.756990 0.000000 0.007660 
#    y 0.000000 1.839810 0.000000 
#    z 0.007660 0.000000 1.697720 
# 
# From -- ./inp_files/309801.got.cif
#   From: 2010.05.17/outbox.cif.g08.bks.cpg/sg12_155_cif.got.tgz:309801.got - 2010.06.03 13:09:07.
