data_PCOD9173544
_publ_section_title
;
Structure prediction by ZEFSAII (Michael W. Deem and Ramdas Pophale) SiO2 
 PCOD9173544
Probable space group: C 2/M
;
_chemical_formula_sum "Si O2"
_cell_formula_units_Z 28
_cell_length_a 16.799633
_cell_length_b 5.631088
_cell_length_c 11.825721
_cell_angle_alpha 90.000000
_cell_angle_beta 100.232233
_cell_angle_gamma 90.000000
_cell_volume 1100.923466
_symmetry_space_group_name_H-M "C 2/M"
_symmetry_group_IT_number 12
_symmetry_cell_setting 'monoclinic'
loop_
_space_group_symop_operation_xyz
x,y,z
-x,y,-z
-x,-y,-z
x,-y,z
1/2+x,1/2+y,z
1/2-x,1/2+y,-z
1/2-x,1/2-y,-z
1/2+x,1/2-y,z
loop_
_atom_site_type_symbol
_atom_site_label
_atom_site_fract_x
_atom_site_fract_y
_atom_site_fract_z
Si Si1 0.804098 0.249487 0.627108
Si Si2 0.892360 0.000000 0.177245
Si Si3 0.811919 0.500000 0.122442
Si Si4 0.878775 0.000000 0.913870
Si Si5 0.039763 0.000000 0.387739
Si Si6 0.413135 0.000000 0.919767
O O1 0.789611 0.500000 0.682217
O O2 0.750000 0.250000 0.500000
O O3 0.896625 0.216712 0.610365
O O4 0.783210 0.000000 0.682082
O O5 0.844743 0.749610 0.182178
O O6 0.969131 0.000000 0.278281
O O7 0.917198 0.000000 0.050100
O O8 0.716253 0.500000 0.085456
O O9 0.847838 0.500000 0.003887
O O10 0.902925 0.244667 0.859173
O O11 0.000000 0.000000 0.500000
O O12 0.500000 0.000000 0.000000
#
# Coordination Sequence:
#
# PCOD9173544 Si02
#       6
#     8   4   4   4   4   4
#     4   8  16  32  53  72  94 135 174 205 265 327
#     4  10  20  33  54  83 108 136 186 224 258 319
#     4  10  20  37  58  77 105 152 182 207 263 334
#     4  10  19  36  58  78 108 153 178 205 267 334
#     4  10  22  34  56  82 107 137 180 237 270 293
#     4  10  18  30  55  86 107 132 173 225 267 304
#
# _framework density 25.433191000000001
#
# number of rings (size 3 to 8) (size 9 to 14) (size 15 to 20)
#    0.857    1.714    0.000    4.714    2.000    0.571 
#    0.000    0.000    0.000   27.429    0.000    0.000 
#    0.000    0.000    0.000    0.000    0.000    0.000 
#
# Total GULP energy -78304.075828 kJ/mol
# GULP energy per Si atom -5593.148273 kJ/mol
# Density = 2.537530 g / cm^3
# Si number density = 25.433191 Si / 1000 Ang^3
#
#
#
# Elastic Constant Matrix: (Units=GPa)
#
#
# Indices 1 2 3 4 5 6 
#
# 1 107.4167 51.8451 72.9450 0.0000 16.6137 0.0000
# 2 51.8451 314.7112 39.2100 0.0000 22.2521 0.0000
# 3 72.9450 39.2100 146.3394 0.0000 17.9282 0.0000
# 4 0.0000 0.0000 0.0000 40.4210 0.0000 10.2923
# 5 16.6137 22.2521 17.9282 0.0000 44.6360 0.0000
# 6 0.0000 0.0000 0.0000 10.2923 0.0000 46.1554
#
#
#
# Elastic Compliance Matrix: (Units=1/GPa)
#
#
# Indices 1 2 3 4 5 6 
#
# 1 0.014968 -0.001469 -0.006810 0.000000 -0.002104 0.000000
# 2 -0.001469 0.003511 -0.000064 0.000000 -0.001178 0.000000
# 3 -0.006810 -0.000064 0.010445 0.000000 -0.001628 0.000000
# 4 0.000000 0.000000 0.000000 0.026229 0.000000 -0.005849
# 5 -0.002104 -0.001178 -0.001628 0.000000 0.024428 0.000000
# 6 0.000000 0.000000 0.000000 -0.005849 0.000000 0.022970
#
#
# Mechanical properties :
#
#
# Convention : Reuss Voigt Hill
#
# Bulk Modulus (GPa) = 81.71296 99.60749 90.66022
# Shear Modulus (GPa) = 40.54642 53.20698 46.87670
#
# Velocity S-wave (km/s) = 3.99712 4.57883 4.29783
# Velocity P-wave (km/s) = 7.31442 8.19778 7.76867
#
# Compressibility (1/GPa) = 0.01223796
#
# Stress axis : x y z
#
# Youngs Moduli (GPa) = 66.80793 284.83985 95.74288
#
# Poissons Ratio (x) = 0.41833 0.65200
# Poissons Ratio (y) = 0.09812 0.00616
# Poissons Ratio (z) = 0.45495 0.01832
#
# Static dielectric constant tensor:
#      x y z
#    x 1.938200 0.000000 0.035750 
#    y 0.000000 2.193090 0.000000 
#    z 0.035750 0.000000 1.986130 
# 
# From -- ./inp_files/219769.got.cif
#   From: 2010.05.17/outbox.cif.g08.bks.cpg/sg12_110_cif.got.tgz:219769.got - 2010.06.03 13:09:07.
