data_PCOD9173435
_publ_section_title
;
Structure prediction by ZEFSAII (Michael W. Deem and Ramdas Pophale) SiO2 
 PCOD9173435
Probable space group: C 2/M
;
_chemical_formula_sum "Si O2"
_cell_formula_units_Z 56
_cell_length_a 21.425278
_cell_length_b 15.508841
_cell_length_c 9.680739
_cell_angle_alpha 90.000000
_cell_angle_beta 66.337838
_cell_angle_gamma 90.000000
_cell_volume 2946.290599
_symmetry_space_group_name_H-M "C 2/M"
_symmetry_group_IT_number 12
_symmetry_cell_setting 'monoclinic'
loop_
_space_group_symop_operation_xyz
x,y,z
-x,y,-z
-x,-y,-z
x,-y,z
1/2+x,1/2+y,z
1/2-x,1/2+y,-z
1/2-x,1/2-y,-z
1/2+x,1/2-y,z
loop_
_atom_site_type_symbol
_atom_site_label
_atom_site_fract_x
_atom_site_fract_y
_atom_site_fract_z
Si Si1 0.799270 0.312044 0.867901
Si Si2 0.420738 0.685095 0.816184
Si Si3 0.072413 0.707743 0.918646
Si Si4 0.411874 0.500000 0.914714
Si Si5 0.578011 0.500000 0.775081
Si Si6 0.075932 0.182339 0.642032
Si Si7 0.211846 0.766251 0.388232
Si Si8 0.295433 0.097932 0.136182
O O1 0.871086 0.260335 0.807165
O O2 0.778425 0.313729 0.726803
O O3 0.750000 0.250000 0.000000
O O4 0.793695 0.394790 0.970074
O O5 0.391445 0.587909 0.853470
O O6 0.495112 0.681700 0.678892
O O7 0.430763 0.714509 0.967045
O O8 0.081293 0.750766 0.763337
O O9 0.133214 0.643832 0.893877
O O10 0.000000 0.662007 0.000000
O O11 0.494876 0.500000 0.848811
O O12 0.393281 0.500000 0.093874
O O13 0.596096 0.587552 0.679249
O O14 0.132673 0.213082 0.485104
O O15 0.250000 0.750000 0.500000
O O16 0.242395 0.845440 0.272049
O O17 0.291506 0.000000 0.182801
#
# Coordination Sequence:
#
# PCOD9173435 Si02
#       8
#     8   8   8   4   4   8   8   8
#     4   9  21  40  58  77 106 148 193 229 277 337
#     4   9  17  31  52  82 112 150 191 226 271 335
#     4   9  16  30  55  83 110 148 192 230 282 333
#     4   9  14  26  47  79 117 151 184 227 264 327
#     4   9  16  24  45  81 121 149 183 224 272 323
#     4  10  18  30  52  83 118 150 184 228 279 336
#     4  11  22  38  60  81 115 149 185 230 289 343
#     4  10  21  39  59  82 114 147 192 239 278 330
#
# _framework density 19.00695
#
# number of rings (size 3 to 8) (size 9 to 14) (size 15 to 20)
#    0.000    2.429    2.857    0.000    1.000    0.857 
#    5.143    0.714    0.000    2.571    0.000    3.000 
#    0.000    0.000    0.000    0.000    0.000    0.000 
#
# Total GULP energy -155933.319797 kJ/mol
# GULP energy per Si atom -5569.047136 kJ/mol
# Density = 1.896369 g / cm^3
# Si number density = 19.006950 Si / 1000 Ang^3
#
#
#
# Elastic Constant Matrix: (Units=GPa)
#
#
# Indices 1 2 3 4 5 6 
#
# 1 45.5995 7.5350 38.7369 0.0000 -12.2564 0.0000
# 2 7.5350 66.1412 25.5245 0.0000 -3.8821 0.0000
# 3 38.7369 25.5245 126.0849 0.0000 -8.8933 0.0000
# 4 0.0000 0.0000 0.0000 19.5115 0.0000 -3.4894
# 5 -12.2564 -3.8821 -8.8933 0.0000 35.8953 0.0000
# 6 0.0000 0.0000 0.0000 -3.4894 0.0000 -2.0146
#
#
#
# Elastic Compliance Matrix: (Units=1/GPa)
#
#
# Indices 1 2 3 4 5 6 
#
# 1 0.032140 0.000459 -0.009353 0.000000 0.008706 0.000000
# 2 0.000459 0.016440 -0.003392 0.000000 0.001094 0.000000
# 3 -0.009353 -0.003392 0.011440 0.000000 -0.000726 0.000000
# 4 0.000000 0.000000 0.000000 0.039131 0.000000 -0.067776
# 5 0.008706 0.001094 -0.000726 0.000000 0.030770 0.000000
# 6 0.000000 0.000000 0.000000 -0.067776 0.000000 -0.378977
#
#
# Mechanical properties :
#
#
# Convention : Reuss Voigt Hill
#
# Bulk Modulus (GPa) = 28.21035 42.37982 35.29509
# Shear Modulus (GPa) = -23.51080 21.74706 -0.88187
#
# Velocity S-wave (km/s) = -3.52086 3.38622 -0.68189
# Velocity P-wave (km/s) = 1.28617 6.13466 4.24145
#
# Compressibility (1/GPa) = 0.03544798
#
# Stress axis : x y z
#
# Youngs Moduli (GPa) = 31.11408 60.82689 87.41147
#
# Poissons Ratio (x) = -0.02792 0.81757
# Poissons Ratio (y) = -0.01428 0.29649
# Poissons Ratio (z) = 0.29101 0.20632
#
# Static dielectric constant tensor:
#      x y z
#    x 1.753160 0.000000 0.021840 
#    y 0.000000 1.645940 0.000000 
#    z 0.021840 0.000000 1.680500 
# 
# From -- ./inp_files/96807.got.cif
#   From: 2010.05.17/outbox.cif.g08.bks.cpg/sg12_49_cif.got.tgz:96807.got - 2010.06.03 13:09:07.
