data_PCOD9173117
_publ_section_title
;
Structure prediction by ZEFSAII (Michael W. Deem and Ramdas Pophale) SiO2 
 PCOD9173117
Probable space group: C 2/M
;
_chemical_formula_sum "Si O2"
_cell_formula_units_Z 56
_cell_length_a 20.433272
_cell_length_b 9.764894
_cell_length_c 14.136178
_cell_angle_alpha 90.000000
_cell_angle_beta 115.468421
_cell_angle_gamma 90.000000
_cell_volume 2546.477207
_symmetry_space_group_name_H-M "C 2/M"
_symmetry_group_IT_number 12
_symmetry_cell_setting 'monoclinic'
loop_
_space_group_symop_operation_xyz
x,y,z
-x,y,-z
-x,-y,-z
x,-y,z
1/2+x,1/2+y,z
1/2-x,1/2+y,-z
1/2-x,1/2-y,-z
1/2+x,1/2-y,z
loop_
_atom_site_type_symbol
_atom_site_label
_atom_site_fract_x
_atom_site_fract_y
_atom_site_fract_z
Si Si1 0.813943 0.145997 0.557552
Si Si2 0.784488 0.342537 0.222872
Si Si3 0.508181 0.155257 0.653352
Si Si4 0.821793 0.833236 0.078896
Si Si5 0.381308 0.335725 0.921179
Si Si6 0.450275 0.661900 0.777950
Si Si7 0.113068 0.274501 0.556253
O O1 0.750000 0.250000 0.500000
O O2 0.871101 0.168985 0.677531
O O3 0.860380 0.147944 0.489065
O O4 0.779777 0.000000 0.552363
O O5 0.788365 0.500000 0.190203
O O6 0.700200 0.300859 0.164982
O O7 0.817500 0.336679 0.347755
O O8 0.830104 0.238556 0.185269
O O9 0.498455 0.240817 0.742448
O O10 0.430635 0.143779 0.551601
O O11 0.556611 0.235732 0.607143
O O12 0.536410 0.000000 0.683779
O O13 0.686919 0.500000 0.921022
O O14 0.880337 0.803386 0.032320
O O15 0.750000 0.750000 0.000000
O O16 0.387173 0.500000 0.919906
O O17 0.438620 0.288348 0.878436
O O18 0.472425 0.500000 0.789143
#
# Coordination Sequence:
#
# PCOD9173117 Si02
#       7
#     8   8   8   8   8   8   8
#     4  10  21  33  49  75 105 133 165 204 250 303
#     4  10  18  30  50  74  99 132 167 204 253 306
#     4  10  20  34  52  75  98 130 176 219 254 295
#     4   9  17  30  48  73 102 130 162 202 246 303
#     4   8  15  29  49  70  95 127 160 193 243 304
#     4   9  18  33  50  69  95 131 168 203 248 305
#     4  10  20  34  52  72 101 136 170 207 251 301
#
# _framework density 21.991164999999999
#
# number of rings (size 3 to 8) (size 9 to 14) (size 15 to 20)
#    0.000    2.571    0.000    3.857    0.000    5.714 
#    0.000    6.429    0.000    0.857    0.000    5.000 
#    0.000    0.000    0.000    0.000    0.000    0.000 
#
# Total GULP energy -155955.590202 kJ/mol
# GULP energy per Si atom -5569.842507 kJ/mol
# Density = 2.194111 g / cm^3
# Si number density = 21.991165 Si / 1000 Ang^3
#
#
#
# Elastic Constant Matrix: (Units=GPa)
#
#
# Indices 1 2 3 4 5 6 
#
# 1 81.8071 37.7438 40.2842 0.0000 -41.3442 0.0000
# 2 37.7438 70.0661 38.8612 0.0000 -21.5227 0.0000
# 3 40.2842 38.8612 116.5261 0.0000 -25.5793 0.0000
# 4 0.0000 0.0000 0.0000 -1.8342 0.0000 -6.5842
# 5 -41.3442 -21.5227 -25.5793 0.0000 58.9035 0.0000
# 6 0.0000 0.0000 0.0000 -6.5842 0.0000 -7.4749
#
#
#
# Elastic Compliance Matrix: (Units=1/GPa)
#
#
# Indices 1 2 3 4 5 6 
#
# 1 0.023212 -0.007051 -0.002943 0.000000 0.012438 0.000000
# 2 -0.007051 0.020682 -0.004297 0.000000 0.000742 0.000000
# 3 -0.002943 -0.004297 0.011312 0.000000 0.001277 0.000000
# 4 0.000000 0.000000 0.000000 0.252181 0.000000 -0.222131
# 5 0.012438 0.000742 0.001277 0.000000 0.026533 0.000000
# 6 0.000000 0.000000 0.000000 -0.222131 0.000000 0.061881
#
#
# Mechanical properties :
#
#
# Convention : Reuss Voigt Hill
#
# Bulk Modulus (GPa) = 37.55895 55.79751 46.67823
# Shear Modulus (GPa) = 11.54045 20.01953 15.77999
#
# Velocity S-wave (km/s) = 2.29329 3.02046 2.68164
# Velocity P-wave (km/s) = 4.91207 6.13124 5.55520
#
# Compressibility (1/GPa) = 0.02662482
#
# Stress axis : x y z
#
# Youngs Moduli (GPa) = 43.08027 48.35197 88.39858
#
# Poissons Ratio (x) = 0.34095 0.26013
# Poissons Ratio (y) = 0.30377 0.37983
# Poissons Ratio (z) = 0.12677 0.20776
#
# Static dielectric constant tensor:
#      x y z
#    x 1.908570 0.000000 0.030320 
#    y 0.000000 1.797100 0.000000 
#    z 0.030320 0.000000 1.866410 
# 
# From -- ./inp_files/237890.got.cif
#   From: 2010.05.17/outbox.cif.g08.bks.cpg/sg12_119_cif.got.tgz:237890.got - 2010.06.03 13:09:07.
