data_PCOD9173853
_publ_section_title
;
Structure prediction by ZEFSAII (Michael W. Deem and Ramdas Pophale) SiO2 
 PCOD9173853
Probable space group: C 2/M
;
_chemical_formula_sum "Si O2"
_cell_formula_units_Z 40
_cell_length_a 11.835383
_cell_length_b 18.101035
_cell_length_c 7.960849
_cell_angle_alpha 90.000000
_cell_angle_beta 87.081225
_cell_angle_gamma 90.000000
_cell_volume 1703.261563
_symmetry_space_group_name_H-M "C 2/M"
_symmetry_group_IT_number 12
_symmetry_cell_setting 'monoclinic'
loop_
_space_group_symop_operation_xyz
x,y,z
-x,y,-z
-x,-y,-z
x,-y,z
1/2+x,1/2+y,z
1/2-x,1/2+y,-z
1/2-x,1/2-y,-z
1/2+x,1/2-y,z
loop_
_atom_site_type_symbol
_atom_site_label
_atom_site_fract_x
_atom_site_fract_y
_atom_site_fract_z
Si Si1 0.025336 0.312407 0.732072
Si Si2 0.152083 0.915495 0.163382
Si Si3 0.058245 0.136693 0.673381
Si Si4 0.814779 0.326951 0.960822
Si Si5 0.766366 0.337854 0.474293
O O1 0.037177 0.223988 0.707101
O O2 0.096751 0.333853 0.892301
O O3 0.101253 0.348169 0.577504
O O4 0.894543 0.327100 0.790014
O O5 0.217467 0.887508 0.994026
O O6 0.203149 0.864480 0.308790
O O7 0.017283 0.904638 0.184365
O O8 0.180183 0.000000 0.194775
O O9 0.190932 0.125608 0.626702
O O10 0.000000 0.116583 0.500000
O O11 0.750000 0.250000 0.000000
O O12 0.750000 0.250000 0.500000
#
# Coordination Sequence:
#
# PCOD9173853 Si02
#       5
#     8   8   8   8   8
#     4   9  17  30  48  73  97 130 179 210 250 300
#     4  10  19  30  48  78 106 131 167 216 267 306
#     4   9  16  28  48  71 103 130 160 211 258 302
#     4  10  18  31  51  69 100 138 174 216 254 301
#     4   8  16  29  45  68 101 133 164 202 247 304
#
# _framework density 23.484354
#
# number of rings (size 3 to 8) (size 9 to 14) (size 15 to 20)
#    0.000    2.800    2.000    0.000    0.000    3.600 
#    0.000    8.000    0.000    2.400    0.000    4.200 
#    0.000   35.600    0.000    0.000    0.000    0.000 
#
# Total GULP energy -111526.994326 kJ/mol
# GULP energy per Si atom -5576.349716 kJ/mol
# Density = 2.343090 g / cm^3
# Si number density = 23.484354 Si / 1000 Ang^3
#
#
#
# Elastic Constant Matrix: (Units=GPa)
#
#
# Indices 1 2 3 4 5 6 
#
# 1 151.7162 13.6403 84.9162 0.0000 -60.9247 0.0000
# 2 13.6403 64.1151 32.7989 0.0000 -13.9134 0.0000
# 3 84.9162 32.7989 206.8142 0.0000 -62.4123 0.0000
# 4 0.0000 0.0000 0.0000 11.4724 0.0000 0.5240
# 5 -60.9247 -13.9134 -62.4123 0.0000 71.4561 0.0000
# 6 0.0000 0.0000 0.0000 0.5240 0.0000 5.9244
#
#
#
# Elastic Compliance Matrix: (Units=1/GPa)
#
#
# Indices 1 2 3 4 5 6 
#
# 1 0.010745 0.000462 -0.002299 0.000000 0.007243 0.000000
# 2 0.000462 0.017083 -0.002412 0.000000 0.001613 0.000000
# 3 -0.002299 -0.002412 0.007372 0.000000 0.004008 0.000000
# 4 0.000000 0.000000 0.000000 0.087519 0.000000 -0.007741
# 5 0.007243 0.001613 0.004008 0.000000 0.023986 0.000000
# 6 0.000000 0.000000 0.000000 -0.007741 0.000000 0.169479
#
#
# Mechanical properties :
#
#
# Convention : Reuss Voigt Hill
#
# Bulk Modulus (GPa) = 37.45170 76.15069 56.80119
# Shear Modulus (GPa) = 14.98879 37.18993 26.08936
#
# Velocity S-wave (km/s) = 2.52909 3.98377 3.33667
# Velocity P-wave (km/s) = 4.95081 7.32510 6.25171
#
# Compressibility (1/GPa) = 0.02670106
#
# Stress axis : x y z
#
# Youngs Moduli (GPa) = 93.06337 58.53896 135.65694
#
# Poissons Ratio (x) = -0.02705 0.31192
# Poissons Ratio (y) = -0.04300 0.32720
# Poissons Ratio (z) = 0.21399 0.14119
#
# Static dielectric constant tensor:
#      x y z
#    x 1.971590 0.000000 -0.016850 
#    y 0.000000 1.838590 0.000000 
#    z -0.016850 0.000000 2.004390 
# 
# From -- ./inp_files/132186.got.cif
#   From: 2010.05.17/outbox.cif.g08.bks.cpg/sg12_67_cif.got.tgz:132186.got - 2010.06.03 13:09:07.
