data_PCOD9173133
_publ_section_title
;
Structure prediction by ZEFSAII (Michael W. Deem and Ramdas Pophale) SiO2 
 PCOD9173133
Probable space group: C 2/M
;
_chemical_formula_sum "Si O2"
_cell_formula_units_Z 40
_cell_length_a 18.638844
_cell_length_b 8.516767
_cell_length_c 26.906945
_cell_angle_alpha 90.000000
_cell_angle_beta 149.907157
_cell_angle_gamma 90.000000
_cell_volume 2141.631608
_symmetry_space_group_name_H-M "C 2/M"
_symmetry_group_IT_number 12
_symmetry_cell_setting 'monoclinic'
loop_
_space_group_symop_operation_xyz
x,y,z
-x,y,-z
-x,-y,-z
x,-y,z
1/2+x,1/2+y,z
1/2-x,1/2+y,-z
1/2-x,1/2-y,-z
1/2+x,1/2-y,z
loop_
_atom_site_type_symbol
_atom_site_label
_atom_site_fract_x
_atom_site_fract_y
_atom_site_fract_z
Si Si1 0.088507 0.689802 0.404285
Si Si2 0.091397 0.188562 0.207383
Si Si3 0.570400 0.811549 0.791634
Si Si4 0.331273 0.813020 0.999442
Si Si5 0.921376 0.691627 0.402549
O O1 0.091354 0.500000 0.406375
O O2 0.250000 0.750000 0.500000
O O3 0.002357 0.738668 0.303374
O O4 0.007611 0.743054 0.405594
O O5 0.255736 0.239799 0.301942
O O6 0.023629 0.249091 0.218484
O O7 0.991544 0.250691 0.102879
O O8 0.084803 0.000000 0.203672
O O9 0.573194 0.000000 0.795874
O O10 0.731994 0.749503 0.895658
O O11 0.330501 0.000000 0.999389
O O12 0.250000 0.750000 0.000000
O O13 0.921944 0.500000 0.403129
O O14 0.000000 0.743583 0.500000
#
# Coordination Sequence:
#
# PCOD9173133 Si02
#       5
#     8   8   8   8   8
#     4  10  21  36  54  77 103 133 169 210 255 302
#     4  10  18  31  54  78 102 134 171 211 252 295
#     4  10  19  32  51  76 106 135 168 209 251 300
#     4  10  18  30  50  75 104 135 170 209 249 298
#     4   9  18  33  53  76 101 131 169 209 250 301
#
# _framework density 18.677349
#
# number of rings (size 3 to 8) (size 9 to 14) (size 15 to 20)
#    0.000    2.200    0.000    6.600    0.000    3.200 
#    0.000    3.000    0.000   11.400    0.000    0.000 
#    0.000    0.000    0.000    0.000    0.000    0.000 
#
# Total GULP energy -111610.615615 kJ/mol
# GULP energy per Si atom -5580.530781 kJ/mol
# Density = 1.863484 g / cm^3
# Si number density = 18.677349 Si / 1000 Ang^3
#
#
#
# Elastic Constant Matrix: (Units=GPa)
#
#
# Indices 1 2 3 4 5 6 
#
# 1 107.8258 21.8221 99.2227 0.0000 -1.3690 0.0000
# 2 21.8221 60.7894 44.8655 0.0000 -2.4380 0.0000
# 3 99.2227 44.8655 241.5045 -0.0004 -2.2788 0.0000
# 4 0.0000 0.0000 -0.0004 30.2714 0.0000 2.1415
# 5 -1.3690 -2.4380 -2.2788 0.0000 33.1031 0.0000
# 6 0.0000 0.0000 0.0000 2.1415 0.0000 14.3834
#
#
#
# Elastic Compliance Matrix: (Units=1/GPa)
#
#
# Indices 1 2 3 4 5 6 
#
# 1 0.014962 -0.000961 -0.005967 0.000000 0.000137 0.000000
# 2 -0.000961 0.019171 -0.003156 0.000000 0.001155 0.000000
# 3 -0.005967 -0.003156 0.007179 0.000000 0.000015 0.000000
# 4 0.000000 0.000000 0.000000 0.033386 0.000000 -0.004971
# 5 0.000137 0.001155 0.000015 0.000000 0.030300 0.000000
# 6 0.000000 0.000000 0.000000 -0.004971 0.000000 0.070265
#
#
# Mechanical properties :
#
#
# Convention : Reuss Voigt Hill
#
# Bulk Modulus (GPa) = 47.29743 82.43781 64.86762
# Shear Modulus (GPa) = 24.69409 31.83220 28.26314
#
# Velocity S-wave (km/s) = 3.64007 4.13282 3.89425
# Velocity P-wave (km/s) = 6.56088 8.18580 7.41797
#
# Compressibility (1/GPa) = 0.02114280
#
# Stress axis : x y z
#
# Youngs Moduli (GPa) = 66.83820 52.16317 139.30183
#
# Poissons Ratio (x) = 0.05015 0.83122
# Poissons Ratio (y) = 0.06426 0.43957
# Poissons Ratio (z) = 0.39883 0.16460
#
# Static dielectric constant tensor:
#      x y z
#    x 1.618040 0.000000 -0.007670 
#    y 0.000000 1.615640 0.000000 
#    z -0.007670 0.000000 1.669000 
# 
# From -- ./inp_files/242831.got.cif
#   From: 2010.05.17/outbox.cif.g08.bks.cpg/sg12_122_cif.got.tgz:242831.got - 2010.06.03 13:09:07.
