data_PCOD9173526
_publ_section_title
;
Structure prediction by ZEFSAII (Michael W. Deem and Ramdas Pophale) SiO2 
 PCOD9173526
Probable space group: C 2/M
;
_chemical_formula_sum "Si O2"
_cell_formula_units_Z 56
_cell_length_a 11.759249
_cell_length_b 15.144861
_cell_length_c 17.914262
_cell_angle_alpha 90.000000
_cell_angle_beta 65.093708
_cell_angle_gamma 90.000000
_cell_volume 2893.676786
_symmetry_space_group_name_H-M "C 2/M"
_symmetry_group_IT_number 12
_symmetry_cell_setting 'monoclinic'
loop_
_space_group_symop_operation_xyz
x,y,z
-x,y,-z
-x,-y,-z
x,-y,z
1/2+x,1/2+y,z
1/2-x,1/2+y,-z
1/2-x,1/2-y,-z
1/2+x,1/2-y,z
loop_
_atom_site_type_symbol
_atom_site_label
_atom_site_fract_x
_atom_site_fract_y
_atom_site_fract_z
Si Si1 0.211559 0.900487 0.151275
Si Si2 0.784202 0.399504 0.291098
Si Si3 0.963508 0.155876 0.278232
Si Si4 0.927052 0.216014 0.596973
Si Si5 0.881353 0.605278 0.978359
Si Si6 0.682148 0.896331 0.315853
Si Si7 0.054964 0.347548 0.205278
O O1 0.264504 0.859270 0.213027
O O2 0.064591 0.903471 0.206811
O O3 0.264429 0.000000 0.137637
O O4 0.262016 0.862504 0.059993
O O5 0.732851 0.500000 0.308484
O O6 0.706888 0.335111 0.366242
O O7 0.932217 0.404331 0.259637
O O8 0.823792 0.124198 0.302328
O O9 0.997634 0.167742 0.356359
O O10 0.000569 0.250756 0.235117
O O11 0.902832 0.319415 0.622522
O O12 0.000000 0.207245 0.500000
O O13 0.871763 0.500000 0.967108
O O14 0.902480 0.645264 0.891483
O O15 0.000000 0.620454 0.000000
O O16 0.662333 0.875650 0.233451
O O17 0.652748 0.000000 0.338645
#
# Coordination Sequence:
#
# PCOD9173526 Si02
#       7
#     8   8   8   8   8   8   8
#     4   9  18  33  56  84 114 153 199 246 296 343
#     4  10  18  35  61  88 119 154 196 249 302 350
#     4  10  22  40  61  82 121 160 196 242 301 360
#     4  10  23  42  66  92 118 149 200 254 301 356
#     4  10  18  30  54  87 119 151 199 256 294 334
#     4  11  23  41  63  87 121 166 199 237 302 369
#     4  11  21  36  59  88 120 158 207 244 292 353
#
# _framework density 19.352542
#
# number of rings (size 3 to 8) (size 9 to 14) (size 15 to 20)
#    0.000    1.857    2.857    1.714    0.000    2.286 
#    0.000    0.714    0.000    2.571    0.000    0.000 
#    0.000    0.000    0.000    0.000    0.000    0.000 
#
# Total GULP energy -155998.700595 kJ/mol
# GULP energy per Si atom -5571.382164 kJ/mol
# Density = 1.930849 g / cm^3
# Si number density = 19.352542 Si / 1000 Ang^3
#
#
#
# Elastic Constant Matrix: (Units=GPa)
#
#
# Indices 1 2 3 4 5 6 
#
# 1 89.1762 4.9489 39.6289 0.0000 0.2724 0.0000
# 2 4.9489 94.7350 35.4503 0.0000 -3.4952 0.0000
# 3 39.6289 35.4503 176.9924 0.0000 -9.4584 0.0000
# 4 0.0000 0.0000 0.0000 3.1366 0.0000 4.3996
# 5 0.2724 -3.4952 -9.4584 0.0000 15.8632 0.0000
# 6 0.0000 0.0000 0.0000 4.3996 0.0000 10.9606
#
#
#
# Elastic Compliance Matrix: (Units=1/GPa)
#
#
# Indices 1 2 3 4 5 6 
#
# 1 0.012524 0.000392 -0.002985 0.000000 -0.001908 0.000000
# 2 0.000392 0.011445 -0.002320 0.000000 0.001132 0.000000
# 3 -0.002985 -0.002320 0.006981 0.000000 0.003702 0.000000
# 4 0.000000 0.000000 0.000000 0.729613 0.000000 -0.292866
# 5 -0.001908 0.001132 0.003702 0.000000 0.065529 0.000000
# 6 0.000000 0.000000 0.000000 -0.292866 0.000000 0.208792
#
#
# Mechanical properties :
#
#
# Convention : Reuss Voigt Hill
#
# Bulk Modulus (GPa) = 47.33595 57.88443 52.61019
# Shear Modulus (GPa) = 4.75398 24.71710 14.73554
#
# Velocity S-wave (km/s) = 1.56903 3.57767 2.76239
# Velocity P-wave (km/s) = 5.27213 6.85870 6.11707
#
# Compressibility (1/GPa) = 0.02112559
#
# Stress axis : x y z
#
# Youngs Moduli (GPa) = 79.84547 87.37384 143.25169
#
# Poissons Ratio (x) = -0.03427 0.42757
# Poissons Ratio (y) = -0.03132 0.33230
# Poissons Ratio (z) = 0.23832 0.20268
#
# Static dielectric constant tensor:
#      x y z
#    x 1.728500 0.000000 -0.010250 
#    y 0.000000 1.819830 0.000000 
#    z -0.010250 0.000000 1.676740 
# 
# From -- ./inp_files/262836.got.cif
#   From: 2010.05.17/outbox.cif.g08.bks.cpg/sg12_132_cif.got.tgz:262836.got - 2010.06.03 13:09:07.
