data_PCOD9173333
_publ_section_title
;
Structure prediction by ZEFSAII (Michael W. Deem and Ramdas Pophale) SiO2 
 PCOD9173333
Probable space group: C 2/M
;
_chemical_formula_sum "Si O2"
_cell_formula_units_Z 64
_cell_length_a 11.937978
_cell_length_b 26.965529
_cell_length_c 19.398409
_cell_angle_alpha 90.000000
_cell_angle_beta 31.182379
_cell_angle_gamma 90.000000
_cell_volume 3233.237567
_symmetry_space_group_name_H-M "C 2/M"
_symmetry_group_IT_number 12
_symmetry_cell_setting 'monoclinic'
loop_
_space_group_symop_operation_xyz
x,y,z
-x,y,-z
-x,-y,-z
x,-y,z
1/2+x,1/2+y,z
1/2-x,1/2+y,-z
1/2-x,1/2-y,-z
1/2+x,1/2-y,z
loop_
_atom_site_type_symbol
_atom_site_label
_atom_site_fract_x
_atom_site_fract_y
_atom_site_fract_z
Si Si1 0.711090 0.055530 0.570817
Si Si2 0.242271 0.708541 0.712501
Si Si3 0.069109 0.689259 0.385930
Si Si4 0.982844 0.367322 0.925834
Si Si5 0.862429 0.053636 0.892241
Si Si6 0.857899 0.423833 0.643751
Si Si7 0.275100 0.667496 0.550302
Si Si8 0.667807 0.553273 0.256874
O O1 0.500293 0.058797 0.633472
O O2 0.733817 0.109783 0.594518
O O3 0.922928 0.057614 0.410632
O O4 0.716147 0.000000 0.601781
O O5 0.284669 0.764748 0.713152
O O6 0.203266 0.701998 0.651458
O O7 0.474619 0.679876 0.598412
O O8 0.046291 0.683631 0.856522
O O9 0.175099 0.635376 0.334900
O O10 0.000000 0.702113 0.500000
O O11 0.866739 0.680673 0.441763
O O12 0.175592 0.404078 0.801730
O O13 0.767386 0.397173 0.017323
O O14 0.000000 0.362011 0.000000
O O15 0.829175 0.053559 0.827287
O O16 0.118206 0.055080 0.769288
O O17 0.780064 0.000000 0.962034
O O18 0.000000 0.434605 0.500000
O O19 0.750169 0.500000 0.237514
#
# Coordination Sequence:
#
# PCOD9173333 Si02
#       8
#     8   8   8   8   8   8   8   8
#     4  10  18  30  51  81 118 150 178 232 295 351
#     4  11  21  38  59  83 118 158 195 242 301 343
#     4  10  21  35  60  90 117 153 192 246 304 349
#     4  10  21  35  54  80 113 154 196 236 280 354
#     4  10  19  32  51  79 115 154 193 239 291 347
#     4  10  19  31  52  84 114 143 193 247 297 344
#     4  10  21  37  58  90 121 151 193 247 294 362
#     4   9  16  28  47  75 112 148 181 228 283 337
#
# _framework density 19.794401000000001
#
# number of rings (size 3 to 8) (size 9 to 14) (size 15 to 20)
#    0.000    2.000    3.750    1.125    0.000    2.000 
#    0.000    3.125    0.000    2.250    0.000    4.375 
#    0.000    0.000    0.000    0.000    0.000    0.000 
#
# Total GULP energy -178335.257661 kJ/mol
# GULP energy per Si atom -5572.976802 kJ/mol
# Density = 1.974935 g / cm^3
# Si number density = 19.794401 Si / 1000 Ang^3
#
#
#
# Elastic Constant Matrix: (Units=GPa)
#
#
# Indices 1 2 3 4 5 6 
#
# 1 50.9209 8.8824 16.5241 -0.0140 -4.1167 0.0038
# 2 8.8824 107.1649 30.5180 0.0085 -1.1879 -0.0104
# 3 16.5241 30.5180 74.7996 0.0123 -12.2452 -0.0158
# 4 -0.0140 0.0085 0.0123 32.0680 0.0114 -12.3339
# 5 -4.1167 -1.1879 -12.2452 0.0114 17.9111 -0.0004
# 6 0.0038 -0.0104 -0.0158 -12.3339 -0.0004 23.5839
#
#
#
# Elastic Compliance Matrix: (Units=1/GPa)
#
#
# Indices 1 2 3 4 5 6 
#
# 1 0.021241 -0.000561 -0.004133 0.000010 0.002019 -0.000001
# 2 -0.000561 0.010676 -0.004658 0.000000 -0.002606 0.000002
# 3 -0.004133 -0.004658 0.017990 -0.000009 0.011040 0.000006
# 4 0.000010 0.000000 -0.000009 0.039036 -0.000028 0.020415
# 5 0.002019 -0.002606 0.011040 -0.000028 0.063671 -0.000008
# 6 -0.000001 0.000002 0.000006 0.020415 -0.000008 0.053078
#
#
# Mechanical properties :
#
#
# Convention : Reuss Voigt Hill
#
# Bulk Modulus (GPa) = 32.04945 38.30380 35.17663
# Shear Modulus (GPa) = 21.29510 26.50999 23.90254
#
# Velocity S-wave (km/s) = 3.28352 3.66357 3.47874
# Velocity P-wave (km/s) = 5.53188 6.10643 5.82624
#
# Compressibility (1/GPa) = 0.03120179
#
# Stress axis : x y z
#
# Youngs Moduli (GPa) = 47.07974 93.67172 55.58663
#
# Poissons Ratio (x) = 0.05257 0.22972
# Poissons Ratio (y) = 0.02642 0.25893
# Poissons Ratio (z) = 0.19457 0.43634
#
# Static dielectric constant tensor:
#      x y z
#    x 1.689430 0.000000 0.007960 
#    y 0.000000 1.797010 0.000020 
#    z 0.007960 0.000020 1.681190 
# 
# From -- ./inp_files/307473.got.cif
#   From: 2010.05.17/outbox.cif.g08.bks.cpg/sg12_154_cif.got.tgz:307473.got - 2010.06.03 13:09:07.
