data_PCOD9173695
_publ_section_title
;
Structure prediction by ZEFSAII (Michael W. Deem and Ramdas Pophale) SiO2 
 PCOD9173695
Probable space group: C 2/M
;
_chemical_formula_sum "Si O2"
_cell_formula_units_Z 40
_cell_length_a 16.818930
_cell_length_b 25.014860
_cell_length_c 14.023669
_cell_angle_alpha 90.000000
_cell_angle_beta 156.241352
_cell_angle_gamma 90.000000
_cell_volume 2377.053830
_symmetry_space_group_name_H-M "C 2/M"
_symmetry_group_IT_number 12
_symmetry_cell_setting 'monoclinic'
loop_
_space_group_symop_operation_xyz
x,y,z
-x,y,-z
-x,-y,-z
x,-y,z
1/2+x,1/2+y,z
1/2-x,1/2+y,-z
1/2-x,1/2-y,-z
1/2+x,1/2-y,z
loop_
_atom_site_type_symbol
_atom_site_label
_atom_site_fract_x
_atom_site_fract_y
_atom_site_fract_z
Si Si1 0.020827 0.254182 0.636405
Si Si2 0.388438 0.558594 0.223592
Si Si3 0.828797 0.666359 0.049713
Si Si4 0.640592 0.805074 0.233153
Si Si5 0.729732 0.918820 0.259569
O O1 0.098567 0.307526 0.772257
O O2 0.000000 0.258528 0.500000
O O3 0.810958 0.235364 0.448729
O O4 0.172205 0.207246 0.831024
O O5 0.336396 0.500000 0.127921
O O6 0.626459 0.561974 0.497888
O O7 0.315574 0.563315 0.253006
O O8 0.279277 0.609380 0.057411
O O9 0.013865 0.668850 0.179388
O O10 0.735002 0.854777 0.278838
O O11 0.500000 0.778023 0.000000
O O12 0.500000 0.934213 0.000000
#
# Coordination Sequence:
#
# PCOD9173695 Si02
#       5
#     8   8   8   8   8
#     4  11  21  36  56  74 104 135 175 214 256 304
#     4  11  21  32  47  74 107 137 176 208 247 309
#     4  11  22  35  52  79 103 138 171 211 260 303
#     4  11  18  32  54  75 110 134 164 206 252 314
#     4  10  18  31  49  71 106 139 166 199 247 309
#
# _framework density 16.827553999999999
#
# number of rings (size 3 to 8) (size 9 to 14) (size 15 to 20)
#    0.000    1.200    8.000    1.800    0.000    1.600 
#    0.000    0.000    0.000    0.600    0.000    0.000 
#    0.000    2.400    0.000    0.000    0.000    0.000 
#
# Total GULP energy -111424.471579 kJ/mol
# GULP energy per Si atom -5571.223579 kJ/mol
# Density = 1.678925 g / cm^3
# Si number density = 16.827554 Si / 1000 Ang^3
#
#
#
# Elastic Constant Matrix: (Units=GPa)
#
#
# Indices 1 2 3 4 5 6 
#
# 1 37.3971 18.2619 26.8808 0.0000 -7.9157 0.0000
# 2 18.2619 129.1343 58.6830 0.0000 -12.1001 0.0000
# 3 26.8808 58.6830 100.1787 0.0000 2.4082 0.0001
# 4 0.0000 0.0000 0.0000 16.8384 0.0000 -12.6156
# 5 -7.9157 -12.1001 2.4082 0.0000 25.2983 0.0000
# 6 0.0000 0.0000 0.0001 -12.6156 0.0000 24.5229
#
#
#
# Elastic Compliance Matrix: (Units=1/GPa)
#
#
# Indices 1 2 3 4 5 6 
#
# 1 0.036723 0.000867 -0.010672 0.000000 0.012921 0.000000
# 2 0.000867 0.011446 -0.007092 0.000000 0.006421 0.000000
# 3 -0.010672 -0.007092 0.017201 0.000000 -0.008369 0.000000
# 4 0.000000 0.000000 0.000000 0.096633 0.000000 0.049712
# 5 0.012921 0.006421 -0.008369 0.000000 0.047439 0.000000
# 6 0.000000 0.000000 0.000000 0.049712 0.000000 0.066352
#
#
# Mechanical properties :
#
#
# Convention : Reuss Voigt Hill
#
# Bulk Modulus (GPa) = 31.66956 52.70681 42.18819
# Shear Modulus (GPa) = 15.61949 24.19089 19.90519
#
# Velocity S-wave (km/s) = 3.04996 3.79565 3.44305
# Velocity P-wave (km/s) = 5.59141 7.11330 6.39777
#
# Compressibility (1/GPa) = 0.03157606
#
# Stress axis : x y z
#
# Youngs Moduli (GPa) = 27.23103 87.37014 58.13526
#
# Poissons Ratio (x) = -0.07579 0.62045
# Poissons Ratio (y) = -0.02362 0.41228
# Poissons Ratio (z) = 0.29062 0.61960
#
# Static dielectric constant tensor:
#      x y z
#    x 1.587010 0.000000 0.039880 
#    y 0.000000 1.600680 0.000000 
#    z 0.039880 0.000000 1.645650 
# 
# From -- ./inp_files/227958.got.cif
#   From: 2010.05.17/outbox.cif.g08.bks.cpg/sg12_114_cif.got.tgz:227958.got - 2010.06.03 13:09:07.
