data_PCOD9173656
_publ_section_title
;
Structure prediction by ZEFSAII (Michael W. Deem and Ramdas Pophale) SiO2 
 PCOD9173656
Probable space group: C 2/M
;
_chemical_formula_sum "Si O2"
_cell_formula_units_Z 32
_cell_length_a 14.000806
_cell_length_b 18.953544
_cell_length_c 11.454172
_cell_angle_alpha 90.000000
_cell_angle_beta 144.790790
_cell_angle_gamma 90.000000
_cell_volume 1752.485496
_symmetry_space_group_name_H-M "C 2/M"
_symmetry_group_IT_number 12
_symmetry_cell_setting 'monoclinic'
loop_
_space_group_symop_operation_xyz
x,y,z
-x,y,-z
-x,-y,-z
x,-y,z
1/2+x,1/2+y,z
1/2-x,1/2+y,-z
1/2-x,1/2-y,-z
1/2+x,1/2-y,z
loop_
_atom_site_type_symbol
_atom_site_label
_atom_site_fract_x
_atom_site_fract_y
_atom_site_fract_z
Si Si1 0.662857 0.284240 0.024178
Si Si2 0.796916 0.160216 0.602855
Si Si3 0.697451 0.922151 0.712385
Si Si4 0.827540 0.211085 0.393321
O O1 0.745962 0.357575 0.149799
O O2 0.694331 0.229010 0.160714
O O3 0.750000 0.250000 0.000000
O O4 0.474952 0.304975 0.808908
O O5 0.775959 0.092570 0.663101
O O6 0.663983 0.216182 0.522341
O O7 0.717098 0.344915 0.550602
O O8 0.500000 0.920058 0.500000
O O9 0.254777 0.000000 0.196875
O O10 0.000000 0.197117 0.500000
#
# Coordination Sequence:
#
# PCOD9173656 Si02
#       4
#     8   8   8   8
#     4  11  20  32  54  86 114 145 184 231 278 329
#     4  10  20  31  53  79 107 149 178 228 279 322
#     4  10  22  39  57  79 112 150 188 231 278 334
#     4  10  18  31  48  76 114 136 178 227 276 323
#
# _framework density 18.259781
#
# number of rings (size 3 to 8) (size 9 to 14) (size 15 to 20)
#    0.000    1.750    2.500    6.000    3.500    2.000 
#    0.000    0.000    0.000    2.250    0.000    3.500 
#    0.000    0.000    0.000    0.000    0.000    0.000 
#
# Total GULP energy -89168.139028 kJ/mol
# GULP energy per Si atom -5573.008689 kJ/mol
# Density = 1.821822 g / cm^3
# Si number density = 18.259781 Si / 1000 Ang^3
#
#
#
# Elastic Constant Matrix: (Units=GPa)
#
#
# Indices 1 2 3 4 5 6 
#
# 1 154.0283 40.9003 37.4753 0.0000 -9.2491 0.0000
# 2 40.9003 78.7248 25.4419 0.0000 -6.6928 0.0000
# 3 37.4753 25.4419 75.7204 0.0000 -10.9026 0.0000
# 4 0.0000 0.0000 0.0000 13.0144 0.0000 -3.6089
# 5 -9.2491 -6.6928 -10.9026 0.0000 32.5154 0.0000
# 6 0.0000 0.0000 0.0000 -3.6089 0.0000 18.2144
#
#
#
# Elastic Compliance Matrix: (Units=1/GPa)
#
#
# Indices 1 2 3 4 5 6 
#
# 1 0.008075 -0.003228 -0.002813 0.000000 0.000690 0.000000
# 2 -0.003228 0.015600 -0.003482 0.000000 0.001125 0.000000
# 3 -0.002813 -0.003482 0.016339 0.000000 0.003962 0.000000
# 4 0.000000 0.000000 0.000000 0.081305 0.000000 0.016109
# 5 0.000690 0.001125 0.003962 0.000000 0.032511 0.000000
# 6 0.000000 0.000000 0.000000 0.016109 0.000000 0.058093
#
#
# Mechanical properties :
#
#
# Convention : Reuss Voigt Hill
#
# Bulk Modulus (GPa) = 47.68894 57.34539 52.51716
# Shear Modulus (GPa) = 21.01206 26.39259 23.70232
#
# Velocity S-wave (km/s) = 3.39592 3.80596 3.60677
# Velocity P-wave (km/s) = 6.44593 7.12652 6.79475
#
# Compressibility (1/GPa) = 0.02096922
#
# Stress axis : x y z
#
# Youngs Moduli (GPa) = 123.83691 64.10087 61.20324
#
# Poissons Ratio (x) = 0.20690 0.17215
# Poissons Ratio (y) = 0.39971 0.21312
# Poissons Ratio (z) = 0.34832 0.22321
#
# Static dielectric constant tensor:
#      x y z
#    x 1.688120 0.000000 -0.008900 
#    y 0.000000 1.622540 0.000000 
#    z -0.008900 0.000000 1.677170 
# 
# From -- ./inp_files/215141.got.cif
#   From: 2010.05.17/outbox.cif.g08.bks.cpg/sg12_108_cif.got.tgz:215141.got - 2010.06.03 13:09:07.
