data_PCOD9173589
_publ_section_title
;
Structure prediction by ZEFSAII (Michael W. Deem and Ramdas Pophale) SiO2 
 PCOD9173589
Probable space group: C 2/M
;
_chemical_formula_sum "Si O2"
_cell_formula_units_Z 64
_cell_length_a 9.766071
_cell_length_b 27.099612
_cell_length_c 15.622275
_cell_angle_alpha 90.000000
_cell_angle_beta 96.174422
_cell_angle_gamma 90.000000
_cell_volume 4110.556147
_symmetry_space_group_name_H-M "C 2/M"
_symmetry_group_IT_number 12
_symmetry_cell_setting 'monoclinic'
loop_
_space_group_symop_operation_xyz
x,y,z
-x,y,-z
-x,-y,-z
x,-y,z
1/2+x,1/2+y,z
1/2-x,1/2+y,-z
1/2-x,1/2-y,-z
1/2+x,1/2-y,z
loop_
_atom_site_type_symbol
_atom_site_label
_atom_site_fract_x
_atom_site_fract_y
_atom_site_fract_z
Si Si1 0.827689 0.196777 0.172126
Si Si2 0.279730 0.803287 0.459330
Si Si3 0.588048 0.709006 0.300298
Si Si4 0.125962 0.556542 0.074898
Si Si5 0.858857 0.871667 0.019529
Si Si6 0.939443 0.317746 0.627341
Si Si7 0.230539 0.691359 0.857184
Si Si8 0.945958 0.637175 0.798125
O O1 0.890971 0.162230 0.103619
O O2 0.805494 0.251159 0.132296
O O3 0.682033 0.171883 0.183525
O O4 0.931271 0.199860 0.259952
O O5 0.250000 0.750000 0.500000
O O6 0.150383 0.816205 0.390159
O O7 0.329838 0.832101 0.546865
O O8 0.414771 0.804074 0.407498
O O9 0.600600 0.767361 0.324245
O O10 0.680955 0.693375 0.225060
O O11 0.165681 0.500000 0.094218
O O12 0.246189 0.588602 0.039645
O O13 0.078745 0.585548 0.156810
O O14 0.000000 0.556934 0.000000
O O15 0.804986 0.835378 0.941032
O O16 0.000000 0.896381 0.000000
O O17 0.951745 0.361162 0.696249
O O18 0.088057 0.662166 0.836283
#
# Coordination Sequence:
#
# PCOD9173589 Si02
#       8
#     8   8   8   8   8   8   8   8
#     4  11  21  31  46  71 110 143 180 209 243 298
#     4   9  19  29  45  69 101 144 183 208 246 294
#     4  11  18  30  47  67 103 147 177 207 240 288
#     4  10  22  41  59  76  99 129 174 227 270 313
#     4  11  23  35  50  78 102 137 176 215 256 313
#     4  10  18  31  46  70 104 140 178 215 243 299
#     4  12  19  33  47  72 108 146 171 207 248 300
#     4  11  21  33  55  74  99 140 178 208 260 309
#
# _framework density 15.56967
#
# number of rings (size 3 to 8) (size 9 to 14) (size 15 to 20)
#    0.000    1.375    6.250    0.375    1.750    0.250 
#    0.000    0.000    0.000    0.000    0.000    1.750 
#    0.000    4.000    0.000    0.000    0.000    0.125 
#
# Total GULP energy -178248.155587 kJ/mol
# GULP energy per Si atom -5570.254862 kJ/mol
# Density = 1.553423 g / cm^3
# Si number density = 15.569670 Si / 1000 Ang^3
#
#
#
# Elastic Constant Matrix: (Units=GPa)
#
#
# Indices 1 2 3 4 5 6 
#
# 1 68.0563 22.9072 24.7286 0.0000 4.4023 0.0000
# 2 22.9072 76.6594 34.0697 0.0000 -0.4754 0.0000
# 3 24.7286 34.0697 101.6571 0.0000 9.8853 0.0000
# 4 0.0000 0.0000 0.0000 7.3488 0.0000 3.2896
# 5 4.4023 -0.4754 9.8853 0.0000 31.3488 0.0000
# 6 0.0000 0.0000 0.0000 3.2896 0.0000 9.8933
#
#
#
# Elastic Compliance Matrix: (Units=1/GPa)
#
#
# Indices 1 2 3 4 5 6 
#
# 1 0.017095 -0.003924 -0.002686 0.000000 -0.001613 0.000000
# 2 -0.003924 0.016340 -0.004745 0.000000 0.002295 0.000000
# 3 -0.002686 -0.004745 0.012432 0.000000 -0.003615 0.000000
# 4 0.000000 0.000000 0.000000 0.159872 0.000000 -0.053159
# 5 -0.001613 0.002295 -0.003615 0.000000 0.033300 0.000000
# 6 0.000000 0.000000 0.000000 -0.053159 0.000000 0.118754
#
#
# Mechanical properties :
#
#
# Convention : Reuss Voigt Hill
#
# Bulk Modulus (GPa) = 43.18477 45.53151 44.35814
# Shear Modulus (GPa) = 12.87914 20.69601 16.78757
#
# Velocity S-wave (km/s) = 2.87922 3.64985 3.28719
# Velocity P-wave (km/s) = 6.23297 6.86069 6.55435
#
# Compressibility (1/GPa) = 0.02315631
#
# Stress axis : x y z
#
# Youngs Moduli (GPa) = 58.49633 61.19793 80.43614
#
# Poissons Ratio (x) = 0.24017 0.21608
# Poissons Ratio (y) = 0.22956 0.38166
# Poissons Ratio (z) = 0.15714 0.29038
#
# Static dielectric constant tensor:
#      x y z
#    x 1.559290 0.000000 0.002410 
#    y 0.000000 1.477070 0.000000 
#    z 0.002410 0.000000 1.560300 
# 
# From -- ./inp_files/199842.got.cif
#   From: 2010.05.17/outbox.cif.g08.bks.cpg/sg12_100_cif.got.tgz:199842.got - 2010.06.03 13:09:07.
