data_PCOD9173732
_publ_section_title
;
Structure prediction by ZEFSAII (Michael W. Deem and Ramdas Pophale) SiO2 
 PCOD9173732
Probable space group: C 2/M
;
_chemical_formula_sum "Si O2"
_cell_formula_units_Z 64
_cell_length_a 20.560194
_cell_length_b 7.315059
_cell_length_c 19.815161
_cell_angle_alpha 90.000000
_cell_angle_beta 89.253706
_cell_angle_gamma 90.000000
_cell_volume 2979.928234
_symmetry_space_group_name_H-M "C 2/M"
_symmetry_group_IT_number 12
_symmetry_cell_setting 'monoclinic'
loop_
_space_group_symop_operation_xyz
x,y,z
-x,y,-z
-x,-y,-z
x,-y,z
1/2+x,1/2+y,z
1/2-x,1/2+y,-z
1/2-x,1/2-y,-z
1/2+x,1/2-y,z
loop_
_atom_site_type_symbol
_atom_site_label
_atom_site_fract_x
_atom_site_fract_y
_atom_site_fract_z
Si Si1 0.101801 0.789783 0.928225
Si Si2 0.948955 0.223187 0.556858
Si Si3 0.199508 0.782504 0.441143
Si Si4 0.274269 0.221402 0.155158
Si Si5 0.347305 0.277763 0.930210
Si Si6 0.521816 0.722969 0.148117
Si Si7 0.554756 0.278228 0.291727
Si Si8 0.706094 0.722192 0.291580
O O1 0.155326 0.784631 0.868956
O O2 0.035098 0.710476 0.900239
O O3 0.086468 0.000000 0.946195
O O4 0.134892 0.711924 0.995119
O O5 0.874340 0.282670 0.544728
O O6 0.966311 0.279857 0.633225
O O7 0.000000 0.284432 0.500000
O O8 0.949454 0.000000 0.555850
O O9 0.250000 0.750000 0.500000
O O10 0.223025 0.716449 0.367158
O O11 0.193400 0.000000 0.434432
O O12 0.220445 0.283210 0.101130
O O13 0.250635 0.283141 0.229201
O O14 0.275069 0.000000 0.155020
O O15 0.343635 0.500000 0.931255
O O16 0.407622 0.227962 0.881552
O O17 0.518964 0.500000 0.148223
O O18 0.516278 0.782421 0.225965
O O19 0.553160 0.500000 0.292145
O O20 0.630608 0.227202 0.281688
O O21 0.708060 0.500000 0.289986
#
# Coordination Sequence:
#
# PCOD9173732 Si02
#       8
#     8   8   8   8   8   8   8   8
#     4  10  20  30  42  70 103 118 135 188 249 277
#     4   8  14  25  42  65  91 116 145 185 226 261
#     4   9  17  30  48  70  94 120 149 185 225 267
#     4  10  18  31  50  66  85 122 164 190 212 261
#     4   9  16  28  48  67  85 117 160 192 218 264
#     4   9  15  26  44  66  89 116 151 189 227 266
#     4   8  12  22  42  64  84 111 153 192 215 251
#     4   8  14  27  47  67  86 116 161 194 209 247
#
# _framework density 21.477027
#
# number of rings (size 3 to 8) (size 9 to 14) (size 15 to 20)
#    0.000    3.125    1.250    2.250    0.000    1.500 
#    2.250    0.625    0.000    2.625    0.000    0.875 
#    0.000    0.000    0.000    0.000    0.000    0.000 
#
# Total GULP energy -178573.767936 kJ/mol
# GULP energy per Si atom -5580.430248 kJ/mol
# Density = 2.142814 g / cm^3
# Si number density = 21.477027 Si / 1000 Ang^3
#
#
#
# Elastic Constant Matrix: (Units=GPa)
#
#
# Indices 1 2 3 4 5 6 
#
# 1 29.6792 -7.8127 -2.7640 0.0000 6.5271 0.0000
# 2 -7.8127 84.0439 -4.9936 0.0000 2.8800 0.0000
# 3 -2.7640 -4.9936 105.3311 0.0000 1.2598 0.0000
# 4 0.0000 0.0000 0.0000 -1.8877 0.0000 -2.7870
# 5 6.5271 2.8800 1.2598 0.0000 35.8168 0.0000
# 6 0.0000 0.0000 0.0000 -2.7870 0.0000 1.6284
#
#
#
# Elastic Compliance Matrix: (Units=1/GPa)
#
#
# Indices 1 2 3 4 5 6 
#
# 1 0.036306 0.003685 0.001211 0.000000 -0.006955 0.000000
# 2 0.003685 0.012341 0.000702 0.000000 -0.001689 0.000000
# 3 0.001211 0.000702 0.009566 0.000000 -0.000614 0.000000
# 4 0.000000 0.000000 0.000000 -0.150203 0.000000 -0.257070
# 5 -0.006955 -0.001689 -0.000614 0.000000 0.029345 0.000000
# 6 0.000000 0.000000 0.000000 -0.257070 0.000000 0.174116
#
#
# Mechanical properties :
#
#
# Convention : Reuss Voigt Hill
#
# Bulk Modulus (GPa) = 14.40744 20.87930 17.64337
# Shear Modulus (GPa) = 40.51474 22.75314 31.63394
#
# Velocity S-wave (km/s) = 4.34801 3.25840 3.84203
# Velocity P-wave (km/s) = 5.65064 4.88866 5.28341
#
# Compressibility (1/GPa) = 0.06940860
#
# Stress axis : x y z
#
# Youngs Moduli (GPa) = 27.54365 81.03268 104.53409
#
# Poissons Ratio (x) = -0.29863 -0.12655
# Poissons Ratio (y) = -0.10151 -0.07338
# Poissons Ratio (z) = -0.03334 -0.05688
#
# Static dielectric constant tensor:
#      x y z
#    x 1.722020 0.000000 0.013160 
#    y 0.000000 1.959190 0.000000 
#    z 0.013160 0.000000 1.790300 
# 
# From -- ./inp_files/276506.got.cif
#   From: 2010.05.17/outbox.cif.g08.bks.cpg/sg12_139_cif.got.tgz:276506.got - 2010.06.03 13:09:07.
