data_PCOD9173728
_publ_section_title
;
Structure prediction by ZEFSAII (Michael W. Deem and Ramdas Pophale) SiO2 
 PCOD9173728
Probable space group: C 2/M
;
_chemical_formula_sum "Si O2"
_cell_formula_units_Z 58
_cell_length_a 23.026380
_cell_length_b 12.411538
_cell_length_c 9.594152
_cell_angle_alpha 90.000000
_cell_angle_beta 95.835086
_cell_angle_gamma 90.000000
_cell_volume 2727.732493
_symmetry_space_group_name_H-M "C 2/M"
_symmetry_group_IT_number 12
_symmetry_cell_setting 'monoclinic'
loop_
_space_group_symop_operation_xyz
x,y,z
-x,y,-z
-x,-y,-z
x,-y,z
1/2+x,1/2+y,z
1/2-x,1/2+y,-z
1/2-x,1/2-y,-z
1/2+x,1/2-y,z
loop_
_atom_site_type_symbol
_atom_site_label
_atom_site_fract_x
_atom_site_fract_y
_atom_site_fract_z
Si Si1 0.360344 0.735934 0.291291
Si Si2 0.076226 0.879096 0.946085
Si Si3 0.525370 0.119990 0.660413
Si Si4 0.328816 0.278067 0.866633
Si Si5 0.716331 0.877650 0.926840
Si Si6 0.000000 0.000000 0.500000
Si Si7 0.979589 0.159926 0.720316
Si Si8 0.848828 0.875256 0.585929
O O1 0.385779 0.654860 0.181191
O O2 0.411213 0.824759 0.328687
O O3 0.309223 0.800878 0.200475
O O4 0.344654 0.677716 0.432323
O O5 0.010384 0.872253 0.870727
O O6 0.088244 0.000000 0.994768
O O7 0.104595 0.801070 0.069437
O O8 0.500000 0.111012 0.500000
O O9 0.484961 0.211515 0.718323
O O10 0.526518 0.000000 0.723560
O O11 0.285829 0.363174 0.932438
O O12 0.321910 0.300807 0.701201
O O13 0.307829 0.167096 0.931701
O O14 0.698989 0.000000 0.901040
O O15 0.981587 0.095617 0.384233
O O16 0.916780 0.120346 0.651844
O O17 0.827876 0.000000 0.581615
#
# Coordination Sequence:
#
# PCOD9173728 Si02
#       8
#     8   8   8   8   8   2   8   8
#     4  10  21  33  58  88 112 153 201 241 295 354
#     4  10  18  33  55  84 113 159 203 233 274 358
#     4  10  18  31  49  77 114 149 194 237 271 338
#     4  10  24  40  61  87 117 151 201 245 304 365
#     4  10  21  45  67  81 109 157 204 255 297 355
#     4  12  16  32  46  82 116 164 188 232 280 364
#     4  11  20  30  54  82 122 163 195 230 298 357
#     4  12  22  36  55  91 132 158 181 249 313 353
#
# _framework density 21.263082000000001
#
# number of rings (size 3 to 8) (size 9 to 14) (size 15 to 20)
#    0.000    1.517    3.448    2.897    0.000    1.103 
#    0.000    4.138    0.000    0.000    0.000    5.793 
#    0.000    0.000    0.000    0.000    0.000    0.000 
#
# Total GULP energy -161458.164875 kJ/mol
# GULP energy per Si atom -5567.522927 kJ/mol
# Density = 2.121469 g / cm^3
# Si number density = 21.263082 Si / 1000 Ang^3
#
#
#
# Elastic Constant Matrix: (Units=GPa)
#
#
# Indices 1 2 3 4 5 6 
#
# 1 55.3615 10.0189 0.2109 0.0000 11.0913 0.0000
# 2 10.0189 105.7140 36.3234 0.0000 -5.3658 0.0000
# 3 0.2109 36.3234 144.1054 0.0000 -5.6592 0.0000
# 4 0.0000 0.0000 0.0000 29.2838 0.0000 10.9261
# 5 11.0913 -5.3658 -5.6592 0.0000 24.6998 0.0000
# 6 0.0000 0.0000 0.0000 10.9261 0.0000 11.0516
#
#
#
# Elastic Compliance Matrix: (Units=1/GPa)
#
#
# Indices 1 2 3 4 5 6 
#
# 1 0.020455 -0.002506 0.000222 0.000000 -0.009679 0.000000
# 2 -0.002506 0.010732 -0.002589 0.000000 0.002864 0.000000
# 3 0.000222 -0.002589 0.007634 0.000000 0.001087 0.000000
# 4 0.000000 0.000000 0.000000 0.054108 0.000000 -0.053493
# 5 -0.009679 0.002864 0.001087 0.000000 0.045704 0.000000
# 6 0.000000 0.000000 0.000000 -0.053493 0.000000 0.143370
#
#
# Mechanical properties :
#
#
# Convention : Reuss Voigt Hill
#
# Bulk Modulus (GPa) = 34.39456 44.25414 39.32435
# Shear Modulus (GPa) = 16.58704 30.24887 23.41796
#
# Velocity S-wave (km/s) = 2.79603 3.77583 3.32225
# Velocity P-wave (km/s) = 5.16087 6.31403 5.76635
#
# Compressibility (1/GPa) = 0.02907437
#
# Stress axis : x y z
#
# Youngs Moduli (GPa) = 48.88819 93.18003 130.98743
#
# Poissons Ratio (x) = 0.23351 -0.02903
# Poissons Ratio (y) = 0.12251 0.33912
# Poissons Ratio (z) = -0.01083 0.24124
#
# Static dielectric constant tensor:
#      x y z
#    x 1.905070 0.000000 -0.079160 
#    y 0.000000 1.739730 0.000000 
#    z -0.079160 0.000000 1.843010 
# 
# From -- ./inp_files/110038.got.cif
#   From: 2010.05.17/outbox.cif.g08.bks.cpg/sg12_56_cif.got.tgz:110038.got - 2010.06.03 13:09:07.
