data_PCOD9173285
_publ_section_title
;
Structure prediction by ZEFSAII (Michael W. Deem and Ramdas Pophale) SiO2 
 PCOD9173285
Probable space group: C 2/M
;
_chemical_formula_sum "Si O2"
_cell_formula_units_Z 64
_cell_length_a 16.025978
_cell_length_b 7.570619
_cell_length_c 20.416034
_cell_angle_alpha 90.000000
_cell_angle_beta 108.739673
_cell_angle_gamma 90.000000
_cell_volume 2345.696456
_symmetry_space_group_name_H-M "C 2/M"
_symmetry_group_IT_number 12
_symmetry_cell_setting 'monoclinic'
loop_
_space_group_symop_operation_xyz
x,y,z
-x,y,-z
-x,-y,-z
x,-y,z
1/2+x,1/2+y,z
1/2-x,1/2+y,-z
1/2-x,1/2-y,-z
1/2+x,1/2-y,z
loop_
_atom_site_type_symbol
_atom_site_label
_atom_site_fract_x
_atom_site_fract_y
_atom_site_fract_z
Si Si1 0.547135 0.297389 0.949822
Si Si2 0.708614 0.716787 0.583123
Si Si3 0.938010 0.212390 0.543828
Si Si4 0.112236 0.217191 0.833833
Si Si5 0.901854 0.707449 0.673398
Si Si6 0.144202 0.201953 0.702474
Si Si7 0.839457 0.203455 0.790743
Si Si8 0.309264 0.793360 0.923586
O O1 0.514378 0.500000 0.935408
O O2 0.646427 0.303045 0.004443
O O3 0.500000 0.208712 0.000000
O O4 0.553096 0.219991 0.879116
O O5 0.709837 0.500000 0.584020
O O6 0.658494 0.775438 0.505186
O O7 0.806958 0.778818 0.623069
O O8 0.650044 0.775947 0.630992
O O9 0.960676 0.264082 0.623678
O O10 0.000000 0.270970 0.500000
O O11 0.938648 0.000000 0.543354
O O12 0.099030 0.281202 0.756038
O O13 0.211681 0.266761 0.879508
O O14 0.108883 0.000000 0.831505
O O15 0.895506 0.500000 0.682053
O O16 0.908453 0.784376 0.748080
O O17 0.249325 0.197098 0.747892
O O18 0.112914 0.000000 0.689078
O O19 0.864046 0.266434 0.869479
O O20 0.815067 0.000000 0.790422
O O21 0.306487 0.000000 0.937724
#
# Coordination Sequence:
#
# PCOD9173285 Si02
#       8
#     8   8   8   8   8   8   8   8
#     4  10  20  33  48  71 104 137 171 211 251 292
#     4   8  15  29  50  73  96 127 166 207 251 297
#     4  10  20  33  48  71 104 137 171 211 251 292
#     4   8  15  29  50  73  96 127 166 207 251 297
#     4  10  19  33  53  74  98 130 168 206 246 298
#     4   8  14  28  49  72  97 125 161 203 247 296
#     4  10  18  30  51  78 103 123 153 203 257 302
#     4  10  19  33  53  74  98 130 168 206 246 298
#
# _framework density 27.284006999999999
#
# number of rings (size 3 to 8) (size 9 to 14) (size 15 to 20)
#    0.000    2.750    0.000    4.125    0.000    0.500 
#    0.000    6.250    0.000    4.500    0.000    0.000 
#    0.000    0.000    0.000    0.000    0.000    0.000 
#
# Total GULP energy -178939.173520 kJ/mol
# GULP energy per Si atom -5591.849172 kJ/mol
# Density = 2.722191 g / cm^3
# Si number density = 27.284007 Si / 1000 Ang^3
#
#
#
# Elastic Constant Matrix: (Units=GPa)
#
#
# Indices 1 2 3 4 5 6 
#
# 1 78.0461 -2.9873 39.8456 0.0000 -22.4017 0.0000
# 2 -2.9873 93.0582 -5.2365 0.0000 2.1254 0.0000
# 3 39.8456 -5.2365 233.2859 0.0000 -22.6473 0.0000
# 4 0.0000 0.0000 0.0000 20.6383 0.0000 -1.3453
# 5 -22.4017 2.1254 -22.6473 0.0000 65.9880 0.0000
# 6 0.0000 0.0000 0.0000 -1.3453 0.0000 8.1127
#
#
#
# Elastic Compliance Matrix: (Units=1/GPa)
#
#
# Indices 1 2 3 4 5 6 
#
# 1 0.015191 0.000265 -0.002161 0.000000 0.004407 0.000000
# 2 0.000265 0.010769 0.000177 0.000000 -0.000196 0.000000
# 3 -0.002161 0.000177 0.004746 0.000000 0.000890 0.000000
# 4 0.000000 0.000000 0.000000 0.048983 0.000000 0.008123
# 5 0.004407 -0.000196 0.000890 0.000000 0.016962 0.000000
# 6 0.000000 0.000000 0.000000 0.008123 0.000000 0.124610
#
#
# Mechanical properties :
#
#
# Convention : Reuss Voigt Hill
#
# Bulk Modulus (GPa) = 36.67034 51.95931 44.31483
# Shear Modulus (GPa) = 21.38692 43.79904 32.59298
#
# Velocity S-wave (km/s) = 2.80279 4.01097 3.46002
# Velocity P-wave (km/s) = 4.89322 6.36676 5.67800
#
# Compressibility (1/GPa) = 0.02726999
#
# Stress axis : x y z
#
# Youngs Moduli (GPa) = 65.82730 92.85970 210.70333
#
# Poissons Ratio (x) = -0.02465 0.45531
# Poissons Ratio (y) = -0.01747 -0.03737
# Poissons Ratio (z) = 0.14225 -0.01647
#
# Static dielectric constant tensor:
#      x y z
#    x 2.305380 0.000000 -0.032090 
#    y 0.000000 1.980810 0.000000 
#    z -0.032090 0.000000 2.093050 
# 
# From -- ./inp_files/313978.got.cif
#   From: 2010.05.17/outbox.cif.g08.bks.cpg/sg12_157_cif.got.tgz:313978.got - 2010.06.03 13:09:07.
