data_PCOD9173083
_publ_section_title
;
Structure prediction by ZEFSAII (Michael W. Deem and Ramdas Pophale) SiO2 
 PCOD9173083
Probable space group: C 2/M
;
_chemical_formula_sum "Si O2"
_cell_formula_units_Z 48
_cell_length_a 32.559692
_cell_length_b 8.733192
_cell_length_c 9.547974
_cell_angle_alpha 90.000000
_cell_angle_beta 89.816567
_cell_angle_gamma 90.000000
_cell_volume 2714.952891
_symmetry_space_group_name_H-M "C 2/M"
_symmetry_group_IT_number 12
_symmetry_cell_setting 'monoclinic'
loop_
_space_group_symop_operation_xyz
x,y,z
-x,y,-z
-x,-y,-z
x,-y,z
1/2+x,1/2+y,z
1/2-x,1/2+y,-z
1/2-x,1/2-y,-z
1/2+x,1/2-y,z
loop_
_atom_site_type_symbol
_atom_site_label
_atom_site_fract_x
_atom_site_fract_y
_atom_site_fract_z
Si Si1 0.998162 0.177119 0.670437
Si Si2 0.912305 0.184966 0.345031
Si Si3 0.165792 0.184263 0.840739
Si Si4 0.587165 0.817847 0.344222
Si Si5 0.664728 0.815776 0.154231
Si Si6 0.249442 0.183351 0.158574
O O1 0.957243 0.265721 0.712559
O O2 0.000000 0.181040 0.500000
O O3 0.043092 0.236600 0.713835
O O4 0.993745 0.000000 0.712782
O O5 0.873753 0.227296 0.250291
O O6 0.907390 0.245979 0.502182
O O7 0.914422 0.000000 0.351788
O O8 0.208110 0.253611 0.779153
O O9 0.169265 0.000000 0.846569
O O10 0.160700 0.249062 0.997689
O O11 0.624852 0.773207 0.244385
O O12 0.587235 0.000000 0.358023
O O13 0.706710 0.747293 0.218603
O O14 0.668245 0.000000 0.146818
O O15 0.249323 0.000000 0.155437
O O16 0.250000 0.250000 0.000000
#
# Coordination Sequence:
#
# PCOD9173083 Si02
#       6
#     8   8   8   8   8   8
#     4   8  15  30  50  70  95 128 164 199 236 285
#     4   9  19  34  52  74  99 128 163 201 241 289
#     4  10  19  33  53  75  98 127 163 201 243 288
#     4  10  20  32  50  75 100 128 163 202 243 286
#     4  10  20  34  50  72 101 130 163 201 240 286
#     4  10  18  30  50  73  96 127 164 198 239 289
#
# _framework density 17.679863999999998
#
# number of rings (size 3 to 8) (size 9 to 14) (size 15 to 20)
#    0.000    2.500    0.000    6.000    0.000    7.000 
#    0.000    1.667    0.000    5.000    0.000    0.000 
#    0.000    0.000    0.000    0.000    0.000    0.000 
#
# Total GULP energy -133764.633999 kJ/mol
# GULP energy per Si atom -5573.526417 kJ/mol
# Density = 1.763962 g / cm^3
# Si number density = 17.679864 Si / 1000 Ang^3
#
#
#
# Elastic Constant Matrix: (Units=GPa)
#
#
# Indices 1 2 3 4 5 6 
#
# 1 226.0043 59.9415 63.8373 0.0000 2.0252 0.0000
# 2 59.9415 60.2144 20.6157 0.0000 -1.3355 0.0000
# 3 63.8373 20.6157 39.1959 0.0000 0.3812 0.0000
# 4 0.0000 0.0000 0.0000 18.4199 0.0000 -1.9979
# 5 2.0252 -1.3355 0.3812 0.0000 31.2490 0.0000
# 6 0.0000 0.0000 0.0000 -1.9979 0.0000 32.9014
#
#
#
# Elastic Compliance Matrix: (Units=1/GPa)
#
#
# Indices 1 2 3 4 5 6 
#
# 1 0.009277 -0.004975 -0.012486 0.000000 -0.000662 0.000000
# 2 -0.004975 0.022953 -0.003984 0.000000 0.001352 0.000000
# 3 -0.012486 -0.003984 0.047943 0.000000 0.000054 0.000000
# 4 0.000000 0.000000 0.000000 0.054649 0.000000 0.003319
# 5 -0.000662 0.001352 0.000054 0.000000 0.032101 0.000000
# 6 0.000000 0.000000 0.000000 0.003319 0.000000 0.030595
#
#
# Mechanical properties :
#
#
# Convention : Reuss Voigt Hill
#
# Bulk Modulus (GPa) = 26.82074 68.24483 47.53279
# Shear Modulus (GPa) = 19.77568 28.58206 24.17887
#
# Velocity S-wave (km/s) = 3.34809 4.02511 3.70211
# Velocity P-wave (km/s) = 5.49085 7.76442 6.72442
#
# Compressibility (1/GPa) = 0.03728457
#
# Stress axis : x y z
#
# Youngs Moduli (GPa) = 107.79605 43.56677 20.85796
#
# Poissons Ratio (x) = 0.21673 0.26043
# Poissons Ratio (y) = 0.53624 0.08310
# Poissons Ratio (z) = 1.34594 0.17357
#
# Static dielectric constant tensor:
#      x y z
#    x 1.664380 0.000000 0.006840 
#    y 0.000000 1.597700 0.000000 
#    z 0.006840 0.000000 1.578800 
# 
# From -- ./inp_files/179269.got.cif
#   From: 2010.05.17/outbox.cif.g08.bks.cpg/sg12_90_cif.got.tgz:179269.got - 2010.06.03 13:09:07.
