data_PCOD9173126
_publ_section_title
;
Structure prediction by ZEFSAII (Michael W. Deem and Ramdas Pophale) SiO2 
 PCOD9173126
Probable space group: C 2/M
;
_chemical_formula_sum "Si O2"
_cell_formula_units_Z 56
_cell_length_a 19.865850
_cell_length_b 8.714140
_cell_length_c 32.691468
_cell_angle_alpha 90.000000
_cell_angle_beta 145.559015
_cell_angle_gamma 90.000000
_cell_volume 3200.682185
_symmetry_space_group_name_H-M "C 2/M"
_symmetry_group_IT_number 12
_symmetry_cell_setting 'monoclinic'
loop_
_space_group_symop_operation_xyz
x,y,z
-x,y,-z
-x,-y,-z
x,-y,z
1/2+x,1/2+y,z
1/2-x,1/2+y,-z
1/2-x,1/2-y,-z
1/2+x,1/2-y,z
loop_
_atom_site_type_symbol
_atom_site_label
_atom_site_fract_x
_atom_site_fract_y
_atom_site_fract_z
Si Si1 0.147385 0.684104 0.420328
Si Si2 0.166400 0.816459 0.810543
Si Si3 0.269318 0.185189 0.945145
Si Si4 0.093292 0.314861 0.302718
Si Si5 0.687109 0.815158 0.261515
Si Si6 0.436050 0.814737 0.099410
Si Si7 0.376130 0.183316 0.297427
O O1 0.150679 0.500000 0.424823
O O2 0.250000 0.750000 0.500000
O O3 0.158728 0.724450 0.377938
O O4 0.014252 0.735057 0.366502
O O5 0.257229 0.767466 0.891896
O O6 0.182081 0.744375 0.773799
O O7 0.035562 0.764194 0.760161
O O8 0.170241 0.000000 0.808591
O O9 0.156915 0.249612 0.914100
O O10 0.262424 0.000000 0.942525
O O11 0.385426 0.230464 0.029498
O O12 0.073946 0.500000 0.292568
O O13 0.163155 0.273317 0.296691
O O14 0.569163 0.766405 0.177208
O O15 0.802253 0.743245 0.298682
O O16 0.695894 0.000000 0.263629
O O17 0.432645 0.000000 0.100501
O O18 0.375732 0.000000 0.296124
#
# Coordination Sequence:
#
# PCOD9173126 Si02
#       7
#     8   8   8   8   8   8   8
#     4   9  19  36  57  79 102 129 163 203 248 299
#     4  10  18  30  50  75 101 133 176 217 253 300
#     4   9  17  28  45  73 102 130 172 218 256 296
#     4   9  18  33  53  78 105 134 169 208 248 297
#     4  10  19  33  53  76 103 137 174 209 253 302
#     4   9  17  29  47  71 101 136 170 211 258 299
#     4  10  22  37  53  74 104 136 168 209 255 302
#
# _framework density 17.496271
#
# number of rings (size 3 to 8) (size 9 to 14) (size 15 to 20)
#    0.000    2.571    1.429    1.714    0.000    4.571 
#    0.000    1.429    0.000    8.571    0.000    0.000 
#    0.000    0.000    0.000    0.000    0.000    0.000 
#
# Total GULP energy -156085.232928 kJ/mol
# GULP energy per Si atom -5574.472605 kJ/mol
# Density = 1.745645 g / cm^3
# Si number density = 17.496271 Si / 1000 Ang^3
#
#
#
# Elastic Constant Matrix: (Units=GPa)
#
#
# Indices 1 2 3 4 5 6 
#
# 1 110.1991 25.2823 50.6568 0.0000 -9.2764 0.0000
# 2 25.2823 13.6183 22.9020 0.0000 -4.6706 -0.0001
# 3 50.6568 22.9020 125.0856 0.0000 -15.9710 0.0000
# 4 0.0000 0.0000 0.0000 21.3395 0.0000 -0.9529
# 5 -9.2764 -4.6706 -15.9710 0.0000 17.2716 0.0000
# 6 0.0000 -0.0001 0.0000 -0.9529 0.0000 28.8637
#
#
#
# Elastic Compliance Matrix: (Units=1/GPa)
#
#
# Indices 1 2 3 4 5 6 
#
# 1 0.016001 -0.027207 -0.001520 0.000000 -0.000169 0.000000
# 2 -0.027207 0.154663 -0.015675 0.000000 0.012717 0.000001
# 3 -0.001520 -0.015675 0.012285 0.000000 0.006305 0.000000
# 4 0.000000 0.000000 0.000000 0.046931 0.000000 0.001549
# 5 -0.000169 0.012717 0.006305 0.000000 0.067076 0.000000
# 6 0.000000 0.000001 0.000000 0.001549 0.000000 0.034697
#
#
# Mechanical properties :
#
#
# Convention : Reuss Voigt Hill
#
# Bulk Modulus (GPa) = 10.62208 49.62058 30.12133
# Shear Modulus (GPa) = 11.06587 23.49909 17.28248
#
# Velocity S-wave (km/s) = 2.51762 3.66880 3.14631
# Velocity P-wave (km/s) = 3.81254 6.80948 5.51835
#
# Compressibility (1/GPa) = 0.09414356
#
# Stress axis : x y z
#
# Youngs Moduli (GPa) = 62.49586 6.46567 81.39883
#
# Poissons Ratio (x) = 0.17591 0.12375
# Poissons Ratio (y) = 1.70033 1.27595
# Poissons Ratio (z) = 0.09501 0.10135
#
# Static dielectric constant tensor:
#      x y z
#    x 1.578930 0.000000 -0.022990 
#    y 0.000000 1.592700 0.000000 
#    z -0.022990 0.000000 1.608180 
# 
# From -- ./inp_files/314458.got.cif
#   From: 2010.05.17/outbox.cif.g08.bks.cpg/sg12_158_cif.got.tgz:314458.got - 2010.06.03 13:09:07.
