data_PCOD9173170
_publ_section_title
;
Structure prediction by ZEFSAII (Michael W. Deem and Ramdas Pophale) SiO2 
 PCOD9173170
Probable space group: C 2/M
;
_chemical_formula_sum "Si O2"
_cell_formula_units_Z 64
_cell_length_a 24.047307
_cell_length_b 13.811919
_cell_length_c 11.880320
_cell_angle_alpha 90.000000
_cell_angle_beta 107.169083
_cell_angle_gamma 90.000000
_cell_volume 3770.083969
_symmetry_space_group_name_H-M "C 2/M"
_symmetry_group_IT_number 12
_symmetry_cell_setting 'monoclinic'
loop_
_space_group_symop_operation_xyz
x,y,z
-x,y,-z
-x,-y,-z
x,-y,z
1/2+x,1/2+y,z
1/2-x,1/2+y,-z
1/2-x,1/2-y,-z
1/2+x,1/2-y,z
loop_
_atom_site_type_symbol
_atom_site_label
_atom_site_fract_x
_atom_site_fract_y
_atom_site_fract_z
Si Si1 0.713684 0.113031 0.414572
Si Si2 0.422769 0.887935 0.645249
Si Si3 0.600367 0.225498 0.588093
Si Si4 0.512412 0.723710 0.732842
Si Si5 0.596780 0.612232 0.400133
Si Si6 0.771342 0.289152 0.332515
Si Si7 0.439956 0.387682 0.034049
Si Si8 0.340507 0.384472 0.796759
O O1 0.644072 0.124638 0.353309
O O2 0.750695 0.182012 0.355931
O O3 0.725787 0.149565 0.548926
O O4 0.728326 0.000000 0.413607
O O5 0.419640 0.857631 0.511225
O O6 0.468188 0.813376 0.728200
O O7 0.438963 0.000000 0.668249
O O8 0.552409 0.246997 0.652021
O O9 0.609514 0.317930 0.511552
O O10 0.663784 0.205246 0.676565
O O11 0.469607 0.635428 0.673851
O O12 0.550864 0.686050 0.858566
O O13 0.605228 0.500000 0.430896
O O14 0.635221 0.638582 0.313932
O O15 0.721084 0.333701 0.226320
O O16 0.430494 0.500000 0.065273
O O17 0.500000 0.387209 0.000000
O O18 0.388386 0.359114 0.918492
O O19 0.333696 0.500000 0.796021
#
# Coordination Sequence:
#
# PCOD9173170 Si02
#       8
#     8   8   8   8   8   8   8   8
#     4   9  17  29  48  73 100 130 165 205 248 295
#     4   9  18  33  53  76 101 133 172 211 249 289
#     4  10  22  31  45  77 108 139 166 191 249 314
#     4  11  20  33  50  74 105 134 167 205 250 303
#     4  10  18  30  50  78 107 130 160 205 257 313
#     4  10  18  31  47  69 102 135 166 204 245 294
#     4  10  20  35  55  78 100 126 166 213 259 299
#     4  10  19  32  54  78  96 126 171 212 250 290
#
# _framework density 16.975749
#
# number of rings (size 3 to 8) (size 9 to 14) (size 15 to 20)
#    0.000    2.125    1.250    5.250    0.000    4.500 
#    0.000    0.625    0.000    1.125    0.000    0.000 
#    0.000    0.000    0.000    0.000    0.000    0.000 
#
# Total GULP energy -178506.113416 kJ/mol
# GULP energy per Si atom -5578.316044 kJ/mol
# Density = 1.693711 g / cm^3
# Si number density = 16.975749 Si / 1000 Ang^3
#
#
#
# Elastic Constant Matrix: (Units=GPa)
#
#
# Indices 1 2 3 4 5 6 
#
# 1 58.9319 11.5371 18.3976 0.0000 18.8956 0.0000
# 2 11.5371 84.3840 23.2985 0.0000 14.0513 0.0000
# 3 18.3976 23.2985 36.3707 0.0000 22.0567 0.0000
# 4 0.0000 0.0000 0.0000 14.9375 0.0000 2.5529
# 5 18.8956 14.0513 22.0567 0.0000 26.0013 0.0000
# 6 0.0000 0.0000 0.0000 2.5529 0.0000 15.7037
#
#
#
# Elastic Compliance Matrix: (Units=1/GPa)
#
#
# Indices 1 2 3 4 5 6 
#
# 1 0.022281 0.000064 -0.003030 0.000000 -0.013656 0.000000
# 2 0.000064 0.014397 -0.009285 0.000000 0.000049 0.000000
# 3 -0.003030 -0.009285 0.063014 0.000000 -0.046235 0.000000
# 4 0.000000 0.000000 0.000000 0.068859 0.000000 -0.011194
# 5 -0.013656 0.000049 -0.046235 0.000000 0.087578 0.000000
# 6 0.000000 0.000000 0.000000 -0.011194 0.000000 0.065499
#
#
# Mechanical properties :
#
#
# Convention : Reuss Voigt Hill
#
# Bulk Modulus (GPa) = 13.29956 31.79478 22.54717
# Shear Modulus (GPa) = 13.47014 19.75874 16.61444
#
# Velocity S-wave (km/s) = 2.81996 3.41536 3.13184
# Velocity P-wave (km/s) = 4.29585 5.85859 5.13699
#
# Compressibility (1/GPa) = 0.07519046
#
# Stress axis : x y z
#
# Youngs Moduli (GPa) = 44.88189 69.45801 15.86959
#
# Poissons Ratio (x) = -0.00446 0.04808
# Poissons Ratio (y) = -0.00288 0.14735
# Poissons Ratio (z) = 0.13598 0.64492
#
# Static dielectric constant tensor:
#      x y z
#    x 1.591130 0.000000 0.032500 
#    y 0.000000 1.581230 0.000000 
#    z 0.032500 0.000000 1.570280 
# 
# From -- ./inp_files/176138.got.cif
#   From: 2010.05.17/outbox.cif.g08.bks.cpg/sg12_89_cif.got.tgz:176138.got - 2010.06.03 13:09:07.
