data_PCOD9173065
_publ_section_title
;
Structure prediction by ZEFSAII (Michael W. Deem and Ramdas Pophale) SiO2 
 PCOD9173065
Probable space group: C 2/M
;
_chemical_formula_sum "Si O2"
_cell_formula_units_Z 56
_cell_length_a 32.928233
_cell_length_b 9.050513
_cell_length_c 21.006867
_cell_angle_alpha 90.000000
_cell_angle_beta 28.494850
_cell_angle_gamma 90.000000
_cell_volume 2986.715848
_symmetry_space_group_name_H-M "C 2/M"
_symmetry_group_IT_number 12
_symmetry_cell_setting 'monoclinic'
loop_
_space_group_symop_operation_xyz
x,y,z
-x,y,-z
-x,-y,-z
x,-y,z
1/2+x,1/2+y,z
1/2-x,1/2+y,-z
1/2-x,1/2-y,-z
1/2+x,1/2-y,z
loop_
_atom_site_type_symbol
_atom_site_label
_atom_site_fract_x
_atom_site_fract_y
_atom_site_fract_z
Si Si1 0.500445 0.324225 0.194594
Si Si2 0.176899 0.175569 0.234489
Si Si3 0.647143 0.830175 0.066086
Si Si4 0.541820 0.829316 0.341033
Si Si5 0.764046 0.679235 0.246915
Si Si6 0.540627 0.821650 0.011571
Si Si7 0.397633 0.678051 0.459645
O O1 0.496326 0.500000 0.193448
O O2 0.591374 0.275712 0.098630
O O3 0.433207 0.276386 0.341688
O O4 0.491741 0.246357 0.138924
O O5 0.092048 0.258256 0.330421
O O6 0.218808 0.223575 0.243315
O O7 0.159601 0.000000 0.261185
O O8 0.253156 0.200113 0.078564
O O9 0.608045 0.821340 0.190130
O O10 0.634707 0.000000 0.060147
O O11 0.459654 0.743314 0.428364
O O12 0.521349 0.000000 0.380863
O O13 0.767513 0.500000 0.240951
O O14 0.860835 0.729523 0.120442
O O15 0.698917 0.722380 0.392373
O O16 0.460954 0.000000 0.981152
O O17 0.500000 0.780910 0.000000
O O18 0.403704 0.500000 0.454663
#
# Coordination Sequence:
#
# PCOD9173065 Si02
#       7
#     8   8   8   8   8   8   8
#     4  10  19  32  54  81 108 138 170 214 264 313
#     4  10  18  30  50  72 100 138 182 226 260 302
#     4   9  17  31  50  72 102 139 181 222 258 307
#     4  10  20  31  46  73 108 142 177 223 266 304
#     4   9  18  35  57  78 101 136 181 221 255 306
#     4  10  20  37  62  86 106 132 171 216 261 314
#     4   9  19  36  55  74 103 145 185 212 250 311
#
# _framework density 18.749690999999999
#
# number of rings (size 3 to 8) (size 9 to 14) (size 15 to 20)
#    0.000    2.429    1.429    1.286    0.000    2.571 
#    0.000    5.000    0.000    0.000    0.000    0.000 
#    0.000    0.000    0.000    0.000    0.000    0.000 
#
# Total GULP energy -156218.561411 kJ/mol
# GULP energy per Si atom -5579.234336 kJ/mol
# Density = 1.870702 g / cm^3
# Si number density = 18.749691 Si / 1000 Ang^3
#
#
#
# Elastic Constant Matrix: (Units=GPa)
#
#
# Indices 1 2 3 4 5 6 
#
# 1 113.8994 28.4788 37.1126 -0.0007 1.2204 0.0002
# 2 28.4788 20.1397 16.4946 -0.0011 2.1753 0.0008
# 3 37.1126 16.4946 92.5131 -0.0015 3.8784 0.0005
# 4 -0.0007 -0.0011 -0.0015 15.0050 0.0003 2.2012
# 5 1.2204 2.1753 3.8784 0.0003 8.2931 -0.0002
# 6 0.0002 0.0008 0.0005 2.2012 -0.0002 24.0826
#
#
#
# Elastic Compliance Matrix: (Units=1/GPa)
#
#
# Indices 1 2 3 4 5 6 
#
# 1 0.014163 -0.018342 -0.002576 -0.000001 0.003932 0.000001
# 2 -0.018342 0.082828 -0.006744 0.000005 -0.015872 -0.000003
# 3 -0.002576 -0.006744 0.013214 0.000001 -0.004032 0.000000
# 4 -0.000001 0.000005 0.000001 0.067550 -0.000004 -0.006174
# 5 0.003932 -0.015872 -0.004032 -0.000004 0.126052 0.000002
# 6 0.000001 -0.000003 0.000000 -0.006174 0.000002 0.042088
#
#
# Mechanical properties :
#
#
# Convention : Reuss Voigt Hill
#
# Bulk Modulus (GPa) = 18.22153 43.41380 30.81767
# Shear Modulus (GPa) = 11.91853 19.10723 15.51288
#
# Velocity S-wave (km/s) = 2.52398 3.19575 2.87952
# Velocity P-wave (km/s) = 4.27005 6.06809 5.24667
#
# Compressibility (1/GPa) = 0.05488012
#
# Stress axis : x y z
#
# Youngs Moduli (GPa) = 70.60569 12.07318 75.67598
#
# Poissons Ratio (x) = 0.22145 0.19496
# Poissons Ratio (y) = 1.29507 0.51038
# Poissons Ratio (z) = 0.18189 0.08142
#
# Static dielectric constant tensor:
#      x y z
#    x 1.640170 0.000000 0.038500 
#    y 0.000000 1.632950 0.000000 
#    z 0.038500 0.000000 1.677760 
# 
# From -- ./inp_files/319649.got.cif
#   From: 2010.05.17/outbox.cif.g08.bks.cpg/sg12_160_cif.got.tgz:319649.got - 2010.06.03 13:09:07.
