data_PCOD9173956
_publ_section_title
;
Structure prediction by ZEFSAII (Michael W. Deem and Ramdas Pophale) SiO2 
 PCOD9173956
Probable space group: C 2/M
;
_chemical_formula_sum "Si O2"
_cell_formula_units_Z 34
_cell_length_a 23.942344
_cell_length_b 7.699473
_cell_length_c 10.865221
_cell_angle_alpha 90.000000
_cell_angle_beta 134.460790
_cell_angle_gamma 90.000000
_cell_volume 1429.552631
_symmetry_space_group_name_H-M "C 2/M"
_symmetry_group_IT_number 12
_symmetry_cell_setting 'monoclinic'
loop_
_space_group_symop_operation_xyz
x,y,z
-x,y,-z
-x,-y,-z
x,-y,z
1/2+x,1/2+y,z
1/2-x,1/2+y,-z
1/2-x,1/2-y,-z
1/2+x,1/2-y,z
loop_
_atom_site_type_symbol
_atom_site_label
_atom_site_fract_x
_atom_site_fract_y
_atom_site_fract_z
Si Si1 0.117830 0.199973 0.876963
Si Si2 0.980273 0.500000 0.166474
Si Si3 0.500000 0.500000 0.500000
Si Si4 0.630125 0.000000 0.246425
Si Si5 0.274815 0.303320 0.712961
Si Si6 0.120486 0.702069 0.618084
O O1 0.155646 0.272869 0.810986
O O2 0.048471 0.329479 0.807150
O O3 0.090431 0.000000 0.807120
O O4 0.175395 0.198144 0.082020
O O5 0.070538 0.500000 0.267506
O O6 0.927809 0.500000 0.961245
O O7 0.554087 0.345248 0.518005
O O8 0.684001 0.831551 0.313552
O O9 0.278216 0.500000 0.671562
O O10 0.187183 0.262042 0.620669
O O11 0.095636 0.500000 0.571560
#
# Coordination Sequence:
#
# PCOD9173956 Si02
#       6
#     8   4   2   4   8   8
#     4  10  18  31  51  78 108 137 171 210 259 307
#     4   9  18  30  46  73 110 144 171 206 246 314
#     4  12  24  36  50  74 108 144 170 210 266 316
#     4   9  17  30  47  73 110 144 171 200 257 308
#     4   9  19  31  51  79 105 138 171 213 256 304
#     4  11  21  35  52  76 106 135 175 214 259 312
#
# _framework density 23.783664000000002
#
# number of rings (size 3 to 8) (size 9 to 14) (size 15 to 20)
#    0.000    2.118    2.353    1.765    0.000    0.941 
#    0.000    4.706    0.000    0.000    0.000    6.588 
#    0.000    0.000    0.000    0.000    0.000    0.000 
#
# Total GULP energy -94955.560161 kJ/mol
# GULP energy per Si atom -5585.621186 kJ/mol
# Density = 2.372953 g / cm^3
# Si number density = 23.783664 Si / 1000 Ang^3
#
#
#
# Elastic Constant Matrix: (Units=GPa)
#
#
# Indices 1 2 3 4 5 6 
#
# 1 151.5135 102.1388 47.5962 0.0000 43.1771 0.0000
# 2 102.1388 214.3859 64.1529 0.0000 49.4078 0.0000
# 3 47.5962 64.1529 89.9701 0.0000 8.3666 0.0000
# 4 0.0000 0.0000 0.0000 42.0827 0.0000 5.0593
# 5 43.1771 49.4078 8.3666 0.0000 61.1527 0.0000
# 6 0.0000 0.0000 0.0000 5.0593 0.0000 25.2037
#
#
#
# Elastic Compliance Matrix: (Units=1/GPa)
#
#
# Indices 1 2 3 4 5 6 
#
# 1 0.011157 -0.003274 -0.003121 0.000000 -0.004805 0.000000
# 2 -0.003274 0.008240 -0.003787 0.000000 -0.003827 0.000000
# 3 -0.003121 -0.003787 0.015170 0.000000 0.003188 0.000000
# 4 0.000000 0.000000 0.000000 0.024350 0.000000 -0.004888
# 5 -0.004805 -0.003827 0.003188 0.000000 0.022401 0.000000
# 6 0.000000 0.000000 0.000000 -0.004888 0.000000 0.040658
#
#
# Mechanical properties :
#
#
# Convention : Reuss Voigt Hill
#
# Bulk Modulus (GPa) = 70.41262 98.18279 84.29771
# Shear Modulus (GPa) = 33.99634 41.81993 37.90814
#
# Velocity S-wave (km/s) = 3.78484 4.19781 3.99666
# Velocity P-wave (km/s) = 6.98353 8.05399 7.53779
#
# Compressibility (1/GPa) = 0.01420200
#
# Stress axis : x y z
#
# Youngs Moduli (GPa) = 89.63016 121.36270 65.92024
#
# Poissons Ratio (x) = 0.39737 0.20572
# Poissons Ratio (y) = 0.29347 0.24966
# Poissons Ratio (z) = 0.27972 0.45964
#
# Static dielectric constant tensor:
#      x y z
#    x 1.798330 0.000000 -0.051810 
#    y 0.000000 1.834670 0.000000 
#    z -0.051810 0.000000 1.787820 
# 
# From -- ./inp_files/221331.got.cif
#   From: 2010.05.17/outbox.cif.g08.bks.cpg/sg12_111_cif.got.tgz:221331.got - 2010.06.03 13:09:07.
