data_PCOD9173942
_publ_section_title
;
Structure prediction by ZEFSAII (Michael W. Deem and Ramdas Pophale) SiO2 
 PCOD9173942
Probable space group: C 2/M
;
_chemical_formula_sum "Si O2"
_cell_formula_units_Z 40
_cell_length_a 25.761760
_cell_length_b 9.111268
_cell_length_c 29.794450
_cell_angle_alpha 90.000000
_cell_angle_beta 19.864376
_cell_angle_gamma 90.000000
_cell_volume 2376.328749
_symmetry_space_group_name_H-M "C 2/M"
_symmetry_group_IT_number 12
_symmetry_cell_setting 'monoclinic'
loop_
_space_group_symop_operation_xyz
x,y,z
-x,y,-z
-x,-y,-z
x,-y,z
1/2+x,1/2+y,z
1/2-x,1/2+y,-z
1/2-x,1/2-y,-z
1/2+x,1/2-y,z
loop_
_atom_site_type_symbol
_atom_site_label
_atom_site_fract_x
_atom_site_fract_y
_atom_site_fract_z
Si Si1 0.814643 0.325425 0.794626
Si Si2 0.415668 0.176002 0.870109
Si Si3 0.496797 0.325981 0.895348
Si Si4 0.658215 0.168804 0.842746
Si Si5 0.086973 0.323925 0.637991
O O1 0.821570 0.500000 0.780124
O O2 0.781338 0.240407 0.775809
O O3 0.966104 0.278656 0.697867
O O4 0.668915 0.303148 0.946106
O O5 0.493531 0.241455 0.851126
O O6 0.512263 0.209727 0.746964
O O7 0.399034 0.000000 0.887079
O O8 0.250000 0.250000 0.000000
O O9 0.516214 0.500000 0.873209
O O10 0.621459 0.261624 0.828293
O O11 0.693560 0.000000 0.803418
O O12 0.500000 0.170883 0.000000
O O13 0.102183 0.500000 0.622795
O O14 0.250000 0.250000 0.500000
#
# Coordination Sequence:
#
# PCOD9173942 Si02
#       5
#     8   8   8   8   8
#     4   9  17  32  50  72 105 140 174 215 261 313
#     4  11  21  35  54  79 109 140 177 222 267 315
#     4  10  18  31  51  77 107 139 173 215 268 315
#     4   9  17  28  45  75 106 135 173 215 261 313
#     4  10  22  38  54  77 108 143 181 218 263 317
#
# _framework density 16.832687
#
# number of rings (size 3 to 8) (size 9 to 14) (size 15 to 20)
#    0.000    2.200    2.000    1.800    0.000    5.600 
#    0.000    0.000    0.000    1.200    0.000    8.400 
#    0.000    0.000    0.000    0.000    0.000    0.000 
#
# Total GULP energy -111583.247525 kJ/mol
# GULP energy per Si atom -5579.162376 kJ/mol
# Density = 1.679438 g / cm^3
# Si number density = 16.832687 Si / 1000 Ang^3
#
#
#
# Elastic Constant Matrix: (Units=GPa)
#
#
# Indices 1 2 3 4 5 6 
#
# 1 170.2906 77.7334 70.8868 0.0011 -27.0155 -0.0017
# 2 77.7334 80.0783 54.8841 0.0002 -8.0866 -0.0067
# 3 70.8868 54.8841 87.6318 -0.0126 -13.5965 -0.0002
# 4 0.0011 0.0002 -0.0126 24.4424 0.0000 -4.0374
# 5 -27.0155 -8.0866 -13.5965 0.0000 21.6253 0.0012
# 6 -0.0017 -0.0067 -0.0002 -4.0374 0.0012 36.6815
#
#
#
# Elastic Compliance Matrix: (Units=1/GPa)
#
#
# Indices 1 2 3 4 5 6 
#
# 1 0.013339 -0.009835 -0.002899 -0.000002 0.011164 -0.000002
# 2 -0.009835 0.029135 -0.011644 -0.000005 -0.008712 0.000005
# 3 -0.002899 -0.011644 0.021953 0.000011 0.005827 -0.000001
# 4 -0.000002 -0.000005 0.000011 0.041670 0.000002 0.004587
# 5 0.011164 -0.008712 0.005827 0.000002 0.060595 -0.000003
# 6 -0.000002 0.000005 -0.000001 0.004587 -0.000003 0.027767
#
#
# Mechanical properties :
#
#
# Convention : Reuss Voigt Hill
#
# Bulk Modulus (GPa) = 63.80382 82.77880 73.29131
# Shear Modulus (GPa) = 20.12581 25.51626 22.82104
#
# Velocity S-wave (km/s) = 3.46155 3.89765 3.68606
# Velocity P-wave (km/s) = 7.34598 8.33905 7.85822
#
# Compressibility (1/GPa) = 0.01567304
#
# Stress axis : x y z
#
# Youngs Moduli (GPa) = 74.96619 34.32304 45.55212
#
# Poissons Ratio (x) = 0.33755 0.13205
# Poissons Ratio (y) = 0.73726 0.53039
# Poissons Ratio (z) = 0.21731 0.39965
#
# Static dielectric constant tensor:
#      x y z
#    x 1.565210 0.000000 -0.008470 
#    y 0.000000 1.562210 0.000000 
#    z -0.008470 0.000000 1.540210 
# 
# From -- ./inp_files/92797.got.cif
#   From: 2010.05.17/outbox.cif.g08.bks.cpg/sg12_47_cif.got.tgz:92797.got - 2010.06.03 13:09:07.
