data_PCOD9173998
_publ_section_title
;
Structure prediction by ZEFSAII (Michael W. Deem and Ramdas Pophale) SiO2 
 PCOD9173998
Probable space group: C 2/M
;
_chemical_formula_sum "Si O2"
_cell_formula_units_Z 48
_cell_length_a 10.151674
_cell_length_b 15.833681
_cell_length_c 22.130721
_cell_angle_alpha 90.000000
_cell_angle_beta 36.022668
_cell_angle_gamma 90.000000
_cell_volume 2092.041014
_symmetry_space_group_name_H-M "C 2/M"
_symmetry_group_IT_number 12
_symmetry_cell_setting 'monoclinic'
loop_
_space_group_symop_operation_xyz
x,y,z
-x,y,-z
-x,-y,-z
x,-y,z
1/2+x,1/2+y,z
1/2-x,1/2+y,-z
1/2-x,1/2-y,-z
1/2+x,1/2-y,z
loop_
_atom_site_type_symbol
_atom_site_label
_atom_site_fract_x
_atom_site_fract_y
_atom_site_fract_z
Si Si1 0.013341 0.404491 0.426469
Si Si2 0.749682 0.649436 0.107879
Si Si3 0.744191 0.856385 0.109771
Si Si4 0.178892 0.845982 0.790391
Si Si5 0.593867 0.329829 0.534040
Si Si6 0.289499 0.148255 0.224243
O O1 0.094581 0.500000 0.400967
O O2 0.778210 0.401523 0.478400
O O3 0.000000 0.371340 0.500000
O O4 0.187284 0.355002 0.320968
O O5 0.739708 0.752867 0.107168
O O6 0.567152 0.617924 0.128329
O O7 0.692037 0.617839 0.196684
O O8 0.000000 0.624151 0.000000
O O9 0.702191 0.881644 0.194973
O O10 0.532553 0.888709 0.150436
O O11 0.000000 0.881113 0.000000
O O12 0.161637 0.746517 0.807896
O O13 0.500000 0.323013 0.500000
O O14 0.750000 0.250000 0.500000
O O15 0.386873 0.349396 0.655669
#
# Coordination Sequence:
#
# PCOD9173998 Si02
#       6
#     8   8   8   8   8   8
#     4  11  24  41  59  81 113 154 197 239 286 342
#     4   9  17  28  47  77 111 142 175 225 278 333
#     4   9  17  29  47  77 111 141 174 223 279 335
#     4  10  18  31  52  73 107 144 183 225 277 335
#     4  12  24  37  60  87 117 151 191 241 285 340
#     4  10  19  29  51  79 111 142 181 223 281 335
#
# _framework density 22.944102000000001
#
# number of rings (size 3 to 8) (size 9 to 14) (size 15 to 20)
#    0.000    1.833    1.667    3.500    4.667    4.333 
#    0.000    0.000    0.000    1.000    0.000    2.333 
#    0.000    0.000    0.000    0.000    0.000    0.000 
#
# Total GULP energy -133822.992858 kJ/mol
# GULP energy per Si atom -5575.958036 kJ/mol
# Density = 2.289188 g / cm^3
# Si number density = 22.944102 Si / 1000 Ang^3
#
#
#
# Elastic Constant Matrix: (Units=GPa)
#
#
# Indices 1 2 3 4 5 6 
#
# 1 109.0827 2.0148 8.5853 -0.0004 -3.0567 -0.0005
# 2 2.0148 25.7764 -13.9261 -0.0012 2.5116 -0.0003
# 3 8.5853 -13.9261 61.3999 -0.0058 -7.2884 -0.0008
# 4 -0.0004 -0.0012 -0.0058 -17.6124 0.0022 0.0467
# 5 -3.0567 2.5116 -7.2884 0.0022 45.6356 0.0005
# 6 -0.0005 -0.0003 -0.0008 0.0467 0.0005 1.0518
#
#
#
# Elastic Compliance Matrix: (Units=1/GPa)
#
#
# Indices 1 2 3 4 5 6 
#
# 1 0.009339 -0.001653 -0.001627 0.000000 0.000457 0.000002
# 2 -0.001653 0.044538 0.010222 -0.000006 -0.000929 0.000021
# 3 -0.001627 0.010222 0.019115 -0.000007 0.002381 0.000017
# 4 0.000000 -0.000006 -0.000007 -0.056772 0.000002 0.002518
# 5 0.000457 -0.000929 0.002381 0.000002 0.022375 -0.000008
# 6 0.000002 0.000021 0.000017 0.002518 -0.000008 0.950658
#
#
# Mechanical properties :
#
#
# Convention : Reuss Voigt Hill
#
# Bulk Modulus (GPa) = 11.51051 21.06746 16.28899
# Shear Modulus (GPa) = 4.97846 19.12066 12.04956
#
# Velocity S-wave (km/s) = 1.47463 2.88993 2.29415
# Velocity P-wave (km/s) = 2.81550 4.50972 3.75930
#
# Compressibility (1/GPa) = 0.08687709
#
# Stress axis : x y z
#
# Youngs Moduli (GPa) = 107.08120 22.45286 52.31403
#
# Poissons Ratio (x) = 0.03712 0.08509
# Poissons Ratio (y) = 0.17703 -0.53478
# Poissons Ratio (z) = 0.17417 -0.22952
#
# Static dielectric constant tensor:
#      x y z
#    x 1.899760 0.000000 0.018520 
#    y 0.000000 1.910710 0.000000 
#    z 0.018520 0.000000 1.852810 
# 
# From -- ./inp_files/195908.got.cif
#   From: 2010.05.17/outbox.cif.g08.bks.cpg/sg12_98_cif.got.tgz:195908.got - 2010.06.03 13:09:07.
