data_PCOD9173963
_publ_section_title
;
Structure prediction by ZEFSAII (Michael W. Deem and Ramdas Pophale) SiO2 
 PCOD9173963
Probable space group: C 2/M
;
_chemical_formula_sum "Si O2"
_cell_formula_units_Z 56
_cell_length_a 20.847408
_cell_length_b 16.875334
_cell_length_c 13.465134
_cell_angle_alpha 90.000000
_cell_angle_beta 137.958960
_cell_angle_gamma 90.000000
_cell_volume 3172.278124
_symmetry_space_group_name_H-M "C 2/M"
_symmetry_group_IT_number 12
_symmetry_cell_setting 'monoclinic'
loop_
_space_group_symop_operation_xyz
x,y,z
-x,y,-z
-x,-y,-z
x,-y,z
1/2+x,1/2+y,z
1/2-x,1/2+y,-z
1/2-x,1/2-y,-z
1/2+x,1/2-y,z
loop_
_atom_site_type_symbol
_atom_site_label
_atom_site_fract_x
_atom_site_fract_y
_atom_site_fract_z
Si Si1 0.010202 0.410603 0.220827
Si Si2 0.618689 0.408732 0.558361
Si Si3 0.220137 0.182619 0.046692
Si Si4 0.685348 0.091519 0.297764
Si Si5 0.411482 0.784672 0.962370
Si Si6 0.064631 0.338539 0.671994
Si Si7 0.084988 0.154789 0.727929
O O1 0.983167 0.500000 0.158568
O O2 0.122952 0.401382 0.325661
O O3 0.980759 0.396015 0.299068
O O4 0.956221 0.344012 0.095332
O O5 0.622566 0.500000 0.594700
O O6 0.701282 0.395603 0.572607
O O7 0.514705 0.390962 0.395496
O O8 0.634518 0.358148 0.677126
O O9 0.157247 0.222779 0.061073
O O10 0.320268 0.147636 0.202074
O O11 0.250000 0.250000 0.000000
O O12 0.151157 0.130395 0.896478
O O13 0.644440 0.156250 0.175330
O O14 0.669970 0.000000 0.245261
O O15 0.500000 0.749468 0.000000
O O16 0.057752 0.247495 0.702344
O O17 0.000000 0.343760 0.500000
#
# Coordination Sequence:
#
# PCOD9173963 Si02
#       7
#     8   8   8   8   8   8   8
#     4  10  20  34  50  73 103 141 180 217 256 309
#     4  10  19  32  54  83 109 132 164 214 267 327
#     4  10  19  33  53  72 103 141 173 209 259 310
#     4   9  18  31  50  76 108 136 163 210 275 317
#     4  10  18  31  51  79 107 137 172 216 263 318
#     4  11  21  35  54  72 103 142 181 217 260 294
#     4  10  18  32  52  74 106 135 167 208 263 310
#
# _framework density 17.652927999999999
#
# number of rings (size 3 to 8) (size 9 to 14) (size 15 to 20)
#    0.000    2.000    4.286    3.000    0.000    2.000 
#    0.000    2.857    0.000    0.000    0.000    0.000 
#    0.000    6.286    0.000    0.000    0.000    0.000 
#
# Total GULP energy -155884.446016 kJ/mol
# GULP energy per Si atom -5567.301643 kJ/mol
# Density = 1.761275 g / cm^3
# Si number density = 17.652928 Si / 1000 Ang^3
#
#
#
# Elastic Constant Matrix: (Units=GPa)
#
#
# Indices 1 2 3 4 5 6 
#
# 1 146.2234 29.3599 54.4381 0.0000 20.1932 0.0000
# 2 29.3599 25.9727 8.2194 0.0000 3.2540 0.0000
# 3 54.4381 8.2194 108.0961 0.0000 9.3402 0.0000
# 4 0.0000 0.0000 0.0000 10.9091 0.0000 3.9992
# 5 20.1932 3.2540 9.3402 0.0000 19.5820 0.0000
# 6 0.0000 0.0000 0.0000 3.9992 0.0000 27.0557
#
#
#
# Elastic Compliance Matrix: (Units=1/GPa)
#
#
# Indices 1 2 3 4 5 6 
#
# 1 0.011814 -0.010925 -0.004405 0.000000 -0.008266 0.000000
# 2 -0.010925 0.050098 0.001500 0.000000 0.002225 0.000000
# 3 -0.004405 0.001500 0.011456 0.000000 -0.001172 0.000000
# 4 0.000000 0.000000 0.000000 0.096919 0.000000 -0.014326
# 5 -0.008266 0.002225 -0.001172 0.000000 0.059781 0.000000
# 6 0.000000 0.000000 0.000000 -0.014326 0.000000 0.039078
#
#
# Mechanical properties :
#
#
# Convention : Reuss Voigt Hill
#
# Bulk Modulus (GPa) = 21.87711 51.59189 36.73450
# Shear Modulus (GPa) = 16.02353 24.06099 20.04226
#
# Velocity S-wave (km/s) = 3.01607 3.69589 3.37315
# Velocity P-wave (km/s) = 4.95467 6.89217 6.00211
#
# Compressibility (1/GPa) = 0.04570988
#
# Stress axis : x y z
#
# Youngs Moduli (GPa) = 84.64662 19.96077 87.28763
#
# Poissons Ratio (x) = 0.21807 0.38446
# Poissons Ratio (y) = 0.92477 -0.13096
# Poissons Ratio (z) = 0.37283 -0.02995
#
# Static dielectric constant tensor:
#      x y z
#    x 1.636400 0.000000 0.025690 
#    y 0.000000 1.596170 0.000000 
#    z 0.025690 0.000000 1.632880 
# 
# From -- ./inp_files/158357.got.cif
#   From: 2010.05.17/outbox.cif.g08.bks.cpg/sg12_80_cif.got.tgz:158357.got - 2010.06.03 13:09:07.
