data_PCOD9173061
_publ_section_title
;
Structure prediction by ZEFSAII (Michael W. Deem and Ramdas Pophale) SiO2 
 PCOD9173061
Probable space group: C 2/M
;
_chemical_formula_sum "Si O2"
_cell_formula_units_Z 48
_cell_length_a 13.142506
_cell_length_b 13.475196
_cell_length_c 9.937388
_cell_angle_alpha 90.000000
_cell_angle_beta 73.964924
_cell_angle_gamma 90.000000
_cell_volume 1691.417553
_symmetry_space_group_name_H-M "C 2/M"
_symmetry_group_IT_number 12
_symmetry_cell_setting 'monoclinic'
loop_
_space_group_symop_operation_xyz
x,y,z
-x,y,-z
-x,-y,-z
x,-y,z
1/2+x,1/2+y,z
1/2-x,1/2+y,-z
1/2-x,1/2-y,-z
1/2+x,1/2-y,z
loop_
_atom_site_type_symbol
_atom_site_label
_atom_site_fract_x
_atom_site_fract_y
_atom_site_fract_z
Si Si1 0.918705 0.157924 0.145205
Si Si2 0.736420 0.366344 0.006248
Si Si3 0.719604 0.386985 0.464621
Si Si4 0.605267 0.106854 0.838158
Si Si5 0.888241 0.383004 0.623305
Si Si6 0.574178 0.324654 0.291352
O O1 0.927821 0.278026 0.141402
O O2 0.960076 0.138410 0.279816
O O3 0.810122 0.114059 0.124840
O O4 0.000000 0.123791 0.000000
O O5 0.842195 0.404740 0.033487
O O6 0.649665 0.380442 0.156095
O O7 0.750000 0.250000 0.000000
O O8 0.696669 0.500000 0.506721
O O9 0.808646 0.387434 0.313242
O O10 0.787738 0.348091 0.567237
O O11 0.617145 0.346047 0.423839
O O12 0.549221 0.000000 0.832043
O O13 0.875227 0.500000 0.663643
O O14 0.907870 0.295355 0.724447
O O15 0.000000 0.380096 0.500000
#
# Coordination Sequence:
#
# PCOD9173061 Si02
#       6
#     8   8   8   8   8   8
#     4   9  17  28  43  66  95 124 156 198 240 286
#     4   8  16  31  46  65  95 126 159 196 235 281
#     4   9  18  32  49  69  94 124 161 201 236 280
#     4   9  16  28  47  68  92 123 157 196 243 289
#     4  10  20  33  50  75 102 125 158 203 244 289
#     4  10  18  30  50  71  95 131 163 192 244 295
#
# _framework density 28.378561999999999
#
# number of rings (size 3 to 8) (size 9 to 14) (size 15 to 20)
#    0.000    2.833    0.000    1.500    0.000    2.333 
#    0.000    7.500    0.000    5.500    0.000    8.167 
#    0.000    0.000    0.000    0.000    0.000    0.000 
#
# Total GULP energy -133802.348227 kJ/mol
# GULP energy per Si atom -5575.097843 kJ/mol
# Density = 2.831397 g / cm^3
# Si number density = 28.378562 Si / 1000 Ang^3
#
#
#
# Elastic Constant Matrix: (Units=GPa)
#
#
# Indices 1 2 3 4 5 6 
#
# 1 80.8533 10.1456 58.9618 0.0000 42.6296 0.0000
# 2 10.1456 111.5223 22.2124 0.0000 6.7255 0.0000
# 3 58.9618 22.2124 179.0082 0.0000 43.9199 0.0000
# 4 0.0000 0.0000 0.0000 -19.6335 0.0000 1.7128
# 5 42.6296 6.7255 43.9199 0.0000 78.2024 0.0000
# 6 0.0000 0.0000 0.0000 1.7128 0.0000 3.6295
#
#
#
# Elastic Compliance Matrix: (Units=1/GPa)
#
#
# Indices 1 2 3 4 5 6 
#
# 1 0.020153 -0.000426 -0.004522 0.000000 -0.008410 0.000000
# 2 -0.000426 0.009205 -0.001003 0.000000 0.000004 0.000000
# 3 -0.004522 -0.001003 0.007625 0.000000 -0.001731 0.000000
# 4 0.000000 0.000000 0.000000 -0.048920 0.000000 0.023085
# 5 -0.008410 0.000004 -0.001731 0.000000 0.018343 0.000000
# 6 0.000000 0.000000 0.000000 0.023085 0.000000 0.264625
#
#
# Mechanical properties :
#
#
# Convention : Reuss Voigt Hill
#
# Bulk Modulus (GPa) = 39.86896 61.55815 50.71356
# Shear Modulus (GPa) = 17.16481 31.11063 24.13772
#
# Velocity S-wave (km/s) = 2.46204 3.31459 2.91960
# Velocity P-wave (km/s) = 4.70762 6.03221 5.41060
#
# Compressibility (1/GPa) = 0.02508217
#
# Stress axis : x y z
#
# Youngs Moduli (GPa) = 49.62047 108.63579 131.14877
#
# Poissons Ratio (x) = 0.04623 0.59304
# Poissons Ratio (y) = 0.02112 0.13153
# Poissons Ratio (z) = 0.22438 0.10895
#
# Static dielectric constant tensor:
#      x y z
#    x 2.348950 0.000000 -0.003540 
#    y 0.000000 2.089230 0.000000 
#    z -0.003540 0.000000 2.185510 
# 
# From -- ./inp_files/143072.got.cif
#   From: 2010.05.17/outbox.cif.g08.bks.cpg/sg12_72_cif.got.tgz:143072.got - 2010.06.03 13:09:07.
