data_PCOD9173961
_publ_section_title
;
Structure prediction by ZEFSAII (Michael W. Deem and Ramdas Pophale) SiO2 
 PCOD9173961
Probable space group: C 2/M
;
_chemical_formula_sum "Si O2"
_cell_formula_units_Z 52
_cell_length_a 20.977530
_cell_length_b 14.177950
_cell_length_c 21.702433
_cell_angle_alpha 90.000000
_cell_angle_beta 153.659200
_cell_angle_gamma 90.000000
_cell_volume 2864.012472
_symmetry_space_group_name_H-M "C 2/M"
_symmetry_group_IT_number 12
_symmetry_cell_setting 'monoclinic'
loop_
_space_group_symop_operation_xyz
x,y,z
-x,y,-z
-x,-y,-z
x,-y,z
1/2+x,1/2+y,z
1/2-x,1/2+y,-z
1/2-x,1/2-y,-z
1/2+x,1/2-y,z
loop_
_atom_site_type_symbol
_atom_site_label
_atom_site_fract_x
_atom_site_fract_y
_atom_site_fract_z
Si Si1 0.778381 0.175708 0.321148
Si Si2 0.102261 0.890810 0.448539
Si Si3 0.606516 0.105737 0.721817
Si Si4 0.000000 0.341055 0.500000
Si Si5 0.796852 0.190140 0.194688
Si Si6 0.600596 0.113070 0.346164
Si Si7 0.519759 0.886519 0.887873
O O1 0.853718 0.115860 0.440825
O O2 0.792793 0.151439 0.261546
O O3 0.610346 0.167642 0.190900
O O4 0.864509 0.274203 0.399931
O O5 0.239147 0.850820 0.529555
O O6 0.955390 0.836798 0.309284
O O7 0.079432 0.000000 0.413329
O O8 0.543658 0.104337 0.598625
O O9 0.712941 0.195609 0.814859
O O10 0.478580 0.130173 0.658580
O O11 0.661301 0.000000 0.784761
O O12 0.670848 0.144104 0.046486
O O13 0.498995 0.138273 0.200425
O O14 0.617485 0.000000 0.357074
O O15 0.499697 0.000000 0.877862
#
# Coordination Sequence:
#
# PCOD9173961 Si02
#       7
#     8   8   8   4   8   8   8
#     4  10  18  34  49  78 114 137 173 216 255 311
#     4  10  18  31  51  78 112 142 171 214 263 315
#     4  10  20  37  59  77 103 138 179 231 277 302
#     4  10  19  36  57  86 100 130 183 234 259 314
#     4  11  21  32  51  81 108 141 184 218 249 317
#     4   8  18  35  54  77 106 141 177 214 264 322
#     4  10  21  35  52  79 116 149 170 204 261 324
#
# _framework density 18.156345999999999
#
# number of rings (size 3 to 8) (size 9 to 14) (size 15 to 20)
#    0.000    2.154    3.077    2.538    0.000    4.923 
#    0.000    0.000    0.000    8.308    0.000    0.000 
#    0.000    0.000    0.000    0.000    0.000    0.000 
#
# Total GULP energy -144791.017917 kJ/mol
# GULP energy per Si atom -5568.885305 kJ/mol
# Density = 1.811502 g / cm^3
# Si number density = 18.156346 Si / 1000 Ang^3
#
#
#
# Elastic Constant Matrix: (Units=GPa)
#
#
# Indices 1 2 3 4 5 6 
#
# 1 81.6514 25.2161 21.8232 0.0001 -1.3004 0.0004
# 2 25.2161 74.6961 25.2643 0.0003 2.1749 0.0006
# 3 21.8232 25.2643 94.1732 0.0006 19.0936 0.0011
# 4 0.0001 0.0003 0.0006 22.9931 0.0002 -6.7209
# 5 -1.3004 2.1749 19.0936 0.0002 9.5429 0.0002
# 6 0.0004 0.0006 0.0011 -6.7209 0.0002 20.9776
#
#
#
# Elastic Compliance Matrix: (Units=1/GPa)
#
#
# Indices 1 2 3 4 5 6 
#
# 1 0.014977 -0.003697 -0.005154 0.000000 0.013196 0.000000
# 2 -0.003697 0.015976 -0.004356 0.000000 0.004571 0.000000
# 3 -0.005154 -0.004356 0.021743 0.000000 -0.043214 -0.000001
# 4 0.000000 0.000000 0.000000 0.047985 -0.000001 0.015374
# 5 0.013196 0.004571 -0.043214 -0.000001 0.192009 0.000000
# 6 0.000000 0.000000 -0.000001 0.015374 0.000000 0.052595
#
#
# Mechanical properties :
#
#
# Convention : Reuss Voigt Hill
#
# Bulk Modulus (GPa) = 38.04939 43.90310 40.97624
# Shear Modulus (GPa) = 13.14200 22.58388 17.86294
#
# Velocity S-wave (km/s) = 2.69332 3.53066 3.14002
# Velocity P-wave (km/s) = 5.53841 6.39170 5.98029
#
# Compressibility (1/GPa) = 0.02628163
#
# Stress axis : x y z
#
# Youngs Moduli (GPa) = 66.77065 62.59497 45.99106
#
# Poissons Ratio (x) = 0.23140 0.23706
# Poissons Ratio (y) = 0.24683 0.20033
# Poissons Ratio (z) = 0.34416 0.27266
#
# Static dielectric constant tensor:
#      x y z
#    x 1.646990 0.000000 -0.004690 
#    y 0.000000 1.648880 0.000000 
#    z -0.004690 0.000000 1.598940 
# 
# From -- ./inp_files/321961.got.cif
#   From: 2010.05.17/outbox.cif.g08.bks.cpg/sg12_161_cif.got.tgz:321961.got - 2010.06.03 13:09:07.
