data_PCOD9173058
_publ_section_title
;
Structure prediction by ZEFSAII (Michael W. Deem and Ramdas Pophale) SiO2 
 PCOD9173058
Probable space group: C 2/M
;
_chemical_formula_sum "Si O2"
_cell_formula_units_Z 48
_cell_length_a 21.217795
_cell_length_b 7.538751
_cell_length_c 17.171422
_cell_angle_alpha 90.000000
_cell_angle_beta 61.956605
_cell_angle_gamma 90.000000
_cell_volume 2424.185127
_symmetry_space_group_name_H-M "C 2/M"
_symmetry_group_IT_number 12
_symmetry_cell_setting 'monoclinic'
loop_
_space_group_symop_operation_xyz
x,y,z
-x,y,-z
-x,-y,-z
x,-y,z
1/2+x,1/2+y,z
1/2-x,1/2+y,-z
1/2-x,1/2-y,-z
1/2+x,1/2-y,z
loop_
_atom_site_type_symbol
_atom_site_label
_atom_site_fract_x
_atom_site_fract_y
_atom_site_fract_z
Si Si1 0.844662 0.216215 0.268397
Si Si2 0.800015 0.286658 0.730352
Si Si3 0.776060 0.212312 0.071611
Si Si4 0.920029 0.210885 0.544155
Si Si5 0.420841 0.716767 0.067847
Si Si6 0.166109 0.787225 0.554094
O O1 0.765030 0.271684 0.288196
O O2 0.897616 0.270149 0.168535
O O3 0.860553 0.278160 0.346198
O O4 0.844657 0.000000 0.268991
O O5 0.798806 0.500000 0.732221
O O6 0.778463 0.223522 0.829300
O O7 0.874562 0.234630 0.649091
O O8 0.855928 0.274475 0.048732
O O9 0.778498 0.000000 0.077629
O O10 0.750000 0.250000 0.000000
O O11 0.875173 0.284002 0.497077
O O12 0.000000 0.283703 0.500000
O O13 0.925794 0.000000 0.528613
O O14 0.421793 0.500000 0.065551
O O15 0.500000 0.777506 0.000000
O O16 0.250000 0.750000 0.500000
O O17 0.158085 0.000000 0.559022
#
# Coordination Sequence:
#
# PCOD9173058 Si02
#       6
#     8   8   8   8   8   8
#     4   8  14  26  46  69  91 119 158 199 231 268
#     4   9  17  32  52  70  93 129 169 199 232 286
#     4   9  18  32  51  75  98 125 162 201 239 286
#     4  10  21  34  46  71 106 129 154 200 253 292
#     4   8  14  27  47  72  97 120 155 199 237 277
#     4  10  18  30  50  71  94 125 161 197 234 281
#
# _framework density 19.800467999999999
#
# number of rings (size 3 to 8) (size 9 to 14) (size 15 to 20)
#    0.000    3.000    1.667    2.000    0.000    1.000 
#    3.000    0.000    0.000    0.500    0.000    0.000 
#    0.000    0.000    0.000    0.000    0.000    0.000 
#
# Total GULP energy -133807.834279 kJ/mol
# GULP energy per Si atom -5575.326428 kJ/mol
# Density = 1.975540 g / cm^3
# Si number density = 19.800468 Si / 1000 Ang^3
#
#
#
# Elastic Constant Matrix: (Units=GPa)
#
#
# Indices 1 2 3 4 5 6 
#
# 1 147.7126 6.7382 119.4576 0.0002 -5.4763 0.0008
# 2 6.7382 46.9797 0.4708 0.0003 1.1562 0.0015
# 3 119.4576 0.4708 179.9107 -0.0001 -6.1545 0.0000
# 4 0.0002 0.0003 -0.0001 14.5621 -0.0001 2.0254
# 5 -5.4763 1.1562 -6.1545 -0.0001 40.9026 0.0001
# 6 0.0008 0.0015 0.0000 2.0254 0.0001 4.7784
#
#
#
# Elastic Compliance Matrix: (Units=1/GPa)
#
#
# Indices 1 2 3 4 5 6 
#
# 1 0.014824 -0.002042 -0.009818 0.000000 0.000565 -0.000002
# 2 -0.002042 0.021583 0.001276 0.000001 -0.000692 -0.000007
# 3 -0.009818 0.001276 0.012090 0.000000 0.000469 0.000001
# 4 0.000000 0.000001 0.000000 0.072973 0.000000 -0.030930
# 5 0.000565 -0.000692 0.000469 0.000000 0.024614 -0.000001
# 6 -0.000002 -0.000007 0.000001 -0.030930 -0.000001 0.222384
#
#
# Mechanical properties :
#
#
# Convention : Reuss Voigt Hill
#
# Bulk Modulus (GPa) = 36.59219 69.77068 53.18143
# Shear Modulus (GPa) = 12.53927 28.57773 20.55850
#
# Velocity S-wave (km/s) = 2.51924 3.80318 3.22574
# Velocity P-wave (km/s) = 5.19448 7.38911 6.38677
#
# Compressibility (1/GPa) = 0.02732824
#
# Stress axis : x y z
#
# Youngs Moduli (GPa) = 67.45689 46.33302 82.71129
#
# Poissons Ratio (x) = 0.09460 0.81209
# Poissons Ratio (y) = 0.13773 -0.10550
# Poissons Ratio (z) = 0.66232 -0.05910
#
# Static dielectric constant tensor:
#      x y z
#    x 1.684520 0.000000 0.014440 
#    y 0.000000 1.756400 0.000000 
#    z 0.014440 0.000000 1.704860 
# 
# From -- ./inp_files/222585.got.cif
#   From: 2010.05.17/outbox.cif.g08.bks.cpg/sg12_112_cif.got.tgz:222585.got - 2010.06.03 13:09:07.
