data_PCOD9173194
_publ_section_title
;
Structure prediction by ZEFSAII (Michael W. Deem and Ramdas Pophale) SiO2 
 PCOD9173194
Probable space group: C 2/M
;
_chemical_formula_sum "Si O2"
_cell_formula_units_Z 64
_cell_length_a 27.104232
_cell_length_b 11.441349
_cell_length_c 19.446048
_cell_angle_alpha 90.000000
_cell_angle_beta 149.446465
_cell_angle_gamma 90.000000
_cell_volume 3065.509906
_symmetry_space_group_name_H-M "C 2/M"
_symmetry_group_IT_number 12
_symmetry_cell_setting 'monoclinic'
loop_
_space_group_symop_operation_xyz
x,y,z
-x,y,-z
-x,-y,-z
x,-y,z
1/2+x,1/2+y,z
1/2-x,1/2+y,-z
1/2-x,1/2-y,-z
1/2+x,1/2-y,z
loop_
_atom_site_type_symbol
_atom_site_label
_atom_site_fract_x
_atom_site_fract_y
_atom_site_fract_z
Si Si1 0.209498 0.776135 0.855658
Si Si2 0.091004 0.370329 0.148337
Si Si3 0.605908 0.137354 0.840035
Si Si4 0.607234 0.365221 0.598219
Si Si5 0.982656 0.264391 0.813040
Si Si6 0.712197 0.631655 0.418118
Si Si7 0.731313 0.795332 0.661413
Si Si8 0.336288 0.372934 0.921720
O O1 0.121705 0.729469 0.796981
O O2 0.177339 0.842397 0.748041
O O3 0.261809 0.657735 0.892815
O O4 0.291013 0.848312 0.995018
O O5 0.099950 0.500000 0.131766
O O6 0.065016 0.363894 0.197184
O O7 0.190657 0.306865 0.256205
O O8 0.000000 0.313094 0.000000
O O9 0.519537 0.185002 0.785131
O O10 0.591846 0.000000 0.806058
O O11 0.500000 0.348939 0.500000
O O12 0.616990 0.500000 0.586253
O O13 0.635602 0.270155 0.574265
O O14 0.903601 0.160010 0.720386
O O15 0.079451 0.220775 0.967610
O O16 0.728163 0.500000 0.465534
O O17 0.750000 0.750000 0.500000
O O18 0.762318 0.636583 0.402668
O O19 0.777424 0.865765 0.780247
O O20 0.379700 0.500000 0.981914
#
# Coordination Sequence:
#
# PCOD9173194 Si02
#       8
#     8   8   8   8   8   8   8   8
#     4   9  20  34  52  83 116 152 197 244 300 361
#     4  10  18  30  50  82 119 149 183 235 300 362
#     4  10  19  34  56  82 118 159 198 250 310 369
#     4  10  21  38  60  86 117 155 199 248 297 354
#     4  10  21  36  56  88 115 150 197 245 306 365
#     4  11  26  45  64  86 122 164 209 250 300 366
#     4  10  21  38  60  88 115 151 195 244 306 357
#     4  10  18  33  58  84 112 140 179 237 305 363
#
# _framework density 20.87744
#
# number of rings (size 3 to 8) (size 9 to 14) (size 15 to 20)
#    0.000    2.000    1.250    2.250    0.000    4.000 
#    0.000    5.000    0.000   12.750    0.000    0.000 
#    0.000    0.000    0.000    0.000    0.000    0.000 
#
# Total GULP energy -178301.360331 kJ/mol
# GULP energy per Si atom -5571.917510 kJ/mol
# Density = 2.082992 g / cm^3
# Si number density = 20.877440 Si / 1000 Ang^3
#
#
#
# Elastic Constant Matrix: (Units=GPa)
#
#
# Indices 1 2 3 4 5 6 
#
# 1 101.2398 19.7799 3.0910 0.0000 17.2580 0.0000
# 2 19.7799 90.5368 8.5279 0.0000 7.4917 0.0000
# 3 3.0910 8.5279 33.8545 0.0000 7.6530 0.0000
# 4 0.0000 0.0000 0.0000 -168.4560 0.0000 -43.7615
# 5 17.2580 7.4917 7.6530 0.0000 26.8307 0.0000
# 6 0.0000 0.0000 0.0000 -43.7615 0.0000 -4.2549
#
#
#
# Elastic Compliance Matrix: (Units=1/GPa)
#
#
# Indices 1 2 3 4 5 6 
#
# 1 0.011450 -0.002014 0.001069 0.000000 -0.007107 0.000000
# 2 -0.002014 0.011828 -0.002503 0.000000 -0.001293 0.000000
# 3 0.001069 -0.002503 0.032141 0.000000 -0.009156 0.000000
# 4 0.000000 0.000000 0.000000 0.003551 0.000000 -0.036519
# 5 -0.007107 -0.001293 -0.009156 0.000000 0.044815 0.000000
# 6 0.000000 0.000000 0.000000 -0.036519 0.000000 0.140578
#
#
# Mechanical properties :
#
#
# Convention : Reuss Voigt Hill
#
# Bulk Modulus (GPa) = 20.60941 32.04762 26.32851
# Shear Modulus (GPa) = 18.69618 -16.22723 1.23448
#
# Velocity S-wave (km/s) = 2.99577 -2.79097 0.76979
# Velocity P-wave (km/s) = 4.67539 2.23555 3.66449
#
# Compressibility (1/GPa) = 0.04852151
#
# Stress axis : x y z
#
# Youngs Moduli (GPa) = 87.33650 84.54481 31.11295
#
# Poissons Ratio (x) = 0.17028 -0.03325
# Poissons Ratio (y) = 0.17590 0.07788
# Poissons Ratio (z) = -0.09333 0.21164
#
# Static dielectric constant tensor:
#      x y z
#    x 1.793630 0.000000 -0.023130 
#    y 0.000000 1.735760 0.000000 
#    z -0.023130 0.000000 1.789890 
# 
# From -- ./inp_files/327854.got.cif
#   From: 2010.05.17/outbox.cif.g08.bks.cpg/sg12_164_cif.got.tgz:327854.got - 2010.06.03 13:09:07.
