data_PCOD9173427
_publ_section_title
;
Structure prediction by ZEFSAII (Michael W. Deem and Ramdas Pophale) SiO2 
 PCOD9173427
Probable space group: C 2/M
;
_chemical_formula_sum "Si O2"
_cell_formula_units_Z 64
_cell_length_a 25.389058
_cell_length_b 8.614020
_cell_length_c 15.444198
_cell_angle_alpha 90.000000
_cell_angle_beta 101.066262
_cell_angle_gamma 90.000000
_cell_volume 3314.869764
_symmetry_space_group_name_H-M "C 2/M"
_symmetry_group_IT_number 12
_symmetry_cell_setting 'monoclinic'
loop_
_space_group_symop_operation_xyz
x,y,z
-x,y,-z
-x,-y,-z
x,-y,z
1/2+x,1/2+y,z
1/2-x,1/2+y,-z
1/2-x,1/2-y,-z
1/2+x,1/2-y,z
loop_
_atom_site_type_symbol
_atom_site_label
_atom_site_fract_x
_atom_site_fract_y
_atom_site_fract_z
Si Si1 0.952590 0.829315 0.916520
Si Si2 0.383047 0.187120 0.680553
Si Si3 0.383370 0.813862 0.178538
Si Si4 0.190166 0.814067 0.495419
Si Si5 0.690148 0.685743 0.693320
Si Si6 0.802002 0.187028 0.796811
Si Si7 0.342350 0.680790 0.986917
Si Si8 0.994597 0.320536 0.768198
O O1 0.898581 0.810178 0.952987
O O2 0.967651 0.697688 0.853846
O O3 0.950574 0.000000 0.871656
O O4 0.000000 0.833494 0.000000
O O5 0.349393 0.240980 0.587220
O O6 0.352058 0.252366 0.755558
O O7 0.445240 0.242442 0.694958
O O8 0.382774 0.000000 0.686160
O O9 0.351313 0.752817 0.250871
O O10 0.445273 0.753589 0.204477
O O11 0.384627 0.000000 0.178474
O O12 0.352739 0.762557 0.081253
O O13 0.250000 0.750000 0.500000
O O14 0.174924 0.776890 0.589645
O O15 0.190727 0.000000 0.484838
O O16 0.693228 0.500000 0.702208
O O17 0.748403 0.755404 0.733519
O O18 0.802715 0.239678 0.898286
O O19 0.804212 0.000000 0.798423
O O20 0.329927 0.500000 0.000618
O O21 0.001647 0.500000 0.746433
#
# Coordination Sequence:
#
# PCOD9173427 Si02
#       8
#     8   8   8   8   8   8   8   8
#     4  10  18  30  52  82 115 154 200 247 295 346
#     4  11  22  37  60  93 128 158 192 246 306 358
#     4  11  24  41  61  85 118 166 212 248 293 355
#     4  11  23  40  66  96 122 151 193 247 308 366
#     4  11  25  44  64  87 118 156 199 249 305 364
#     4  11  22  37  61  91 123 158 199 248 301 358
#     4  10  21  36  56  87 123 160 203 249 299 354
#     4  10  22  37  56  86 123 160 202 248 297 350
#
# _framework density 19.306941999999999
#
# number of rings (size 3 to 8) (size 9 to 14) (size 15 to 20)
#    0.000    1.375    3.750    1.875    0.000    4.750 
#    0.000    0.625    0.000    3.750    0.000    0.000 
#    0.000    0.000    0.000    0.000    0.000    0.000 
#
# Total GULP energy -178553.419996 kJ/mol
# GULP energy per Si atom -5579.794375 kJ/mol
# Density = 1.926300 g / cm^3
# Si number density = 19.306942 Si / 1000 Ang^3
#
#
#
# Elastic Constant Matrix: (Units=GPa)
#
#
# Indices 1 2 3 4 5 6 
#
# 1 49.8926 18.7728 44.1755 0.0000 2.5190 0.0000
# 2 18.7728 48.2936 47.1909 0.0000 0.8798 0.0000
# 3 44.1755 47.1909 149.0132 0.0000 10.8163 0.0000
# 4 0.0000 0.0000 0.0000 21.2112 0.0000 -5.1653
# 5 2.5190 0.8798 10.8163 0.0000 30.4116 0.0000
# 6 0.0000 0.0000 0.0000 -5.1653 0.0000 19.9898
#
#
#
# Elastic Compliance Matrix: (Units=1/GPa)
#
#
# Indices 1 2 3 4 5 6 
#
# 1 0.027695 -0.003949 -0.006982 0.000000 0.000303 0.000000
# 2 -0.003949 0.030747 -0.008752 0.000000 0.002550 0.000000
# 3 -0.006982 -0.008752 0.011796 0.000000 -0.003364 0.000000
# 4 0.000000 0.000000 0.000000 0.050311 0.000000 0.013000
# 5 0.000303 0.002550 -0.003364 0.000000 0.033980 0.000000
# 6 0.000000 0.000000 0.000000 0.013000 0.000000 0.053385
#
#
# Mechanical properties :
#
#
# Convention : Reuss Voigt Hill
#
# Bulk Modulus (GPa) = 32.38981 51.94197 42.16589
# Shear Modulus (GPa) = 19.41216 23.45985 21.43600
#
# Velocity S-wave (km/s) = 3.17432 3.48961 3.33569
# Velocity P-wave (km/s) = 5.49980 6.57253 6.05995
#
# Compressibility (1/GPa) = 0.03087390
#
# Stress axis : x y z
#
# Youngs Moduli (GPa) = 36.10710 32.52330 84.77186
#
# Poissons Ratio (x) = 0.12843 0.59186
# Poissons Ratio (y) = 0.14259 0.74190
# Poissons Ratio (z) = 0.25209 0.28464
#
# Static dielectric constant tensor:
#      x y z
#    x 1.692520 0.000000 0.038980 
#    y 0.000000 1.687930 0.000000 
#    z 0.038980 0.000000 1.684420 
# 
# From -- ./inp_files/244077.got.cif
#   From: 2010.05.17/outbox.cif.g08.bks.cpg/sg12_123_cif.got.tgz:244077.got - 2010.06.03 13:09:07.
