data_PCOD9173102
_publ_section_title
;
Structure prediction by ZEFSAII (Michael W. Deem and Ramdas Pophale) SiO2 
 PCOD9173102
Probable space group: C 2/M
;
_chemical_formula_sum "Si O2"
_cell_formula_units_Z 64
_cell_length_a 19.861798
_cell_length_b 18.265784
_cell_length_c 16.397220
_cell_angle_alpha 90.000000
_cell_angle_beta 146.955449
_cell_angle_gamma 90.000000
_cell_volume 3243.810105
_symmetry_space_group_name_H-M "C 2/M"
_symmetry_group_IT_number 12
_symmetry_cell_setting 'monoclinic'
loop_
_space_group_symop_operation_xyz
x,y,z
-x,y,-z
-x,-y,-z
x,-y,z
1/2+x,1/2+y,z
1/2-x,1/2+y,-z
1/2-x,1/2-y,-z
1/2+x,1/2-y,z
loop_
_atom_site_type_symbol
_atom_site_label
_atom_site_fract_x
_atom_site_fract_y
_atom_site_fract_z
Si Si1 0.345339 0.582840 0.953041
Si Si2 0.010607 0.774414 0.886019
Si Si3 0.339803 0.583489 0.143768
Si Si4 0.729569 0.734809 0.622207
Si Si5 0.103582 0.621474 0.008783
Si Si6 0.629294 0.177089 0.672123
Si Si7 0.166224 0.420740 0.254160
Si Si8 0.973358 0.230240 0.285979
O O1 0.378876 0.500000 0.963615
O O2 0.221980 0.611026 0.783583
O O3 0.444724 0.646835 0.038785
O O4 0.327252 0.583674 0.032912
O O5 0.863035 0.768629 0.738944
O O6 0.075743 0.707032 0.998130
O O7 0.053522 0.760856 0.836447
O O8 0.370405 0.500000 0.199672
O O9 0.439037 0.645472 0.269349
O O10 0.210843 0.607007 0.053655
O O11 0.686276 0.765227 0.665726
O O12 0.749820 0.647858 0.640387
O O13 0.616148 0.750095 0.446794
O O14 0.970348 0.590628 0.846517
O O15 0.142303 0.584525 0.132839
O O16 0.500000 0.153656 0.500000
O O17 0.604012 0.219024 0.731416
O O18 0.216040 0.500000 0.326995
#
# Coordination Sequence:
#
# PCOD9173102 Si02
#       8
#     8   8   8   8   8   8   8   8
#     4  10  21  36  55  79 103 130 170 220 269 312
#     4  10  20  35  56  78 101 133 175 219 258 302
#     4  10  19  31  51  78 107 137 171 214 259 304
#     4  10  21  35  53  76 104 139 175 211 254 305
#     4  10  18  30  50  74 102 135 171 209 254 301
#     4  10  21  37  55  77 106 138 174 213 256 312
#     4  10  19  30  47  74 107 137 166 205 251 304
#     4  10  20  35  54  76 103 138 176 212 254 305
#
# _framework density 19.729884999999999
#
# number of rings (size 3 to 8) (size 9 to 14) (size 15 to 20)
#    0.000    2.000    0.000    4.875    0.000    4.250 
#    0.000    1.250    0.000    4.500    0.000    0.000 
#    0.000    0.000    0.000    0.000    0.000    0.000 
#
# Total GULP energy -178651.901201 kJ/mol
# GULP energy per Si atom -5582.871913 kJ/mol
# Density = 1.968498 g / cm^3
# Si number density = 19.729885 Si / 1000 Ang^3
#
#
#
# Elastic Constant Matrix: (Units=GPa)
#
#
# Indices 1 2 3 4 5 6 
#
# 1 61.2937 17.0658 10.8744 0.0000 9.2138 0.0000
# 2 17.0658 146.6665 35.8641 0.0000 11.7026 0.0000
# 3 10.8744 35.8641 51.5415 0.0000 2.0938 0.0000
# 4 0.0000 0.0000 0.0000 25.1999 0.0000 0.0219
# 5 9.2138 11.7026 2.0938 0.0000 20.0290 0.0000
# 6 0.0000 0.0000 0.0000 0.0219 0.0000 18.4288
#
#
#
# Elastic Compliance Matrix: (Units=1/GPa)
#
#
# Indices 1 2 3 4 5 6 
#
# 1 0.018206 -0.000781 -0.002989 0.000000 -0.007607 0.000000
# 2 -0.000781 0.008621 -0.005668 0.000000 -0.004086 0.000000
# 3 -0.002989 -0.005668 0.023888 0.000000 0.002190 0.000000
# 4 0.000000 0.000000 0.000000 0.039683 0.000000 -0.000047
# 5 -0.007607 -0.004086 0.002190 0.000000 0.055585 0.000000
# 6 0.000000 0.000000 0.000000 -0.000047 0.000000 0.054263
#
#
# Mechanical properties :
#
#
# Convention : Reuss Voigt Hill
#
# Bulk Modulus (GPa) = 31.40784 43.01225 37.21005
# Shear Modulus (GPa) = 21.76434 25.77803 23.77119
#
# Velocity S-wave (km/s) = 3.32492 3.61854 3.47483
# Velocity P-wave (km/s) = 5.54018 6.26948 5.91608
#
# Compressibility (1/GPa) = 0.03183918
#
# Stress axis : x y z
#
# Youngs Moduli (GPa) = 54.92711 115.99569 41.86277
#
# Poissons Ratio (x) = 0.09054 0.12513
# Poissons Ratio (y) = 0.04287 0.23728
# Poissons Ratio (z) = 0.16418 0.65748
#
# Static dielectric constant tensor:
#      x y z
#    x 1.703380 0.000000 0.002120 
#    y 0.000000 1.706120 0.000000 
#    z 0.002120 0.000000 1.683940 
# 
# From -- ./inp_files/285224.got.cif
#   From: 2010.05.17/outbox.cif.g08.bks.cpg/sg12_143_cif.got.tgz:285224.got - 2010.06.03 13:09:07.
