data_PCOD9173446
_publ_section_title
;
Structure prediction by ZEFSAII (Michael W. Deem and Ramdas Pophale) SiO2 
 PCOD9173446
Probable space group: C 2/M
;
_chemical_formula_sum "Si O2"
_cell_formula_units_Z 56
_cell_length_a 30.942251
_cell_length_b 8.525496
_cell_length_c 12.995165
_cell_angle_alpha 90.000000
_cell_angle_beta 105.262167
_cell_angle_gamma 90.000000
_cell_volume 3307.194925
_symmetry_space_group_name_H-M "C 2/M"
_symmetry_group_IT_number 12
_symmetry_cell_setting 'monoclinic'
loop_
_space_group_symop_operation_xyz
x,y,z
-x,y,-z
-x,-y,-z
x,-y,z
1/2+x,1/2+y,z
1/2-x,1/2+y,-z
1/2-x,1/2-y,-z
1/2+x,1/2-y,z
loop_
_atom_site_type_symbol
_atom_site_label
_atom_site_fract_x
_atom_site_fract_y
_atom_site_fract_z
Si Si1 0.951301 0.691474 0.012018
Si Si2 0.046849 0.310414 0.751771
Si Si3 0.300695 0.310801 0.419287
Si Si4 0.886379 0.689298 0.790385
Si Si5 0.554107 0.810299 0.369009
Si Si6 0.204579 0.187283 0.345179
Si Si7 0.103659 0.187810 0.601330
O O1 0.951408 0.500000 0.011999
O O2 0.945377 0.742101 0.125992
O O3 0.912965 0.742200 0.908600
O O4 0.000000 0.739662 0.000000
O O5 0.047429 0.500000 0.751307
O O6 0.082976 0.249730 0.693808
O O7 0.996981 0.261652 0.684665
O O8 0.299124 0.500000 0.417172
O O9 0.253880 0.247149 0.347242
O O10 0.303697 0.260230 0.541177
O O11 0.345399 0.258721 0.388811
O O12 0.885939 0.500000 0.790169
O O13 0.914640 0.739209 0.707144
O O14 0.836048 0.749348 0.747995
O O15 0.573428 0.745354 0.487120
O O16 0.554890 0.000000 0.373934
O O17 0.204166 0.000000 0.343506
O O18 0.103476 0.000000 0.601820
#
# Coordination Sequence:
#
# PCOD9173446 Si02
#       7
#     8   8   8   8   8   8   8
#     4   9  16  31  54  77 100 132 175 217 250 286
#     4  10  20  34  52  75 103 136 178 216 244 289
#     4   9  19  34  50  71 100 133 168 206 252 306
#     4  10  18  30  53  79 104 134 167 208 256 299
#     4  10  19  31  50  76 104 136 173 209 245 294
#     4  10  19  32  51  76 103 131 164 207 258 307
#     4  11  22  35  50  72 106 141 169 204 256 310
#
# _framework density 16.932779
#
# number of rings (size 3 to 8) (size 9 to 14) (size 15 to 20)
#    0.000    2.143    2.857    1.286    0.000    4.000 
#    0.000    0.714    0.000    1.714    0.000    0.000 
#    0.000    0.000    0.000    0.000    0.000    0.000 
#
# Total GULP energy -156246.952428 kJ/mol
# GULP energy per Si atom -5580.248301 kJ/mol
# Density = 1.689424 g / cm^3
# Si number density = 16.932779 Si / 1000 Ang^3
#
#
#
# Elastic Constant Matrix: (Units=GPa)
#
#
# Indices 1 2 3 4 5 6 
#
# 1 137.5933 20.5767 98.7399 0.0000 12.1427 0.0000
# 2 20.5767 7.3668 21.7564 0.0000 1.1132 0.0000
# 3 98.7399 21.7564 145.4142 0.0000 3.2577 0.0000
# 4 0.0000 0.0000 0.0000 6.1164 0.0000 3.5049
# 5 12.1427 1.1132 3.2577 0.0000 32.0638 0.0000
# 6 0.0000 0.0000 0.0000 3.5049 0.0000 24.2724
#
#
#
# Elastic Compliance Matrix: (Units=1/GPa)
#
#
# Indices 1 2 3 4 5 6 
#
# 1 0.016726 -0.022885 -0.007827 0.000000 -0.004744 0.000000
# 2 -0.022885 0.275247 -0.025680 0.000000 0.001720 0.000000
# 3 -0.007827 -0.025680 0.015984 0.000000 0.002232 0.000000
# 4 0.000000 0.000000 0.000000 0.178244 0.000000 -0.025738
# 5 -0.004744 0.001720 0.002232 0.000000 0.032698 0.000000
# 6 0.000000 0.000000 0.000000 -0.025738 0.000000 0.044916
#
#
# Mechanical properties :
#
#
# Convention : Reuss Voigt Hill
#
# Bulk Modulus (GPa) = 5.12370 63.61339 34.36855
# Shear Modulus (GPa) = 6.74166 22.44394 14.59280
#
# Velocity S-wave (km/s) = 1.99752 3.64465 2.93884
# Velocity P-wave (km/s) = 2.89008 7.44050 5.64419
#
# Compressibility (1/GPa) = 0.19517149
#
# Stress axis : x y z
#
# Youngs Moduli (GPa) = 59.78863 3.63310 62.56368
#
# Poissons Ratio (x) = 0.08314 0.48967
# Poissons Ratio (y) = 1.36829 1.60666
# Poissons Ratio (z) = 0.46795 0.09330
#
# Static dielectric constant tensor:
#      x y z
#    x 1.564380 0.000000 0.001650 
#    y 0.000000 1.580830 0.000000 
#    z 0.001650 0.000000 1.554750 
# 
# From -- ./inp_files/186413.got.cif
#   From: 2010.05.17/outbox.cif.g08.bks.cpg/sg12_94_cif.got.tgz:186413.got - 2010.06.03 13:09:07.
