data_PCOD9173966
_publ_section_title
;
Structure prediction by ZEFSAII (Michael W. Deem and Ramdas Pophale) SiO2 
 PCOD9173966
Probable space group: C 2/M
;
_chemical_formula_sum "Si O2"
_cell_formula_units_Z 44
_cell_length_a 20.042710
_cell_length_b 14.539736
_cell_length_c 8.646854
_cell_angle_alpha 90.000000
_cell_angle_beta 48.322755
_cell_angle_gamma 90.000000
_cell_volume 1882.066211
_symmetry_space_group_name_H-M "C 2/M"
_symmetry_group_IT_number 12
_symmetry_cell_setting 'monoclinic'
loop_
_space_group_symop_operation_xyz
x,y,z
-x,y,-z
-x,-y,-z
x,-y,z
1/2+x,1/2+y,z
1/2-x,1/2+y,-z
1/2-x,1/2-y,-z
1/2+x,1/2-y,z
loop_
_atom_site_type_symbol
_atom_site_label
_atom_site_fract_x
_atom_site_fract_y
_atom_site_fract_z
Si Si1 0.736438 0.000000 0.424086
Si Si2 0.862438 0.500000 0.728252
Si Si3 0.211411 0.000000 0.170034
Si Si4 0.784818 0.811383 0.811500
Si Si5 0.051981 0.209211 0.672174
Si Si6 0.500000 0.165663 0.500000
Si Si7 0.092895 0.000000 0.658270
Si Si8 0.825656 0.683515 0.314718
O O1 0.689153 0.088039 0.574216
O O2 0.716411 0.000000 0.274647
O O3 0.842870 0.000000 0.291415
O O4 0.918973 0.592258 0.612332
O O5 0.816232 0.500000 0.966977
O O6 0.178916 0.903164 0.161081
O O7 0.170931 0.000000 0.405610
O O8 0.864529 0.781486 0.577253
O O9 0.702457 0.829187 0.819802
O O10 0.750000 0.750000 0.000000
O O11 0.983482 0.269030 0.675597
O O12 0.084114 0.264291 0.774840
O O13 0.042887 0.098934 0.717736
O O14 0.750000 0.750000 0.500000
#
# Coordination Sequence:
#
# PCOD9173966 Si02
#       8
#     4   4   4   8   8   4   4   8
#     4  12  17  34  56  81 111 138 180 238 286 323
#     4  11  24  32  58  84 110 153 181 225 281 322
#     4  10  19  34  50  81 113 127 178 233 280 324
#     4  10  19  31  54  81 107 140 172 233 288 320
#     4  10  20  35  53  77 111 147 186 221 270 331
#     4  11  22  37  50  80 118 155 192 215 250 344
#     4  10  20  35  60  85 106 137 178 245 295 311
#     4  10  18  31  51  79 108 142 175 235 282 322
#
# _framework density 23.378561999999999
#
# number of rings (size 3 to 8) (size 9 to 14) (size 15 to 20)
#    0.000    1.636    7.273    1.091    2.545    0.364 
#    0.000    0.000    0.000   14.182    0.000    0.000 
#    0.000   13.091    0.000    0.000    0.000    0.000 
#
# Total GULP energy -122578.382933 kJ/mol
# GULP energy per Si atom -5571.744679 kJ/mol
# Density = 2.332535 g / cm^3
# Si number density = 23.378562 Si / 1000 Ang^3
#
#
#
# Elastic Constant Matrix: (Units=GPa)
#
#
# Indices 1 2 3 4 5 6 
#
# 1 86.1945 40.5719 4.7495 0.0000 26.1858 0.0000
# 2 40.5719 196.4626 19.1462 0.0000 13.5259 0.0000
# 3 4.7495 19.1462 56.4104 0.0000 3.4079 0.0000
# 4 0.0000 0.0000 0.0000 19.0011 0.0000 12.5317
# 5 26.1858 13.5259 3.4079 0.0000 24.1612 0.0000
# 6 0.0000 0.0000 0.0000 12.5317 0.0000 28.7613
#
#
#
# Elastic Compliance Matrix: (Units=1/GPa)
#
#
# Indices 1 2 3 4 5 6 
#
# 1 0.018441 -0.002570 0.000444 0.000000 -0.018610 0.000000
# 2 -0.002570 0.005806 -0.001741 0.000000 -0.000219 0.000000
# 3 0.000444 -0.001741 0.018408 0.000000 -0.002103 0.000000
# 4 0.000000 0.000000 0.000000 0.073850 0.000000 -0.032178
# 5 -0.018610 -0.000219 -0.002103 0.000000 0.061977 0.000000
# 6 0.000000 0.000000 0.000000 -0.032178 0.000000 0.048789
#
#
# Mechanical properties :
#
#
# Convention : Reuss Voigt Hill
#
# Bulk Modulus (GPa) = 28.63712 52.00030 40.31871
# Shear Modulus (GPa) = 20.27213 32.69140 26.48177
#
# Velocity S-wave (km/s) = 2.94789 3.74351 3.36927
# Velocity P-wave (km/s) = 4.88494 6.40126 5.69380
#
# Compressibility (1/GPa) = 0.03491971
#
# Stress axis : x y z
#
# Youngs Moduli (GPa) = 54.22822 172.24932 54.32496
#
# Poissons Ratio (x) = 0.44273 -0.02412
# Poissons Ratio (y) = 0.13938 0.09457
# Poissons Ratio (z) = -0.02408 0.29986
#
# Static dielectric constant tensor:
#      x y z
#    x 2.037340 0.000000 0.002070 
#    y 0.000000 1.906210 0.000000 
#    z 0.002070 0.000000 1.890090 
# 
# From -- ./inp_files/96182.got.cif
#   From: 2010.05.17/outbox.cif.g08.bks.cpg/sg12_49_cif.got.tgz:96182.got - 2010.06.03 13:09:07.
