data_PCOD9173984
_publ_section_title
;
Structure prediction by ZEFSAII (Michael W. Deem and Ramdas Pophale) SiO2 
 PCOD9173984
Probable space group: C 2/M
;
_chemical_formula_sum "Si O2"
_cell_formula_units_Z 64
_cell_length_a 25.952954
_cell_length_b 7.753050
_cell_length_c 19.960819
_cell_angle_alpha 90.000000
_cell_angle_beta 63.660439
_cell_angle_gamma 90.000000
_cell_volume 3599.424979
_symmetry_space_group_name_H-M "C 2/M"
_symmetry_group_IT_number 12
_symmetry_cell_setting 'monoclinic'
loop_
_space_group_symop_operation_xyz
x,y,z
-x,y,-z
-x,-y,-z
x,-y,z
1/2+x,1/2+y,z
1/2-x,1/2+y,-z
1/2-x,1/2-y,-z
1/2+x,1/2-y,z
loop_
_atom_site_type_symbol
_atom_site_label
_atom_site_fract_x
_atom_site_fract_y
_atom_site_fract_z
Si Si1 0.197276 0.707626 0.079451
Si Si2 0.754264 0.788209 0.181336
Si Si3 0.689838 0.704775 0.498279
Si Si4 0.042317 0.208893 0.819269
Si Si5 0.415710 0.203721 0.930199
Si Si6 0.385662 0.296852 0.094987
Si Si7 0.864774 0.211420 0.339324
Si Si8 0.747366 0.204357 0.334827
O O1 0.192683 0.500000 0.086056
O O2 0.214135 0.771254 0.143716
O O3 0.138148 0.774087 0.081307
O O4 0.250000 0.750000 0.000000
O O5 0.820215 0.730283 0.131124
O O6 0.736991 0.730573 0.265896
O O7 0.753536 0.000000 0.179919
O O8 0.684861 0.500000 0.497165
O O9 0.750000 0.750000 0.500000
O O10 0.642708 0.768192 0.579161
O O11 0.697550 0.768816 0.418301
O O12 0.075944 0.272934 0.866383
O O13 0.078978 0.265275 0.733585
O O14 0.976573 0.264221 0.860547
O O15 0.042672 0.000000 0.819992
O O16 0.407341 0.000000 0.942495
O O17 0.414448 0.276325 0.006180
O O18 0.379893 0.500000 0.112198
O O19 0.807833 0.270041 0.331056
O O20 0.863655 0.000000 0.340162
O O21 0.755694 0.000000 0.323774
#
# Coordination Sequence:
#
# PCOD9173984 Si02
#       8
#     8   8   8   8   8   8   8   8
#     4  10  20  34  51  68  89 120 159 197 239 280
#     4   9  16  29  51  71  88 118 158 197 230 270
#     4   9  16  26  42  65  95 125 150 181 223 274
#     4  10  19  32  50  69  88 121 166 197 217 266
#     4  11  23  34  44  66  98 125 150 193 246 283
#     4  10  18  31  52  70  86 119 167 198 220 270
#     4   8  14  26  44  65  89 117 149 183 218 262
#     4   9  15  27  46  68  93 117 148 190 232 274
#
# _framework density 17.780619000000002
#
# number of rings (size 3 to 8) (size 9 to 14) (size 15 to 20)
#    0.000    2.500    2.500    1.875    0.000    2.500 
#    0.000    4.375    0.000    0.000    0.000    0.875 
#    0.000    7.000    0.000    0.000    0.000    0.000 
#
# Total GULP energy -178361.446911 kJ/mol
# GULP energy per Si atom -5573.795216 kJ/mol
# Density = 1.774015 g / cm^3
# Si number density = 17.780619 Si / 1000 Ang^3
#
#
#
# Elastic Constant Matrix: (Units=GPa)
#
#
# Indices 1 2 3 4 5 6 
#
# 1 79.4275 -3.0790 57.0553 -0.0003 -9.9401 -0.0008
# 2 -3.0790 16.7143 -16.2526 -0.0008 1.9404 -0.0041
# 3 57.0553 -16.2526 148.5006 -0.0002 4.7261 -0.0005
# 4 -0.0003 -0.0008 -0.0002 18.3202 0.0002 -1.1103
# 5 -9.9401 1.9404 4.7261 0.0002 20.2098 -0.0001
# 6 -0.0008 -0.0041 -0.0005 -1.1103 -0.0001 9.4941
#
#
#
# Elastic Compliance Matrix: (Units=1/GPa)
#
#
# Indices 1 2 3 4 5 6 
#
# 1 0.020339 -0.006401 -0.008919 0.000000 0.012704 -0.000001
# 2 -0.006401 0.070346 0.010552 0.000005 -0.012370 0.000031
# 3 -0.008919 0.010552 0.011574 0.000001 -0.008106 0.000004
# 4 0.000000 0.000005 0.000001 0.054974 -0.000001 0.006429
# 5 0.012704 -0.012370 -0.008106 -0.000001 0.058813 -0.000004
# 6 -0.000001 0.000031 0.000004 0.006429 -0.000004 0.106080
#
#
# Mechanical properties :
#
#
# Convention : Reuss Voigt Hill
#
# Bulk Modulus (GPa) = 10.78486 35.56555 23.17520
# Shear Modulus (GPa) = 13.79046 23.39940 18.59493
#
# Velocity S-wave (km/s) = 2.78796 3.63162 3.23739
# Velocity P-wave (km/s) = 4.05491 6.13439 5.19966
#
# Compressibility (1/GPa) = 0.09272254
#
# Stress axis : x y z
#
# Youngs Moduli (GPa) = 49.16725 14.21537 86.40309
#
# Poissons Ratio (x) = 0.09099 0.77064
# Poissons Ratio (y) = 0.31472 -0.91173
# Poissons Ratio (z) = 0.43853 -0.15000
#
# Static dielectric constant tensor:
#      x y z
#    x 1.591780 0.000000 0.013730 
#    y 0.000000 1.681560 0.000000 
#    z 0.013730 0.000000 1.631310 
# 
# From -- ./inp_files/287767.got.cif
#   From: 2010.05.17/outbox.cif.g08.bks.cpg/sg12_144_cif.got.tgz:287767.got - 2010.06.03 13:09:07.
