data_PCOD9173785
_publ_section_title
;
Structure prediction by ZEFSAII (Michael W. Deem and Ramdas Pophale) SiO2 
 PCOD9173785
Probable space group: C 2/M
;
_chemical_formula_sum "Si O2"
_cell_formula_units_Z 64
_cell_length_a 26.861948
_cell_length_b 13.679739
_cell_length_c 13.230082
_cell_angle_alpha 90.000000
_cell_angle_beta 42.768888
_cell_angle_gamma 90.000000
_cell_volume 3301.223969
_symmetry_space_group_name_H-M "C 2/M"
_symmetry_group_IT_number 12
_symmetry_cell_setting 'monoclinic'
loop_
_space_group_symop_operation_xyz
x,y,z
-x,y,-z
-x,-y,-z
x,-y,z
1/2+x,1/2+y,z
1/2-x,1/2+y,-z
1/2-x,1/2-y,-z
1/2+x,1/2-y,z
loop_
_atom_site_type_symbol
_atom_site_label
_atom_site_fract_x
_atom_site_fract_y
_atom_site_fract_z
Si Si1 0.419746 0.289061 0.665687
Si Si2 0.283103 0.617665 0.773638
Si Si3 0.350409 0.111233 0.886219
Si Si4 0.257944 0.113760 0.385851
Si Si5 0.097992 0.894586 0.720528
Si Si6 0.445536 0.176001 0.926236
Si Si7 0.050817 0.111494 0.166321
Si Si8 0.595335 0.188990 0.789935
O O1 0.500000 0.271987 0.500000
O O2 0.362774 0.338545 0.674246
O O3 0.381946 0.189180 0.760703
O O4 0.429641 0.359933 0.748252
O O5 0.288137 0.500000 0.759526
O O6 0.249165 0.653165 0.717982
O O7 0.228121 0.640383 0.948228
O O8 0.405850 0.116027 0.898805
O O9 0.345673 0.000000 0.855283
O O10 0.177878 0.117086 0.553840
O O11 0.320795 0.165303 0.357150
O O12 0.279331 0.000000 0.347781
O O13 0.036535 0.891273 0.724896
O O14 0.084566 0.805188 0.814069
O O15 0.091989 0.000000 0.780343
O O16 0.426923 0.290791 0.930171
O O17 0.533489 0.160139 0.801252
O O18 0.419846 0.147095 0.076462
O O19 0.077396 0.000000 0.103178
#
# Coordination Sequence:
#
# PCOD9173785 Si02
#       8
#     8   8   8   8   8   8   8   8
#     4  11  22  35  56  83 107 135 172 215 265 317
#     4  10  20  35  57  81 105 137 175 217 263 309
#     4  10  21  39  57  76 106 140 176 215 259 312
#     4  10  19  31  49  74 101 133 170 207 253 301
#     4   9  18  31  48  72 104 137 166 201 251 308
#     4   9  19  32  51  77  98 131 175 210 252 298
#     4   9  18  33  51  75 105 131 162 209 257 305
#     4  10  18  31  50  73 102 132 170 211 250 295
#
# _framework density 19.386748000000001
#
# number of rings (size 3 to 8) (size 9 to 14) (size 15 to 20)
#    0.000    2.250    1.250    1.875    0.000    3.250 
#    0.000    3.750    0.000    0.750    0.000    0.000 
#    0.000    0.000    0.000    0.000    0.000    0.000 
#
# Total GULP energy -178328.578063 kJ/mol
# GULP energy per Si atom -5572.768064 kJ/mol
# Density = 1.934262 g / cm^3
# Si number density = 19.386748 Si / 1000 Ang^3
#
#
#
# Elastic Constant Matrix: (Units=GPa)
#
#
# Indices 1 2 3 4 5 6 
#
# 1 49.2084 3.6261 -2.8039 0.0000 -12.5576 0.0000
# 2 3.6261 50.1051 8.3190 0.0000 -7.2537 0.0000
# 3 -2.8039 8.3190 42.4968 0.0000 -15.6049 0.0000
# 4 0.0000 0.0000 0.0000 14.4264 0.0000 -7.0043
# 5 -12.5576 -7.2537 -15.6049 0.0000 27.4888 0.0000
# 6 0.0000 0.0000 0.0000 -7.0043 0.0000 19.4195
#
#
#
# Elastic Compliance Matrix: (Units=1/GPa)
#
#
# Indices 1 2 3 4 5 6 
#
# 1 0.024698 -0.000805 0.007393 0.000000 0.015268 0.000000
# 2 -0.000805 0.021005 -0.002861 0.000000 0.003551 0.000000
# 3 0.007393 -0.002861 0.032269 0.000000 0.020941 0.000000
# 4 0.000000 0.000000 0.000000 0.084033 0.000000 0.030309
# 5 0.015268 0.003551 0.020941 0.000000 0.056178 0.000000
# 6 0.000000 0.000000 0.000000 0.030309 0.000000 0.062427
#
#
# Mechanical properties :
#
#
# Convention : Reuss Voigt Hill
#
# Bulk Modulus (GPa) = 11.70580 17.78809 14.74694
# Shear Modulus (GPa) = 16.57655 21.11153 18.84404
#
# Velocity S-wave (km/s) = 2.92729 3.30353 3.12108
# Velocity P-wave (km/s) = 4.18049 4.87303 4.53998
#
# Compressibility (1/GPa) = 0.08542777
#
# Stress axis : x y z
#
# Youngs Moduli (GPa) = 40.48833 47.60681 30.98990
#
# Poissons Ratio (x) = 0.03831 -0.22912
# Poissons Ratio (y) = 0.03258 0.08866
# Poissons Ratio (z) = -0.29935 0.13621
#
# Static dielectric constant tensor:
#      x y z
#    x 1.671540 0.000000 -0.012250 
#    y 0.000000 1.702830 0.000000 
#    z -0.012250 0.000000 1.692670 
# 
# From -- ./inp_files/245917.got.cif
#   From: 2010.05.17/outbox.cif.g08.bks.cpg/sg12_123_cif.got.tgz:245917.got - 2010.06.03 13:09:07.
