data_PCOD9173969
_publ_section_title
;
Structure prediction by ZEFSAII (Michael W. Deem and Ramdas Pophale) SiO2 
 PCOD9173969
Probable space group: C 2/M
;
_chemical_formula_sum "Si O2"
_cell_formula_units_Z 52
_cell_length_a 14.093112
_cell_length_b 20.491992
_cell_length_c 21.670021
_cell_angle_alpha 90.000000
_cell_angle_beta 150.186246
_cell_angle_gamma 90.000000
_cell_volume 3111.472980
_symmetry_space_group_name_H-M "C 2/M"
_symmetry_group_IT_number 12
_symmetry_cell_setting 'monoclinic'
loop_
_space_group_symop_operation_xyz
x,y,z
-x,y,-z
-x,-y,-z
x,-y,z
1/2+x,1/2+y,z
1/2-x,1/2+y,-z
1/2-x,1/2-y,-z
1/2+x,1/2-y,z
loop_
_atom_site_type_symbol
_atom_site_label
_atom_site_fract_x
_atom_site_fract_y
_atom_site_fract_z
Si Si1 0.000000 0.278340 0.000000
Si Si2 0.861765 0.927344 0.094205
Si Si3 0.268082 0.798644 0.678198
Si Si4 0.348414 0.622906 0.217196
Si Si5 0.053414 0.787818 0.900960
Si Si6 0.406622 0.929456 0.823461
Si Si7 0.105706 0.797485 0.454948
O O1 0.806886 0.322037 0.891476
O O2 0.986762 0.236352 0.930387
O O3 0.923829 0.912393 0.199136
O O4 0.927098 0.865400 0.091443
O O5 0.921443 0.000000 0.108059
O O6 0.630654 0.926133 0.964120
O O7 0.416689 0.740238 0.770344
O O8 0.349742 0.864586 0.754673
O O9 0.221542 0.817811 0.581785
O O10 0.087723 0.775063 0.618052
O O11 0.219404 0.575578 0.186139
O O12 0.516154 0.652459 0.354589
O O13 0.250000 0.750000 0.000000
O O14 0.368707 0.000000 0.771681
O O15 0.250000 0.750000 0.500000
#
# Coordination Sequence:
#
# PCOD9173969 Si02
#       7
#     4   8   8   8   8   8   8
#     4  12  20  32  56  88 102 138 184 226 280 316
#     4  11  21  32  53  83 113 145 176 220 279 329
#     4  10  20  36  51  80 109 144 183 215 273 330
#     4  11  17  34  51  82 110 136 179 226 278 320
#     4  12  20  35  57  83 113 141 183 228 272 328
#     4  10  18  31  51  79 113 142 169 217 280 338
#     4  10  21  33  52  77 109 140 182 230 268 310
#
# _framework density 16.712342
#
# number of rings (size 3 to 8) (size 9 to 14) (size 15 to 20)
#    0.000    1.231    7.692    1.385    0.000    1.231 
#    0.000    7.308    0.000    0.000    0.000   12.923 
#    0.000    0.000    0.000    0.000    0.000    0.000 
#
# Total GULP energy -144736.264939 kJ/mol
# GULP energy per Si atom -5566.779421 kJ/mol
# Density = 1.667430 g / cm^3
# Si number density = 16.712342 Si / 1000 Ang^3
#
#
#
# Elastic Constant Matrix: (Units=GPa)
#
#
# Indices 1 2 3 4 5 6 
#
# 1 31.3643 24.6228 11.0660 0.0003 -7.3166 0.0003
# 2 24.6228 128.1626 30.6471 0.0002 -0.2039 0.0000
# 3 11.0660 30.6471 77.7176 0.0026 -7.4872 0.0017
# 4 0.0003 0.0002 0.0026 11.1911 0.0010 1.5142
# 5 -7.3166 -0.2039 -7.4872 0.0010 21.7847 0.0012
# 6 0.0003 0.0000 0.0017 1.5142 0.0012 18.3752
#
#
#
# Elastic Compliance Matrix: (Units=1/GPa)
#
#
# Indices 1 2 3 4 5 6 
#
# 1 0.041501 -0.007558 -0.001647 -0.000002 0.013302 -0.000001
# 2 -0.007558 0.010018 -0.003216 0.000001 -0.003550 0.000001
# 3 -0.001647 -0.003216 0.014804 -0.000004 0.004505 -0.000001
# 4 -0.000002 0.000001 -0.000004 0.090364 -0.000005 -0.007447
# 5 0.013302 -0.003550 0.004505 -0.000005 0.051886 -0.000004
# 6 -0.000001 0.000001 -0.000001 -0.007447 -0.000004 0.055035
#
#
# Mechanical properties :
#
#
# Convention : Reuss Voigt Hill
#
# Bulk Modulus (GPa) = 24.10826 41.10180 32.60503
# Shear Modulus (GPa) = 16.54103 21.66412 19.10258
#
# Velocity S-wave (km/s) = 3.14944 3.60432 3.38453
# Velocity P-wave (km/s) = 5.26137 6.47831 5.90130
#
# Compressibility (1/GPa) = 0.04147955
#
# Stress axis : x y z
#
# Youngs Moduli (GPa) = 24.09574 99.81889 67.54942
#
# Poissons Ratio (x) = 0.75445 0.11127
# Poissons Ratio (y) = 0.18212 0.21726
# Poissons Ratio (z) = 0.03969 0.32106
#
# Static dielectric constant tensor:
#      x y z
#    x 1.571180 0.000000 -0.009710 
#    y 0.000000 1.579340 0.000000 
#    z -0.009710 0.000000 1.596080 
# 
# From -- ./inp_files/312054.got.cif
#   From: 2010.05.17/outbox.cif.g08.bks.cpg/sg12_157_cif.got.tgz:312054.got - 2010.06.03 13:09:07.
