data_PCOD9173017
_publ_section_title
;
Structure prediction by ZEFSAII (Michael W. Deem and Ramdas Pophale) SiO2 
 PCOD9173017
Probable space group: C 2/M
;
_chemical_formula_sum "Si O2"
_cell_formula_units_Z 56
_cell_length_a 29.027795
_cell_length_b 7.506210
_cell_length_c 15.428257
_cell_angle_alpha 90.000000
_cell_angle_beta 48.897329
_cell_angle_gamma 90.000000
_cell_volume 2533.108268
_symmetry_space_group_name_H-M "C 2/M"
_symmetry_group_IT_number 12
_symmetry_cell_setting 'monoclinic'
loop_
_space_group_symop_operation_xyz
x,y,z
-x,y,-z
-x,-y,-z
x,-y,z
1/2+x,1/2+y,z
1/2-x,1/2+y,-z
1/2-x,1/2-y,-z
1/2+x,1/2-y,z
loop_
_atom_site_type_symbol
_atom_site_label
_atom_site_fract_x
_atom_site_fract_y
_atom_site_fract_z
Si Si1 0.126225 0.713468 0.558488
Si Si2 0.195770 0.200017 0.630915
Si Si3 0.438748 0.218022 0.628984
Si Si4 0.043145 0.792599 0.024529
Si Si5 0.185966 0.717348 0.309764
Si Si6 0.509346 0.213947 0.259577
Si Si7 0.819791 0.218558 0.158585
O O1 0.131948 0.500000 0.558042
O O2 0.138466 0.787225 0.638499
O O3 0.172244 0.772866 0.426452
O O4 0.057321 0.756927 0.619537
O O5 0.250000 0.250000 0.500000
O O6 0.185704 0.286448 0.735265
O O7 0.209456 0.000000 0.638868
O O8 0.500000 0.272827 0.500000
O O9 0.373866 0.275524 0.669281
O O10 0.444393 0.272911 0.722683
O O11 0.439295 0.000000 0.625397
O O12 0.014664 0.782628 0.155492
O O13 0.051480 0.000000 0.989980
O O14 0.112332 0.719615 0.951162
O O15 0.000000 0.717558 0.000000
O O16 0.185125 0.500000 0.310175
O O17 0.254456 0.772921 0.197890
O O18 0.513353 0.000000 0.247859
O O19 0.820564 0.000000 0.150128
#
# Coordination Sequence:
#
# PCOD9173017 Si02
#       7
#     8   8   8   8   8   8   8
#     4  10  18  30  49  75 106 135 166 210 263 315
#     4  11  20  31  49  75 106 135 171 215 263 318
#     4   9  15  27  50  80 108 135 169 212 264 322
#     4  10  21  38  56  72  98 143 189 218 251 316
#     4   9  15  27  49  75 102 130 168 213 253 308
#     4  10  20  33  54  83 108 133 173 224 272 309
#     4   9  18  32  50  71  98 136 178 215 254 308
#
# _framework density 22.107227000000002
#
# number of rings (size 3 to 8) (size 9 to 14) (size 15 to 20)
#    0.000    2.286    2.857    1.286    0.000    2.000 
#    0.000    2.143    0.000    1.286    0.000    0.000 
#    0.000    0.000    0.000    0.000    0.000    0.000 
#
# Total GULP energy -156032.394145 kJ/mol
# GULP energy per Si atom -5572.585505 kJ/mol
# Density = 2.205691 g / cm^3
# Si number density = 22.107227 Si / 1000 Ang^3
#
#
#
# Elastic Constant Matrix: (Units=GPa)
#
#
# Indices 1 2 3 4 5 6 
#
# 1 153.9240 -0.6036 41.4160 0.0001 -13.8020 -0.0004
# 2 -0.6036 44.0798 0.2069 0.0001 -7.8723 -0.0010
# 3 41.4160 0.2069 77.7019 0.0000 -18.6860 -0.0001
# 4 0.0001 0.0001 0.0000 1.8855 0.0000 1.1423
# 5 -13.8020 -7.8723 -18.6860 0.0000 40.1131 0.0001
# 6 -0.0004 -0.0010 -0.0001 1.1423 0.0001 3.7586
#
#
#
# Elastic Compliance Matrix: (Units=1/GPa)
#
#
# Indices 1 2 3 4 5 6 
#
# 1 0.007612 0.000280 -0.003846 -0.000001 0.000883 0.000001
# 2 0.000280 0.023617 0.001042 -0.000007 0.005217 0.000008
# 3 -0.003846 0.001042 0.016496 0.000000 0.006566 0.000000
# 4 -0.000001 -0.000007 0.000000 0.650049 -0.000002 -0.197555
# 5 0.000883 0.005217 0.006566 -0.000002 0.029315 0.000002
# 6 0.000001 0.000008 0.000000 -0.197555 0.000002 0.326094
#
#
# Mechanical properties :
#
#
# Convention : Reuss Voigt Hill
#
# Bulk Modulus (GPa) = 23.43158 39.74938 31.59048
# Shear Modulus (GPa) = 4.66220 24.79721 14.72970
#
# Velocity S-wave (km/s) = 1.45378 3.35278 2.58405
# Velocity P-wave (km/s) = 3.66607 5.74521 4.81910
#
# Compressibility (1/GPa) = 0.04267745
#
# Stress axis : x y z
#
# Youngs Moduli (GPa) = 131.37716 42.34288 60.62230
#
# Poissons Ratio (x) = -0.01185 0.23313
# Poissons Ratio (y) = -0.03677 -0.06320
# Poissons Ratio (z) = 0.50523 -0.04414
#
# Static dielectric constant tensor:
#      x y z
#    x 3.663180 0.000000 3.040730 
#    y 0.000000 1.859380 -0.000010 
#    z 3.040730 -0.000010 7.089820 
# 
# From -- ./inp_files/237372.got.cif
#   From: 2010.05.17/outbox.cif.g08.bks.cpg/sg12_119_cif.got.tgz:237372.got - 2010.06.03 13:09:07.
