data_PCOD9173163
_publ_section_title
;
Structure prediction by ZEFSAII (Michael W. Deem and Ramdas Pophale) SiO2 
 PCOD9173163
Probable space group: C 2/M
;
_chemical_formula_sum "Si O2"
_cell_formula_units_Z 48
_cell_length_a 10.039627
_cell_length_b 15.287080
_cell_length_c 14.864658
_cell_angle_alpha 90.000000
_cell_angle_beta 61.042926
_cell_angle_gamma 90.000000
_cell_volume 1996.165267
_symmetry_space_group_name_H-M "C 2/M"
_symmetry_group_IT_number 12
_symmetry_cell_setting 'monoclinic'
loop_
_space_group_symop_operation_xyz
x,y,z
-x,y,-z
-x,-y,-z
x,-y,z
1/2+x,1/2+y,z
1/2-x,1/2+y,-z
1/2-x,1/2-y,-z
1/2+x,1/2-y,z
loop_
_atom_site_type_symbol
_atom_site_label
_atom_site_fract_x
_atom_site_fract_y
_atom_site_fract_z
Si Si1 0.552645 0.098304 0.215103
Si Si2 0.375903 0.602046 0.663133
Si Si3 0.847777 0.905563 0.991763
Si Si4 0.722767 0.647015 0.494614
Si Si5 0.772867 0.597322 0.665972
Si Si6 0.468815 0.706540 0.798822
O O1 0.591811 0.109297 0.307903
O O2 0.490204 0.191973 0.206946
O O3 0.487743 0.000000 0.221454
O O4 0.709916 0.098801 0.106489
O O5 0.362792 0.500000 0.694749
O O6 0.549800 0.617670 0.573309
O O7 0.265748 0.619660 0.613406
O O8 0.370397 0.673153 0.744728
O O9 0.871202 0.828103 0.914284
O O10 0.835130 0.000000 0.947197
O O11 0.000000 0.906484 0.000000
O O12 0.750000 0.750000 0.500000
O O13 0.814997 0.606036 0.547468
O O14 0.713811 0.500000 0.701132
O O15 0.631572 0.658890 0.736298
#
# Coordination Sequence:
#
# PCOD9173163 Si02
#       6
#     8   8   8   8   8   8
#     4  10  21  34  52  78 106 136 171 210 256 305
#     4  10  20  34  53  79 105 133 173 221 258 295
#     4  10  18  32  54  81 104 129 170 217 254 297
#     4  10  18  30  50  77 106 134 165 206 258 305
#     4  10  19  34  55  78 102 134 174 217 253 296
#     4  11  19  32  55  79 103 134 173 213 257 304
#
# _framework density 24.046105000000001
#
# number of rings (size 3 to 8) (size 9 to 14) (size 15 to 20)
#    0.000    1.833    1.667    6.000    0.000    0.000 
#    0.000    0.000    0.000   19.500    0.000   24.500 
#    0.000    0.000    0.000    0.000    0.000    0.000 
#
# Total GULP energy -134047.129528 kJ/mol
# GULP energy per Si atom -5585.297064 kJ/mol
# Density = 2.399138 g / cm^3
# Si number density = 24.046105 Si / 1000 Ang^3
#
#
#
# Elastic Constant Matrix: (Units=GPa)
#
#
# Indices 1 2 3 4 5 6 
#
# 1 61.5269 19.9409 13.0928 0.0000 -3.7647 0.0000
# 2 19.9409 158.5975 2.7760 0.0000 -2.0273 0.0000
# 3 13.0928 2.7760 94.3574 0.0000 10.3630 0.0000
# 4 0.0000 0.0000 0.0000 185.7514 0.0000 -56.0428
# 5 -3.7647 -2.0273 10.3630 0.0000 28.7348 0.0000
# 6 0.0000 0.0000 0.0000 -56.0428 0.0000 43.2633
#
#
#
# Elastic Compliance Matrix: (Units=1/GPa)
#
#
# Indices 1 2 3 4 5 6 
#
# 1 0.017724 -0.002140 -0.002743 0.000000 0.003160 0.000000
# 2 -0.002140 0.006575 0.000087 0.000000 0.000152 0.000000
# 3 -0.002743 0.000087 0.011469 0.000000 -0.004490 0.000000
# 4 0.000000 0.000000 0.000000 0.008837 0.000000 0.011448
# 5 0.003160 0.000152 -0.004490 0.000000 0.036845 0.000000
# 6 0.000000 0.000000 0.000000 0.011448 0.000000 0.037944
#
#
# Mechanical properties :
#
#
# Convention : Reuss Voigt Hill
#
# Bulk Modulus (GPa) = 38.20530 42.90014 40.55272
# Shear Modulus (GPa) = 36.30758 70.12803 53.21781
#
# Velocity S-wave (km/s) = 3.88998 5.40623 4.70952
# Velocity P-wave (km/s) = 6.00822 7.53984 6.81718
#
# Compressibility (1/GPa) = 0.02617438
#
# Stress axis : x y z
#
# Youngs Moduli (GPa) = 56.42126 152.09662 87.19003
#
# Poissons Ratio (x) = 0.32549 0.23920
# Poissons Ratio (y) = 0.12074 -0.00757
# Poissons Ratio (z) = 0.15479 -0.01320
#
# Static dielectric constant tensor:
#      x y z
#    x 2.108870 0.000000 -0.112630 
#    y 0.000000 1.940230 0.000000 
#    z -0.112630 0.000000 2.057140 
# 
# From -- ./inp_files/212542.got.cif
#   From: 2010.05.17/outbox.cif.g08.bks.cpg/sg12_107_cif.got.tgz:212542.got - 2010.06.03 13:09:07.
