data_PCOD9173643
_publ_section_title
;
Structure prediction by ZEFSAII (Michael W. Deem and Ramdas Pophale) SiO2 
 PCOD9173643
Probable space group: C 2/M
;
_chemical_formula_sum "Si O2"
_cell_formula_units_Z 56
_cell_length_a 17.208571
_cell_length_b 23.956831
_cell_length_c 7.369475
_cell_angle_alpha 90.000000
_cell_angle_beta 95.064732
_cell_angle_gamma 90.000000
_cell_volume 3026.298389
_symmetry_space_group_name_H-M "C 2/M"
_symmetry_group_IT_number 12
_symmetry_cell_setting 'monoclinic'
loop_
_space_group_symop_operation_xyz
x,y,z
-x,y,-z
-x,-y,-z
x,-y,z
1/2+x,1/2+y,z
1/2-x,1/2+y,-z
1/2-x,1/2-y,-z
1/2+x,1/2-y,z
loop_
_atom_site_type_symbol
_atom_site_label
_atom_site_fract_x
_atom_site_fract_y
_atom_site_fract_z
Si Si1 0.432926 0.767388 0.610215
Si Si2 0.666139 0.725007 0.113821
Si Si3 0.473699 0.113363 0.785405
Si Si4 0.715760 0.172943 0.580221
Si Si5 0.131408 0.562806 0.691913
Si Si6 0.685229 0.937610 0.122864
Si Si7 0.228818 0.827485 0.803375
O O1 0.500000 0.742625 0.500000
O O2 0.407643 0.728314 0.771135
O O3 0.464158 0.825725 0.698692
O O4 0.357094 0.786296 0.478146
O O5 0.733835 0.692313 0.238273
O O6 0.697492 0.788984 0.115681
O O7 0.660946 0.698027 0.914462
O O8 0.541007 0.080616 0.692257
O O9 0.390732 0.082169 0.779155
O O10 0.500000 0.118939 0.000000
O O11 0.680139 0.111578 0.604424
O O12 0.770010 0.176943 0.413040
O O13 0.139570 0.500000 0.619914
O O14 0.160339 0.561835 0.906870
O O15 0.751652 0.891376 0.154340
O O16 0.708121 0.000000 0.180419
#
# Coordination Sequence:
#
# PCOD9173643 Si02
#       7
#     8   8   8   8   8   8   8
#     4  11  20  34  50  75  98 134 181 217 259 314
#     4  10  21  36  53  70 101 133 174 224 264 304
#     4  10  19  32  47  69 106 142 182 214 248 293
#     4  11  20  35  53  74 101 135 178 219 259 303
#     4  10  20  32  49  71 106 146 178 212 254 297
#     4  10  18  31  48  71 103 140 179 216 252 303
#     4  10  19  32  52  71  93 130 177 209 264 305
#
# _framework density 18.504455
#
# number of rings (size 3 to 8) (size 9 to 14) (size 15 to 20)
#    0.000    1.714    5.714    2.143    0.000    2.286 
#    2.571    0.714    0.000    0.000    0.000    0.000 
#    0.000    2.286    0.000    7.000    0.000    0.286 
#
# Total GULP energy -156349.712067 kJ/mol
# GULP energy per Si atom -5583.918288 kJ/mol
# Density = 1.846234 g / cm^3
# Si number density = 18.504455 Si / 1000 Ang^3
#
#
#
# Elastic Constant Matrix: (Units=GPa)
#
#
# Indices 1 2 3 4 5 6 
#
# 1 41.3076 32.3573 30.7967 0.0000 -30.9238 0.0000
# 2 32.3573 101.0028 29.0082 0.0000 -20.7767 0.0000
# 3 30.7967 29.0082 93.8715 0.0000 -26.0371 0.0000
# 4 0.0000 0.0000 0.0000 23.7511 0.0000 -1.9500
# 5 -30.9238 -20.7767 -26.0371 0.0000 37.2471 0.0000
# 6 0.0000 0.0000 0.0000 -1.9500 0.0000 24.6673
#
#
#
# Elastic Compliance Matrix: (Units=1/GPa)
#
#
# Indices 1 2 3 4 5 6 
#
# 1 0.080239 -0.012364 -0.007367 0.000000 0.054570 0.000000
# 2 -0.012364 0.013447 -0.001074 0.000000 -0.003515 0.000000
# 3 -0.007367 -0.001074 0.014315 0.000000 0.003291 0.000000
# 4 0.000000 0.000000 0.000000 0.042378 0.000000 0.003350
# 5 0.054570 -0.003515 0.003291 0.000000 0.072493 0.000000
# 6 0.000000 0.000000 0.000000 0.003350 0.000000 0.040804
#
#
# Mechanical properties :
#
#
# Convention : Reuss Voigt Hill
#
# Bulk Modulus (GPa) = 15.06266 46.72292 30.89279
# Shear Modulus (GPa) = 15.27104 26.73442 21.00273
#
# Velocity S-wave (km/s) = 2.87586 3.80512 3.37264
# Velocity P-wave (km/s) = 4.38008 6.67904 5.64777
#
# Compressibility (1/GPa) = 0.06638936
#
# Stress axis : x y z
#
# Youngs Moduli (GPa) = 12.46280 74.36552 69.85913
#
# Poissons Ratio (x) = 0.91946 0.51468
# Poissons Ratio (y) = 0.15409 0.07503
# Poissons Ratio (z) = 0.09182 0.07987
#
# Static dielectric constant tensor:
#      x y z
#    x 1.648390 0.000000 -0.021300 
#    y 0.000000 1.640580 0.000000 
#    z -0.021300 0.000000 1.713170 
# 
# From -- ./inp_files/78470.got.cif
#   From: 2010.05.17/outbox.cif.g08.bks.cpg/sg12_40_cif.got.tgz:78470.got - 2010.06.03 13:09:07.
