data_PCOD9173668
_publ_section_title
;
Structure prediction by ZEFSAII (Michael W. Deem and Ramdas Pophale) SiO2 
 PCOD9173668
Probable space group: C 2/M
;
_chemical_formula_sum "Si O2"
_cell_formula_units_Z 64
_cell_length_a 29.580272
_cell_length_b 7.376941
_cell_length_c 14.961703
_cell_angle_alpha 90.000000
_cell_angle_beta 107.066226
_cell_angle_gamma 90.000000
_cell_volume 3121.059362
_symmetry_space_group_name_H-M "C 2/M"
_symmetry_group_IT_number 12
_symmetry_cell_setting 'monoclinic'
loop_
_space_group_symop_operation_xyz
x,y,z
-x,y,-z
-x,-y,-z
x,-y,z
1/2+x,1/2+y,z
1/2-x,1/2+y,-z
1/2-x,1/2-y,-z
1/2+x,1/2-y,z
loop_
_atom_site_type_symbol
_atom_site_label
_atom_site_fract_x
_atom_site_fract_y
_atom_site_fract_z
Si Si1 0.304766 0.714863 0.510196
Si Si2 0.681728 0.778114 0.194481
Si Si3 0.562078 0.779167 0.620493
Si Si4 0.546822 0.221140 0.413749
Si Si5 0.303978 0.782576 0.000212
Si Si6 0.384376 0.204938 0.694553
Si Si7 0.858890 0.291881 0.199214
Si Si8 0.785616 0.780529 0.306015
O O1 0.313167 0.500000 0.518865
O O2 0.250000 0.750000 0.500000
O O3 0.339849 0.802218 0.600894
O O4 0.310655 0.778905 0.411683
O O5 0.637341 0.714165 0.227503
O O6 0.730934 0.724902 0.270323
O O7 0.680555 0.000000 0.194958
O O8 0.685458 0.718762 0.093991
O O9 0.508398 0.730765 0.615228
O O10 0.569335 0.720247 0.521743
O O11 0.599632 0.712085 0.715022
O O12 0.564728 0.000000 0.620784
O O13 0.574466 0.287902 0.342594
O O14 0.549349 0.000000 0.414348
O O15 0.340818 0.711212 0.095554
O O16 0.308840 0.000000 0.001290
O O17 0.250000 0.750000 0.000000
O O18 0.399595 0.000000 0.725506
O O19 0.872797 0.500000 0.189225
O O20 0.813075 0.288972 0.236281
O O21 0.786617 0.000000 0.304290
#
# Coordination Sequence:
#
# PCOD9173668 Si02
#       8
#     8   8   8   8   8   8   8   8
#     4  11  21  31  43  63  92 124 153 184 222 266
#     4   9  17  30  44  60  89 122 150 182 225 273
#     4   8  14  26  42  69  97 113 141 191 237 265
#     4   8  14  25  46  68  91 120 147 181 228 281
#     4  10  19  31  46  64  88 121 153 191 233 269
#     4  10  18  31  49  67  87 122 162 186 220 274
#     4  10  19  29  47  71  91 114 153 199 232 262
#     4  10  19  31  44  61  91 126 150 178 225 276
#
# _framework density 20.505859000000001
#
# number of rings (size 3 to 8) (size 9 to 14) (size 15 to 20)
#    0.000    2.500    2.500    1.875    0.000    2.000 
#    0.000    0.625    0.000    1.500    0.000    8.750 
#    0.000    0.000    0.000    3.375    0.000    4.000 
#
# Total GULP energy -178602.669532 kJ/mol
# GULP energy per Si atom -5581.333423 kJ/mol
# Density = 2.045919 g / cm^3
# Si number density = 20.505859 Si / 1000 Ang^3
#
#
#
# Elastic Constant Matrix: (Units=GPa)
#
#
# Indices 1 2 3 4 5 6 
#
# 1 107.8117 -2.9948 61.5504 0.0000 -18.4682 0.0000
# 2 -2.9948 78.3116 5.3504 0.0000 0.6470 0.0000
# 3 61.5504 5.3504 152.8416 0.0000 -18.2815 0.0000
# 4 0.0000 0.0000 0.0000 2.7848 0.0000 -0.2865
# 5 -18.4682 0.6470 -18.2815 0.0000 38.5366 0.0000
# 6 0.0000 0.0000 0.0000 -0.2865 0.0000 4.8262
#
#
#
# Elastic Compliance Matrix: (Units=1/GPa)
#
#
# Indices 1 2 3 4 5 6 
#
# 1 0.012604 0.000768 -0.004645 0.000000 0.003824 0.000000
# 2 0.000768 0.012854 -0.000786 0.000000 -0.000221 0.000000
# 3 -0.004645 -0.000786 0.008668 0.000000 0.001899 0.000000
# 4 0.000000 0.000000 0.000000 0.361304 0.000000 0.021445
# 5 0.003824 -0.000221 0.001899 0.000000 0.028686 0.000000
# 6 0.000000 0.000000 0.000000 0.021445 0.000000 0.208477
#
#
# Mechanical properties :
#
#
# Convention : Reuss Voigt Hill
#
# Bulk Modulus (GPa) = 40.32220 51.86412 46.09316
# Shear Modulus (GPa) = 7.69010 27.56676 17.62843
#
# Velocity S-wave (km/s) = 1.93864 3.67050 2.93521
# Velocity P-wave (km/s) = 4.97167 6.58108 5.83216
#
# Compressibility (1/GPa) = 0.02480024
#
# Stress axis : x y z
#
# Youngs Moduli (GPa) = 79.34185 77.79469 115.36690
#
# Poissons Ratio (x) = -0.05973 0.53589
# Poissons Ratio (y) = -0.06092 0.09063
# Poissons Ratio (z) = 0.36855 0.06111
#
# Static dielectric constant tensor:
#      x y z
#    x 1.716040 0.000000 -0.019790 
#    y 0.000000 1.773820 0.000000 
#    z -0.019790 0.000000 1.742880 
# 
# From -- ./inp_files/248497.got.cif
#   From: 2010.05.17/outbox.cif.g08.bks.cpg/sg12_125_cif.got.tgz:248497.got - 2010.06.03 13:09:07.
