data_PCOD9173054
_publ_section_title
;
Structure prediction by ZEFSAII (Michael W. Deem and Ramdas Pophale) SiO2 
 PCOD9173054
Probable space group: C 2/M
;
_chemical_formula_sum "Si O2"
_cell_formula_units_Z 44
_cell_length_a 23.076278
_cell_length_b 10.413110
_cell_length_c 28.576627
_cell_angle_alpha 90.000000
_cell_angle_beta 158.264557
_cell_angle_gamma 90.000000
_cell_volume 2542.939613
_symmetry_space_group_name_H-M "C 2/M"
_symmetry_group_IT_number 12
_symmetry_cell_setting 'monoclinic'
loop_
_space_group_symop_operation_xyz
x,y,z
-x,y,-z
-x,-y,-z
x,-y,z
1/2+x,1/2+y,z
1/2-x,1/2+y,-z
1/2-x,1/2-y,-z
1/2+x,1/2-y,z
loop_
_atom_site_type_symbol
_atom_site_label
_atom_site_fract_x
_atom_site_fract_y
_atom_site_fract_z
Si Si1 0.812523 0.349296 0.278246
Si Si2 0.500000 0.288513 0.500000
Si Si3 0.156565 0.349420 0.397947
Si Si4 0.819735 0.357765 0.693706
Si Si5 0.309644 0.154541 0.170396
Si Si6 0.513682 0.347787 0.118052
O O1 0.848229 0.500000 0.302150
O O2 0.932265 0.291102 0.405366
O O3 0.818982 0.294629 0.230631
O O4 0.639056 0.336025 0.169817
O O5 0.651893 0.358689 0.593525
O O6 0.182219 0.500000 0.430501
O O7 0.250000 0.250000 0.500000
O O8 0.201135 0.335361 0.377113
O O9 0.972170 0.321762 0.266266
O O10 0.892228 0.500000 0.753859
O O11 0.921180 0.244323 0.792629
O O12 0.290995 0.000000 0.160242
O O13 0.155739 0.196242 0.027069
O O14 0.510089 0.500000 0.128436
#
# Coordination Sequence:
#
# PCOD9173054 Si02
#       6
#     8   4   8   8   8   8
#     4   9  16  27  48  78 104 124 158 207 248 286
#     4  10  18  30  50  70  97 136 169 196 241 294
#     4  10  21  36  53  74 100 130 164 201 243 292
#     4  10  21  35  50  71 101 133 164 201 245 290
#     4   9  17  31  51  73 100 131 160 200 251 291
#     4   9  18  32  52  76  98 126 165 203 242 291
#
# _framework density 17.302810000000001
#
# number of rings (size 3 to 8) (size 9 to 14) (size 15 to 20)
#    0.000    2.545    0.000    2.182    0.000    4.364 
#    0.000    0.909    0.000    9.818    0.000    0.000 
#    0.000    0.000    0.000    0.000    0.000    0.000 
#
# Total GULP energy -122554.497577 kJ/mol
# GULP energy per Si atom -5570.658981 kJ/mol
# Density = 1.726343 g / cm^3
# Si number density = 17.302810 Si / 1000 Ang^3
#
#
#
# Elastic Constant Matrix: (Units=GPa)
#
#
# Indices 1 2 3 4 5 6 
#
# 1 89.4406 49.9483 38.0406 0.0006 -14.9861 0.0001
# 2 49.9483 67.7557 52.0395 -0.0007 -8.9231 -0.0008
# 3 38.0406 52.0395 116.0509 -0.0045 -10.4212 -0.0012
# 4 0.0006 -0.0007 -0.0045 13.4116 -0.0019 -4.2937
# 5 -14.9861 -8.9231 -10.4212 -0.0019 13.5165 0.0003
# 6 0.0001 -0.0008 -0.0012 -4.2937 0.0003 21.4974
#
#
#
# Elastic Compliance Matrix: (Units=1/GPa)
#
#
# Indices 1 2 3 4 5 6 
#
# 1 0.021372 -0.014410 0.000784 0.000001 0.014787 -0.000001
# 2 -0.014410 0.032980 -0.010255 -0.000001 -0.002111 0.000001
# 3 0.000784 -0.010255 0.013353 0.000005 0.004394 0.000001
# 4 0.000001 -0.000001 0.000005 0.079656 0.000015 0.015910
# 5 0.014787 -0.002111 0.004394 0.000015 0.092373 0.000002
# 6 -0.000001 0.000001 0.000001 0.015910 0.000002 0.049695
#
#
# Mechanical properties :
#
#
# Convention : Reuss Voigt Hill
#
# Bulk Modulus (GPa) = 50.14213 61.47824 55.81019
# Shear Modulus (GPa) = 14.54172 18.56635 16.55403
#
# Velocity S-wave (km/s) = 2.90215 3.27926 3.09645
# Velocity P-wave (km/s) = 6.34603 7.06725 6.71633
#
# Compressibility (1/GPa) = 0.01994331
#
# Stress axis : x y z
#
# Youngs Moduli (GPa) = 46.79015 30.32159 74.88908
#
# Poissons Ratio (x) = 0.43693 -0.05871
# Poissons Ratio (y) = 0.67423 0.76798
# Poissons Ratio (z) = -0.03668 0.31095
#
# Static dielectric constant tensor:
#      x y z
#    x 1.578460 0.000000 0.009470 
#    y 0.000000 1.577560 0.000000 
#    z 0.009470 0.000000 1.576360 
# 
# From -- ./inp_files/103384.got.cif
#   From: 2010.05.17/outbox.cif.g08.bks.cpg/sg12_52_cif.got.tgz:103384.got - 2010.06.03 13:09:07.
