data_PCOD9173407
_publ_section_title
;
Structure prediction by ZEFSAII (Michael W. Deem and Ramdas Pophale) SiO2 
 PCOD9173407
Probable space group: C 2/M
;
_chemical_formula_sum "Si O2"
_cell_formula_units_Z 56
_cell_length_a 23.752618
_cell_length_b 19.992042
_cell_length_c 17.159132
_cell_angle_alpha 90.000000
_cell_angle_beta 159.251068
_cell_angle_gamma 90.000000
_cell_volume 2886.707323
_symmetry_space_group_name_H-M "C 2/M"
_symmetry_group_IT_number 12
_symmetry_cell_setting 'monoclinic'
loop_
_space_group_symop_operation_xyz
x,y,z
-x,y,-z
-x,-y,-z
x,-y,z
1/2+x,1/2+y,z
1/2-x,1/2+y,-z
1/2-x,1/2-y,-z
1/2+x,1/2-y,z
loop_
_atom_site_type_symbol
_atom_site_label
_atom_site_fract_x
_atom_site_fract_y
_atom_site_fract_z
Si Si1 0.512294 0.924797 0.760502
Si Si2 0.078886 0.399408 0.022462
Si Si3 0.059280 0.076190 0.499651
Si Si4 0.265631 0.704975 0.907135
Si Si5 0.664392 0.575947 0.913935
Si Si6 0.481790 0.220161 0.656469
Si Si7 0.657478 0.252416 0.162969
O O1 0.447963 0.857837 0.635558
O O2 0.454179 0.000000 0.663593
O O3 0.500643 0.917134 0.838804
O O4 0.697431 0.923006 0.972994
O O5 0.255567 0.426928 0.252779
O O6 0.099456 0.319851 0.057719
O O7 0.000000 0.423179 0.000000
O O8 0.000000 0.113161 0.500000
O O9 0.991932 0.103371 0.332212
O O10 0.993243 0.000000 0.414179
O O11 0.278388 0.712275 0.831634
O O12 0.099026 0.725128 0.732805
O O13 0.288830 0.627823 0.960147
O O14 0.407781 0.747564 0.132650
O O15 0.645244 0.500000 0.917185
O O16 0.310046 0.252431 0.417347
O O17 0.500000 0.282831 0.000000
#
# Coordination Sequence:
#
# PCOD9173407 Si02
#       7
#     8   8   8   8   8   8   8
#     4  10  19  36  58  83 119 151 187 240 292 347
#     4  11  22  35  51  82 116 155 191 231 289 353
#     4  10  18  30  52  80 112 149 184 226 284 348
#     4  10  20  38  61  88 113 150 195 250 288 338
#     4   9  18  33  56  85 112 145 189 240 294 342
#     4  10  21  38  62  90 113 150 203 242 288 346
#     4  11  24  40  58  83 118 156 195 243 296 345
#
# _framework density 19.399265
#
# number of rings (size 3 to 8) (size 9 to 14) (size 15 to 20)
#    0.000    1.857    2.857    1.714    0.000    2.857 
#    2.571    0.714    0.000    4.286    0.000    0.000 
#    0.000    0.000    0.000    0.000    0.000    0.000 
#
# Total GULP energy -156048.659144 kJ/mol
# GULP energy per Si atom -5573.166398 kJ/mol
# Density = 1.935511 g / cm^3
# Si number density = 19.399265 Si / 1000 Ang^3
#
#
#
# Elastic Constant Matrix: (Units=GPa)
#
#
# Indices 1 2 3 4 5 6 
#
# 1 84.6015 16.5382 15.3084 0.0000 8.3935 0.0000
# 2 16.5382 70.3709 -8.4448 0.0000 1.9780 0.0000
# 3 15.3084 -8.4448 56.9697 0.0000 10.9052 0.0000
# 4 0.0000 0.0000 0.0000 15.1819 0.0000 -11.4770
# 5 8.3935 1.9780 10.9052 0.0000 16.0265 0.0000
# 6 0.0000 0.0000 0.0000 -11.4770 0.0000 4.4003
#
#
#
# Elastic Compliance Matrix: (Units=1/GPa)
#
#
# Indices 1 2 3 4 5 6 
#
# 1 0.013530 -0.003452 -0.003303 0.000000 -0.004413 0.000000
# 2 -0.003452 0.015545 0.003740 0.000000 -0.002656 0.000000
# 3 -0.003303 0.003740 0.021561 0.000000 -0.013403 0.000000
# 4 0.000000 0.000000 0.000000 -0.067784 0.000000 -0.176796
# 5 -0.004413 -0.002656 -0.013403 0.000000 0.074156 0.000000
# 6 0.000000 0.000000 0.000000 -0.176796 0.000000 -0.233869
#
#
# Mechanical properties :
#
#
# Convention : Reuss Voigt Hill
#
# Bulk Modulus (GPa) = 22.41797 28.74952 25.58374
# Shear Modulus (GPa) = -32.05893 19.69109 -6.18392
#
# Velocity S-wave (km/s) = -4.06961 3.18943 -1.78735
# Velocity P-wave (km/s) = 3.24054 5.33061 2.99284
#
# Compressibility (1/GPa) = 0.04460707
#
# Stress axis : x y z
#
# Youngs Moduli (GPa) = 73.90770 64.32845 46.38065
#
# Poissons Ratio (x) = 0.22207 0.15319
# Poissons Ratio (y) = 0.25514 -0.17348
# Poissons Ratio (z) = 0.24410 -0.24061
#
# Static dielectric constant tensor:
#      x y z
#    x 1.590880 0.000000 0.006650 
#    y 0.000000 1.812110 0.000000 
#    z 0.006650 0.000000 1.687870 
# 
# From -- ./inp_files/290844.got.cif
#   From: 2010.05.17/outbox.cif.g08.bks.cpg/sg12_146_cif.got.tgz:290844.got - 2010.06.03 13:09:07.
