data_PCOD9173958
_publ_section_title
;
Structure prediction by ZEFSAII (Michael W. Deem and Ramdas Pophale) SiO2 
 PCOD9173958
Probable space group: C 2/M
;
_chemical_formula_sum "Si O2"
_cell_formula_units_Z 56
_cell_length_a 19.638255
_cell_length_b 8.662768
_cell_length_c 28.920855
_cell_angle_alpha 90.000000
_cell_angle_beta 39.125849
_cell_angle_gamma 90.000000
_cell_volume 3104.687276
_symmetry_space_group_name_H-M "C 2/M"
_symmetry_group_IT_number 12
_symmetry_cell_setting 'monoclinic'
loop_
_space_group_symop_operation_xyz
x,y,z
-x,y,-z
-x,-y,-z
x,-y,z
1/2+x,1/2+y,z
1/2-x,1/2+y,-z
1/2-x,1/2-y,-z
1/2+x,1/2-y,z
loop_
_atom_site_type_symbol
_atom_site_label
_atom_site_fract_x
_atom_site_fract_y
_atom_site_fract_z
Si Si1 0.155450 0.315043 0.081530
Si Si2 0.146021 0.683575 0.456926
Si Si3 0.621098 0.314588 0.688682
Si Si4 0.067245 0.817685 0.401103
Si Si5 0.285094 0.182100 0.756226
Si Si6 0.910353 0.683380 0.193151
Si Si7 0.122353 0.815560 0.200632
O O1 0.163361 0.500000 0.081328
O O2 0.156925 0.241258 0.131729
O O3 0.037114 0.278920 0.122857
O O4 0.250000 0.250000 0.000000
O O5 0.133058 0.500000 0.469664
O O6 0.271678 0.725654 0.396333
O O7 0.115766 0.728497 0.419972
O O8 0.058593 0.771122 0.534019
O O9 0.624023 0.500000 0.695048
O O10 0.624160 0.232971 0.736911
O O11 0.505547 0.277488 0.727262
O O12 0.132191 0.767899 0.321808
O O13 0.077822 0.000000 0.403379
O O14 0.166078 0.230579 0.802471
O O15 0.311082 0.234741 0.794224
O O16 0.299108 0.000000 0.743606
O O17 0.896030 0.500000 0.195710
O O18 0.134023 0.000000 0.197633
#
# Coordination Sequence:
#
# PCOD9173958 Si02
#       7
#     8   8   8   8   8   8   8
#     4  10  21  39  63  91 118 147 181 220 267 323
#     4  10  18  31  51  78 108 142 185 234 282 331
#     4   9  18  33  55  80 108 143 185 230 278 331
#     4  11  21  32  49  76 108 146 187 234 283 329
#     4  12  23  37  55  80 113 149 188 232 281 332
#     4  10  20  34  57  85 112 144 185 227 269 324
#     4  10  21  38  59  84 114 148 183 226 278 333
#
# _framework density 18.037243
#
# number of rings (size 3 to 8) (size 9 to 14) (size 15 to 20)
#    0.000    1.714    1.429    5.143    0.000    2.857 
#    0.000    1.429    0.000    4.286    0.000    0.000 
#    0.000    0.000    0.000    0.000    0.000    0.000 
#
# Total GULP energy -156375.825574 kJ/mol
# GULP energy per Si atom -5584.850913 kJ/mol
# Density = 1.799619 g / cm^3
# Si number density = 18.037243 Si / 1000 Ang^3
#
#
#
# Elastic Constant Matrix: (Units=GPa)
#
#
# Indices 1 2 3 4 5 6 
#
# 1 85.6782 23.0235 26.8343 -0.0001 -6.0615 0.0010
# 2 23.0235 45.9151 17.8339 -0.0001 -7.0898 0.0017
# 3 26.8343 17.8339 97.8075 -0.0001 -16.2473 0.0004
# 4 -0.0001 -0.0001 -0.0001 29.8513 0.0000 1.4645
# 5 -6.0615 -7.0898 -16.2473 0.0000 17.4432 -0.0001
# 6 0.0010 0.0017 0.0004 1.4645 -0.0001 21.8028
#
#
#
# Elastic Compliance Matrix: (Units=1/GPa)
#
#
# Indices 1 2 3 4 5 6 
#
# 1 0.014162 -0.006033 -0.002810 0.000000 -0.000148 0.000000
# 2 -0.006033 0.026662 -0.002075 0.000000 0.006807 -0.000002
# 3 -0.002810 -0.002075 0.013098 0.000000 0.010380 0.000000
# 4 0.000000 0.000000 0.000000 0.033610 0.000000 -0.002258
# 5 -0.000148 0.006807 0.010380 0.000000 0.069712 0.000000
# 6 0.000000 -0.000002 0.000000 -0.002258 0.000000 0.046017
#
#
# Mechanical properties :
#
#
# Convention : Reuss Voigt Hill
#
# Bulk Modulus (GPa) = 31.16736 40.53155 35.84946
# Shear Modulus (GPa) = 21.20498 24.60008 22.90253
#
# Velocity S-wave (km/s) = 3.43245 3.69704 3.56720
# Velocity P-wave (km/s) = 5.74682 6.38310 6.07330
#
# Compressibility (1/GPa) = 0.03208485
#
# Stress axis : x y z
#
# Youngs Moduli (GPa) = 70.60950 37.50701 76.34851
#
# Poissons Ratio (x) = 0.22628 0.21455
# Poissons Ratio (y) = 0.42598 0.15846
# Poissons Ratio (z) = 0.19842 0.07784
#
# Static dielectric constant tensor:
#      x y z
#    x 1.607420 0.000000 -0.036410 
#    y 0.000000 1.601660 0.000000 
#    z -0.036410 0.000000 1.613100 
# 
# From -- ./inp_files/363012.got.cif
#   From: 2010.05.17/outbox.cif.g08.bks.cpg/sg12_182_cif.got.tgz:363012.got - 2010.06.03 13:09:07.
