data_PCOD9173747
_publ_section_title
;
Structure prediction by ZEFSAII (Michael W. Deem and Ramdas Pophale) SiO2 
 PCOD9173747
Probable space group: C 2/M
;
_chemical_formula_sum "Si O2"
_cell_formula_units_Z 56
_cell_length_a 24.857420
_cell_length_b 26.434822
_cell_length_c 5.233857
_cell_angle_alpha 90.000000
_cell_angle_beta 90.872111
_cell_angle_gamma 90.000000
_cell_volume 3438.776749
_symmetry_space_group_name_H-M "C 2/M"
_symmetry_group_IT_number 12
_symmetry_cell_setting 'monoclinic'
loop_
_space_group_symop_operation_xyz
x,y,z
-x,y,-z
-x,-y,-z
x,-y,z
1/2+x,1/2+y,z
1/2-x,1/2+y,-z
1/2-x,1/2-y,-z
1/2+x,1/2-y,z
loop_
_atom_site_type_symbol
_atom_site_label
_atom_site_fract_x
_atom_site_fract_y
_atom_site_fract_z
Si Si1 0.278953 0.348690 0.552745
Si Si2 0.749080 0.442433 0.728118
Si Si3 0.197834 0.785881 0.956136
Si Si4 0.307378 0.116204 0.124371
Si Si5 0.869546 0.443175 0.498271
Si Si6 0.063268 0.344289 0.462986
Si Si7 0.616428 0.802446 0.988073
O O1 0.286278 0.406550 0.456565
O O2 0.292096 0.314129 0.310866
O O3 0.216199 0.351869 0.638461
O O4 0.305866 0.324493 0.805022
O O5 0.730602 0.500000 0.748487
O O6 0.811405 0.443788 0.634546
O O7 0.757785 0.412908 0.993681
O O8 0.145020 0.751028 0.952107
O O9 0.250000 0.750000 0.000000
O O10 0.350594 0.074851 0.215174
O O11 0.335301 0.157556 0.951585
O O12 0.891320 0.500000 0.506332
O O13 0.910021 0.399440 0.587595
O O14 0.089651 0.321733 0.723257
O O15 0.000000 0.349519 0.500000
O O16 0.076823 0.308444 0.223742
#
# Coordination Sequence:
#
# PCOD9173747 Si02
#       7
#     8   8   8   8   8   8   8
#     4  11  21  32  46  77 101 131 169 210 244 310
#     4  10  18  32  50  71 104 143 175 211 253 305
#     4  12  22  32  53  75 105 128 163 213 269 311
#     4  10  18  31  50  70 104 127 175 213 256 310
#     4   9  19  31  49  71  94 130 175 227 277 303
#     4  11  23  39  55  72  97 130 178 226 270 319
#     4  11  22  36  55  73  98 132 165 214 277 306
#
# _framework density 16.284860999999999
#
# number of rings (size 3 to 8) (size 9 to 14) (size 15 to 20)
#    0.000    1.429    4.286    2.143    4.000    0.857 
#    0.000    0.000    0.000    2.571    0.000    0.000 
#    0.000    0.000    0.000    0.000    0.000   50.000 
#
# Total GULP energy -155944.008359 kJ/mol
# GULP energy per Si atom -5569.428870 kJ/mol
# Density = 1.624780 g / cm^3
# Si number density = 16.284861 Si / 1000 Ang^3
#
#
#
# Elastic Constant Matrix: (Units=GPa)
#
#
# Indices 1 2 3 4 5 6 
#
# 1 48.9296 48.3150 22.2457 0.0000 -5.5521 0.0000
# 2 48.3150 116.4135 48.9431 0.0000 -2.7941 0.0000
# 3 22.2457 48.9431 99.1462 0.0000 -8.8676 0.0000
# 4 0.0000 0.0000 0.0000 19.2058 0.0000 -1.3088
# 5 -5.5521 -2.7941 -8.8676 0.0000 18.4104 0.0000
# 6 0.0000 0.0000 0.0000 -1.3088 0.0000 17.4645
#
#
#
# Elastic Compliance Matrix: (Units=1/GPa)
#
#
# Indices 1 2 3 4 5 6 
#
# 1 0.035938 -0.014691 -0.000043 0.000000 0.008588 0.000000
# 2 -0.014691 0.016862 -0.005429 0.000000 -0.004486 0.000000
# 3 -0.000043 -0.005429 0.013273 0.000000 0.005556 0.000000
# 4 0.000000 0.000000 0.000000 0.052335 0.000000 0.003922
# 5 0.008588 -0.004486 0.005556 0.000000 0.058902 0.000000
# 6 0.000000 0.000000 0.000000 0.003922 0.000000 0.057553
#
#
# Mechanical properties :
#
#
# Convention : Reuss Voigt Hill
#
# Bulk Modulus (GPa) = 38.84026 55.94411 47.39218
# Shear Modulus (GPa) = 17.61982 20.68186 19.15084
#
# Velocity S-wave (km/s) = 3.29291 3.56758 3.43299
# Velocity P-wave (km/s) = 6.19354 7.16925 6.69918
#
# Compressibility (1/GPa) = 0.02574648
#
# Stress axis : x y z
#
# Youngs Moduli (GPa) = 27.82553 59.30483 75.34283
#
# Poissons Ratio (x) = 0.87125 0.00326
# Poissons Ratio (y) = 0.40879 0.40902
# Poissons Ratio (z) = 0.00120 0.32196
#
# Static dielectric constant tensor:
#      x y z
#    x 1.533870 0.000000 -0.004000 
#    y 0.000000 1.587770 0.000000 
#    z -0.004000 0.000000 1.658440 
# 
# From -- ./inp_files/22192.got.cif
#   From: 2010.05.17/outbox.cif.g08.bks.cpg/sg12_12_cif.got.tgz:22192.got - 2010.06.03 13:09:07.
