data_PCOD9173284
_publ_section_title
;
Structure prediction by ZEFSAII (Michael W. Deem and Ramdas Pophale) SiO2 
 PCOD9173284
Probable space group: C 2/M
;
_chemical_formula_sum "Si O2"
_cell_formula_units_Z 56
_cell_length_a 24.092085
_cell_length_b 8.132799
_cell_length_c 17.000888
_cell_angle_alpha 90.000000
_cell_angle_beta 127.047830
_cell_angle_gamma 90.000000
_cell_volume 2658.650280
_symmetry_space_group_name_H-M "C 2/M"
_symmetry_group_IT_number 12
_symmetry_cell_setting 'monoclinic'
loop_
_space_group_symop_operation_xyz
x,y,z
-x,y,-z
-x,-y,-z
x,-y,z
1/2+x,1/2+y,z
1/2-x,1/2+y,-z
1/2-x,1/2-y,-z
1/2+x,1/2-y,z
loop_
_atom_site_type_symbol
_atom_site_label
_atom_site_fract_x
_atom_site_fract_y
_atom_site_fract_z
Si Si1 0.604911 0.809111 0.244433
Si Si2 0.674107 0.803497 0.908795
Si Si3 0.150025 0.192717 0.451989
Si Si4 0.862362 0.698372 0.299423
Si Si5 0.031356 0.188913 0.811557
Si Si6 0.749493 0.301698 0.668356
Si Si7 0.010784 0.690041 0.392520
O O1 0.632097 0.790371 0.357820
O O2 0.530574 0.721069 0.180047
O O3 0.671331 0.743033 0.252988
O O4 0.593730 0.000000 0.216620
O O5 0.661126 0.747740 0.807727
O O6 0.609720 0.729659 0.903150
O O7 0.669310 0.000000 0.907754
O O8 0.750000 0.750000 0.000000
O O9 0.215562 0.256298 0.557155
O O10 0.082712 0.212846 0.451421
O O11 0.157623 0.000000 0.439138
O O12 0.864860 0.500000 0.302252
O O13 0.804831 0.754962 0.311276
O O14 0.942716 0.751637 0.381038
O O15 0.015169 0.300232 0.721063
O O16 0.026715 0.000000 0.781809
O O17 0.752474 0.500000 0.665995
O O18 0.025190 0.500000 0.425266
#
# Coordination Sequence:
#
# PCOD9173284 Si02
#       7
#     8   8   8   8   8   8   8
#     4  10  19  33  50  70  98 135 175 215 251 292
#     4  10  20  36  58  85 108 129 157 196 244 299
#     4  10  19  31  47  71  97 129 175 221 256 293
#     4   9  20  35  51  72 101 132 165 200 246 303
#     4  10  18  30  51  78 102 130 164 203 248 294
#     4  10  22  34  47  69 100 136 174 212 254 296
#     4   9  17  31  48  69  97 131 168 210 254 300
#
# _framework density 21.063320000000001
#
# number of rings (size 3 to 8) (size 9 to 14) (size 15 to 20)
#    0.000    2.286    0.000    6.000    0.000    6.286 
#    0.000    2.857    0.000    0.857    0.000    6.000 
#    0.000    0.000    0.000    0.000    0.000    0.000 
#
# Total GULP energy -156264.522101 kJ/mol
# GULP energy per Si atom -5580.875789 kJ/mol
# Density = 2.101538 g / cm^3
# Si number density = 21.063320 Si / 1000 Ang^3
#
#
#
# Elastic Constant Matrix: (Units=GPa)
#
#
# Indices 1 2 3 4 5 6 
#
# 1 137.3445 2.4854 23.0696 0.0000 40.8629 0.0000
# 2 2.4854 42.1247 2.4464 0.0000 6.4699 0.0000
# 3 23.0696 2.4464 49.6202 0.0000 31.9860 0.0000
# 4 0.0000 0.0000 0.0000 18.8479 0.0000 4.7889
# 5 40.8629 6.4699 31.9860 0.0000 38.1500 0.0000
# 6 0.0000 0.0000 0.0000 4.7889 0.0000 28.9412
#
#
#
# Elastic Compliance Matrix: (Units=1/GPa)
#
#
# Indices 1 2 3 4 5 6 
#
# 1 0.011465 0.001666 0.005844 0.000000 -0.017462 0.000000
# 2 0.001666 0.024849 0.004063 0.000000 -0.009406 0.000000
# 3 0.005844 0.004063 0.047254 0.000000 -0.046568 0.000000
# 4 0.000000 0.000000 0.000000 0.055385 0.000000 -0.009165
# 5 -0.017462 -0.009406 -0.046568 0.000000 0.085556 0.000000
# 6 0.000000 0.000000 0.000000 -0.009165 0.000000 0.036069
#
#
# Mechanical properties :
#
#
# Convention : Reuss Voigt Hill
#
# Bulk Modulus (GPa) = 9.37069 31.67693 20.52381
# Shear Modulus (GPa) = 18.31483 30.59368 24.45426
#
# Velocity S-wave (km/s) = 2.95195 3.81525 3.41102
# Velocity P-wave (km/s) = 4.00963 5.87195 5.02777
#
# Compressibility (1/GPa) = 0.10671567
#
# Stress axis : x y z
#
# Youngs Moduli (GPa) = 87.22506 40.24251 21.16208
#
# Poissons Ratio (x) = -0.06705 -0.12368
# Poissons Ratio (y) = -0.14533 -0.08599
# Poissons Ratio (z) = -0.50977 -0.16351
#
# Static dielectric constant tensor:
#      x y z
#    x 1.850030 0.000000 0.019000 
#    y 0.000000 1.731370 0.000000 
#    z 0.019000 0.000000 1.766310 
# 
# From -- ./inp_files/288387.got.cif
#   From: 2010.05.17/outbox.cif.g08.bks.cpg/sg12_145_cif.got.tgz:288387.got - 2010.06.03 13:09:07.
