data_PCOD9173619
_publ_section_title
;
Structure prediction by ZEFSAII (Michael W. Deem and Ramdas Pophale) SiO2 
 PCOD9173619
Probable space group: C 2/M
;
_chemical_formula_sum "Si O2"
_cell_formula_units_Z 64
_cell_length_a 29.126760
_cell_length_b 8.444336
_cell_length_c 21.651327
_cell_angle_alpha 90.000000
_cell_angle_beta 44.523716
_cell_angle_gamma 90.000000
_cell_volume 3734.107839
_symmetry_space_group_name_H-M "C 2/M"
_symmetry_group_IT_number 12
_symmetry_cell_setting 'monoclinic'
loop_
_space_group_symop_operation_xyz
x,y,z
-x,y,-z
-x,-y,-z
x,-y,z
1/2+x,1/2+y,z
1/2-x,1/2+y,-z
1/2-x,1/2-y,-z
1/2+x,1/2-y,z
loop_
_atom_site_type_symbol
_atom_site_label
_atom_site_fract_x
_atom_site_fract_y
_atom_site_fract_z
Si Si1 0.854637 0.318371 0.487062
Si Si2 0.988774 0.685062 0.687019
Si Si3 0.442399 0.191130 0.601657
Si Si4 0.039407 0.309501 0.902957
Si Si5 0.024011 0.306790 0.781432
Si Si6 0.170119 0.813184 0.617827
Si Si7 0.182439 0.816241 0.348012
Si Si8 0.185244 0.188988 0.739905
O O1 0.838960 0.500000 0.518859
O O2 0.818399 0.275134 0.457910
O O3 0.839464 0.210961 0.559997
O O4 0.932784 0.308462 0.400069
O O5 0.970139 0.500000 0.706392
O O6 0.954668 0.755057 0.659151
O O7 0.979407 0.743857 0.766182
O O8 0.500000 0.247408 0.500000
O O9 0.372280 0.234217 0.641416
O O10 0.448193 0.000000 0.598096
O O11 0.041699 0.500000 0.904470
O O12 0.005380 0.270500 0.869760
O O13 0.114300 0.251582 0.827799
O O14 0.000000 0.248620 0.000000
O O15 0.033839 0.500000 0.767522
O O16 0.093145 0.220587 0.704573
O O17 0.199846 0.758025 0.654745
O O18 0.181395 0.000000 0.598527
O O19 0.255214 0.745386 0.275037
O O20 0.184180 0.000000 0.331795
O O21 0.182560 0.000000 0.740884
#
# Coordination Sequence:
#
# PCOD9173619 Si02
#       8
#     8   8   8   8   8   8   8   8
#     4  10  18  31  48  66  90 127 168 201 241 289
#     4   8  14  26  46  67  89 123 164 202 234 277
#     4  10  18  32  50  67  91 126 169 210 248 289
#     4   9  17  31  53  80 107 130 154 191 238 288
#     4   8  14  26  45  70  98 129 160 187 229 290
#     4   9  17  29  45  67  92 121 160 203 241 277
#     4  12  24  34  46  67  95 126 166 211 252 288
#     4  10  21  36  51  68  96 131 164 198 240 294
#
# _framework density 17.139299999999999
#
# number of rings (size 3 to 8) (size 9 to 14) (size 15 to 20)
#    0.000    2.500    1.250    3.000    0.000    2.500 
#    0.000    0.625    0.000    0.000    0.000    0.875 
#    0.000    0.000    0.000    0.000    0.000    0.000 
#
# Total GULP energy -178323.797814 kJ/mol
# GULP energy per Si atom -5572.618682 kJ/mol
# Density = 1.710029 g / cm^3
# Si number density = 17.139300 Si / 1000 Ang^3
#
#
#
# Elastic Constant Matrix: (Units=GPa)
#
#
# Indices 1 2 3 4 5 6 
#
# 1 145.7092 8.1537 45.1184 -0.0001 19.7678 -0.0006
# 2 8.1537 13.8055 7.2013 -0.0003 4.2990 0.0002
# 3 45.1184 7.2013 87.0748 0.0018 18.5432 -0.0010
# 4 -0.0001 -0.0003 0.0018 14.9305 0.0004 -1.5518
# 5 19.7678 4.2990 18.5432 0.0004 20.3919 -0.0002
# 6 -0.0006 0.0002 -0.0010 -1.5518 -0.0002 20.8983
#
#
#
# Elastic Compliance Matrix: (Units=1/GPa)
#
#
# Indices 1 2 3 4 5 6 
#
# 1 0.008660 -0.001844 -0.003261 0.000001 -0.005040 0.000000
# 2 -0.001844 0.078856 -0.002985 0.000002 -0.012123 -0.000001
# 3 -0.003261 -0.002985 0.015643 -0.000002 -0.010434 0.000000
# 4 0.000001 0.000002 -0.000002 0.067498 -0.000001 0.005012
# 5 -0.005040 -0.012123 -0.010434 -0.000001 0.065970 0.000000
# 6 0.000000 -0.000001 0.000000 0.005012 0.000000 0.048223
#
#
# Mechanical properties :
#
#
# Convention : Reuss Voigt Hill
#
# Bulk Modulus (GPa) = 11.49694 40.83738 26.16716
# Shear Modulus (GPa) = 15.15053 23.65189 19.40121
#
# Velocity S-wave (km/s) = 2.97638 3.71884 3.36813
# Velocity P-wave (km/s) = 4.30515 6.50524 5.51600
#
# Compressibility (1/GPa) = 0.08697963
#
# Stress axis : x y z
#
# Youngs Moduli (GPa) = 115.47582 12.68135 63.92591
#
# Poissons Ratio (x) = 0.02338 0.20848
# Poissons Ratio (y) = 0.21292 0.19079
# Poissons Ratio (z) = 0.37660 0.03785
#
# Static dielectric constant tensor:
#      x y z
#    x 1.624310 0.000000 0.022900 
#    y 0.000000 1.574590 0.000000 
#    z 0.022900 0.000000 1.592170 
# 
# From -- ./inp_files/326844.got.cif
#   From: 2010.05.17/outbox.cif.g08.bks.cpg/sg12_164_cif.got.tgz:326844.got - 2010.06.03 13:09:07.
