data_PCOD9173010
_publ_section_title
;
Structure prediction by ZEFSAII (Michael W. Deem and Ramdas Pophale) SiO2 
 PCOD9173010
Probable space group: C 2/M
;
_chemical_formula_sum "Si O2"
_cell_formula_units_Z 48
_cell_length_a 25.826396
_cell_length_b 7.415395
_cell_length_c 13.061211
_cell_angle_alpha 90.000000
_cell_angle_beta 109.858949
_cell_angle_gamma 90.000000
_cell_volume 2352.637451
_symmetry_space_group_name_H-M "C 2/M"
_symmetry_group_IT_number 12
_symmetry_cell_setting 'monoclinic'
loop_
_space_group_symop_operation_xyz
x,y,z
-x,y,-z
-x,-y,-z
x,-y,z
1/2+x,1/2+y,z
1/2-x,1/2+y,-z
1/2-x,1/2-y,-z
1/2+x,1/2-y,z
loop_
_atom_site_type_symbol
_atom_site_label
_atom_site_fract_x
_atom_site_fract_y
_atom_site_fract_z
Si Si1 0.938888 0.220359 0.619714
Si Si2 0.059604 0.780130 0.994907
Si Si3 0.370967 0.289327 0.770443
Si Si4 0.749510 0.713538 0.621148
Si Si5 0.867774 0.779424 0.377604
Si Si6 0.938635 0.220083 0.237489
O O1 0.902594 0.283872 0.691989
O O2 0.910067 0.276571 0.495297
O O3 0.001836 0.274817 0.678325
O O4 0.938243 0.000000 0.618233
O O5 0.067044 0.718760 0.883385
O O6 0.060257 0.000000 0.990767
O O7 0.105415 0.717644 0.106883
O O8 0.000000 0.729309 0.000000
O O9 0.385819 0.500000 0.781479
O O10 0.306056 0.277329 0.709610
O O11 0.748907 0.500000 0.633102
O O12 0.750000 0.750000 0.500000
O O13 0.693255 0.783602 0.633606
O O14 0.891084 0.722887 0.283581
O O15 0.866921 0.000000 0.378024
O O16 0.938657 0.000000 0.236439
#
# Coordination Sequence:
#
# PCOD9173010 Si02
#       6
#     8   8   8   8   8   8
#     4   9  14  23  42  69  99 123 149 195 247 288
#     4   9  15  25  44  71 101 128 156 198 243 282
#     4  10  18  30  49  75 102 124 157 201 242 285
#     4  11  21  34  51  71  97 129 165 201 238 285
#     4   9  17  27  41  66  98 127 156 197 245 287
#     4   9  15  24  41  69 101 127 154 196 248 287
#
# _framework density 20.402633000000002
#
# number of rings (size 3 to 8) (size 9 to 14) (size 15 to 20)
#    0.000    2.500    3.333    1.000    0.000    2.000 
#    0.000    0.833    0.000    0.500    0.000    4.667 
#    0.000    0.000    0.000    0.000    0.000    0.000 
#
# Total GULP energy -134004.889321 kJ/mol
# GULP energy per Si atom -5583.537055 kJ/mol
# Density = 2.035620 g / cm^3
# Si number density = 20.402633 Si / 1000 Ang^3
#
#
#
# Elastic Constant Matrix: (Units=GPa)
#
#
# Indices 1 2 3 4 5 6 
#
# 1 170.1883 -8.8424 108.8992 0.0000 -19.6198 0.0000
# 2 -8.8424 60.2477 -7.3350 0.0000 -5.3986 0.0000
# 3 108.8992 -7.3350 168.1769 0.0000 -11.6582 0.0000
# 4 0.0000 0.0000 0.0000 -4.0612 0.0000 6.2186
# 5 -19.6198 -5.3986 -11.6582 0.0000 39.1185 0.0000
# 6 0.0000 0.0000 0.0000 6.2186 0.0000 10.8866
#
#
#
# Elastic Compliance Matrix: (Units=1/GPa)
#
#
# Indices 1 2 3 4 5 6 
#
# 1 0.010497 0.001059 -0.006510 0.000000 0.003471 0.000000
# 2 0.001059 0.017051 0.000263 0.000000 0.002963 0.000000
# 3 -0.006510 0.000263 0.010159 0.000000 -0.000201 0.000000
# 4 0.000000 0.000000 0.000000 -0.131347 0.000000 0.075028
# 5 0.003471 0.002963 -0.000201 0.000000 0.027653 0.000000
# 6 0.000000 0.000000 0.000000 0.075028 0.000000 0.048999
#
#
# Mechanical properties :
#
#
# Convention : Reuss Voigt Hill
#
# Bulk Modulus (GPa) = 36.58808 64.89517 50.74163
# Shear Modulus (GPa) = 2002.02615 29.58152 1015.80384
#
# Velocity S-wave (km/s) = 31.35903 3.81187 22.33740
# Velocity P-wave (km/s) = 36.45761 7.15892 26.27173
#
# Compressibility (1/GPa) = 0.02733130
#
# Stress axis : x y z
#
# Youngs Moduli (GPa) = 95.26910 58.64722 98.43384
#
# Poissons Ratio (x) = -0.06211 0.64081
# Poissons Ratio (y) = -0.10089 -0.02592
# Poissons Ratio (z) = 0.62021 -0.01544
#
# Static dielectric constant tensor:
#      x y z
#    x 1.691890 0.000000 -0.013840 
#    y 0.000000 1.801220 0.000000 
#    z -0.013840 0.000000 1.692520 
# 
# From -- ./inp_files/172159.got.cif
#   From: 2010.05.17/outbox.cif.g08.bks.cpg/sg12_87_cif.got.tgz:172159.got - 2010.06.03 13:09:07.
