data_PCOD9173880
_publ_section_title
;
Structure prediction by ZEFSAII (Michael W. Deem and Ramdas Pophale) SiO2 
 PCOD9173880
Probable space group: C 2/M
;
_chemical_formula_sum "Si O2"
_cell_formula_units_Z 32
_cell_length_a 5.376272
_cell_length_b 26.901403
_cell_length_c 15.414701
_cell_angle_alpha 90.000000
_cell_angle_beta 49.833998
_cell_angle_gamma 90.000000
_cell_volume 1703.673260
_symmetry_space_group_name_H-M "C 2/M"
_symmetry_group_IT_number 12
_symmetry_cell_setting 'monoclinic'
loop_
_space_group_symop_operation_xyz
x,y,z
-x,y,-z
-x,-y,-z
x,-y,z
1/2+x,1/2+y,z
1/2-x,1/2+y,-z
1/2-x,1/2-y,-z
1/2+x,1/2-y,z
loop_
_atom_site_type_symbol
_atom_site_label
_atom_site_fract_x
_atom_site_fract_y
_atom_site_fract_z
Si Si1 0.299840 0.890702 0.174176
Si Si2 0.233914 0.275744 0.863276
Si Si3 0.158912 0.942708 0.849528
Si Si4 0.345094 0.442720 0.625180
O O1 0.287035 0.832110 0.164554
O O2 0.658168 0.912516 0.115361
O O3 0.094580 0.908333 0.305000
O O4 0.144511 0.916458 0.125663
O O5 0.583521 0.259154 0.821944
O O6 0.000000 0.271914 0.000000
O O7 0.451435 0.943164 0.711972
O O8 0.095446 0.000000 0.885894
O O9 0.500000 0.426814 0.500000
O O10 0.447497 0.500000 0.619802
#
# Coordination Sequence:
#
# PCOD9173880 Si02
#       4
#     8   8   8   8
#     4  10  18  31  51  73 101 132 162 206 253 289
#     4  10  21  37  57  77  94 121 169 220 258 294
#     4   9  17  29  48  74 104 135 163 195 237 292
#     4   8  16  29  48  75 104 134 167 197 231 287
#
# _framework density 18.782945999999999
#
# number of rings (size 3 to 8) (size 9 to 14) (size 15 to 20)
#    1.500    1.250    0.000    3.000    0.000    1.000 
#    0.000    3.750    0.000    9.750    0.000    0.000 
#    0.000    0.000    0.000    0.000    0.000    0.000 
#
# Total GULP energy -89080.749743 kJ/mol
# GULP energy per Si atom -5567.546859 kJ/mol
# Density = 1.874019 g / cm^3
# Si number density = 18.782946 Si / 1000 Ang^3
#
#
#
# Elastic Constant Matrix: (Units=GPa)
#
#
# Indices 1 2 3 4 5 6 
#
# 1 157.8352 80.8939 27.5569 0.0000 18.1658 0.0000
# 2 80.8939 124.2642 -6.1413 0.0000 10.8015 0.0000
# 3 27.5569 -6.1413 51.3534 0.0000 7.6660 0.0000
# 4 0.0000 0.0000 0.0000 -3.7518 0.0000 -4.1390
# 5 18.1658 10.8015 7.6660 0.0000 14.5180 0.0000
# 6 0.0000 0.0000 0.0000 -4.1390 0.0000 30.4046
#
#
#
# Elastic Compliance Matrix: (Units=1/GPa)
#
#
# Indices 1 2 3 4 5 6 
#
# 1 0.012096 -0.007676 -0.006516 0.000000 -0.005984 0.000000
# 2 -0.007676 0.013701 0.006346 0.000000 -0.003939 0.000000
# 3 -0.006516 0.006346 0.025202 0.000000 -0.009876 0.000000
# 4 0.000000 0.000000 0.000000 -0.231734 0.000000 -0.031546
# 5 -0.005984 -0.003939 -0.009876 0.000000 0.084513 0.000000
# 6 0.000000 0.000000 0.000000 -0.031546 0.000000 0.028595
#
#
# Mechanical properties :
#
#
# Convention : Reuss Voigt Hill
#
# Bulk Modulus (GPa) = 28.32349 59.78574 44.05462
# Shear Modulus (GPa) = -124.48673 23.64372 -50.42151
#
# Velocity S-wave (km/s) = -8.14987 3.55179 -5.18677
# Velocity P-wave (km/s) = 8.57020 6.97991 3.51633
#
# Compressibility (1/GPa) = 0.03530638
#
# Stress axis : x y z
#
# Youngs Moduli (GPa) = 82.66957 72.98963 39.67860
#
# Poissons Ratio (x) = 0.56030 0.25854
# Poissons Ratio (y) = 0.63460 -0.25179
# Poissons Ratio (z) = 0.53866 -0.46317
#
# Static dielectric constant tensor:
#      x y z
#    x 1.670850 0.000000 -0.002960 
#    y 0.000000 1.617790 0.000000 
#    z -0.002960 0.000000 1.691730 
# 
# From -- ./inp_files/114771.got.cif
#   From: 2010.05.17/outbox.cif.g08.bks.cpg/sg12_58_cif.got.tgz:114771.got - 2010.06.03 13:09:07.
