data_PCOD9173228
_publ_section_title
;
Structure prediction by ZEFSAII (Michael W. Deem and Ramdas Pophale) SiO2 
 PCOD9173228
Probable space group: C 2/M
;
_chemical_formula_sum "Si O2"
_cell_formula_units_Z 56
_cell_length_a 21.971036
_cell_length_b 12.876586
_cell_length_c 17.069471
_cell_angle_alpha 90.000000
_cell_angle_beta 133.733635
_cell_angle_gamma 90.000000
_cell_volume 3489.362704
_symmetry_space_group_name_H-M "C 2/M"
_symmetry_group_IT_number 12
_symmetry_cell_setting 'monoclinic'
loop_
_space_group_symop_operation_xyz
x,y,z
-x,y,-z
-x,-y,-z
x,-y,z
1/2+x,1/2+y,z
1/2-x,1/2+y,-z
1/2-x,1/2-y,-z
1/2+x,1/2-y,z
loop_
_atom_site_type_symbol
_atom_site_label
_atom_site_fract_x
_atom_site_fract_y
_atom_site_fract_z
Si Si1 0.084164 0.878465 0.626485
Si Si2 0.162701 0.288437 0.459183
Si Si3 0.001069 0.197121 0.879437
Si Si4 0.869700 0.879811 0.887310
Si Si5 0.982803 0.121554 0.688728
Si Si6 0.380021 0.120098 0.738140
Si Si7 0.229453 0.257196 0.679868
O O1 0.055940 0.858834 0.690645
O O2 0.158790 0.807100 0.662319
O O3 0.000000 0.861541 0.500000
O O4 0.107061 0.000000 0.638353
O O5 0.250000 0.250000 0.500000
O O6 0.127911 0.368104 0.363476
O O7 0.185793 0.317594 0.568360
O O8 0.097006 0.193170 0.403040
O O9 0.931829 0.132468 0.867627
O O10 0.960725 0.311710 0.836025
O O11 0.008727 0.150141 0.799894
O O12 0.085948 0.186475 0.004726
O O13 0.781138 0.833609 0.781724
O O14 0.865703 0.000000 0.906533
O O15 0.960164 0.000000 0.663016
O O16 0.299044 0.177707 0.704798
O O17 0.383954 0.000000 0.763624
#
# Coordination Sequence:
#
# PCOD9173228 Si02
#       7
#     8   8   8   8   8   8   8
#     4  10  19  31  50  73 100 136 170 203 244 287
#     4   9  18  28  43  70  99 127 158 197 246 293
#     4   9  18  33  52  77  99 126 166 208 248 292
#     4  10  19  33  54  75 100 130 162 205 251 296
#     4  10  18  30  51  74  97 129 168 207 245 287
#     4   9  18  31  49  72 103 133 159 201 254 303
#     4  10  19  32  47  73 104 131 166 205 244 292
#
# _framework density 16.048774999999999
#
# number of rings (size 3 to 8) (size 9 to 14) (size 15 to 20)
#    0.000    2.429    1.429    3.000    0.000    2.857 
#    0.000    7.143    0.000    3.857    0.000    0.000 
#    0.000    0.000    0.000    0.000    0.000    0.000 
#
# Total GULP energy -155999.481900 kJ/mol
# GULP energy per Si atom -5571.410068 kJ/mol
# Density = 1.601225 g / cm^3
# Si number density = 16.048775 Si / 1000 Ang^3
#
#
#
# Elastic Constant Matrix: (Units=GPa)
#
#
# Indices 1 2 3 4 5 6 
#
# 1 59.4858 11.3775 31.6342 0.0000 -2.1368 0.0000
# 2 11.3775 70.3148 29.7402 0.0000 6.1640 0.0000
# 3 31.6342 29.7402 115.7101 0.0000 -5.7472 0.0000
# 4 0.0000 0.0000 0.0000 9.8974 0.0000 0.3817
# 5 -2.1368 6.1640 -5.7472 0.0000 14.4383 0.0000
# 6 0.0000 0.0000 0.0000 0.3817 0.0000 21.1170
#
#
#
# Elastic Compliance Matrix: (Units=1/GPa)
#
#
# Indices 1 2 3 4 5 6 
#
# 1 0.019763 -0.001199 -0.005024 0.000000 0.001437 0.000000
# 2 -0.001199 0.017154 -0.004543 0.000000 -0.009309 0.000000
# 3 -0.005024 -0.004543 0.011470 0.000000 0.005762 0.000000
# 4 0.000000 0.000000 0.000000 0.101107 0.000000 -0.001828
# 5 0.001437 -0.009309 0.005762 0.000000 0.075741 0.000000
# 6 0.000000 0.000000 0.000000 -0.001828 0.000000 0.047388
#
#
# Mechanical properties :
#
#
# Convention : Reuss Voigt Hill
#
# Bulk Modulus (GPa) = 37.23799 43.44604 40.34202
# Shear Modulus (GPa) = 16.49590 20.60779 18.55184
#
# Velocity S-wave (km/s) = 3.20950 3.58728 3.40364
# Velocity P-wave (km/s) = 6.08177 6.65493 6.37480
#
# Compressibility (1/GPa) = 0.02685430
#
# Stress axis : x y z
#
# Youngs Moduli (GPa) = 50.59917 58.29710 87.18689
#
# Poissons Ratio (x) = 0.06990 0.43798
# Poissons Ratio (y) = 0.06067 0.39613
# Poissons Ratio (z) = 0.25419 0.26487
#
# Static dielectric constant tensor:
#      x y z
#    x 1.521770 0.000000 -0.023360 
#    y 0.000000 1.523150 0.000000 
#    z -0.023360 0.000000 1.562750 
# 
# From -- ./inp_files/282978.got.cif
#   From: 2010.05.17/outbox.cif.g08.bks.cpg/sg12_142_cif.got.tgz:282978.got - 2010.06.03 13:09:07.
