data_PCOD9173962
_publ_section_title
;
Structure prediction by ZEFSAII (Michael W. Deem and Ramdas Pophale) SiO2 
 PCOD9173962
Probable space group: C 2/M
;
_chemical_formula_sum "Si O2"
_cell_formula_units_Z 48
_cell_length_a 27.338653
_cell_length_b 9.136422
_cell_length_c 20.611146
_cell_angle_alpha 90.000000
_cell_angle_beta 27.079863
_cell_angle_gamma 90.000000
_cell_volume 2343.625384
_symmetry_space_group_name_H-M "C 2/M"
_symmetry_group_IT_number 12
_symmetry_cell_setting 'monoclinic'
loop_
_space_group_symop_operation_xyz
x,y,z
-x,y,-z
-x,-y,-z
x,-y,z
1/2+x,1/2+y,z
1/2-x,1/2+y,-z
1/2-x,1/2-y,-z
1/2+x,1/2-y,z
loop_
_atom_site_type_symbol
_atom_site_label
_atom_site_fract_x
_atom_site_fract_y
_atom_site_fract_z
Si Si1 0.706525 0.822973 0.986591
Si Si2 0.267445 0.672669 0.774292
Si Si3 0.162587 0.831812 0.663422
Si Si4 0.557633 0.660077 0.000619
Si Si5 0.839158 0.675413 0.562203
Si Si6 0.538631 0.824961 0.704170
O O1 0.772586 0.779381 0.843798
O O2 0.710749 0.000000 0.985813
O O3 0.750000 0.750000 0.000000
O O4 0.580099 0.780162 0.132664
O O5 0.286487 0.500000 0.748761
O O6 0.333736 0.750433 0.638749
O O7 0.143658 0.712840 0.904799
O O8 0.236792 0.784659 0.636764
O O9 0.138989 0.736924 0.627133
O O10 0.041197 0.833535 0.834265
O O11 0.192152 0.000000 0.612558
O O12 0.612926 0.500000 0.941928
O O13 0.500000 0.664515 0.000000
O O14 0.835877 0.500000 0.574350
O O15 0.939246 0.713965 0.397276
O O16 0.542852 0.000000 0.704589
#
# Coordination Sequence:
#
# PCOD9173962 Si02
#       6
#     8   8   8   8   8   8
#     4  10  23  42  62  85 106 137 185 237 290 337
#     4  11  22  36  56  83 114 143 184 237 280 326
#     4  10  19  31  52  83 117 155 193 221 261 325
#     4  10  18  31  51  78 115 153 190 224 262 326
#     4  10  21  37  56  82 119 158 188 219 267 334
#     4  10  21  38  58  82 116 150 187 234 277 324
#
# _framework density 20.481089000000001
#
# number of rings (size 3 to 8) (size 9 to 14) (size 15 to 20)
#    0.000    1.833    3.333    1.000    0.000    3.667 
#    0.000    0.833    0.000    5.000    0.000    0.000 
#    0.000    0.000    0.000    0.000    0.000    0.000 
#
# Total GULP energy -133776.222717 kJ/mol
# GULP energy per Si atom -5574.009280 kJ/mol
# Density = 2.043447 g / cm^3
# Si number density = 20.481089 Si / 1000 Ang^3
#
#
#
# Elastic Constant Matrix: (Units=GPa)
#
#
# Indices 1 2 3 4 5 6 
#
# 1 118.9475 38.9194 27.7013 0.0001 38.1224 0.0000
# 2 38.9194 22.3453 15.8194 -0.0016 19.5630 0.0005
# 3 27.7013 15.8194 57.9993 -0.0003 35.1278 0.0002
# 4 0.0001 -0.0016 -0.0003 23.6471 0.0001 5.5858
# 5 38.1224 19.5630 35.1278 0.0001 42.4273 0.0000
# 6 0.0000 0.0005 0.0002 5.5858 0.0000 32.0759
#
#
#
# Elastic Compliance Matrix: (Units=1/GPa)
#
#
# Indices 1 2 3 4 5 6 
#
# 1 0.019942 -0.031876 0.002247 -0.000002 -0.005081 0.000001
# 2 -0.031876 0.126026 -0.002611 0.000009 -0.027307 -0.000003
# 3 0.002247 -0.002611 0.034850 0.000001 -0.029670 0.000000
# 4 -0.000002 0.000009 0.000001 0.044103 -0.000003 -0.007680
# 5 -0.005081 -0.027307 -0.029670 -0.000003 0.065292 0.000001
# 6 0.000001 -0.000003 0.000000 -0.007680 0.000001 0.032513
#
#
# Mechanical properties :
#
#
# Convention : Reuss Voigt Hill
#
# Bulk Modulus (GPa) = 8.59552 40.46360 24.52956
# Shear Modulus (GPa) = 11.73754 27.42020 19.57887
#
# Velocity S-wave (km/s) = 2.39653 3.66294 3.09520
# Velocity P-wave (km/s) = 3.44438 6.13913 4.97758
#
# Compressibility (1/GPa) = 0.11633973
#
# Stress axis : x y z
#
# Youngs Moduli (GPa) = 50.14562 7.93488 28.69436
#
# Poissons Ratio (x) = 0.25293 -0.06448
# Poissons Ratio (y) = 1.59842 0.07491
# Poissons Ratio (z) = -0.11268 0.02071
#
# Static dielectric constant tensor:
#      x y z
#    x 1.758350 0.000000 0.043490 
#    y 0.000000 1.740240 0.000000 
#    z 0.043490 0.000000 1.809250 
# 
# From -- ./inp_files/320315.got.cif
#   From: 2010.05.17/outbox.cif.g08.bks.cpg/sg12_161_cif.got.tgz:320315.got - 2010.06.03 13:09:07.
