data_PCOD9173395
_publ_section_title
;
Structure prediction by ZEFSAII (Michael W. Deem and Ramdas Pophale) SiO2 
 PCOD9173395
Probable space group: C 2/M
;
_chemical_formula_sum "Si O2"
_cell_formula_units_Z 56
_cell_length_a 26.583321
_cell_length_b 20.671903
_cell_length_c 17.931203
_cell_angle_alpha 90.000000
_cell_angle_beta 160.265461
_cell_angle_gamma 90.000000
_cell_volume 3327.225635
_symmetry_space_group_name_H-M "C 2/M"
_symmetry_group_IT_number 12
_symmetry_cell_setting 'monoclinic'
loop_
_space_group_symop_operation_xyz
x,y,z
-x,y,-z
-x,-y,-z
x,-y,z
1/2+x,1/2+y,z
1/2-x,1/2+y,-z
1/2-x,1/2-y,-z
1/2+x,1/2-y,z
loop_
_atom_site_type_symbol
_atom_site_label
_atom_site_fract_x
_atom_site_fract_y
_atom_site_fract_z
Si Si1 0.537115 0.726234 0.637230
Si Si2 0.142156 0.429814 0.252383
Si Si3 0.739303 0.193917 0.304252
Si Si4 0.083967 0.425895 0.347450
Si Si5 0.284329 0.316728 0.621706
Si Si6 0.004438 0.262878 0.858928
Si Si7 0.139745 0.682392 0.907964
O O1 0.500000 0.742011 0.500000
O O2 0.391186 0.694622 0.469925
O O3 0.579812 0.788816 0.746723
O O4 0.682205 0.680159 0.844012
O O5 0.220450 0.500000 0.352780
O O6 0.231742 0.367420 0.348389
O O7 0.089016 0.427352 0.264008
O O8 0.000000 0.430879 0.000000
O O9 0.728847 0.261332 0.334417
O O10 0.599289 0.198560 0.052448
O O11 0.077283 0.500000 0.363688
O O12 0.235123 0.387056 0.580438
O O13 0.947900 0.381934 0.188636
O O14 0.444129 0.305056 0.806724
O O15 0.149354 0.298491 0.377019
O O16 0.096971 0.264232 0.911924
#
# Coordination Sequence:
#
# PCOD9173395 Si02
#       7
#     8   8   8   8   8   8   8
#     4  11  22  33  53  79 107 135 180 226 262 299
#     4  10  20  31  48  77 111 141 168 200 253 324
#     4  12  19  32  54  79 109 141 170 221 262 307
#     4  10  20  35  55  76 105 141 175 215 270 322
#     4  10  19  31  51  83 103 136 172 214 263 322
#     4  10  18  30  52  79 109 131 169 215 265 312
#     4  10  20  36  51  79 105 139 175 224 262 309
#
# _framework density 16.830839000000001
#
# number of rings (size 3 to 8) (size 9 to 14) (size 15 to 20)
#    0.000    1.571    4.286    5.571    0.000    0.000 
#    0.000    0.714    0.000    3.000    0.000    0.000 
#    0.000    0.000    0.000    0.000    0.000    0.000 
#
# Total GULP energy -155898.675179 kJ/mol
# GULP energy per Si atom -5567.809828 kJ/mol
# Density = 1.679253 g / cm^3
# Si number density = 16.830839 Si / 1000 Ang^3
#
#
#
# Elastic Constant Matrix: (Units=GPa)
#
#
# Indices 1 2 3 4 5 6 
#
# 1 96.9866 48.9623 31.3362 0.0000 2.2429 0.0000
# 2 48.9623 115.4260 34.4597 0.0000 1.6959 0.0000
# 3 31.3362 34.4597 68.7160 0.0000 9.4245 0.0000
# 4 0.0000 0.0000 0.0000 17.0492 0.0000 3.1083
# 5 2.2429 1.6959 9.4245 0.0000 31.2662 0.0000
# 6 0.0000 0.0000 0.0000 3.1083 0.0000 23.0288
#
#
#
# Elastic Compliance Matrix: (Units=1/GPa)
#
#
# Indices 1 2 3 4 5 6 
#
# 1 0.014006 -0.004730 -0.004081 0.000000 0.000482 0.000000
# 2 -0.004730 0.011818 -0.003889 0.000000 0.000871 0.000000
# 3 -0.004081 -0.003889 0.019084 0.000000 -0.005249 0.000000
# 4 0.000000 0.000000 0.000000 0.060134 0.000000 -0.008116
# 5 0.000482 0.000871 -0.005249 0.000000 0.033484 0.000000
# 6 0.000000 0.000000 0.000000 -0.008116 0.000000 0.044519
#
#
# Mechanical properties :
#
#
# Convention : Reuss Voigt Hill
#
# Bulk Modulus (GPa) = 51.26150 56.73833 53.99992
# Shear Modulus (GPa) = 23.26147 25.36020 24.31084
#
# Velocity S-wave (km/s) = 3.72166 3.88592 3.80468
# Velocity P-wave (km/s) = 6.99933 7.34289 7.17317
#
# Compressibility (1/GPa) = 0.01950782
#
# Stress axis : x y z
#
# Youngs Moduli (GPa) = 71.39803 84.61559 52.40003
#
# Poissons Ratio (x) = 0.40022 0.21386
# Poissons Ratio (y) = 0.33770 0.20379
# Poissons Ratio (z) = 0.29140 0.32907
#
# Static dielectric constant tensor:
#      x y z
#    x 1.620520 0.000000 -0.004310 
#    y 0.000000 1.637140 0.000000 
#    z -0.004310 0.000000 1.592700 
# 
# From -- ./inp_files/294095.got.cif
#   From: 2010.05.17/outbox.cif.g08.bks.cpg/sg12_148_cif.got.tgz:294095.got - 2010.06.03 13:09:07.
