data_PCOD9173354
_publ_section_title
;
Structure prediction by ZEFSAII (Michael W. Deem and Ramdas Pophale) SiO2 
 PCOD9173354
Probable space group: C 2/M
;
_chemical_formula_sum "Si O2"
_cell_formula_units_Z 60
_cell_length_a 25.060296
_cell_length_b 7.634219
_cell_length_c 16.760685
_cell_angle_alpha 90.000000
_cell_angle_beta 134.705218
_cell_angle_gamma 90.000000
_cell_volume 2279.032555
_symmetry_space_group_name_H-M "C 2/M"
_symmetry_group_IT_number 12
_symmetry_cell_setting 'monoclinic'
loop_
_space_group_symop_operation_xyz
x,y,z
-x,y,-z
-x,-y,-z
x,-y,z
1/2+x,1/2+y,z
1/2-x,1/2+y,-z
1/2-x,1/2-y,-z
1/2+x,1/2-y,z
loop_
_atom_site_type_symbol
_atom_site_label
_atom_site_fract_x
_atom_site_fract_y
_atom_site_fract_z
Si Si1 0.745561 0.289923 0.587876
Si Si2 0.355943 0.194330 0.105166
Si Si3 0.706546 0.213690 0.115841
Si Si4 0.954012 0.000000 0.640157
Si Si5 0.148129 0.212988 0.626937
Si Si6 0.040657 0.295875 0.646836
Si Si7 0.890175 0.289114 0.842550
Si Si8 0.006815 0.188967 0.840007
O O1 0.739892 0.500000 0.587924
O O2 0.750000 0.250000 0.500000
O O3 0.675656 0.227076 0.568076
O O4 0.821542 0.236072 0.712426
O O5 0.391636 0.275326 0.222069
O O6 0.430862 0.183370 0.127717
O O7 0.331776 0.000000 0.100797
O O8 0.298623 0.275161 0.980873
O O9 0.780551 0.263210 0.241803
O O10 0.636461 0.268787 0.098126
O O11 0.705767 0.000000 0.111672
O O12 0.977145 0.845054 0.600420
O O13 0.947780 0.848266 0.705666
O O14 0.077299 0.290192 0.598155
O O15 0.144353 0.000000 0.623995
O O16 0.024450 0.500000 0.649739
O O17 0.893834 0.500000 0.848166
O O18 0.964952 0.227740 0.877451
O O19 0.046202 0.000000 0.883732
#
# Coordination Sequence:
#
# PCOD9173354 Si02
#       8
#     8   8   8   4   8   8   8   8
#     4   9  19  34  54  81 108 137 163 205 261 319
#     4   9  17  30  46  67  97 132 182 222 257 305
#     4   8  16  30  47  68  98 139 175 221 265 308
#     4   8  18  34  48  73 105 134 176 231 264 300
#     4   9  17  32  52  73 104 138 172 212 267 315
#     4  10  18  30  52  75 100 140 184 223 265 310
#     4   9  17  32  52  73  99 133 178 211 260 320
#     4   9  18  30  46  67  95 137 172 213 270 292
#
# _framework density 26.326958999999999
#
# number of rings (size 3 to 8) (size 9 to 14) (size 15 to 20)
#    0.400    2.667    0.667    2.000    0.000    2.667 
#    0.000    6.000    0.000    0.000    0.000    4.667 
#    0.000   13.867    0.000    0.000    0.000    0.000 
#
# Total GULP energy -167070.124567 kJ/mol
# GULP energy per Si atom -5569.004152 kJ/mol
# Density = 2.626704 g / cm^3
# Si number density = 26.326959 Si / 1000 Ang^3
#
#
#
# Elastic Constant Matrix: (Units=GPa)
#
#
# Indices 1 2 3 4 5 6 
#
# 1 161.6579 30.8524 37.2313 0.0000 -22.9113 0.0000
# 2 30.8524 100.2174 8.6008 0.0000 -0.5005 0.0000
# 3 37.2313 8.6008 118.4649 0.0000 -29.9952 0.0000
# 4 0.0000 0.0000 0.0000 -19.2090 0.0000 29.5570
# 5 -22.9113 -0.5005 -29.9952 0.0000 46.3309 0.0000
# 6 0.0000 0.0000 0.0000 29.5570 0.0000 -37.1457
#
#
#
# Elastic Compliance Matrix: (Units=1/GPa)
#
#
# Indices 1 2 3 4 5 6 
#
# 1 0.007301 -0.002108 -0.001475 0.000000 0.002633 0.000000
# 2 -0.002108 0.010657 -0.000414 0.000000 -0.001195 0.000000
# 3 -0.001475 -0.000414 0.010464 0.000000 0.006041 0.000000
# 4 0.000000 0.000000 0.000000 0.232042 0.000000 0.184637
# 5 0.002633 -0.001195 0.006041 0.000000 0.026784 0.000000
# 6 0.000000 0.000000 0.000000 0.184637 0.000000 0.119995
#
#
# Mechanical properties :
#
#
# Convention : Reuss Voigt Hill
#
# Bulk Modulus (GPa) = 48.95021 59.30103 54.12562
# Shear Modulus (GPa) = 11.84705 18.23895 15.04300
#
# Velocity S-wave (km/s) = 2.12361 2.63494 2.39297
# Velocity P-wave (km/s) = 4.96453 5.64189 5.31401
#
# Compressibility (1/GPa) = 0.02042892
#
# Stress axis : x y z
#
# Youngs Moduli (GPa) = 136.96704 93.83690 95.56139
#
# Poissons Ratio (x) = 0.19780 0.14094
# Poissons Ratio (y) = 0.28872 0.03955
# Poissons Ratio (z) = 0.20201 0.03883
#
# Static dielectric constant tensor:
#      x y z
#    x 2.057570 0.000000 0.102480 
#    y 0.000000 1.912910 0.000000 
#    z 0.102480 0.000000 2.325020 
# 
# From -- ./inp_files/291902.got.cif
#   From: 2010.05.17/outbox.cif.g08.bks.cpg/sg12_146_cif.got.tgz:291902.got - 2010.06.03 13:09:07.
