data_PCOD9173011
_publ_section_title
;
Structure prediction by ZEFSAII (Michael W. Deem and Ramdas Pophale) SiO2 
 PCOD9173011
Probable space group: C 2/M
;
_chemical_formula_sum "Si O2"
_cell_formula_units_Z 64
_cell_length_a 25.452244
_cell_length_b 7.605862
_cell_length_c 20.935021
_cell_angle_alpha 90.000000
_cell_angle_beta 127.204672
_cell_angle_gamma 90.000000
_cell_volume 3227.922734
_symmetry_space_group_name_H-M "C 2/M"
_symmetry_group_IT_number 12
_symmetry_cell_setting 'monoclinic'
loop_
_space_group_symop_operation_xyz
x,y,z
-x,y,-z
-x,-y,-z
x,-y,z
1/2+x,1/2+y,z
1/2-x,1/2+y,-z
1/2-x,1/2-y,-z
1/2+x,1/2-y,z
loop_
_atom_site_type_symbol
_atom_site_label
_atom_site_fract_x
_atom_site_fract_y
_atom_site_fract_z
Si Si1 0.153844 0.716144 0.733614
Si Si2 0.824312 0.790331 0.032171
Si Si3 0.302913 0.711910 0.875951
Si Si4 0.923107 0.284573 0.713135
Si Si5 0.176511 0.288577 0.470547
Si Si6 0.932916 0.294623 0.215592
Si Si7 0.828781 0.292848 0.754812
Si Si8 0.679907 0.203332 0.614536
O O1 0.153759 0.500000 0.733088
O O2 0.226458 0.768785 0.812234
O O3 0.098929 0.778911 0.742812
O O4 0.148617 0.777903 0.656543
O O5 0.877530 0.716503 0.120268
O O6 0.832429 0.000000 0.038447
O O7 0.750000 0.750000 0.000000
O O8 0.831035 0.725505 0.964143
O O9 0.302288 0.500000 0.877180
O O10 0.339279 0.765638 0.837813
O O11 0.924035 0.500000 0.715221
O O12 0.876672 0.228226 0.620280
O O13 0.887304 0.229001 0.752248
O O14 0.997459 0.221088 0.756918
O O15 0.171139 0.500000 0.469712
O O16 0.250000 0.250000 0.500000
O O17 0.166830 0.217958 0.535279
O O18 0.945025 0.500000 0.237993
O O19 0.819729 0.500000 0.736502
O O20 0.758884 0.207531 0.684523
O O21 0.658888 0.000000 0.596415
#
# Coordination Sequence:
#
# PCOD9173011 Si02
#       8
#     8   8   8   8   8   8   8   8
#     4   8  14  28  48  71  97 128 164 200 250 301
#     4  11  21  35  55  80 106 131 170 217 254 304
#     4   9  18  33  51  74 102 130 164 210 255 301
#     4   9  19  33  50  74 106 138 173 212 259 307
#     4  10  18  31  50  74 102 134 173 217 257 301
#     4  10  19  35  54  72 103 143 171 209 259 307
#     4  10  18  30  49  75 103 132 170 213 253 302
#     4   9  17  29  48  73 101 131 166 213 259 303
#
# _framework density 19.826993000000002
#
# number of rings (size 3 to 8) (size 9 to 14) (size 15 to 20)
#    0.000    2.500    2.500    1.500    0.000    1.000 
#    0.000    3.125    0.000    7.500    0.000    0.000 
#    0.000    4.250    0.000    0.000    0.000    0.000 
#
# Total GULP energy -178495.848086 kJ/mol
# GULP energy per Si atom -5577.995253 kJ/mol
# Density = 1.978187 g / cm^3
# Si number density = 19.826993 Si / 1000 Ang^3
#
#
#
# Elastic Constant Matrix: (Units=GPa)
#
#
# Indices 1 2 3 4 5 6 
#
# 1 187.5268 -2.7313 91.1761 0.0000 -25.9252 0.0000
# 2 -2.7313 41.7179 -11.0964 0.0000 -2.2091 0.0000
# 3 91.1761 -11.0964 98.1256 0.0000 -19.6520 0.0000
# 4 0.0000 0.0000 0.0000 13.2477 0.0000 -1.0428
# 5 -25.9252 -2.2091 -19.6520 0.0000 39.1655 0.0000
# 6 0.0000 0.0000 0.0000 -1.0428 0.0000 13.6450
#
#
#
# Elastic Compliance Matrix: (Units=1/GPa)
#
#
# Indices 1 2 3 4 5 6 
#
# 1 0.009996 -0.001657 -0.009081 0.000000 0.001966 0.000000
# 2 -0.001657 0.025334 0.004970 0.000000 0.002826 0.000000
# 3 -0.009081 0.004970 0.020059 0.000000 0.004334 0.000000
# 4 0.000000 0.000000 0.000000 0.075941 0.000000 0.005804
# 5 0.001966 0.002826 0.004334 0.000000 0.029168 0.000000
# 6 0.000000 0.000000 0.000000 0.005804 0.000000 0.073731
#
#
# Mechanical properties :
#
#
# Convention : Reuss Voigt Hill
#
# Bulk Modulus (GPa) = 22.80340 53.56300 38.18320
# Shear Modulus (GPa) = 19.20252 29.87976 24.54114
#
# Velocity S-wave (km/s) = 3.11546 3.88625 3.52200
# Velocity P-wave (km/s) = 4.94647 6.87103 5.98660
#
# Compressibility (1/GPa) = 0.04385310
#
# Stress axis : x y z
#
# Youngs Moduli (GPa) = 100.04373 39.47297 49.85230
#
# Poissons Ratio (x) = 0.06541 0.45272
# Poissons Ratio (y) = 0.16577 -0.24779
# Poissons Ratio (z) = 0.90853 -0.19620
#
# Static dielectric constant tensor:
#      x y z
#    x 1.702900 0.000000 -0.044350 
#    y 0.000000 1.771880 0.000000 
#    z -0.044350 0.000000 1.660650 
# 
# From -- ./inp_files/324254.got.cif
#   From: 2010.05.17/outbox.cif.g08.bks.cpg/sg12_163_cif.got.tgz:324254.got - 2010.06.03 13:09:07.
