data_PCOD9173067
_publ_section_title
;
Structure prediction by ZEFSAII (Michael W. Deem and Ramdas Pophale) SiO2 
 PCOD9173067
Probable space group: C 2/M
;
_chemical_formula_sum "Si O2"
_cell_formula_units_Z 40
_cell_length_a 23.484778
_cell_length_b 7.611222
_cell_length_c 13.861863
_cell_angle_alpha 90.000000
_cell_angle_beta 54.554313
_cell_angle_gamma 90.000000
_cell_volume 2018.560833
_symmetry_space_group_name_H-M "C 2/M"
_symmetry_group_IT_number 12
_symmetry_cell_setting 'monoclinic'
loop_
_space_group_symop_operation_xyz
x,y,z
-x,y,-z
-x,-y,-z
x,-y,z
1/2+x,1/2+y,z
1/2-x,1/2+y,-z
1/2-x,1/2-y,-z
1/2+x,1/2-y,z
loop_
_atom_site_type_symbol
_atom_site_label
_atom_site_fract_x
_atom_site_fract_y
_atom_site_fract_z
Si Si1 0.753062 0.789026 0.883916
Si Si2 0.400635 0.297427 0.663321
Si Si3 0.392934 0.785510 0.057384
Si Si4 0.465421 0.785271 0.182585
Si Si5 0.550052 0.201389 0.589385
O O1 0.826135 0.723210 0.768533
O O2 0.682578 0.722551 0.902280
O O3 0.753283 0.000000 0.870620
O O4 0.750000 0.750000 0.000000
O O5 0.405060 0.500000 0.690596
O O6 0.467601 0.204631 0.644131
O O7 0.411214 0.291620 0.537707
O O8 0.415831 0.732894 0.142617
O O9 0.392500 0.000000 0.056729
O O10 0.455826 0.731657 0.924077
O O11 0.442979 0.723417 0.310143
O O12 0.465779 0.000000 0.185580
O O13 0.574010 0.000000 0.566377
#
# Coordination Sequence:
#
# PCOD9173067 Si02
#       5
#     8   8   8   8   8
#     4  10  20  32  49  70  95 124 153 187 231 277
#     4  10  20  32  45  67  97 127 153 184 231 284
#     4   8  14  27  45  68  94 118 147 188 232 275
#     4   8  14  25  46  71  91 113 150 195 232 263
#     4  10  18  30  50  72  90 118 159 200 229 261
#
# _framework density 19.816099000000001
#
# number of rings (size 3 to 8) (size 9 to 14) (size 15 to 20)
#    0.000    2.800    0.000    4.800    0.000    3.200 
#    0.000    1.000    0.000    2.400    0.000    9.800 
#    0.000    0.000    0.000    0.000    0.000    0.000 
#
# Total GULP energy -111582.893930 kJ/mol
# GULP energy per Si atom -5579.144696 kJ/mol
# Density = 1.977100 g / cm^3
# Si number density = 19.816099 Si / 1000 Ang^3
#
#
#
# Elastic Constant Matrix: (Units=GPa)
#
#
# Indices 1 2 3 4 5 6 
#
# 1 99.8122 -8.2783 78.8646 0.0000 -8.3102 0.0000
# 2 -8.2783 41.8385 -8.8245 0.0000 -3.6395 0.0000
# 3 78.8646 -8.8245 135.3405 0.0000 0.3594 0.0000
# 4 0.0000 0.0000 0.0000 13.6060 0.0000 1.0126
# 5 -8.3102 -3.6395 0.3594 0.0000 35.7738 0.0000
# 6 0.0000 0.0000 0.0000 1.0126 0.0000 7.8172
#
#
#
# Elastic Compliance Matrix: (Units=1/GPa)
#
#
# Indices 1 2 3 4 5 6 
#
# 1 0.019441 0.001900 -0.011218 0.000000 0.004822 0.000000
# 2 0.001900 0.024637 0.000491 0.000000 0.002943 0.000000
# 3 -0.011218 0.000491 0.013965 0.000000 -0.002696 0.000000
# 4 0.000000 0.000000 0.000000 0.074213 0.000000 -0.009613
# 5 0.004822 0.002943 -0.002696 0.000000 0.029400 0.000000
# 6 0.000000 0.000000 0.000000 -0.009613 0.000000 0.129168
#
#
# Mechanical properties :
#
#
# Convention : Reuss Voigt Hill
#
# Bulk Modulus (GPa) = 24.75812 44.50162 34.62987
# Shear Modulus (GPa) = 15.53087 25.78803 20.65945
#
# Velocity S-wave (km/s) = 2.80259 3.61136 3.23237
# Velocity P-wave (km/s) = 4.79518 6.31627 5.60754
#
# Compressibility (1/GPa) = 0.04039079
#
# Stress axis : x y z
#
# Youngs Moduli (GPa) = 51.43711 40.58927 71.60984
#
# Poissons Ratio (x) = -0.07713 0.80329
# Poissons Ratio (y) = -0.09774 -0.03518
# Poissons Ratio (z) = 0.57700 -0.01994
#
# Static dielectric constant tensor:
#      x y z
#    x 1.678190 0.000000 0.002070 
#    y 0.000000 1.723030 0.000000 
#    z 0.002070 0.000000 1.687320 
# 
# From -- ./inp_files/236507.got.cif
#   From: 2010.05.17/outbox.cif.g08.bks.cpg/sg12_119_cif.got.tgz:236507.got - 2010.06.03 13:09:07.
