data_PCOD9173379
_publ_section_title
;
Structure prediction by ZEFSAII (Michael W. Deem and Ramdas Pophale) SiO2 
 PCOD9173379
Probable space group: C 2/M
;
_chemical_formula_sum "Si O2"
_cell_formula_units_Z 56
_cell_length_a 22.689930
_cell_length_b 15.661364
_cell_length_c 9.365959
_cell_angle_alpha 90.000000
_cell_angle_beta 66.370170
_cell_angle_gamma 90.000000
_cell_volume 3049.183458
_symmetry_space_group_name_H-M "C 2/M"
_symmetry_group_IT_number 12
_symmetry_cell_setting 'monoclinic'
loop_
_space_group_symop_operation_xyz
x,y,z
-x,y,-z
-x,-y,-z
x,-y,z
1/2+x,1/2+y,z
1/2-x,1/2+y,-z
1/2-x,1/2-y,-z
1/2+x,1/2-y,z
loop_
_atom_site_type_symbol
_atom_site_label
_atom_site_fract_x
_atom_site_fract_y
_atom_site_fract_z
Si Si1 0.330197 0.093892 0.963706
Si Si2 0.061446 0.092512 0.340844
Si Si3 0.172871 0.839019 0.637580
Si Si4 0.153267 0.231328 0.177879
Si Si5 0.967975 0.900929 0.171902
Si Si6 0.761105 0.680186 0.288477
Si Si7 0.198542 0.092196 0.915749
O O1 0.366148 0.176456 0.863443
O O2 0.268358 0.088817 0.919682
O O3 0.361304 0.000000 0.934296
O O4 0.302000 0.117032 0.148032
O O5 0.103588 0.176318 0.318324
O O6 0.000000 0.093627 0.500000
O O7 0.027251 0.096385 0.221843
O O8 0.094959 0.000000 0.330939
O O9 0.096226 0.855091 0.707944
O O10 0.192319 0.743173 0.668277
O O11 0.211600 0.857783 0.453950
O O12 0.198043 0.894066 0.747518
O O13 0.217483 0.231818 0.213979
O O14 0.164651 0.169923 0.030247
O O15 0.948868 0.000000 0.162487
O O16 0.000000 0.861932 0.000000
O O17 0.167322 0.000000 0.976792
#
# Coordination Sequence:
#
# PCOD9173379 Si02
#       7
#     8   8   8   8   8   8   8
#     4  10  20  34  51  75 104 137 183 227 267 318
#     4  10  21  35  53  80 110 142 179 216 263 327
#     4  11  19  33  52  78 115 144 173 222 272 335
#     4  11  18  36  54  76 108 142 183 230 268 322
#     4  10  21  34  49  77 111 145 182 210 253 331
#     4  10  21  33  52  80 108 143 183 222 280 335
#     4  10  18  30  52  78 105 140 172 209 267 328
#
# _framework density 18.365573000000001
#
# number of rings (size 3 to 8) (size 9 to 14) (size 15 to 20)
#    0.000    1.714    2.857    3.429    0.000    2.857 
#    0.000    0.000    0.000    0.429    0.000    2.000 
#    0.000    0.000    0.000    0.000    0.000    0.000 
#
# Total GULP energy -155965.120154 kJ/mol
# GULP energy per Si atom -5570.182863 kJ/mol
# Density = 1.832377 g / cm^3
# Si number density = 18.365573 Si / 1000 Ang^3
#
#
#
# Elastic Constant Matrix: (Units=GPa)
#
#
# Indices 1 2 3 4 5 6 
#
# 1 41.3780 11.9423 -1.2916 0.0000 -6.2917 0.0000
# 2 11.9423 118.2413 18.0462 0.0000 -15.1847 0.0000
# 3 -1.2916 18.0462 69.4412 0.0000 0.7784 0.0000
# 4 0.0000 0.0000 0.0000 18.5058 0.0000 -4.5221
# 5 -6.2917 -15.1847 0.7784 0.0000 30.3008 0.0000
# 6 0.0000 0.0000 0.0000 -4.5221 0.0000 13.7580
#
#
#
# Elastic Compliance Matrix: (Units=1/GPa)
#
#
# Indices 1 2 3 4 5 6 
#
# 1 0.025464 -0.002189 0.000996 0.000000 0.004165 0.000000
# 2 -0.002189 0.009646 -0.002597 0.000000 0.004446 0.000000
# 3 0.000996 -0.002597 0.015111 0.000000 -0.001483 0.000000
# 4 0.000000 0.000000 0.000000 0.058756 0.000000 0.019313
# 5 0.004165 0.004446 -0.001483 0.000000 0.036133 0.000000
# 6 0.000000 0.000000 0.000000 0.019313 0.000000 0.079033
#
#
# Mechanical properties :
#
#
# Convention : Reuss Voigt Hill
#
# Bulk Modulus (GPa) = 23.45258 31.82827 27.64042
# Shear Modulus (GPa) = 20.33046 25.87050 23.10048
#
# Velocity S-wave (km/s) = 3.33075 3.75726 3.55042
# Velocity P-wave (km/s) = 5.25257 6.01587 5.64713
#
# Compressibility (1/GPa) = 0.04263923
#
# Stress axis : x y z
#
# Youngs Moduli (GPa) = 39.27181 103.67296 66.17791
#
# Poissons Ratio (x) = 0.22693 -0.06590
# Poissons Ratio (y) = 0.08596 0.17188
# Poissons Ratio (z) = -0.03911 0.26927
#
# Static dielectric constant tensor:
#      x y z
#    x 1.614210 0.000000 -0.027660 
#    y 0.000000 1.700280 0.000000 
#    z -0.027660 0.000000 1.652100 
# 
# From -- ./inp_files/96274.got.cif
#   From: 2010.05.17/outbox.cif.g08.bks.cpg/sg12_49_cif.got.tgz:96274.got - 2010.06.03 13:09:07.
