data_PCOD9173519
_publ_section_title
;
Structure prediction by ZEFSAII (Michael W. Deem and Ramdas Pophale) SiO2 
 PCOD9173519
Probable space group: C 2/M
;
_chemical_formula_sum "Si O2"
_cell_formula_units_Z 48
_cell_length_a 8.867547
_cell_length_b 19.765459
_cell_length_c 28.588530
_cell_angle_alpha 90.000000
_cell_angle_beta 31.103288
_cell_angle_gamma 90.000000
_cell_volume 2588.462569
_symmetry_space_group_name_H-M "C 2/M"
_symmetry_group_IT_number 12
_symmetry_cell_setting 'monoclinic'
loop_
_space_group_symop_operation_xyz
x,y,z
-x,y,-z
-x,-y,-z
x,-y,z
1/2+x,1/2+y,z
1/2-x,1/2+y,-z
1/2-x,1/2-y,-z
1/2+x,1/2-y,z
loop_
_atom_site_type_symbol
_atom_site_label
_atom_site_fract_x
_atom_site_fract_y
_atom_site_fract_z
Si Si1 0.696396 0.148630 0.553287
Si Si2 0.120860 0.080077 0.746418
Si Si3 0.709540 0.326534 0.233570
Si Si4 0.696283 0.347242 0.087817
Si Si5 0.331174 0.299918 0.422905
Si Si6 0.233395 0.778715 0.862963
O O1 0.437422 0.102288 0.641854
O O2 0.557500 0.224980 0.593157
O O3 0.809065 0.145795 0.470004
O O4 0.000000 0.140201 0.500000
O O5 0.876923 0.111201 0.776250
O O6 0.042837 0.113973 0.817169
O O7 0.105126 0.000000 0.753542
O O8 0.490190 0.324471 0.334960
O O9 0.674021 0.259735 0.209973
O O10 0.023640 0.323647 0.175475
O O11 0.799617 0.282963 0.091936
O O12 0.544646 0.321316 0.080392
O O13 0.000000 0.386844 0.000000
O O14 0.000000 0.284626 0.500000
#
# Coordination Sequence:
#
# PCOD9173519 Si02
#       6
#     8   8   8   8   8   8
#     4  10  21  33  55  83 113 142 182 229 279 333
#     4  11  24  41  53  73 115 159 192 228 268 321
#     4  10  19  34  54  84 112 147 180 225 281 334
#     4  10  20  36  61  90 114 143 178 228 288 339
#     4  10  18  30  54  85 111 136 179 228 287 331
#     4   9  19  33  61  88 118 134 173 233 295 334
#
# _framework density 18.543825999999999
#
# number of rings (size 3 to 8) (size 9 to 14) (size 15 to 20)
#    0.000    2.000    1.667    3.500    7.000    0.667 
#    0.000    2.500    0.000    1.000    0.000    0.000 
#    0.000    0.000    0.000    0.000    0.000    0.000 
#
# Total GULP energy -133627.321596 kJ/mol
# GULP energy per Si atom -5567.805066 kJ/mol
# Density = 1.850162 g / cm^3
# Si number density = 18.543826 Si / 1000 Ang^3
#
#
#
# Elastic Constant Matrix: (Units=GPa)
#
#
# Indices 1 2 3 4 5 6 
#
# 1 105.6545 21.9423 21.0949 0.2569 -20.5719 0.0916
# 2 21.9423 68.9764 19.1631 0.0006 -12.0831 0.0533
# 3 21.0949 19.1631 61.2241 0.1997 -12.3788 -0.0730
# 4 0.2569 0.0006 0.1997 25.1848 -0.3339 5.3084
# 5 -20.5719 -12.0831 -12.3788 -0.3339 33.1110 -0.0750
# 6 0.0916 0.0533 -0.0730 5.3084 -0.0750 8.3524
#
#
#
# Elastic Compliance Matrix: (Units=1/GPa)
#
#
# Indices 1 2 3 4 5 6 
#
# 1 0.011400 -0.002057 -0.002168 -0.000010 0.005521 -0.000075
# 2 -0.002057 0.016825 -0.003867 0.000133 0.003417 -0.000172
# 3 -0.002168 -0.003867 0.019184 -0.000145 0.004413 0.000348
# 4 -0.000010 0.000133 -0.000145 0.045855 0.000385 -0.029142
# 5 0.005521 0.003417 0.004413 0.000385 0.036533 0.000040
# 6 -0.000075 -0.000172 0.000348 -0.029142 0.000040 0.138252
#
#
# Mechanical properties :
#
#
# Convention : Reuss Voigt Hill
#
# Bulk Modulus (GPa) = 32.02542 40.02841 36.02692
# Shear Modulus (GPa) = 16.96976 24.90664 20.93820
#
# Velocity S-wave (km/s) = 3.02837 3.66884 3.36388
# Velocity P-wave (km/s) = 5.43467 6.29126 5.87859
#
# Compressibility (1/GPa) = 0.03122519
#
# Stress axis : x y z
#
# Youngs Moduli (GPa) = 87.71950 59.43467 52.12680
#
# Poissons Ratio (x) = 0.12225 0.11300
# Poissons Ratio (y) = 0.18043 0.20159
# Poissons Ratio (z) = 0.19015 0.22985
#
# Static dielectric constant tensor:
#      x y z
#    x 1.758710 -0.000050 0.002350 
#    y -0.000050 1.637550 -0.000010 
#    z 0.002350 -0.000010 1.694000 
# 
# From -- ./inp_files/257906.got.cif
#   From: 2010.05.17/outbox.cif.g08.bks.cpg/sg12_129_cif.got.tgz:257906.got - 2010.06.03 13:09:07.
