data_PCOD9173231
_publ_section_title
;
Structure prediction by ZEFSAII (Michael W. Deem and Ramdas Pophale) SiO2 
 PCOD9173231
Probable space group: C 2/M
;
_chemical_formula_sum "Si O2"
_cell_formula_units_Z 56
_cell_length_a 32.056190
_cell_length_b 9.908101
_cell_length_c 17.008433
_cell_angle_alpha 90.000000
_cell_angle_beta 144.898929
_cell_angle_gamma 90.000000
_cell_volume 3106.347189
_symmetry_space_group_name_H-M "C 2/M"
_symmetry_group_IT_number 12
_symmetry_cell_setting 'monoclinic'
loop_
_space_group_symop_operation_xyz
x,y,z
-x,y,-z
-x,-y,-z
x,-y,z
1/2+x,1/2+y,z
1/2-x,1/2+y,-z
1/2-x,1/2-y,-z
1/2+x,1/2-y,z
loop_
_atom_site_type_symbol
_atom_site_label
_atom_site_fract_x
_atom_site_fract_y
_atom_site_fract_z
Si Si1 0.180548 0.337180 0.626199
Si Si2 0.021467 0.155431 0.155191
Si Si3 0.043364 0.659818 0.813849
Si Si4 0.115099 0.781147 0.158004
Si Si5 0.234840 0.648044 0.546742
Si Si6 0.812855 0.650624 0.869192
Si Si7 0.525034 0.836742 0.453862
O O1 0.188802 0.500000 0.645053
O O2 0.180765 0.306345 0.532629
O O3 0.248736 0.258943 0.768072
O O4 0.105635 0.295553 0.551370
O O5 0.004923 0.242246 0.206565
O O6 0.076094 0.235582 0.181709
O O7 0.045966 0.000000 0.205390
O O8 0.945659 0.149531 0.989800
O O9 0.024814 0.500000 0.797067
O O10 0.029326 0.693984 0.701524
O O11 0.126009 0.676334 0.970728
O O12 0.188121 0.860537 0.289503
O O13 0.143929 0.660427 0.147657
O O14 0.213546 0.500000 0.484573
O O15 0.250000 0.750000 0.500000
O O16 0.783625 0.500000 0.833423
O O17 0.500000 0.784455 0.500000
O O18 0.527446 0.000000 0.462818
#
# Coordination Sequence:
#
# PCOD9173231 Si02
#       7
#     8   8   8   8   8   8   8
#     4   9  19  35  55  77 102 137 178 220 258 307
#     4  10  18  30  51  74  99 135 175 215 259 303
#     4   9  19  33  52  78 106 133 171 221 265 311
#     4   9  18  31  47  68  99 137 177 209 241 298
#     4  10  20  31  44  67 100 134 169 206 246 294
#     4   9  18  33  52  76 106 141 173 211 265 312
#     4   9  18  36  60  81 103 136 177 218 266 321
#
# _framework density 18.027605000000001
#
# number of rings (size 3 to 8) (size 9 to 14) (size 15 to 20)
#    0.000    2.714    0.000    1.714    2.000    6.857 
#    0.000    4.286    0.000    1.714    0.000    0.000 
#    0.000    0.000    0.000    0.000    0.000    0.000 
#
# Total GULP energy -155883.104131 kJ/mol
# GULP energy per Si atom -5567.253719 kJ/mol
# Density = 1.798657 g / cm^3
# Si number density = 18.027605 Si / 1000 Ang^3
#
#
#
# Elastic Constant Matrix: (Units=GPa)
#
#
# Indices 1 2 3 4 5 6 
#
# 1 137.4969 41.3584 60.4671 0.0000 -16.9827 0.0000
# 2 41.3584 48.8833 40.4209 0.0000 -6.7144 0.0000
# 3 60.4671 40.4209 81.8588 0.0000 -11.8370 0.0000
# 4 0.0000 0.0000 0.0000 17.8691 0.0000 0.8734
# 5 -16.9827 -6.7144 -11.8370 0.0000 27.3514 0.0000
# 6 0.0000 0.0000 0.0000 0.8734 0.0000 12.4619
#
#
#
# Elastic Compliance Matrix: (Units=1/GPa)
#
#
# Indices 1 2 3 4 5 6 
#
# 1 0.011651 -0.004525 -0.005853 0.000000 0.003591 0.000000
# 2 -0.004525 0.036366 -0.014647 0.000000 -0.000221 0.000000
# 3 -0.005853 -0.014647 0.024244 0.000000 0.003262 0.000000
# 4 0.000000 0.000000 0.000000 0.056155 0.000000 -0.003936
# 5 0.003591 -0.000221 0.003262 0.000000 0.040148 0.000000
# 6 0.000000 0.000000 0.000000 -0.003936 0.000000 0.080520
#
#
# Mechanical properties :
#
#
# Convention : Reuss Voigt Hill
#
# Bulk Modulus (GPa) = 45.02066 61.41464 53.21765
# Shear Modulus (GPa) = 16.31120 19.93599 18.12359
#
# Velocity S-wave (km/s) = 3.01124 3.32905 3.17413
# Velocity P-wave (km/s) = 6.09241 6.99412 6.55878
#
# Compressibility (1/GPa) = 0.02221202
#
# Stress axis : x y z
#
# Youngs Moduli (GPa) = 85.82623 27.49824 41.24758
#
# Poissons Ratio (x) = 0.12442 0.24143
# Poissons Ratio (y) = 0.38835 0.60414
# Poissons Ratio (z) = 0.50235 0.40276
#
# Static dielectric constant tensor:
#      x y z
#    x 1.632770 0.000000 0.007030 
#    y 0.000000 1.630480 0.000000 
#    z 0.007030 0.000000 1.643730 
# 
# From -- ./inp_files/250584.got.cif
#   From: 2010.05.17/outbox.cif.g08.bks.cpg/sg12_126_cif.got.tgz:250584.got - 2010.06.03 13:09:07.
