data_PCOD9173862
_publ_section_title
;
Structure prediction by ZEFSAII (Michael W. Deem and Ramdas Pophale) SiO2 
 PCOD9173862
Probable space group: C 2/M
;
_chemical_formula_sum "Si O2"
_cell_formula_units_Z 64
_cell_length_a 14.932392
_cell_length_b 7.444110
_cell_length_c 28.382830
_cell_angle_alpha 90.000000
_cell_angle_beta 71.749774
_cell_angle_gamma 90.000000
_cell_volume 2996.286475
_symmetry_space_group_name_H-M "C 2/M"
_symmetry_group_IT_number 12
_symmetry_cell_setting 'monoclinic'
loop_
_space_group_symop_operation_xyz
x,y,z
-x,y,-z
-x,-y,-z
x,-y,z
1/2+x,1/2+y,z
1/2-x,1/2+y,-z
1/2-x,1/2-y,-z
1/2+x,1/2-y,z
loop_
_atom_site_type_symbol
_atom_site_label
_atom_site_fract_x
_atom_site_fract_y
_atom_site_fract_z
Si Si1 0.656540 0.218992 0.904653
Si Si2 0.021114 0.283448 0.120029
Si Si3 0.968580 0.780345 0.556659
Si Si4 0.124660 0.220248 0.284919
Si Si5 0.777240 0.785735 0.636677
Si Si6 0.360262 0.214059 0.988883
Si Si7 0.433069 0.714340 0.364899
Si Si8 0.159450 0.790937 0.175002
O O1 0.584689 0.267911 0.875366
O O2 0.759758 0.284231 0.872882
O O3 0.658078 0.000000 0.908297
O O4 0.619699 0.282055 0.961644
O O5 0.026031 0.500000 0.120066
O O6 0.083648 0.216152 0.065484
O O7 0.062737 0.219986 0.162236
O O8 0.862819 0.722708 0.588869
O O9 0.000000 0.719361 0.500000
O O10 0.039490 0.723011 0.586899
O O11 0.968917 0.000000 0.555790
O O12 0.195623 0.276884 0.315014
O O13 0.151960 0.285139 0.228523
O O14 0.018831 0.277094 0.317233
O O15 0.124605 0.000000 0.283693
O O16 0.672066 0.750543 0.635860
O O17 0.786333 0.000000 0.636739
O O18 0.378129 0.000000 0.986382
O O19 0.250000 0.250000 0.000000
O O20 0.441579 0.500000 0.364925
O O21 0.184224 0.000000 0.176855
#
# Coordination Sequence:
#
# PCOD9173862 Si02
#       8
#     8   8   8   8   8   8   8   8
#     4   9  18  32  50  70  93 124 155 183 228 287
#     4  10  20  33  50  73  99 123 151 193 240 285
#     4   8  15  29  48  70 100 137 168 194 234 292
#     4   8  17  33  50  67  92 128 161 193 237 291
#     4   9  17  31  51  73  96 126 167 204 236 282
#     4  10  18  31  51  71  94 124 156 188 229 281
#     4   9  17  31  50  71  96 127 164 201 242 286
#     4  10  19  34  53  70  92 123 161 197 232 283
#
# _framework density 21.359774000000002
#
# number of rings (size 3 to 8) (size 9 to 14) (size 15 to 20)
#    0.000    2.875    1.250    1.875    0.000    3.000 
#    0.000    6.250    0.000    2.250    0.000    0.000 
#    0.000    0.000    0.000    0.000    0.000    0.000 
#
# Total GULP energy -178496.106312 kJ/mol
# GULP energy per Si atom -5578.003322 kJ/mol
# Density = 2.131116 g / cm^3
# Si number density = 21.359774 Si / 1000 Ang^3
#
#
#
# Elastic Constant Matrix: (Units=GPa)
#
#
# Indices 1 2 3 4 5 6 
#
# 1 119.3817 -7.5569 42.1802 0.0000 20.1706 0.0000
# 2 -7.5569 62.0587 8.3982 0.0000 -2.7247 0.0000
# 3 42.1802 8.3982 138.9066 0.0000 18.2344 0.0000
# 4 0.0000 0.0000 0.0000 -0.1459 0.0000 3.6317
# 5 20.1706 -2.7247 18.2344 0.0000 16.4574 0.0000
# 6 0.0000 0.0000 0.0000 3.6317 0.0000 23.9009
#
#
#
# Elastic Compliance Matrix: (Units=1/GPa)
#
#
# Indices 1 2 3 4 5 6 
#
# 1 0.011022 0.001116 -0.001949 0.000000 -0.011165 0.000000
# 2 0.001116 0.016639 -0.001787 0.000000 0.003367 0.000000
# 3 -0.001949 -0.001787 0.008922 0.000000 -0.007792 0.000000
# 4 0.000000 0.000000 0.000000 -1.433179 0.000001 0.217771
# 5 -0.011165 0.003367 -0.007792 0.000001 0.083638 0.000000
# 6 0.000000 0.000000 0.000000 0.217771 0.000000 0.008749
#
#
# Mechanical properties :
#
#
# Convention : Reuss Voigt Hill
#
# Bulk Modulus (GPa) = 31.90463 45.15444 38.52953
# Shear Modulus (GPa) = -3.88042 26.53084 11.32521
#
# Velocity S-wave (km/s) = -1.34931 3.52816 2.30513
# Velocity P-wave (km/s) = 3.54142 6.14679 5.01621
#
# Compressibility (1/GPa) = 0.03134341
#
# Stress axis : x y z
#
# Youngs Moduli (GPa) = 90.72686 60.09878 112.08510
#
# Poissons Ratio (x) = -0.06705 0.21843
# Poissons Ratio (y) = -0.10122 0.20027
# Poissons Ratio (z) = 0.17680 0.10738
#
# Static dielectric constant tensor:
#      x y z
#    x 1.757090 0.000000 0.001570 
#    y 0.000000 1.889450 0.000000 
#    z 0.001570 0.000000 1.764480 
# 
# From -- ./inp_files/359831.got.cif
#   From: 2010.05.17/outbox.cif.g08.bks.cpg/sg12_180_cif.got.tgz:359831.got - 2010.06.03 13:09:07.
