data_PCOD9173277
_publ_section_title
;
Structure prediction by ZEFSAII (Michael W. Deem and Ramdas Pophale) SiO2 
 PCOD9173277
Probable space group: C 2/M
;
_chemical_formula_sum "Si O2"
_cell_formula_units_Z 56
_cell_length_a 17.717186
_cell_length_b 15.954656
_cell_length_c 18.908136
_cell_angle_alpha 90.000000
_cell_angle_beta 148.872264
_cell_angle_gamma 90.000000
_cell_volume 2762.978950
_symmetry_space_group_name_H-M "C 2/M"
_symmetry_group_IT_number 12
_symmetry_cell_setting 'monoclinic'
loop_
_space_group_symop_operation_xyz
x,y,z
-x,y,-z
-x,-y,-z
x,-y,z
1/2+x,1/2+y,z
1/2-x,1/2+y,-z
1/2-x,1/2-y,-z
1/2+x,1/2-y,z
loop_
_atom_site_type_symbol
_atom_site_label
_atom_site_fract_x
_atom_site_fract_y
_atom_site_fract_z
Si Si1 0.749660 0.827199 0.890779
Si Si2 0.086301 0.102493 0.639650
Si Si3 0.601390 0.904851 0.150017
Si Si4 0.355203 0.101542 0.337488
Si Si5 0.662306 0.852649 0.975632
Si Si6 0.968042 0.093439 0.255619
Si Si7 0.449272 0.399079 0.831054
O O1 0.660049 0.848128 0.748494
O O2 0.671014 0.861543 0.898275
O O3 0.782934 0.733394 0.944224
O O4 0.910910 0.867960 0.012893
O O5 0.248743 0.135464 0.755378
O O6 0.012003 0.134641 0.651898
O O7 0.000000 0.121044 0.500000
O O8 0.093351 0.000000 0.653650
O O9 0.501146 0.865360 0.129234
O O10 0.634788 0.000000 0.199646
O O11 0.500000 0.907769 0.000000
O O12 0.500000 0.119702 0.500000
O O13 0.207630 0.122149 0.262983
O O14 0.354401 0.000000 0.322922
O O15 0.791799 0.912614 0.106990
O O16 0.025369 0.133994 0.229150
O O17 0.032494 0.000000 0.309544
O O18 0.459443 0.500000 0.836528
#
# Coordination Sequence:
#
# PCOD9173277 Si02
#       7
#     8   8   8   8   8   8   8
#     4  10  21  36  57  79 110 143 180 228 275 332
#     4   9  17  30  47  73 109 143 175 217 266 322
#     4  10  18  30  51  77 106 139 179 225 268 314
#     4  10  21  39  60  85 114 140 178 234 290 341
#     4  10  20  34  54  80 109 141 187 227 270 318
#     4   9  16  31  54  76 106 142 180 224 269 320
#     4   9  18  34  59  83 101 136 183 226 278 335
#
# _framework density 20.267979
#
# number of rings (size 3 to 8) (size 9 to 14) (size 15 to 20)
#    0.000    2.429    1.429    1.286    0.000    4.000 
#    2.571    0.714    0.000    2.571    0.000    0.000 
#    0.000    0.000    0.000    0.000    0.000    0.000 
#
# Total GULP energy -155981.949927 kJ/mol
# GULP energy per Si atom -5570.783926 kJ/mol
# Density = 2.022185 g / cm^3
# Si number density = 20.267979 Si / 1000 Ang^3
#
#
#
# Elastic Constant Matrix: (Units=GPa)
#
#
# Indices 1 2 3 4 5 6 
#
# 1 109.9245 18.7290 65.9874 -0.0001 -18.6038 -0.0001
# 2 18.7290 23.9172 19.5531 -0.0002 -6.3354 -0.0002
# 3 65.9874 19.5531 109.1089 -0.0004 -20.6381 -0.0003
# 4 -0.0001 -0.0002 -0.0004 6.2748 -0.0002 -12.6767
# 5 -18.6038 -6.3354 -20.6381 -0.0002 32.2832 -0.0002
# 6 -0.0001 -0.0002 -0.0003 -12.6767 -0.0002 14.0759
#
#
#
# Elastic Compliance Matrix: (Units=1/GPa)
#
#
# Indices 1 2 3 4 5 6 
#
# 1 0.014991 -0.004709 -0.007694 0.000001 0.002796 0.000001
# 2 -0.004709 0.051062 -0.005598 -0.000004 0.003729 -0.000003
# 3 -0.007694 -0.005598 0.015670 -0.000002 0.004485 -0.000001
# 4 0.000001 -0.000004 -0.000002 -0.194485 -0.000003 -0.175153
# 5 0.002796 0.003729 0.004485 -0.000003 0.036186 -0.000003
# 6 0.000001 -0.000003 -0.000001 -0.175153 -0.000003 -0.086698
#
#
# Mechanical properties :
#
#
# Convention : Reuss Voigt Hill
#
# Bulk Modulus (GPa) = 21.87082 50.16552 36.01817
# Shear Modulus (GPa) = -44.62980 19.77219 -12.42880
#
# Velocity S-wave (km/s) = -4.69762 3.12675 -2.47902
# Velocity P-wave (km/s) = 4.31385 6.15144 3.10088
#
# Compressibility (1/GPa) = 0.04572302
#
# Stress axis : x y z
#
# Youngs Moduli (GPa) = 66.70586 19.58393 63.81745
#
# Poissons Ratio (x) = 0.09221 0.49099
# Poissons Ratio (y) = 0.31410 0.35723
# Poissons Ratio (z) = 0.51321 0.10963
#
# Static dielectric constant tensor:
#      x y z
#    x 1.761480 0.000000 -0.011300 
#    y 0.000000 1.805710 0.000000 
#    z -0.011300 0.000000 1.697910 
# 
# From -- ./inp_files/279013.got.cif
#   From: 2010.05.17/outbox.cif.g08.bks.cpg/sg12_140_cif.got.tgz:279013.got - 2010.06.03 13:09:07.
