data_PCOD9173973
_publ_section_title
;
Structure prediction by ZEFSAII (Michael W. Deem and Ramdas Pophale) SiO2 
 PCOD9173973
Probable space group: C 2/M
;
_chemical_formula_sum "Si O2"
_cell_formula_units_Z 64
_cell_length_a 17.772717
_cell_length_b 18.232705
_cell_length_c 10.841840
_cell_angle_alpha 90.000000
_cell_angle_beta 80.526989
_cell_angle_gamma 90.000000
_cell_volume 3465.331625
_symmetry_space_group_name_H-M "C 2/M"
_symmetry_group_IT_number 12
_symmetry_cell_setting 'monoclinic'
loop_
_space_group_symop_operation_xyz
x,y,z
-x,y,-z
-x,-y,-z
x,-y,z
1/2+x,1/2+y,z
1/2-x,1/2+y,-z
1/2-x,1/2-y,-z
1/2+x,1/2-y,z
loop_
_atom_site_type_symbol
_atom_site_label
_atom_site_fract_x
_atom_site_fract_y
_atom_site_fract_z
Si Si1 0.523305 0.581130 0.682829
Si Si2 0.858875 0.723294 0.218847
Si Si3 0.290789 0.082927 0.814303
Si Si4 0.576153 0.269679 0.548820
Si Si5 0.632957 0.624473 0.173574
Si Si6 0.181486 0.263094 0.295742
Si Si7 0.115175 0.877434 0.893458
Si Si8 0.307089 0.918200 0.103281
O O1 0.539226 0.500000 0.630644
O O2 0.562012 0.646236 0.595066
O O3 0.432770 0.594933 0.719344
O O4 0.556801 0.588176 0.812598
O O5 0.906387 0.725771 0.331451
O O6 0.771228 0.744973 0.272535
O O7 0.887893 0.789689 0.125621
O O8 0.854995 0.645613 0.153708
O O9 0.327314 0.151041 0.732187
O O10 0.199246 0.094254 0.832660
O O11 0.309911 0.000000 0.769149
O O12 0.309622 0.090255 0.954549
O O13 0.500000 0.244903 0.500000
O O14 0.644198 0.259991 0.434260
O O15 0.644018 0.710819 0.201183
O O16 0.717674 0.591301 0.164468
O O17 0.607499 0.608496 0.040383
O O18 0.332025 0.000000 0.129269
#
# Coordination Sequence:
#
# PCOD9173973 Si02
#       8
#     8   8   8   8   8   8   8   8
#     4  11  22  34  50  75 111 147 174 206 251 308
#     4   9  19  34  55  77 103 139 179 219 262 307
#     4   9  17  31  55  82 107 133 168 220 273 315
#     4  11  22  39  53  73  99 143 186 221 253 302
#     4  10  18  31  51  80 111 145 171 203 252 317
#     4  10  19  35  55  76 104 140 184 221 254 305
#     4   9  18  31  51  80 112 139 172 205 255 320
#     4   9  17  31  53  83 111 133 166 217 271 317
#
# _framework density 18.468651000000001
#
# number of rings (size 3 to 8) (size 9 to 14) (size 15 to 20)
#    0.000    2.250    1.250    2.250    0.000    5.250 
#    0.000    1.250    0.000    1.500    0.000    1.750 
#    0.000    0.000    0.000    0.000    0.000    0.000 
#
# Total GULP energy -178535.963483 kJ/mol
# GULP energy per Si atom -5579.248859 kJ/mol
# Density = 1.842662 g / cm^3
# Si number density = 18.468651 Si / 1000 Ang^3
#
#
#
# Elastic Constant Matrix: (Units=GPa)
#
#
# Indices 1 2 3 4 5 6 
#
# 1 34.4931 24.3791 11.0038 0.0000 15.8750 0.0000
# 2 24.3791 136.0899 29.0956 0.0000 8.5072 0.0000
# 3 11.0038 29.0956 42.0266 0.0000 4.3053 0.0000
# 4 0.0000 0.0000 0.0000 11.9149 0.0000 -2.2739
# 5 15.8750 8.5072 4.3053 0.0000 32.4939 0.0000
# 6 0.0000 0.0000 0.0000 -2.2739 0.0000 11.4150
#
#
#
# Elastic Compliance Matrix: (Units=1/GPa)
#
#
# Indices 1 2 3 4 5 6 
#
# 1 0.043349 -0.005360 -0.005691 0.000000 -0.019021 0.000000
# 2 -0.005360 0.009359 -0.005163 0.000000 0.000852 0.000000
# 3 -0.005691 -0.005163 0.028827 0.000000 0.000313 0.000000
# 4 0.000000 0.000000 0.000000 0.087245 0.000000 0.017380
# 5 -0.019021 0.000852 0.000313 0.000000 0.039803 0.000000
# 6 0.000000 0.000000 0.000000 0.017380 0.000000 0.091066
#
#
# Mechanical properties :
#
#
# Convention : Reuss Voigt Hill
#
# Bulk Modulus (GPa) = 20.36360 37.95186 29.15773
# Shear Modulus (GPa) = 14.34941 21.04018 17.69480
#
# Velocity S-wave (km/s) = 2.79042 3.37892 3.09868
# Velocity P-wave (km/s) = 4.62946 5.98471 5.35017
#
# Compressibility (1/GPa) = 0.04910724
#
# Stress axis : x y z
#
# Youngs Moduli (GPa) = 23.06846 106.85103 34.68970
#
# Poissons Ratio (x) = 0.57270 0.19742
# Poissons Ratio (y) = 0.12364 0.17911
# Poissons Ratio (z) = 0.13128 0.55169
#
# Static dielectric constant tensor:
#      x y z
#    x 1.641990 0.000000 0.001090 
#    y 0.000000 1.643970 0.000000 
#    z 0.001090 0.000000 1.639980 
# 
# From -- ./inp_files/157805.got.cif
#   From: 2010.05.17/outbox.cif.g08.bks.cpg/sg12_79_cif.got.tgz:157805.got - 2010.06.03 13:09:07.
