data_PCOD9173317
_publ_section_title
;
Structure prediction by ZEFSAII (Michael W. Deem and Ramdas Pophale) SiO2 
 PCOD9173317
Probable space group: C 2/M
;
_chemical_formula_sum "Si O2"
_cell_formula_units_Z 40
_cell_length_a 19.939069
_cell_length_b 8.548780
_cell_length_c 28.371116
_cell_angle_alpha 90.000000
_cell_angle_beta 152.293395
_cell_angle_gamma 90.000000
_cell_volume 2248.465285
_symmetry_space_group_name_H-M "C 2/M"
_symmetry_group_IT_number 12
_symmetry_cell_setting 'monoclinic'
loop_
_space_group_symop_operation_xyz
x,y,z
-x,y,-z
-x,-y,-z
x,-y,z
1/2+x,1/2+y,z
1/2-x,1/2+y,-z
1/2-x,1/2-y,-z
1/2+x,1/2-y,z
loop_
_atom_site_type_symbol
_atom_site_label
_atom_site_fract_x
_atom_site_fract_y
_atom_site_fract_z
Si Si1 0.969899 0.187519 0.264886
Si Si2 0.611315 0.813916 0.886631
Si Si3 0.913572 0.689371 0.330291
Si Si4 0.303995 0.689252 0.723908
Si Si5 0.710915 0.189809 0.562426
O O1 0.897351 0.250022 0.172162
O O2 0.899599 0.248405 0.268899
O O3 0.138586 0.239760 0.367752
O O4 0.967965 0.000000 0.262508
O O5 0.463970 0.757183 0.819902
O O6 0.614895 0.000000 0.887832
O O7 0.750000 0.750000 0.000000
O O8 0.915441 0.500000 0.330440
O O9 0.787235 0.737625 0.287428
O O10 0.066959 0.744942 0.447154
O O11 0.314469 0.500000 0.730256
O O12 0.221843 0.734168 0.624292
O O13 0.707524 0.000000 0.559080
#
# Coordination Sequence:
#
# PCOD9173317 Si02
#       5
#     8   8   8   8   8
#     4  10  20  34  52  77 109 141 177 217 256 302
#     4  11  22  39  61  79  98 128 170 217 266 319
#     4  10  18  30  51  79 112 146 177 211 253 301
#     4   9  18  33  53  79 109 140 176 215 256 305
#     4   8  15  29  50  75 106 147 184 211 246 297
#
# _framework density 17.789912000000001
#
# number of rings (size 3 to 8) (size 9 to 14) (size 15 to 20)
#    0.000    2.400    0.000    4.800    0.000    3.200 
#    0.000    5.000    0.000   12.000    0.000    0.000 
#    0.000    0.000    0.000    0.000    0.000    0.000 
#
# Total GULP energy -111616.100977 kJ/mol
# GULP energy per Si atom -5580.805049 kJ/mol
# Density = 1.774942 g / cm^3
# Si number density = 17.789912 Si / 1000 Ang^3
#
#
#
# Elastic Constant Matrix: (Units=GPa)
#
#
# Indices 1 2 3 4 5 6 
#
# 1 164.7045 33.9741 62.4779 0.0000 -9.6499 0.0000
# 2 33.9741 40.1826 24.4990 0.0000 -2.0623 -0.0002
# 3 62.4779 24.4990 119.5238 0.0004 -11.9941 0.0000
# 4 0.0000 0.0000 0.0004 18.9878 -0.0001 0.2741
# 5 -9.6499 -2.0623 -11.9941 -0.0001 6.6709 0.0000
# 6 0.0000 -0.0002 0.0000 0.2741 0.0000 28.0370
#
#
#
# Elastic Compliance Matrix: (Units=1/GPa)
#
#
# Indices 1 2 3 4 5 6 
#
# 1 0.008554 -0.005214 -0.002834 0.000000 0.005667 0.000000
# 2 -0.005214 0.031642 -0.004314 0.000000 -0.005516 0.000000
# 3 -0.002834 -0.004314 0.012430 0.000000 0.016915 0.000000
# 4 0.000000 0.000000 0.000000 0.052673 0.000000 -0.000515
# 5 0.005667 -0.005516 0.016915 0.000000 0.186809 0.000000
# 6 0.000000 0.000000 0.000000 -0.000515 0.000000 0.035672
#
#
# Mechanical properties :
#
#
# Convention : Reuss Voigt Hill
#
# Bulk Modulus (GPa) = 35.83987 62.92365 49.38176
# Shear Modulus (GPa) = 13.81968 24.30314 19.06141
#
# Velocity S-wave (km/s) = 2.79019 3.70011 3.27689
# Velocity P-wave (km/s) = 5.52902 7.32814 6.49122
#
# Compressibility (1/GPa) = 0.02790189
#
# Stress axis : x y z
#
# Youngs Moduli (GPa) = 116.90475 31.60406 80.45325
#
# Poissons Ratio (x) = 0.16477 0.22801
# Poissons Ratio (y) = 0.60949 0.34707
# Poissons Ratio (z) = 0.33132 0.13634
#
# Static dielectric constant tensor:
#      x y z
#    x 1.599880 0.000000 0.006510 
#    y 0.000000 1.610040 0.000000 
#    z 0.006510 0.000000 1.584770 
# 
# From -- ./inp_files/151956.got.cif
#   From: 2010.05.17/outbox.cif.g08.bks.cpg/sg12_76_cif.got.tgz:151956.got - 2010.06.03 13:09:07.
