data_PCOD9173469
_publ_section_title
;
Structure prediction by ZEFSAII (Michael W. Deem and Ramdas Pophale) SiO2 
 PCOD9173469
Probable space group: C 2/M
;
_chemical_formula_sum "Si O2"
_cell_formula_units_Z 64
_cell_length_a 5.438554
_cell_length_b 29.874162
_cell_length_c 19.336395
_cell_angle_alpha 90.000000
_cell_angle_beta 93.554824
_cell_angle_gamma 90.000000
_cell_volume 3135.582750
_symmetry_space_group_name_H-M "C 2/M"
_symmetry_group_IT_number 12
_symmetry_cell_setting 'monoclinic'
loop_
_space_group_symop_operation_xyz
x,y,z
-x,y,-z
-x,-y,-z
x,-y,z
1/2+x,1/2+y,z
1/2-x,1/2+y,-z
1/2-x,1/2-y,-z
1/2+x,1/2-y,z
loop_
_atom_site_type_symbol
_atom_site_label
_atom_site_fract_x
_atom_site_fract_y
_atom_site_fract_z
Si Si1 0.514445 0.949648 0.667737
Si Si2 0.909823 0.952898 0.781373
Si Si3 0.976594 0.636299 0.875406
Si Si4 0.982532 0.912172 0.921123
Si Si5 0.237836 0.874928 0.728294
Si Si6 0.740188 0.446498 0.465633
Si Si7 0.421032 0.273302 0.263540
Si Si8 0.431084 0.760725 0.104165
O O1 0.636964 0.953235 0.745311
O O2 0.345196 0.905592 0.668060
O O3 0.732980 0.941302 0.616248
O O4 0.413340 0.000000 0.647990
O O5 0.938324 0.950242 0.863557
O O6 0.036472 0.908315 0.756436
O O7 0.024872 0.000000 0.758489
O O8 0.736711 0.613492 0.905900
O O9 0.942928 0.631112 0.792077
O O10 0.235960 0.617386 0.906422
O O11 0.981464 0.688599 0.888735
O O12 0.000000 0.927341 0.000000
O O13 0.126913 0.825191 0.718115
O O14 0.500000 0.428075 0.500000
O O15 0.737738 0.500000 0.478079
O O16 0.000000 0.429358 0.500000
O O17 0.691007 0.255384 0.288866
O O18 0.415796 0.263566 0.179951
O O19 0.656853 0.737409 0.070383
#
# Coordination Sequence:
#
# PCOD9173469 Si02
#       8
#     8   8   8   8   8   8   8   8
#     4  10  21  36  58  89 127 162 201 245 288 351
#     4  10  23  38  59  88 117 155 202 249 302 353
#     4  11  21  36  60  81 107 146 187 239 303 353
#     4  11  24  41  60  80 108 151 199 246 297 356
#     4  11  21  34  59  86 123 154 193 245 312 343
#     4   9  19  35  56  82 119 167 203 231 279 342
#     4  10  21  32  54  86 117 151 187 237 300 356
#     4  10  18  30  53  83 106 138 177 230 295 354
#
# _framework density 20.410879999999999
#
# number of rings (size 3 to 8) (size 9 to 14) (size 15 to 20)
#    0.000    1.750    3.750    1.500    8.750    0.250 
#    0.000    0.000    0.000    9.750    0.000    0.000 
#    0.000    3.000    0.000    0.000    0.000    0.000 
#
# Total GULP energy -178275.698495 kJ/mol
# GULP energy per Si atom -5571.115578 kJ/mol
# Density = 2.036442 g / cm^3
# Si number density = 20.410880 Si / 1000 Ang^3
#
#
#
# Elastic Constant Matrix: (Units=GPa)
#
#
# Indices 1 2 3 4 5 6 
#
# 1 112.8501 29.1180 19.5748 0.0000 -24.0599 0.0000
# 2 29.1180 123.5963 28.3693 0.0000 -16.8226 0.0000
# 3 19.5748 28.3693 45.6322 0.0000 -16.1734 0.0000
# 4 0.0000 0.0000 0.0000 3.9615 0.0000 17.7172
# 5 -24.0599 -16.8226 -16.1734 0.0000 24.7159 0.0000
# 6 0.0000 0.0000 0.0000 17.7172 0.0000 3.2520
#
#
#
# Elastic Compliance Matrix: (Units=1/GPa)
#
#
# Indices 1 2 3 4 5 6 
#
# 1 0.011380 -0.001192 -0.000653 0.000000 0.009839 0.000000
# 2 -0.001192 0.009782 -0.004715 0.000000 0.002412 0.000000
# 3 -0.000653 -0.004715 0.030939 0.000000 0.016400 0.000000
# 4 0.000000 0.000000 0.000000 -0.010803 0.000000 0.058858
# 5 0.009839 0.002412 0.016400 0.000000 0.062411 0.000000
# 6 0.000000 0.000000 0.000000 0.058858 0.000000 -0.013160
#
#
# Mechanical properties :
#
#
# Convention : Reuss Voigt Hill
#
# Bulk Modulus (GPa) = 25.65431 48.46697 37.06064
# Shear Modulus (GPa) = 42.85864 20.05366 31.45615
#
# Velocity S-wave (km/s) = 4.58732 3.13788 3.93000
# Velocity P-wave (km/s) = 6.37607 6.07665 6.22816
#
# Compressibility (1/GPa) = 0.03897981
#
# Stress axis : x y z
#
# Youngs Moduli (GPa) = 87.87438 102.22543 32.32197
#
# Poissons Ratio (x) = 0.12183 0.02112
# Poissons Ratio (y) = 0.10473 0.15241
# Poissons Ratio (z) = 0.05742 0.48202
#
# Static dielectric constant tensor:
#      x y z
#    x 1.579560 0.000000 -0.324870 
#    y 0.000000 1.764620 0.000000 
#    z -0.324870 0.000000 1.337430 
# 
# From -- ./inp_files/298303.got.cif
#   From: 2010.05.17/outbox.cif.g08.bks.cpg/sg12_150_cif.got.tgz:298303.got - 2010.06.03 13:09:07.
