data_PCOD9173629
_publ_section_title
;
Structure prediction by ZEFSAII (Michael W. Deem and Ramdas Pophale) SiO2 
 PCOD9173629
Probable space group: C 2/M
;
_chemical_formula_sum "Si O2"
_cell_formula_units_Z 64
_cell_length_a 26.206663
_cell_length_b 8.914228
_cell_length_c 21.876507
_cell_angle_alpha 90.000000
_cell_angle_beta 127.052021
_cell_angle_gamma 90.000000
_cell_volume 4078.727037
_symmetry_space_group_name_H-M "C 2/M"
_symmetry_group_IT_number 12
_symmetry_cell_setting 'monoclinic'
loop_
_space_group_symop_operation_xyz
x,y,z
-x,y,-z
-x,-y,-z
x,-y,z
1/2+x,1/2+y,z
1/2-x,1/2+y,-z
1/2-x,1/2-y,-z
1/2+x,1/2-y,z
loop_
_atom_site_type_symbol
_atom_site_label
_atom_site_fract_x
_atom_site_fract_y
_atom_site_fract_z
Si Si1 0.939628 0.318464 0.186238
Si Si2 0.640554 0.678951 0.660957
Si Si3 0.016166 0.681931 0.915027
Si Si4 0.257964 0.679971 0.815408
Si Si5 0.603758 0.181583 0.091363
Si Si6 0.481943 0.321131 0.341605
Si Si7 0.437375 0.173257 0.498720
Si Si8 0.709964 0.819538 0.915937
O O1 0.943154 0.500000 0.192520
O O2 0.968889 0.268343 0.142616
O O3 0.974802 0.248607 0.269681
O O4 0.864638 0.276391 0.134281
O O5 0.647145 0.500000 0.662763
O O6 0.704797 0.753959 0.731787
O O7 0.583668 0.713762 0.668475
O O8 0.616943 0.742653 0.578981
O O9 0.016655 0.500000 0.915015
O O10 0.947941 0.725727 0.894261
O O11 0.071103 0.725632 0.003108
O O12 0.257448 0.500000 0.811788
O O13 0.327846 0.743806 0.852058
O O14 0.238165 0.724672 0.870368
O O15 0.609885 0.000000 0.096457
O O16 0.488066 0.500000 0.343376
O O17 0.539636 0.252265 0.422768
O O18 0.500000 0.177240 0.500000
O O19 0.420670 0.000000 0.496977
O O20 0.713089 0.000000 0.922776
O O21 0.750000 0.750000 0.000000
#
# Coordination Sequence:
#
# PCOD9173629 Si02
#       8
#     8   8   8   8   8   8   8   8
#     4  10  18  31  48  68  95 128 161 198 242 286
#     4  10  19  31  47  68  96 130 164 198 233 280
#     4   8  16  31  53  73  90 120 166 210 246 287
#     4  11  21  32  46  70  99 128 160 198 243 291
#     4   9  17  33  53  71  91 122 165 209 248 287
#     4  10  19  30  45  69  98 128 162 197 234 283
#     4   9  17  29  47  68  94 128 160 194 237 282
#     4  10  21  32  45  65  94 127 161 195 236 288
#
# _framework density 15.69117
#
# number of rings (size 3 to 8) (size 9 to 14) (size 15 to 20)
#    0.000    2.375    1.250    3.000    0.000    5.000 
#    0.000    2.500    0.000    0.000    0.000    0.875 
#    0.000    0.000    0.000    0.000    0.000    0.000 
#
# Total GULP energy -178477.966072 kJ/mol
# GULP energy per Si atom -5577.436440 kJ/mol
# Density = 1.565546 g / cm^3
# Si number density = 15.691170 Si / 1000 Ang^3
#
#
#
# Elastic Constant Matrix: (Units=GPa)
#
#
# Indices 1 2 3 4 5 6 
#
# 1 80.3899 34.2735 71.4506 0.0000 4.1683 0.0000
# 2 34.2735 38.4851 50.8587 0.0000 4.6526 0.0000
# 3 71.4506 50.8587 162.3488 0.0000 4.4458 0.0000
# 4 0.0000 0.0000 0.0000 31.8813 0.0000 1.1168
# 5 4.1683 4.6526 4.4458 0.0000 19.8765 0.0000
# 6 0.0000 0.0000 0.0000 1.1168 0.0000 16.2054
#
#
#
# Elastic Compliance Matrix: (Units=1/GPa)
#
#
# Indices 1 2 3 4 5 6 
#
# 1 0.023440 -0.012271 -0.006455 0.000000 -0.000599 0.000000
# 2 -0.012271 0.051848 -0.010645 0.000000 -0.007182 0.000000
# 3 -0.006455 -0.010645 0.012305 0.000000 0.001093 0.000000
# 4 0.000000 0.000000 0.000000 0.031442 0.000000 -0.002167
# 5 -0.000599 -0.007182 0.001093 0.000000 0.051873 0.000000
# 6 0.000000 0.000000 0.000000 -0.002167 0.000000 0.061857
#
#
# Mechanical properties :
#
#
# Convention : Reuss Voigt Hill
#
# Bulk Modulus (GPa) = 34.66203 66.04326 50.35264
# Shear Modulus (GPa) = 16.60436 21.90205 19.25320
#
# Velocity S-wave (km/s) = 3.25652 3.74012 3.50667
# Velocity P-wave (km/s) = 6.02313 7.79950 6.96815
#
# Compressibility (1/GPa) = 0.02885001
#
# Stress axis : x y z
#
# Youngs Moduli (GPa) = 42.66263 19.28705 81.26502
#
# Poissons Ratio (x) = 0.23668 0.52459
# Poissons Ratio (y) = 0.52353 0.86507
# Poissons Ratio (z) = 0.27540 0.20531
#
# Static dielectric constant tensor:
#      x y z
#    x 1.511220 0.000000 -0.007190 
#    y 0.000000 1.523520 0.000000 
#    z -0.007190 0.000000 1.504030 
# 
# From -- ./inp_files/324210.got.cif
#   From: 2010.05.17/outbox.cif.g08.bks.cpg/sg12_163_cif.got.tgz:324210.got - 2010.06.03 13:09:07.
