data_PCOD9173325
_publ_section_title
;
Structure prediction by ZEFSAII (Michael W. Deem and Ramdas Pophale) SiO2 
 PCOD9173325
Probable space group: C 2/M
;
_chemical_formula_sum "Si O2"
_cell_formula_units_Z 56
_cell_length_a 17.857343
_cell_length_b 18.860397
_cell_length_c 15.409407
_cell_angle_alpha 90.000000
_cell_angle_beta 143.540111
_cell_angle_gamma 90.000000
_cell_volume 3084.111082
_symmetry_space_group_name_H-M "C 2/M"
_symmetry_group_IT_number 12
_symmetry_cell_setting 'monoclinic'
loop_
_space_group_symop_operation_xyz
x,y,z
-x,y,-z
-x,-y,-z
x,-y,z
1/2+x,1/2+y,z
1/2-x,1/2+y,-z
1/2-x,1/2-y,-z
1/2+x,1/2-y,z
loop_
_atom_site_type_symbol
_atom_site_label
_atom_site_fract_x
_atom_site_fract_y
_atom_site_fract_z
Si Si1 0.487069 0.417064 0.228847
Si Si2 0.043861 0.183597 0.130423
Si Si3 0.116788 0.721866 0.909613
Si Si4 0.699385 0.235277 0.679188
Si Si5 0.484122 0.288713 0.349193
Si Si6 0.312792 0.921586 0.077411
Si Si7 0.136606 0.577861 0.672368
O O1 0.521496 0.500000 0.270263
O O2 0.561356 0.374876 0.222148
O O3 0.495897 0.368938 0.324127
O O4 0.339106 0.414320 0.063457
O O5 0.158460 0.238474 0.222406
O O6 0.927370 0.232751 0.051124
O O7 0.000000 0.148201 0.000000
O O8 0.022868 0.741367 0.743717
O O9 0.129656 0.638532 0.929243
O O10 0.250000 0.750000 0.000000
O O11 0.600663 0.262316 0.515141
O O12 0.642920 0.273714 0.712613
O O13 0.693262 0.150395 0.689592
O O14 0.362930 0.914013 0.222755
O O15 0.343491 0.000000 0.075280
O O16 0.196786 0.500000 0.711218
O O17 0.000000 0.575569 0.500000
#
# Coordination Sequence:
#
# PCOD9173325 Si02
#       7
#     8   8   8   8   8   8   8
#     4  10  22  38  56  81 112 150 189 229 281 336
#     4  11  23  33  57  87 115 141 180 237 288 333
#     4  11  18  34  55  76 110 150 187 224 270 334
#     4  11  20  35  55  86 113 144 189 231 281 327
#     4  10  20  36  59  79 110 152 191 230 269 337
#     4  10  18  31  55  80 105 144 187 222 268 332
#     4  10  18  30  51  80 114 145 176 218 273 332
#
# _framework density 18.157582999999999
#
# number of rings (size 3 to 8) (size 9 to 14) (size 15 to 20)
#    0.000    1.571    5.714    1.714    0.000    3.143 
#    0.000    1.429    0.000    5.571    0.000    0.000 
#    0.000    0.000    0.000    0.000    0.000    0.000 
#
# Total GULP energy -155941.669858 kJ/mol
# GULP energy per Si atom -5569.345352 kJ/mol
# Density = 1.811626 g / cm^3
# Si number density = 18.157583 Si / 1000 Ang^3
#
#
#
# Elastic Constant Matrix: (Units=GPa)
#
#
# Indices 1 2 3 4 5 6 
#
# 1 74.0710 42.1533 11.7492 0.0000 1.7158 0.0000
# 2 42.1533 138.5575 17.8642 0.0000 -9.2422 0.0000
# 3 11.7492 17.8642 41.4574 0.0000 -7.5553 0.0000
# 4 0.0000 0.0000 0.0000 25.2729 0.0000 -4.4094
# 5 1.7158 -9.2422 -7.5553 0.0000 25.0061 0.0000
# 6 0.0000 0.0000 0.0000 -4.4094 0.0000 15.8814
#
#
#
# Elastic Compliance Matrix: (Units=1/GPa)
#
#
# Indices 1 2 3 4 5 6 
#
# 1 0.016976 -0.004996 -0.003394 0.000000 -0.004037 0.000000
# 2 -0.004996 0.009202 -0.001976 0.000000 0.003147 0.000000
# 3 -0.003394 -0.001976 0.027350 0.000000 0.007766 0.000000
# 4 0.000000 0.000000 0.000000 0.041582 0.000000 0.011545
# 5 -0.004037 0.003147 0.007766 0.000000 0.043777 0.000000
# 6 0.000000 0.000000 0.000000 0.011545 0.000000 0.066172
#
#
# Mechanical properties :
#
#
# Convention : Reuss Voigt Hill
#
# Bulk Modulus (GPa) = 30.49173 44.17994 37.33584
# Shear Modulus (GPa) = 21.12184 25.38669 23.25426
#
# Velocity S-wave (km/s) = 3.41435 3.74322 3.58256
# Velocity P-wave (km/s) = 5.68973 6.56250 6.14164
#
# Compressibility (1/GPa) = 0.03279578
#
# Stress axis : x y z
#
# Youngs Moduli (GPa) = 58.90774 108.67378 36.56368
#
# Poissons Ratio (x) = 0.54296 0.12409
# Poissons Ratio (y) = 0.29432 0.07224
# Poissons Ratio (z) = 0.19992 0.21470
#
# Static dielectric constant tensor:
#      x y z
#    x 1.681240 0.000000 0.005480 
#    y 0.000000 1.655600 0.000000 
#    z 0.005480 0.000000 1.663820 
# 
# From -- ./inp_files/226601.got.cif
#   From: 2010.05.17/outbox.cif.g08.bks.cpg/sg12_114_cif.got.tgz:226601.got - 2010.06.03 13:09:07.
