data_PCOD9173140
_publ_section_title
;
Structure prediction by ZEFSAII (Michael W. Deem and Ramdas Pophale) SiO2 
 PCOD9173140
Probable space group: C 2/M
;
_chemical_formula_sum "Si O2"
_cell_formula_units_Z 64
_cell_length_a 33.016366
_cell_length_b 8.736437
_cell_length_c 15.533933
_cell_angle_alpha 90.000000
_cell_angle_beta 131.997360
_cell_angle_gamma 90.000000
_cell_volume 3329.940876
_symmetry_space_group_name_H-M "C 2/M"
_symmetry_group_IT_number 12
_symmetry_cell_setting 'monoclinic'
loop_
_space_group_symop_operation_xyz
x,y,z
-x,y,-z
-x,-y,-z
x,-y,z
1/2+x,1/2+y,z
1/2-x,1/2+y,-z
1/2-x,1/2-y,-z
1/2+x,1/2-y,z
loop_
_atom_site_type_symbol
_atom_site_label
_atom_site_fract_x
_atom_site_fract_y
_atom_site_fract_z
Si Si1 0.555160 0.315511 0.785995
Si Si2 0.877593 0.317100 0.960527
Si Si3 0.702550 0.672931 0.379868
Si Si4 0.140549 0.317167 0.568191
Si Si5 0.064353 0.182703 0.605601
Si Si6 0.590634 0.179690 0.184266
Si Si7 0.062876 0.182540 0.317912
Si Si8 0.737516 0.672701 0.232090
O O1 0.557449 0.500000 0.794613
O O2 0.575808 0.272251 0.720567
O O3 0.491847 0.271716 0.708742
O O4 0.589615 0.245108 0.911935
O O5 0.878698 0.500000 0.959187
O O6 0.905761 0.263885 0.909835
O O7 0.814636 0.263560 0.877369
O O8 0.688215 0.500000 0.389154
O O9 0.750000 0.750000 0.500000
O O10 0.651268 0.784675 0.304537
O O11 0.723622 0.660299 0.312959
O O12 0.144434 0.500000 0.563097
O O13 0.099822 0.271801 0.586781
O O14 0.114559 0.249469 0.443566
O O15 0.201230 0.261443 0.681252
O O16 0.000000 0.206738 0.500000
O O17 0.074181 0.000000 0.608763
O O18 0.556099 0.261844 0.209500
O O19 0.577838 0.000000 0.165888
O O20 0.067216 0.000000 0.324813
O O21 0.738078 0.500000 0.195639
#
# Coordination Sequence:
#
# PCOD9173140 Si02
#       8
#     8   8   8   8   8   8   8   8
#     4  10  22  40  62  84 113 153 193 238 288 343
#     4  10  22  39  60  84 114 152 197 242 285 338
#     4  10  18  30  50  75 107 150 193 236 285 341
#     4  11  22  36  59  92 123 150 186 241 297 345
#     4  10  20  40  63  86 118 152 190 233 285 350
#     4  10  21  36  52  78 115 152 191 241 291 337
#     4  11  22  37  58  86 117 155 198 238 287 349
#     4   9  20  37  55  78 113 152 190 232 283 341
#
# _framework density 19.219560999999999
#
# number of rings (size 3 to 8) (size 9 to 14) (size 15 to 20)
#    0.000    1.875    1.250    2.625    0.000    6.250 
#    0.000    3.125    0.000    0.000    0.000    0.000 
#    0.000    0.000    0.000    0.000    0.000    0.000 
#
# Total GULP energy -178530.810826 kJ/mol
# GULP energy per Si atom -5579.087838 kJ/mol
# Density = 1.917582 g / cm^3
# Si number density = 19.219561 Si / 1000 Ang^3
#
#
#
# Elastic Constant Matrix: (Units=GPa)
#
#
# Indices 1 2 3 4 5 6 
#
# 1 76.7447 14.9908 29.7036 0.0000 -6.0600 0.0000
# 2 14.9908 27.2502 20.8428 0.0000 -6.8146 0.0000
# 3 29.7036 20.8428 94.0947 0.0000 -20.0583 0.0000
# 4 0.0000 0.0000 0.0000 26.9177 0.0000 -2.3356
# 5 -6.0600 -6.8146 -20.0583 0.0000 25.1547 0.0000
# 6 0.0000 0.0000 0.0000 -2.3356 0.0000 26.8379
#
#
#
# Elastic Compliance Matrix: (Units=1/GPa)
#
#
# Indices 1 2 3 4 5 6 
#
# 1 0.015582 -0.005882 -0.003802 0.000000 -0.000871 0.000000
# 2 -0.005882 0.046935 -0.007387 0.000000 0.005408 0.000000
# 3 -0.003802 -0.007387 0.015472 0.000000 0.009420 0.000000
# 4 0.000000 0.000000 0.000000 0.037433 0.000000 0.003258
# 5 -0.000871 0.005408 0.009420 0.000000 0.048521 0.000000
# 6 0.000000 0.000000 0.000000 0.003258 0.000000 0.037544
#
#
# Mechanical properties :
#
#
# Convention : Reuss Voigt Hill
#
# Bulk Modulus (GPa) = 22.80605 36.57379 29.68992
# Shear Modulus (GPa) = 19.98051 24.61891 22.29971
#
# Velocity S-wave (km/s) = 3.22777 3.58289 3.40996
# Velocity P-wave (km/s) = 5.07771 6.01556 5.56642
#
# Compressibility (1/GPa) = 0.04384801
#
# Stress axis : x y z
#
# Youngs Moduli (GPa) = 64.17756 21.30602 64.63244
#
# Poissons Ratio (x) = 0.12532 0.24571
# Poissons Ratio (y) = 0.37749 0.47744
# Poissons Ratio (z) = 0.24398 0.15739
#
# Static dielectric constant tensor:
#      x y z
#    x 1.683580 0.000000 -0.028350 
#    y 0.000000 1.667950 0.000000 
#    z -0.028350 0.000000 1.583350 
# 
# From -- ./inp_files/249923.got.cif
#   From: 2010.05.17/outbox.cif.g08.bks.cpg/sg12_125_cif.got.tgz:249923.got - 2010.06.03 13:09:07.
