data_PCOD9173769
_publ_section_title
;
Structure prediction by ZEFSAII (Michael W. Deem and Ramdas Pophale) SiO2 
 PCOD9173769
Probable space group: C 2/M
;
_chemical_formula_sum "Si O2"
_cell_formula_units_Z 40
_cell_length_a 15.083365
_cell_length_b 13.680625
_cell_length_c 9.896609
_cell_angle_alpha 90.000000
_cell_angle_beta 83.028331
_cell_angle_gamma 90.000000
_cell_volume 2027.064719
_symmetry_space_group_name_H-M "C 2/M"
_symmetry_group_IT_number 12
_symmetry_cell_setting 'monoclinic'
loop_
_space_group_symop_operation_xyz
x,y,z
-x,y,-z
-x,-y,-z
x,-y,z
1/2+x,1/2+y,z
1/2-x,1/2+y,-z
1/2-x,1/2-y,-z
1/2+x,1/2-y,z
loop_
_atom_site_type_symbol
_atom_site_label
_atom_site_fract_x
_atom_site_fract_y
_atom_site_fract_z
Si Si1 0.419465 0.887071 0.601110
Si Si2 0.195967 0.384374 0.133666
Si Si3 0.087545 0.390296 0.891580
Si Si4 0.820852 0.760057 0.280839
Si Si5 0.731090 0.388127 0.474384
O O1 0.500000 0.841503 0.500000
O O2 0.385581 0.850598 0.753042
O O3 0.328943 0.887739 0.528667
O O4 0.446213 0.000000 0.621733
O O5 0.209353 0.500000 0.160137
O O6 0.281200 0.324574 0.167060
O O7 0.167978 0.376326 0.983952
O O8 0.094039 0.500000 0.831066
O O9 0.096531 0.305278 0.781387
O O10 0.000000 0.387091 0.000000
O O11 0.746897 0.680034 0.342399
O O12 0.831426 0.832257 0.406468
O O13 0.706251 0.500000 0.452701
#
# Coordination Sequence:
#
# PCOD9173769 Si02
#       5
#     8   8   8   8   8
#     4   8  14  24  42  66  96 127 152 188 240 291
#     4   9  18  32  48  71 101 133 166 199 241 291
#     4  10  21  33  49  75 105 130 157 203 254 297
#     4  10  18  31  50  72 102 134 164 199 242 298
#     4   9  18  30  48  74  99 128 166 205 244 286
#
# _framework density 19.732966999999999
#
# number of rings (size 3 to 8) (size 9 to 14) (size 15 to 20)
#    0.000    2.800    0.000    3.000    2.800    0.000 
#    0.000    0.000    0.000    2.400    0.000    1.400 
#    0.000    0.000    0.000    0.000    0.000    0.000 
#
# Total GULP energy -111484.516885 kJ/mol
# GULP energy per Si atom -5574.225844 kJ/mol
# Density = 1.968805 g / cm^3
# Si number density = 19.732967 Si / 1000 Ang^3
#
#
#
# Elastic Constant Matrix: (Units=GPa)
#
#
# Indices 1 2 3 4 5 6 
#
# 1 23.3991 9.0789 10.7213 0.0000 1.2642 0.0000
# 2 9.0789 116.7205 26.2984 0.0000 -5.2625 0.0000
# 3 10.7213 26.2984 40.5193 0.0000 -2.2943 0.0000
# 4 0.0000 0.0000 0.0000 34.4246 0.0000 -9.4686
# 5 1.2642 -5.2625 -2.2943 0.0000 29.0037 0.0000
# 6 0.0000 0.0000 0.0000 -9.4686 0.0000 13.2740
#
#
#
# Elastic Compliance Matrix: (Units=1/GPa)
#
#
# Indices 1 2 3 4 5 6 
#
# 1 0.049057 -0.001170 -0.012410 0.000000 -0.003332 0.000000
# 2 -0.001170 0.010113 -0.006175 0.000000 0.001397 0.000000
# 3 -0.012410 -0.006175 0.032082 0.000000 0.001958 0.000000
# 4 0.000000 0.000000 0.000000 0.036140 0.000000 0.025779
# 5 -0.003332 0.001397 0.001958 0.000000 0.035032 0.000000
# 6 0.000000 0.000000 0.000000 0.025779 0.000000 0.093724
#
#
# Mechanical properties :
#
#
# Convention : Reuss Voigt Hill
#
# Bulk Modulus (GPa) = 19.32651 30.31512 24.82082
# Shear Modulus (GPa) = 15.97941 24.30982 20.14461
#
# Velocity S-wave (km/s) = 2.84875 3.51371 3.19856
# Velocity P-wave (km/s) = 4.54267 5.64425 5.12315
#
# Compressibility (1/GPa) = 0.05174239
#
# Stress axis : x y z
#
# Youngs Moduli (GPa) = 20.38458 98.88514 31.17046
#
# Poissons Ratio (x) = 0.11570 0.38681
# Poissons Ratio (y) = 0.02385 0.19247
# Poissons Ratio (z) = 0.25296 0.61060
#
# Static dielectric constant tensor:
#      x y z
#    x 1.721680 0.000000 0.002240 
#    y 0.000000 1.709890 0.000000 
#    z 0.002240 0.000000 1.762980 
# 
# From -- ./inp_files/141900.got.cif
#   From: 2010.05.17/outbox.cif.g08.bks.cpg/sg12_71_cif.got.tgz:141900.got - 2010.06.03 13:09:07.
