data_PCOD9173378
_publ_section_title
;
Structure prediction by ZEFSAII (Michael W. Deem and Ramdas Pophale) SiO2 
 PCOD9173378
Probable space group: C 2/M
;
_chemical_formula_sum "Si O2"
_cell_formula_units_Z 56
_cell_length_a 18.916367
_cell_length_b 18.471529
_cell_length_c 9.208062
_cell_angle_alpha 90.000000
_cell_angle_beta 132.546522
_cell_angle_gamma 90.000000
_cell_volume 2370.370898
_symmetry_space_group_name_H-M "C 2/M"
_symmetry_group_IT_number 12
_symmetry_cell_setting 'monoclinic'
loop_
_space_group_symop_operation_xyz
x,y,z
-x,y,-z
-x,-y,-z
x,-y,z
1/2+x,1/2+y,z
1/2-x,1/2+y,-z
1/2-x,1/2-y,-z
1/2+x,1/2-y,z
loop_
_atom_site_type_symbol
_atom_site_label
_atom_site_fract_x
_atom_site_fract_y
_atom_site_fract_z
Si Si1 0.096805 0.785033 0.488687
Si Si2 0.204600 0.417856 0.086177
Si Si3 0.171600 0.083568 0.456035
Si Si4 0.166393 0.190050 0.889469
Si Si5 0.592092 0.917702 0.526298
Si Si6 0.264384 0.679526 0.726596
Si Si7 0.991818 0.663104 0.159592
O O1 0.090385 0.865985 0.417338
O O2 0.094833 0.788170 0.661014
O O3 0.206895 0.753609 0.610003
O O4 0.030475 0.730478 0.306722
O O5 0.177638 0.500000 0.007976
O O6 0.245000 0.418684 0.306225
O O7 0.289608 0.385574 0.106292
O O8 0.114470 0.364470 0.952842
O O9 0.204274 0.129647 0.362525
O O10 0.146120 0.000000 0.388106
O O11 0.250000 0.250000 0.000000
O O12 0.149563 0.187685 0.038613
O O13 0.500000 0.904035 0.500000
O O14 0.678480 0.865222 0.684443
O O15 0.560330 0.900485 0.317413
O O16 0.621318 0.000000 0.582025
O O17 0.000000 0.674888 0.000000
#
# Coordination Sequence:
#
# PCOD9173378 Si02
#       7
#     8   8   8   8   8   8   8
#     4   9  20  37  52  76 112 149 184 226 279 333
#     4  10  20  34  54  84 119 151 182 223 281 339
#     4  10  20  35  57  83 112 144 184 235 279 322
#     4   9  19  35  55  76 108 151 192 229 268 326
#     4  10  20  32  46  73 119 159 181 213 269 338
#     4  10  18  30  52  78 104 140 190 233 269 319
#     4  11  22  34  53  80 112 152 190 224 272 335
#
# _framework density 23.624994999999998
#
# number of rings (size 3 to 8) (size 9 to 14) (size 15 to 20)
#    0.000    2.143    0.000    3.857    0.000    6.857 
#    0.000    0.000    0.000    0.429    0.000    1.000 
#    0.000   32.000    0.000    0.000    0.000    0.000 
#
# Total GULP energy -156463.506033 kJ/mol
# GULP energy per Si atom -5587.982358 kJ/mol
# Density = 2.357122 g / cm^3
# Si number density = 23.624995 Si / 1000 Ang^3
#
#
#
# Elastic Constant Matrix: (Units=GPa)
#
#
# Indices 1 2 3 4 5 6 
#
# 1 28.5497 29.2432 28.9557 0.0000 -11.7421 0.0000
# 2 29.2432 149.2235 55.4120 0.0000 -8.4970 0.0000
# 3 28.9557 55.4120 162.0240 0.0000 -14.5766 0.0000
# 4 0.0000 0.0000 0.0000 24.0066 0.0000 3.8585
# 5 -11.7421 -8.4970 -14.5766 0.0000 41.3748 0.0000
# 6 0.0000 0.0000 0.0000 3.8585 0.0000 34.5038
#
#
#
# Elastic Compliance Matrix: (Units=1/GPa)
#
#
# Indices 1 2 3 4 5 6 
#
# 1 0.053629 -0.007650 -0.005928 0.000000 0.011560 0.000000
# 2 -0.007650 0.008786 -0.001725 0.000000 -0.000975 0.000000
# 3 -0.005928 -0.001725 0.007888 0.000000 0.000742 0.000000
# 4 0.000000 0.000000 0.000000 0.042418 0.000000 -0.004743
# 5 0.011560 -0.000975 0.000742 0.000000 0.027512 0.000000
# 6 0.000000 0.000000 0.000000 -0.004743 0.000000 0.029513
#
#
# Mechanical properties :
#
#
# Convention : Reuss Voigt Hill
#
# Bulk Modulus (GPa) = 25.19100 63.00211 44.09656
# Shear Modulus (GPa) = 23.41001 35.05612 29.23307
#
# Velocity S-wave (km/s) = 3.15127 3.85627 3.52146
# Velocity P-wave (km/s) = 4.89149 6.82299 5.93632
#
# Compressibility (1/GPa) = 0.03969672
#
# Stress axis : x y z
#
# Youngs Moduli (GPa) = 18.64650 113.82142 126.77312
#
# Poissons Ratio (x) = 0.87076 0.75149
# Poissons Ratio (y) = 0.14265 0.21871
# Poissons Ratio (z) = 0.11053 0.19636
#
# Static dielectric constant tensor:
#      x y z
#    x 1.960080 0.000000 0.011280 
#    y 0.000000 1.879540 0.000000 
#    z 0.011280 0.000000 1.950310 
# 
# From -- ./inp_files/98207.got.cif
#   From: 2010.05.17/outbox.cif.g08.bks.cpg/sg12_50_cif.got.tgz:98207.got - 2010.06.03 13:09:07.
