data_PCOD9173908
_publ_section_title
;
Structure prediction by ZEFSAII (Michael W. Deem and Ramdas Pophale) SiO2 
 PCOD9173908
Probable space group: C 2/M
;
_chemical_formula_sum "Si O2"
_cell_formula_units_Z 56
_cell_length_a 12.943172
_cell_length_b 15.686665
_cell_length_c 26.798271
_cell_angle_alpha 90.000000
_cell_angle_beta 148.500838
_cell_angle_gamma 90.000000
_cell_volume 2842.842866
_symmetry_space_group_name_H-M "C 2/M"
_symmetry_group_IT_number 12
_symmetry_cell_setting 'monoclinic'
loop_
_space_group_symop_operation_xyz
x,y,z
-x,y,-z
-x,-y,-z
x,-y,z
1/2+x,1/2+y,z
1/2-x,1/2+y,-z
1/2-x,1/2-y,-z
1/2+x,1/2-y,z
loop_
_atom_site_type_symbol
_atom_site_label
_atom_site_fract_x
_atom_site_fract_y
_atom_site_fract_z
Si Si1 0.387487 0.097166 0.507148
Si Si2 0.264810 0.819402 0.299436
Si Si3 0.975319 0.102196 0.706150
Si Si4 0.527151 0.593005 0.878404
Si Si5 0.374287 0.169403 0.824232
Si Si6 0.350229 0.221642 0.975551
Si Si7 0.240316 0.407903 0.925381
O O1 0.500000 0.096107 0.500000
O O2 0.511472 0.161015 0.592512
O O3 0.163934 0.118207 0.399765
O O4 0.398667 0.000000 0.531443
O O5 0.128132 0.847781 0.290476
O O6 0.216269 0.726747 0.257444
O O7 0.194949 0.880920 0.225528
O O8 0.195704 0.131987 0.783321
O O9 0.966782 0.000000 0.712022
O O10 0.566618 0.500000 0.873044
O O11 0.668329 0.660734 0.910172
O O12 0.593984 0.589207 0.963030
O O13 0.522090 0.225005 0.920639
O O14 0.525486 0.100948 0.862970
O O15 0.500000 0.177745 0.000000
O O16 0.281871 0.311752 0.923092
O O17 0.250123 0.500000 0.902489
#
# Coordination Sequence:
#
# PCOD9173908 Si02
#       7
#     8   8   8   8   8   8   8
#     4   8  16  31  51  78 111 140 174 219 270 328
#     4  11  18  32  55  80 111 142 174 222 274 319
#     4  10  21  36  55  82 110 143 182 222 276 333
#     4  10  18  31  51  75 101 134 170 211 269 320
#     4  11  21  34  54  82 110 138 179 230 272 319
#     4  11  21  35  51  74 109 141 177 225 266 320
#     4  10  20  36  52  69 102 144 180 215 265 317
#
# _framework density 19.698592000000001
#
# number of rings (size 3 to 8) (size 9 to 14) (size 15 to 20)
#    0.000    1.857    2.857    4.286    0.000    1.714 
#    0.000    0.000    0.000    0.000    0.000    0.000 
#    0.000   12.571    0.000    0.000    0.000    0.000 
#
# Total GULP energy -155935.080419 kJ/mol
# GULP energy per Si atom -5569.110015 kJ/mol
# Density = 1.965376 g / cm^3
# Si number density = 19.698592 Si / 1000 Ang^3
#
#
#
# Elastic Constant Matrix: (Units=GPa)
#
#
# Indices 1 2 3 4 5 6 
#
# 1 24.0711 0.5624 -9.0747 0.0000 10.6700 0.0000
# 2 0.5624 83.3407 15.4056 0.0000 -2.6747 0.0000
# 3 -9.0747 15.4056 100.5711 -0.0002 -1.5644 0.0000
# 4 0.0000 0.0000 -0.0002 3.1497 0.0000 -4.0092
# 5 10.6700 -2.6747 -1.5644 0.0000 26.0478 0.0000
# 6 0.0000 0.0000 0.0000 -4.0092 0.0000 4.7062
#
#
#
# Elastic Compliance Matrix: (Units=1/GPa)
#
#
# Indices 1 2 3 4 5 6 
#
# 1 0.052951 -0.001926 0.004737 -0.000005 -0.021603 -0.000005
# 2 -0.001926 0.012454 -0.002051 0.000003 0.001945 0.000002
# 3 0.004737 -0.002051 0.010661 -0.000007 -0.001511 -0.000006
# 4 -0.000005 0.000003 -0.000007 -3.762649 0.000011 -3.205415
# 5 -0.021603 0.001945 -0.001511 0.000011 0.047349 0.000009
# 6 -0.000005 0.000002 -0.000006 -3.205415 0.000009 -2.518217
#
#
# Mechanical properties :
#
#
# Convention : Reuss Voigt Hill
#
# Bulk Modulus (GPa) = 12.88923 24.64105 18.76514
# Shear Modulus (GPa) = -0.81525 20.18670 9.68573
#
# Velocity S-wave (km/s) = -0.64402 3.20469 2.21983
# Velocity P-wave (km/s) = 2.45039 5.12148 4.01460
#
# Compressibility (1/GPa) = 0.07758413
#
# Stress axis : x y z
#
# Youngs Moduli (GPa) = 18.88556 80.29860 93.79693
#
# Poissons Ratio (x) = 0.15467 -0.44430
# Poissons Ratio (y) = 0.03638 0.19240
# Poissons Ratio (z) = -0.08946 0.16471
#
# Static dielectric constant tensor:
#      x y z
#    x 1.716670 0.000000 -0.024210 
#    y 0.000000 1.759870 0.000000 
#    z -0.024210 0.000000 1.738350 
# 
# From -- ./inp_files/251158.got.cif
#   From: 2010.05.17/outbox.cif.g08.bks.cpg/sg12_126_cif.got.tgz:251158.got - 2010.06.03 13:09:07.
