data_PCOD9173237
_publ_section_title
;
Structure prediction by ZEFSAII (Michael W. Deem and Ramdas Pophale) SiO2 
 PCOD9173237
Probable space group: C 2/M
;
_chemical_formula_sum "Si O2"
_cell_formula_units_Z 56
_cell_length_a 17.012314
_cell_length_b 13.471135
_cell_length_c 17.607514
_cell_angle_alpha 90.000000
_cell_angle_beta 130.488371
_cell_angle_gamma 90.000000
_cell_volume 3068.925916
_symmetry_space_group_name_H-M "C 2/M"
_symmetry_group_IT_number 12
_symmetry_cell_setting 'monoclinic'
loop_
_space_group_symop_operation_xyz
x,y,z
-x,y,-z
-x,-y,-z
x,-y,z
1/2+x,1/2+y,z
1/2-x,1/2+y,-z
1/2-x,1/2-y,-z
1/2+x,1/2-y,z
loop_
_atom_site_type_symbol
_atom_site_label
_atom_site_fract_x
_atom_site_fract_y
_atom_site_fract_z
Si Si1 0.354199 0.687461 0.196548
Si Si2 0.110847 0.190651 0.205955
Si Si3 0.793487 0.615010 0.771822
Si Si4 0.383332 0.615659 0.052109
Si Si5 0.415537 0.382762 0.644439
Si Si6 0.389104 0.620162 0.461123
Si Si7 0.769677 0.386543 0.186194
O O1 0.259013 0.635622 0.179716
O O2 0.345935 0.678470 0.100888
O O3 0.460735 0.633232 0.284945
O O4 0.353656 0.801190 0.224367
O O5 0.117134 0.306170 0.187768
O O6 0.117977 0.173610 0.300630
O O7 0.204889 0.137788 0.221256
O O8 0.001899 0.144910 0.111569
O O9 0.821313 0.500000 0.781223
O O10 0.702946 0.641582 0.654527
O O11 0.381444 0.500000 0.073979
O O12 0.312075 0.626503 0.934096
O O13 0.395264 0.500000 0.642333
O O14 0.369597 0.347512 0.535420
O O15 0.500000 0.657083 0.500000
O O16 0.396948 0.500000 0.469371
O O17 0.806544 0.500000 0.209486
#
# Coordination Sequence:
#
# PCOD9173237 Si02
#       7
#     8   8   8   8   8   8   8
#     4  10  18  30  51  75  95 121 161 203 240 278
#     4  10  20  31  49  72  97 129 160 193 237 288
#     4  10  19  32  49  73 101 125 154 198 242 282
#     4  10  19  33  52  71  94 124 164 205 235 271
#     4  10  18  31  51  74  98 123 161 203 233 272
#     4   9  16  28  50  75  96 120 155 197 239 276
#     4  10  20  33  49  71  98 127 158 198 241 284
#
# _framework density 18.247426999999998
#
# number of rings (size 3 to 8) (size 9 to 14) (size 15 to 20)
#    0.000    2.143    1.429    4.286    0.000    1.714 
#    0.000    2.857    0.000    8.571    0.000   10.000 
#    0.000    0.000    0.000    0.000    0.000    0.000 
#
# Total GULP energy -156192.167739 kJ/mol
# GULP energy per Si atom -5578.291705 kJ/mol
# Density = 1.820590 g / cm^3
# Si number density = 18.247427 Si / 1000 Ang^3
#
#
#
# Elastic Constant Matrix: (Units=GPa)
#
#
# Indices 1 2 3 4 5 6 
#
# 1 61.0224 19.3079 3.7365 0.0000 -24.0742 0.0000
# 2 19.3079 83.0317 -9.0086 0.0000 -8.0418 0.0000
# 3 3.7365 -9.0086 22.4780 0.0000 -12.4340 0.0000
# 4 0.0000 0.0000 0.0000 10.5360 0.0000 -1.1266
# 5 -24.0742 -8.0418 -12.4340 0.0000 20.6662 0.0000
# 6 0.0000 0.0000 0.0000 -1.1266 0.0000 21.6630
#
#
#
# Elastic Compliance Matrix: (Units=1/GPa)
#
#
# Indices 1 2 3 4 5 6 
#
# 1 0.039564 -0.000009 0.028346 0.000000 0.063139 0.000000
# 2 -0.000009 0.014899 0.013750 0.000000 0.014060 0.000000
# 3 0.028346 0.013750 0.099691 0.000000 0.098351 0.000000
# 4 0.000000 0.000000 0.000000 0.095443 0.000000 0.004963
# 5 0.063139 0.014060 0.098351 0.000000 0.186585 0.000000
# 6 0.000000 0.000000 0.000000 0.004963 0.000000 0.046420
#
#
# Mechanical properties :
#
#
# Convention : Reuss Voigt Hill
#
# Bulk Modulus (GPa) = 4.19590 21.62263 12.90927
# Shear Modulus (GPa) = 10.46307 20.73947 15.60127
#
# Velocity S-wave (km/s) = 2.39717 3.37496 2.92718
# Velocity P-wave (km/s) = 3.15695 5.20217 4.30284
#
# Compressibility (1/GPa) = 0.23832783
#
# Stress axis : x y z
#
# Youngs Moduli (GPa) = 25.27543 67.11704 10.03098
#
# Poissons Ratio (x) = 0.00064 -0.28434
# Poissons Ratio (y) = 0.00024 -0.13793
# Poissons Ratio (z) = -0.71646 -0.92287
#
# Static dielectric constant tensor:
#      x y z
#    x 1.617650 0.000000 -0.014140 
#    y 0.000000 1.625610 0.000000 
#    z -0.014140 0.000000 1.657050 
# 
# From -- ./inp_files/276354.got.cif
#   From: 2010.05.17/outbox.cif.g08.bks.cpg/sg12_139_cif.got.tgz:276354.got - 2010.06.03 13:09:07.
