data_PCOD9173879
_publ_section_title
;
Structure prediction by ZEFSAII (Michael W. Deem and Ramdas Pophale) SiO2 
 PCOD9173879
Probable space group: C 2/M
;
_chemical_formula_sum "Si O2"
_cell_formula_units_Z 56
_cell_length_a 22.737919
_cell_length_b 13.618298
_cell_length_c 14.432171
_cell_angle_alpha 90.000000
_cell_angle_beta 44.482140
_cell_angle_gamma 90.000000
_cell_volume 3131.332688
_symmetry_space_group_name_H-M "C 2/M"
_symmetry_group_IT_number 12
_symmetry_cell_setting 'monoclinic'
loop_
_space_group_symop_operation_xyz
x,y,z
-x,y,-z
-x,-y,-z
x,-y,z
1/2+x,1/2+y,z
1/2-x,1/2+y,-z
1/2-x,1/2-y,-z
1/2+x,1/2-y,z
loop_
_atom_site_type_symbol
_atom_site_label
_atom_site_fract_x
_atom_site_fract_y
_atom_site_fract_z
Si Si1 0.840104 0.214117 0.018102
Si Si2 0.900835 0.882936 0.616590
Si Si3 0.769151 0.115006 0.921989
Si Si4 0.150828 0.810716 0.515975
Si Si5 0.348647 0.611339 0.199574
Si Si6 0.012580 0.886409 0.803889
Si Si7 0.206632 0.611605 0.517762
O O1 0.806740 0.322644 0.035842
O O2 0.831743 0.182961 0.134090
O O3 0.785016 0.148331 0.009432
O O4 0.935818 0.187815 0.886050
O O5 0.853275 0.863067 0.766650
O O6 0.856602 0.822383 0.584791
O O7 0.000000 0.861074 0.500000
O O8 0.891491 0.000000 0.608856
O O9 0.753806 0.000000 0.934141
O O10 0.144340 0.699613 0.561795
O O11 0.238504 0.854780 0.455339
O O12 0.076134 0.871944 0.647365
O O13 0.355819 0.500000 0.154774
O O14 0.432215 0.630972 0.165617
O O15 0.273708 0.612881 0.358096
O O16 0.983465 0.000000 0.836555
O O17 0.175304 0.500000 0.563208
#
# Coordination Sequence:
#
# PCOD9173879 Si02
#       7
#     8   8   8   8   8   8   8
#     4  11  20  33  52  70  97 132 161 199 246 284
#     4  10  19  32  52  75  98 125 159 201 244 284
#     4  10  22  35  48  71  99 130 167 199 233 287
#     4  10  18  31  51  73 101 130 158 201 248 287
#     4   9  17  30  51  76  98 121 155 204 252 287
#     4  10  19  31  51  78  99 120 160 208 248 287
#     4   9  18  31  49  75 101 127 161 198 243 298
#
# _framework density 17.883759999999999
#
# number of rings (size 3 to 8) (size 9 to 14) (size 15 to 20)
#    0.000    2.143    0.000    5.571    0.000    2.286 
#    0.000    0.714    0.000    2.143    0.000    0.000 
#    0.000    0.000    0.000    0.000    0.000    0.000 
#
# Total GULP energy -156214.645590 kJ/mol
# GULP energy per Si atom -5579.094485 kJ/mol
# Density = 1.784306 g / cm^3
# Si number density = 17.883760 Si / 1000 Ang^3
#
#
#
# Elastic Constant Matrix: (Units=GPa)
#
#
# Indices 1 2 3 4 5 6 
#
# 1 48.9817 26.5361 -2.3917 0.0000 4.7007 0.0000
# 2 26.5361 87.1955 12.9338 0.0000 -0.9771 0.0000
# 3 -2.3917 12.9338 28.4746 0.0000 -6.4496 0.0000
# 4 0.0000 0.0000 0.0000 21.9792 0.0000 -5.0790
# 5 4.7007 -0.9771 -6.4496 0.0000 22.6063 0.0000
# 6 0.0000 0.0000 0.0000 -5.0790 0.0000 22.3261
#
#
#
# Elastic Compliance Matrix: (Units=1/GPa)
#
#
# Indices 1 2 3 4 5 6 
#
# 1 0.025761 -0.008648 0.005125 0.000000 -0.004268 0.000000
# 2 -0.008648 0.015227 -0.007576 0.000000 0.000295 0.000000
# 3 0.005125 -0.007576 0.041347 0.000000 0.010403 0.000000
# 4 0.000000 0.000000 0.000000 0.048022 0.000000 0.010925
# 5 -0.004268 0.000295 0.010403 0.000000 0.048104 0.000000
# 6 0.000000 0.000000 0.000000 0.010925 0.000000 0.047276
#
#
# Mechanical properties :
#
#
# Convention : Reuss Voigt Hill
#
# Bulk Modulus (GPa) = 16.62866 26.53425 21.58146
# Shear Modulus (GPa) = 18.65810 21.88723 20.27267
#
# Velocity S-wave (km/s) = 3.23352 3.50217 3.37052
# Velocity P-wave (km/s) = 4.82278 5.58774 5.21929
#
# Compressibility (1/GPa) = 0.06013712
#
# Stress axis : x y z
#
# Youngs Moduli (GPa) = 38.81898 65.67152 24.18551
#
# Poissons Ratio (x) = 0.56791 -0.12395
# Poissons Ratio (y) = 0.33569 0.18323
# Poissons Ratio (z) = -0.19894 0.49754
#
# Static dielectric constant tensor:
#      x y z
#    x 1.613180 0.000000 0.008920 
#    y 0.000000 1.618400 0.000000 
#    z 0.008920 0.000000 1.627060 
# 
# From -- ./inp_files/233655.got.cif
#   From: 2010.05.17/outbox.cif.g08.bks.cpg/sg12_117_cif.got.tgz:233655.got - 2010.06.03 13:09:07.
