data_PCOD9173085
_publ_section_title
;
Structure prediction by ZEFSAII (Michael W. Deem and Ramdas Pophale) SiO2 
 PCOD9173085
Probable space group: C 2/M
;
_chemical_formula_sum "Si O2"
_cell_formula_units_Z 48
_cell_length_a 18.936023
_cell_length_b 8.438899
_cell_length_c 25.015989
_cell_angle_alpha 90.000000
_cell_angle_beta 138.886156
_cell_angle_gamma 90.000000
_cell_volume 2628.608124
_symmetry_space_group_name_H-M "C 2/M"
_symmetry_group_IT_number 12
_symmetry_cell_setting 'monoclinic'
loop_
_space_group_symop_operation_xyz
x,y,z
-x,y,-z
-x,-y,-z
x,-y,z
1/2+x,1/2+y,z
1/2-x,1/2+y,-z
1/2-x,1/2-y,-z
1/2+x,1/2-y,z
loop_
_atom_site_type_symbol
_atom_site_label
_atom_site_fract_x
_atom_site_fract_y
_atom_site_fract_z
Si Si1 0.997197 0.313248 0.168751
Si Si2 0.708802 0.812807 0.420088
Si Si3 0.208407 0.191443 0.751234
Si Si4 0.734983 0.313436 0.324308
Si Si5 0.530228 0.688485 0.735580
Si Si6 0.452478 0.806619 0.916709
O O1 0.975625 0.500000 0.159508
O O2 0.124446 0.282712 0.250860
O O3 0.941066 0.228962 0.186593
O O4 0.981833 0.256820 0.098944
O O5 0.750000 0.750000 0.500000
O O6 0.767740 0.732709 0.402892
O O7 0.582840 0.770244 0.342392
O O8 0.723270 0.000000 0.424973
O O9 0.189823 0.264723 0.682054
O O10 0.328028 0.240155 0.838419
O O11 0.121035 0.237545 0.745406
O O12 0.207621 0.000000 0.746153
O O13 0.711786 0.500000 0.308951
O O14 0.514637 0.500000 0.722577
O O15 0.454307 0.000000 0.917664
O O16 0.500000 0.751812 0.000000
#
# Coordination Sequence:
#
# PCOD9173085 Si02
#       6
#     8   8   8   8   8   8
#     4   9  16  28  47  69  94 127 166 202 240 289
#     4  11  21  35  54  75 100 127 160 198 239 287
#     4   9  18  32  50  72  98 130 165 202 244 288
#     4  10  18  30  50  73  97 127 163 199 238 287
#     4  10  19  32  50  72  99 129 163 201 243 289
#     4   8  14  27  48  71  94 126 168 206 241 286
#
# _framework density 18.260615999999999
#
# number of rings (size 3 to 8) (size 9 to 14) (size 15 to 20)
#    0.000    2.500    0.000    7.000    0.000    1.333 
#    0.000    1.667    0.000   17.500    0.000    0.000 
#    0.000    0.000    0.000    0.000    0.000    0.000 
#
# Total GULP energy -133747.477285 kJ/mol
# GULP energy per Si atom -5572.811554 kJ/mol
# Density = 1.821905 g / cm^3
# Si number density = 18.260616 Si / 1000 Ang^3
#
#
#
# Elastic Constant Matrix: (Units=GPa)
#
#
# Indices 1 2 3 4 5 6 
#
# 1 150.9778 18.5548 51.2179 0.0000 -40.4518 0.0000
# 2 18.5548 30.9641 8.7539 0.0000 -2.6331 0.0000
# 3 51.2179 8.7539 87.3781 0.0000 -40.1291 0.0000
# 4 0.0000 0.0000 0.0000 15.4749 0.0000 -7.6532
# 5 -40.4518 -2.6331 -40.1291 0.0000 33.4088 0.0000
# 6 0.0000 0.0000 0.0000 -7.6532 0.0000 27.6038
#
#
#
# Elastic Compliance Matrix: (Units=1/GPa)
#
#
# Indices 1 2 3 4 5 6 
#
# 1 0.010602 -0.005305 0.000046 0.000000 0.012474 0.000000
# 2 -0.005305 0.036034 -0.004786 0.000000 -0.009333 0.000000
# 3 0.000046 -0.004786 0.026205 0.000000 0.031154 0.000000
# 4 0.000000 0.000000 0.000000 0.074889 0.000000 0.020763
# 5 0.012474 -0.009333 0.031154 0.000000 0.081721 0.000000
# 6 0.000000 0.000000 0.000000 0.020763 0.000000 0.041984
#
#
# Mechanical properties :
#
#
# Convention : Reuss Voigt Hill
#
# Bulk Modulus (GPa) = 18.95766 47.37480 33.16623
# Shear Modulus (GPa) = 16.17541 28.01708 22.09624
#
# Velocity S-wave (km/s) = 2.97948 3.92125 3.48235
# Velocity P-wave (km/s) = 4.71600 6.81921 5.86269
#
# Compressibility (1/GPa) = 0.05274912
#
# Stress axis : x y z
#
# Youngs Moduli (GPa) = 94.32015 27.75140 38.16042
#
# Poissons Ratio (x) = 0.14723 -0.00174
# Poissons Ratio (y) = 0.50040 0.18265
# Poissons Ratio (z) = -0.00430 0.13283
#
# Static dielectric constant tensor:
#      x y z
#    x 1.659400 0.000000 -0.038090 
#    y 0.000000 1.615410 0.000000 
#    z -0.038090 0.000000 1.636510 
# 
# From -- ./inp_files/279840.got.cif
#   From: 2010.05.17/outbox.cif.g08.bks.cpg/sg12_140_cif.got.tgz:279840.got - 2010.06.03 13:09:07.
