data_PCOD9173799
_publ_section_title
;
Structure prediction by ZEFSAII (Michael W. Deem and Ramdas Pophale) SiO2 
 PCOD9173799
Probable space group: C 2/M
;
_chemical_formula_sum "Si O2"
_cell_formula_units_Z 52
_cell_length_a 16.662580
_cell_length_b 24.427959
_cell_length_c 9.379286
_cell_angle_alpha 90.000000
_cell_angle_beta 39.373961
_cell_angle_gamma 90.000000
_cell_volume 2421.855287
_symmetry_space_group_name_H-M "C 2/M"
_symmetry_group_IT_number 12
_symmetry_cell_setting 'monoclinic'
loop_
_space_group_symop_operation_xyz
x,y,z
-x,y,-z
-x,-y,-z
x,-y,z
1/2+x,1/2+y,z
1/2-x,1/2+y,-z
1/2-x,1/2-y,-z
1/2+x,1/2-y,z
loop_
_atom_site_type_symbol
_atom_site_label
_atom_site_fract_x
_atom_site_fract_y
_atom_site_fract_z
Si Si1 0.029053 0.278381 0.768257
Si Si2 0.713661 0.383142 0.944110
Si Si3 0.552046 0.654113 0.774012
Si Si4 0.767667 0.299940 0.086514
Si Si5 0.190403 0.385154 0.515997
Si Si6 0.302516 0.000000 0.859687
Si Si7 0.431866 0.000000 0.368661
Si Si8 0.500000 0.268000 0.500000
O O1 0.081725 0.219008 0.739946
O O2 0.108414 0.332997 0.674637
O O3 0.004249 0.269915 0.633147
O O4 0.886006 0.286254 0.024024
O O5 0.573458 0.356848 0.145650
O O6 0.794661 0.352317 0.952576
O O7 0.771591 0.376805 0.705026
O O8 0.717489 0.446326 0.977972
O O9 0.678122 0.619480 0.577783
O O10 0.500000 0.637193 0.000000
O O11 0.628587 0.302818 0.344882
O O12 0.750000 0.250000 0.000000
O O13 0.119774 0.443282 0.627679
O O14 0.371855 0.000000 0.610307
O O15 0.416664 0.000000 0.817253
#
# Coordination Sequence:
#
# PCOD9173799 Si02
#       8
#     8   8   8   8   8   4   4   4
#     4  11  20  33  52  80 105 137 176 209 270 302
#     4  10  18  34  49  79 108 135 177 208 269 308
#     4  10  21  33  49  73 113 142 170 207 248 323
#     4  10  18  31  50  74 102 133 166 219 259 304
#     4  10  20  32  52  74 110 142 168 214 253 315
#     4   9  18  29  55  74 104 136 167 226 256 306
#     4   9  18  33  47  79 101 134 179 206 267 312
#     4  10  20  30  54  76 106 136 166 224 262 306
#
# _framework density 21.471142
#
# number of rings (size 3 to 8) (size 9 to 14) (size 15 to 20)
#    0.000    2.000    3.077    3.231    2.154    3.077 
#    0.000    3.077    0.000    0.462    0.000    0.538 
#    0.000    0.000    0.000    0.000    0.000    0.000 
#
# Total GULP energy -144985.146424 kJ/mol
# GULP energy per Si atom -5576.351786 kJ/mol
# Density = 2.142227 g / cm^3
# Si number density = 21.471142 Si / 1000 Ang^3
#
#
#
# Elastic Constant Matrix: (Units=GPa)
#
#
# Indices 1 2 3 4 5 6 
#
# 1 39.4346 20.3639 14.8335 0.0000 -14.1751 0.0000
# 2 20.3639 136.6652 25.0076 0.0000 -18.3021 0.0000
# 3 14.8335 25.0076 58.0331 0.0000 -22.5288 0.0000
# 4 0.0000 0.0000 0.0000 18.4176 0.0000 -2.5016
# 5 -14.1751 -18.3021 -22.5288 0.0000 33.3487 0.0000
# 6 0.0000 0.0000 0.0000 -2.5016 0.0000 34.4050
#
#
#
# Elastic Compliance Matrix: (Units=1/GPa)
#
#
# Indices 1 2 3 4 5 6 
#
# 1 0.031473 -0.002825 -0.003030 0.000000 0.009780 0.000000
# 2 -0.002825 0.008391 -0.002131 0.000000 0.001965 0.000000
# 3 -0.003030 -0.002131 0.024358 0.000000 0.013998 0.000000
# 4 0.000000 0.000000 0.000000 0.054837 0.000000 0.003987
# 5 0.009780 0.001965 0.013998 0.000000 0.044678 0.000000
# 6 0.000000 0.000000 0.000000 0.003987 0.000000 0.029355
#
#
# Mechanical properties :
#
#
# Convention : Reuss Voigt Hill
#
# Bulk Modulus (GPa) = 20.72595 39.39365 30.05980
# Shear Modulus (GPa) = 22.20744 28.82946 25.51845
#
# Velocity S-wave (km/s) = 3.21953 3.66827 3.45120
# Velocity P-wave (km/s) = 4.84710 6.02733 5.46915
#
# Compressibility (1/GPa) = 0.04824869
#
# Stress axis : x y z
#
# Youngs Moduli (GPa) = 31.77337 119.17246 41.05348
#
# Poissons Ratio (x) = 0.33671 0.12441
# Poissons Ratio (y) = 0.08977 0.08749
# Poissons Ratio (z) = 0.09629 0.25397
#
# Static dielectric constant tensor:
#      x y z
#    x 1.828390 0.000000 -0.004170 
#    y 0.000000 1.759960 0.000000 
#    z -0.004170 0.000000 1.891660 
# 
# From -- ./inp_files/169854.got.cif
#   From: 2010.05.17/outbox.cif.g08.bks.cpg/sg12_85_cif.got.tgz:169854.got - 2010.06.03 13:09:07.
