data_PCOD9173600
_publ_section_title
;
Structure prediction by ZEFSAII (Michael W. Deem and Ramdas Pophale) SiO2 
 PCOD9173600
Probable space group: C 2/M
;
_chemical_formula_sum "Si O2"
_cell_formula_units_Z 48
_cell_length_a 24.738303
_cell_length_b 8.738516
_cell_length_c 15.786187
_cell_angle_alpha 90.000000
_cell_angle_beta 61.516682
_cell_angle_gamma 90.000000
_cell_volume 2999.521436
_symmetry_space_group_name_H-M "C 2/M"
_symmetry_group_IT_number 12
_symmetry_cell_setting 'monoclinic'
loop_
_space_group_symop_operation_xyz
x,y,z
-x,y,-z
-x,-y,-z
x,-y,z
1/2+x,1/2+y,z
1/2-x,1/2+y,-z
1/2-x,1/2-y,-z
1/2+x,1/2-y,z
loop_
_atom_site_type_symbol
_atom_site_label
_atom_site_fract_x
_atom_site_fract_y
_atom_site_fract_z
Si Si1 0.181884 0.183966 0.533527
Si Si2 0.929065 0.182811 0.063187
Si Si3 0.199306 0.816505 0.151273
Si Si4 0.349117 0.183401 0.272850
Si Si5 0.208997 0.814330 0.331579
Si Si6 0.159808 0.681295 0.009071
O O1 0.250000 0.250000 0.500000
O O2 0.141569 0.250909 0.639694
O O3 0.170348 0.228333 0.444112
O O4 0.182965 0.000000 0.538178
O O5 0.897732 0.257499 0.168756
O O6 0.889814 0.234233 0.011214
O O7 0.926229 0.000000 0.073757
O O8 0.000000 0.229102 0.000000
O O9 0.186313 0.762695 0.256650
O O10 0.271780 0.787393 0.079216
O O11 0.190283 0.000000 0.152237
O O12 0.161922 0.736465 0.104443
O O13 0.280323 0.232069 0.293266
O O14 0.349436 0.000000 0.275729
O O15 0.209912 0.000000 0.327851
O O16 0.149783 0.500000 0.011414
#
# Coordination Sequence:
#
# PCOD9173600 Si02
#       6
#     8   8   8   8   8   8
#     4   9  16  26  42  66  95 127 160 194 235 283
#     4  11  23  36  50  69  93 125 165 204 241 285
#     4   9  16  29  47  68  97 129 157 191 233 281
#     4  10  18  31  47  66  94 126 160 198 240 286
#     4   8  14  26  44  67  95 126 156 187 228 280
#     4  10  19  31  47  69  95 125 160 197 237 283
#
# _framework density 16.002554
#
# number of rings (size 3 to 8) (size 9 to 14) (size 15 to 20)
#    0.000    2.500    1.667    3.000    0.000    2.000 
#    0.000    1.667    0.000    0.000    0.000    1.167 
#    0.000    9.333    0.000    0.000    0.000    0.000 
#
# Total GULP energy -133707.443479 kJ/mol
# GULP energy per Si atom -5571.143478 kJ/mol
# Density = 1.596613 g / cm^3
# Si number density = 16.002554 Si / 1000 Ang^3
#
#
#
# Elastic Constant Matrix: (Units=GPa)
#
#
# Indices 1 2 3 4 5 6 
#
# 1 45.2311 26.2788 51.2374 0.0000 5.1756 0.0000
# 2 26.2788 38.0743 38.0314 0.0000 3.0593 0.0000
# 3 51.2374 38.0314 155.9669 0.0000 29.0340 0.0000
# 4 0.0000 0.0000 0.0000 26.1666 0.0000 3.0970
# 5 5.1756 3.0593 29.0340 0.0000 22.9338 0.0000
# 6 0.0000 0.0000 0.0000 3.0970 0.0000 17.3966
#
#
#
# Elastic Compliance Matrix: (Units=1/GPa)
#
#
# Indices 1 2 3 4 5 6 
#
# 1 0.046619 -0.021378 -0.011349 0.000000 0.006699 0.000000
# 2 -0.021378 0.045674 -0.005074 0.000000 0.005155 0.000000
# 3 -0.011349 -0.005074 0.014096 0.000000 -0.014608 0.000000
# 4 0.000000 0.000000 0.000000 0.039039 0.000000 -0.006950
# 5 0.006699 0.005155 -0.014608 0.000000 0.059898 0.000000
# 6 0.000000 0.000000 0.000000 -0.006950 0.000000 0.058720
#
#
# Mechanical properties :
#
#
# Convention : Reuss Voigt Hill
#
# Bulk Modulus (GPa) = 32.48155 52.26306 42.37231
# Shear Modulus (GPa) = 14.28939 21.54771 17.91855
#
# Velocity S-wave (km/s) = 2.99146 3.67347 3.34987
# Velocity P-wave (km/s) = 5.68098 7.12198 6.44190
#
# Compressibility (1/GPa) = 0.03078670
#
# Stress axis : x y z
#
# Youngs Moduli (GPa) = 21.45060 21.89452 70.93970
#
# Poissons Ratio (x) = 0.46807 0.80510
# Poissons Ratio (y) = 0.45858 0.35993
# Poissons Ratio (z) = 0.24344 0.11109
#
# Static dielectric constant tensor:
#      x y z
#    x 1.507670 0.000000 0.023180 
#    y 0.000000 1.533880 0.000000 
#    z 0.023180 0.000000 1.574120 
# 
# From -- ./inp_files/229928.got.cif
#   From: 2010.05.17/outbox.cif.g08.bks.cpg/sg12_115_cif.got.tgz:229928.got - 2010.06.03 13:09:07.
