data_PCOD9173353
_publ_section_title
;
Structure prediction by ZEFSAII (Michael W. Deem and Ramdas Pophale) SiO2 
 PCOD9173353
Probable space group: C 2/M
;
_chemical_formula_sum "Si O2"
_cell_formula_units_Z 56
_cell_length_a 24.215820
_cell_length_b 23.855103
_cell_length_c 5.683003
_cell_angle_alpha 90.000000
_cell_angle_beta 76.772930
_cell_angle_gamma 90.000000
_cell_volume 3195.812846
_symmetry_space_group_name_H-M "C 2/M"
_symmetry_group_IT_number 12
_symmetry_cell_setting 'monoclinic'
loop_
_space_group_symop_operation_xyz
x,y,z
-x,y,-z
-x,-y,-z
x,-y,z
1/2+x,1/2+y,z
1/2-x,1/2+y,-z
1/2-x,1/2-y,-z
1/2+x,1/2-y,z
loop_
_atom_site_type_symbol
_atom_site_label
_atom_site_fract_x
_atom_site_fract_y
_atom_site_fract_z
Si Si1 0.260351 0.062031 0.005437
Si Si2 0.678940 0.870114 0.676745
Si Si3 0.473861 0.097158 0.779539
Si Si4 0.742457 0.323977 0.786770
Si Si5 0.841697 0.266475 0.983136
Si Si6 0.028635 0.732363 0.223205
Si Si7 0.874087 0.439911 0.619592
O O1 0.230267 0.120251 0.957088
O O2 0.308926 0.057708 0.760378
O O3 0.232923 0.000000 0.049469
O O4 0.294616 0.077862 0.207513
O O5 0.732581 0.844290 0.484518
O O6 0.654370 0.821388 0.860381
O O7 0.627046 0.890216 0.564671
O O8 0.500000 0.078786 0.500000
O O9 0.474969 0.164480 0.777158
O O10 0.410269 0.075028 0.811637
O O11 0.500000 0.077305 0.000000
O O12 0.688289 0.284075 0.848081
O O13 0.795561 0.287547 0.836479
O O14 0.904570 0.252296 0.836387
O O15 0.000000 0.750498 0.500000
O O16 0.000000 0.750897 0.000000
O O17 0.891566 0.500000 0.506041
#
# Coordination Sequence:
#
# PCOD9173353 Si02
#       7
#     8   8   8   8   8   8   8
#     4   9  18  32  49  70 100 131 166 205 256 319
#     4  10  18  30  52  74  98 135 170 215 265 322
#     4  10  22  35  50  67  92 127 177 227 273 308
#     4   9  19  33  51  79 104 135 170 214 266 311
#     4  10  20  33  53  76 105 134 174 217 265 321
#     4  10  22  36  53  77 100 140 177 217 268 322
#     4  10  21  33  47  66  92 131 176 223 267 311
#
# _framework density 17.522926999999999
#
# number of rings (size 3 to 8) (size 9 to 14) (size 15 to 20)
#    0.000    2.286    0.000    3.429   10.000    1.143 
#    0.000    0.000    0.000    0.000    0.000    0.000 
#    0.000    1.143    0.000    0.000    0.000    0.000 
#
# Total GULP energy -155947.026863 kJ/mol
# GULP energy per Si atom -5569.536674 kJ/mol
# Density = 1.748304 g / cm^3
# Si number density = 17.522927 Si / 1000 Ang^3
#
#
#
# Elastic Constant Matrix: (Units=GPa)
#
#
# Indices 1 2 3 4 5 6 
#
# 1 70.2280 20.0968 34.1725 0.0000 -9.2665 0.0000
# 2 20.0968 39.5097 4.1818 0.0000 -8.1426 0.0000
# 3 34.1725 4.1818 74.6629 0.0000 -10.2008 0.0000
# 4 0.0000 0.0000 0.0000 2.6456 0.0000 -7.8649
# 5 -9.2665 -8.1426 -10.2008 0.0000 19.0717 0.0000
# 6 0.0000 0.0000 0.0000 -7.8649 0.0000 7.9997
#
#
#
# Elastic Compliance Matrix: (Units=1/GPa)
#
#
# Indices 1 2 3 4 5 6 
#
# 1 0.021694 -0.009762 -0.009183 0.000000 0.001461 0.000000
# 2 -0.009762 0.032145 0.004201 0.000000 0.011229 0.000000
# 3 -0.009183 0.004201 0.018336 0.000000 0.007140 0.000000
# 4 0.000000 0.000000 0.000000 -0.196585 0.000000 -0.193274
# 5 0.001461 0.011229 0.007140 0.000000 0.061757 0.000000
# 6 0.000000 0.000000 0.000000 -0.193274 0.000000 -0.065014
#
#
# Mechanical properties :
#
#
# Convention : Reuss Voigt Hill
#
# Bulk Modulus (GPa) = 23.42487 33.47810 28.45149
# Shear Modulus (GPa) = -59.55817 14.34003 -22.60907
#
# Velocity S-wave (km/s) = -5.83631 2.86380 -3.59591
# Velocity P-wave (km/s) = 5.65858 5.48470 0.98427
#
# Compressibility (1/GPa) = 0.04268967
#
# Stress axis : x y z
#
# Youngs Moduli (GPa) = 46.09617 31.10909 54.53612
#
# Poissons Ratio (x) = 0.30367 0.50079
# Poissons Ratio (y) = 0.44997 -0.22913
# Poissons Ratio (z) = 0.42328 -0.13070
#
# Static dielectric constant tensor:
#      x y z
#    x 1.640260 0.000000 0.003310 
#    y 0.000000 1.644240 0.000000 
#    z 0.003310 0.000000 1.688380 
# 
# From -- ./inp_files/25909.got.cif
#   From: 2010.05.17/outbox.cif.g08.bks.cpg/sg12_13_cif.got.tgz:25909.got - 2010.06.03 13:09:07.
