data_PCOD9173079
_publ_section_title
;
Structure prediction by ZEFSAII (Michael W. Deem and Ramdas Pophale) SiO2 
 PCOD9173079
Probable space group: C 2/M
;
_chemical_formula_sum "Si O2"
_cell_formula_units_Z 64
_cell_length_a 21.051931
_cell_length_b 7.538052
_cell_length_c 24.357101
_cell_angle_alpha 90.000000
_cell_angle_beta 123.519134
_cell_angle_gamma 90.000000
_cell_volume 3222.457688
_symmetry_space_group_name_H-M "C 2/M"
_symmetry_group_IT_number 12
_symmetry_cell_setting 'monoclinic'
loop_
_space_group_symop_operation_xyz
x,y,z
-x,y,-z
-x,-y,-z
x,-y,z
1/2+x,1/2+y,z
1/2-x,1/2+y,-z
1/2-x,1/2-y,-z
1/2+x,1/2-y,z
loop_
_atom_site_type_symbol
_atom_site_label
_atom_site_fract_x
_atom_site_fract_y
_atom_site_fract_z
Si Si1 0.687460 0.707365 0.675558
Si Si2 0.457637 0.281624 0.325538
Si Si3 0.127049 0.210183 0.430527
Si Si4 0.339855 0.287068 0.043497
Si Si5 0.264098 0.285160 0.420157
Si Si6 0.127120 0.211814 0.821719
Si Si7 0.278080 0.288691 0.825185
Si Si8 0.086986 0.217420 0.035381
O O1 0.672304 0.500000 0.658559
O O2 0.609149 0.778788 0.664806
O O3 0.715219 0.781036 0.630655
O O4 0.751172 0.720076 0.753338
O O5 0.456668 0.500000 0.324979
O O6 0.541801 0.220748 0.381717
O O7 0.432267 0.223349 0.252413
O O8 0.181125 0.235951 0.403625
O O9 0.174478 0.280080 0.505417
O O10 0.119159 0.000000 0.435650
O O11 0.348876 0.500000 0.047986
O O12 0.374582 0.217525 0.117260
O O13 0.250000 0.250000 0.000000
O O14 0.378493 0.222116 0.006207
O O15 0.266034 0.500000 0.420966
O O16 0.210540 0.244855 0.835746
O O17 0.117044 0.000000 0.820072
O O18 0.281993 0.500000 0.822198
O O19 0.357010 0.224345 0.888914
O O20 0.088311 0.000000 0.036262
O O21 0.000000 0.273064 0.000000
#
# Coordination Sequence:
#
# PCOD9173079 Si02
#       8
#     8   8   8   8   8   8   8   8
#     4   9  18  33  51  70  96 127 160 194 234 285
#     4   8  15  29  48  72  96 121 157 200 237 271
#     4   9  17  31  51  73  98 125 158 198 233 274
#     4  10  18  30  51  72  93 125 161 196 234 280
#     4   9  18  32  50  71  97 131 160 188 234 285
#     4   9  17  30  49  72  96 125 157 193 240 286
#     4  10  18  30  50  73  95 123 158 197 240 281
#     4   9  18  32  47  69  99 126 155 196 241 281
#
# _framework density 19.860617999999999
#
# number of rings (size 3 to 8) (size 9 to 14) (size 15 to 20)
#    0.000    2.875    1.250    1.125    0.000    1.000 
#    2.250    5.000    0.000    3.375    0.000    7.000 
#    0.000    0.000    0.000    0.000    0.000    0.000 
#
# Total GULP energy -178450.844166 kJ/mol
# GULP energy per Si atom -5576.588880 kJ/mol
# Density = 1.981541 g / cm^3
# Si number density = 19.860618 Si / 1000 Ang^3
#
#
#
# Elastic Constant Matrix: (Units=GPa)
#
#
# Indices 1 2 3 4 5 6 
#
# 1 144.0134 -7.7648 108.7890 0.0000 -0.3401 0.0000
# 2 -7.7648 44.5698 -7.5210 0.0000 -0.9969 0.0000
# 3 108.7890 -7.5210 146.0700 0.0000 -7.2606 0.0000
# 4 0.0000 0.0000 0.0000 11.9230 0.0000 0.8258
# 5 -0.3401 -0.9969 -7.2606 0.0000 39.6938 0.0000
# 6 0.0000 0.0000 0.0000 0.8258 0.0000 17.1769
#
#
#
# Elastic Compliance Matrix: (Units=1/GPa)
#
#
# Indices 1 2 3 4 5 6 
#
# 1 0.016065 0.000723 -0.012029 0.000000 -0.002044 0.000000
# 2 0.000723 0.022690 0.000664 0.000000 0.000698 0.000000
# 3 -0.012029 0.000664 0.015980 0.000000 0.002837 0.000000
# 4 0.000000 0.000000 0.000000 0.084152 0.000000 -0.004046
# 5 -0.002044 0.000698 0.002837 0.000000 0.025712 0.000000
# 6 0.000000 0.000000 0.000000 -0.004046 0.000000 0.058412
#
#
# Mechanical properties :
#
#
# Convention : Reuss Voigt Hill
#
# Bulk Modulus (GPa) = 29.89320 57.96216 43.92768
# Shear Modulus (GPa) = 19.57371 29.83541 24.70456
#
# Velocity S-wave (km/s) = 3.14276 3.88008 3.53072
# Velocity P-wave (km/s) = 5.31539 7.02290 6.22794
#
# Compressibility (1/GPa) = 0.03345242
#
# Stress axis : x y z
#
# Youngs Moduli (GPa) = 62.24802 44.07147 62.57778
#
# Poissons Ratio (x) = -0.03187 0.75275
# Poissons Ratio (y) = -0.04502 -0.04158
# Poissons Ratio (z) = 0.74878 -0.02928
#
# Static dielectric constant tensor:
#      x y z
#    x 1.662510 0.000000 -0.008530 
#    y 0.000000 1.759300 0.000000 
#    z -0.008530 0.000000 1.706720 
# 
# From -- ./inp_files/345573.got.cif
#   From: 2010.05.17/outbox.cif.g08.bks.cpg/sg12_173_cif.got.tgz:345573.got - 2010.06.03 13:09:07.
