data_PCOD9173115
_publ_section_title
;
Structure prediction by ZEFSAII (Michael W. Deem and Ramdas Pophale) SiO2 
 PCOD9173115
Probable space group: C 2/M
;
_chemical_formula_sum "Si O2"
_cell_formula_units_Z 48
_cell_length_a 8.803221
_cell_length_b 22.926966
_cell_length_c 13.694430
_cell_angle_alpha 90.000000
_cell_angle_beta 95.680095
_cell_angle_gamma 90.000000
_cell_volume 2750.391519
_symmetry_space_group_name_H-M "C 2/M"
_symmetry_group_IT_number 12
_symmetry_cell_setting 'monoclinic'
loop_
_space_group_symop_operation_xyz
x,y,z
-x,y,-z
-x,-y,-z
x,-y,z
1/2+x,1/2+y,z
1/2-x,1/2+y,-z
1/2-x,1/2-y,-z
1/2+x,1/2-y,z
loop_
_atom_site_type_symbol
_atom_site_label
_atom_site_fract_x
_atom_site_fract_y
_atom_site_fract_z
Si Si1 0.682427 0.813639 0.525098
Si Si2 0.875448 0.066163 0.195764
Si Si3 0.806513 0.832920 0.339559
Si Si4 0.870804 0.782285 0.708615
Si Si5 0.893448 0.146044 0.898703
Si Si6 0.675847 0.935377 0.987954
O O1 0.500000 0.816607 0.500000
O O2 0.750000 0.750000 0.500000
O O3 0.768673 0.851216 0.448237
O O4 0.743966 0.819095 0.639093
O O5 0.814034 0.110618 0.272536
O O6 0.762645 0.065398 0.096479
O O7 0.026094 0.095259 0.159627
O O8 0.897826 0.000000 0.231432
O O9 0.677014 0.785460 0.301891
O O10 0.967479 0.798625 0.332272
O O11 0.875754 0.801570 0.821481
O O12 0.739372 0.117638 0.928771
O O13 0.000000 0.159370 0.000000
O O14 0.705626 0.000000 0.945561
O O15 0.500000 0.929886 0.000000
#
# Coordination Sequence:
#
# PCOD9173115 Si02
#       6
#     8   8   8   8   8   8
#     4  10  18  30  50  74  99 129 164 201 243 292
#     4   9  18  33  52  71  95 132 171 204 240 288
#     4  10  19  32  51  75 101 128 163 203 248 295
#     4  10  19  32  50  74 103 130 162 203 248 296
#     4   9  18  33  51  72  99 132 167 201 243 294
#     4   9  17  29  47  71  96 127 169 210 245 285
#
# _framework density 17.452059999999999
#
# number of rings (size 3 to 8) (size 9 to 14) (size 15 to 20)
#    0.000    2.500    0.000    5.000    0.000    4.667 
#    0.000    8.333    0.000    9.500    0.000    0.000 
#    0.000    0.000    0.000    0.000    0.000    0.000 
#
# Total GULP energy -133603.858403 kJ/mol
# GULP energy per Si atom -5566.827433 kJ/mol
# Density = 1.741234 g / cm^3
# Si number density = 17.452060 Si / 1000 Ang^3
#
#
#
# Elastic Constant Matrix: (Units=GPa)
#
#
# Indices 1 2 3 4 5 6 
#
# 1 53.1859 6.4043 10.7522 0.0000 -3.0555 0.0000
# 2 6.4043 64.2632 32.2448 0.0000 -1.8335 0.0000
# 3 10.7522 32.2448 80.6326 0.0000 -18.0173 0.0000
# 4 0.0000 0.0000 0.0000 19.5644 0.0000 -4.7568
# 5 -3.0555 -1.8335 -18.0173 0.0000 15.0651 0.0000
# 6 0.0000 0.0000 0.0000 -4.7568 0.0000 20.8903
#
#
#
# Elastic Compliance Matrix: (Units=1/GPa)
#
#
# Indices 1 2 3 4 5 6 
#
# 1 0.019382 -0.000963 -0.001839 0.000000 0.001615 0.000000
# 2 -0.000963 0.020559 -0.010341 0.000000 -0.010061 0.000000
# 3 -0.001839 -0.010341 0.022405 0.000000 0.025165 0.000000
# 4 0.000000 0.000000 0.000000 0.054109 0.000000 0.012321
# 5 0.001615 -0.010061 0.025165 0.000000 0.095577 0.000000
# 6 0.000000 0.000000 0.000000 0.012321 0.000000 0.050674
#
#
# Mechanical properties :
#
#
# Convention : Reuss Voigt Hill
#
# Bulk Modulus (GPa) = 27.73055 32.98716 30.35885
# Shear Modulus (GPa) = 16.61059 21.01600 18.81330
#
# Velocity S-wave (km/s) = 3.08845 3.47394 3.28685
# Velocity P-wave (km/s) = 5.35183 5.91892 5.64250
#
# Compressibility (1/GPa) = 0.03606131
#
# Stress axis : x y z
#
# Youngs Moduli (GPa) = 51.59314 48.64137 44.63199
#
# Poissons Ratio (x) = 0.04684 0.08206
# Poissons Ratio (y) = 0.04968 0.46154
# Poissons Ratio (z) = 0.09486 0.50300
#
# Static dielectric constant tensor:
#      x y z
#    x 1.664060 0.000000 0.048930 
#    y 0.000000 1.612980 0.000000 
#    z 0.048930 0.000000 1.708390 
# 
# From -- ./inp_files/122023.got.cif
#   From: 2010.05.17/outbox.cif.g08.bks.cpg/sg12_62_cif.got.tgz:122023.got - 2010.06.03 13:09:07.
