data_PCOD9173007
_publ_section_title
;
Structure prediction by ZEFSAII (Michael W. Deem and Ramdas Pophale) SiO2 
 PCOD9173007
Probable space group: C 2/M
;
_chemical_formula_sum "Si O2"
_cell_formula_units_Z 56
_cell_length_a 24.880997
_cell_length_b 21.711801
_cell_length_c 10.306557
_cell_angle_alpha 90.000000
_cell_angle_beta 34.135845
_cell_angle_gamma 90.000000
_cell_volume 3124.363597
_symmetry_space_group_name_H-M "C 2/M"
_symmetry_group_IT_number 12
_symmetry_cell_setting 'monoclinic'
loop_
_space_group_symop_operation_xyz
x,y,z
-x,y,-z
-x,-y,-z
x,-y,z
1/2+x,1/2+y,z
1/2-x,1/2+y,-z
1/2-x,1/2-y,-z
1/2+x,1/2-y,z
loop_
_atom_site_type_symbol
_atom_site_label
_atom_site_fract_x
_atom_site_fract_y
_atom_site_fract_z
Si Si1 0.690321 0.199017 0.537820
Si Si2 0.490291 0.263041 0.218670
Si Si3 0.374635 0.567392 0.530906
Si Si4 0.763104 0.927605 0.481588
Si Si5 0.180689 0.240973 0.946660
Si Si6 0.549267 0.401946 0.033261
Si Si7 0.646509 0.312822 0.283695
O O1 0.750000 0.250000 0.500000
O O2 0.584933 0.226528 0.720066
O O3 0.693865 0.131044 0.594124
O O4 0.750861 0.200593 0.282295
O O5 0.590504 0.230444 0.051161
O O6 0.526687 0.328879 0.090013
O O7 0.430133 0.278911 0.469632
O O8 0.343088 0.500000 0.630704
O O9 0.317483 0.584448 0.511317
O O10 0.487218 0.569085 0.270940
O O11 0.359229 0.616145 0.672516
O O12 0.731249 0.000000 0.546337
O O13 0.841814 0.919397 0.209487
O O14 0.137012 0.201914 0.152167
O O15 0.249911 0.290325 0.873893
O O16 0.500000 0.424832 0.000000
#
# Coordination Sequence:
#
# PCOD9173007 Si02
#       7
#     8   8   8   8   8   8   8
#     4  11  21  33  50  79 105 135 179 214 258 317
#     4  10  19  30  52  72 103 134 166 219 259 305
#     4   9  17  30  49  72 100 137 171 207 258 317
#     4  10  18  30  49  74 110 142 170 214 265 319
#     4  10  19  33  51  72 100 131 169 220 265 300
#     4   9  15  27  45  73  99 129 167 206 257 314
#     4   9  19  33  50  73  97 130 173 216 258 310
#
# _framework density 17.923649999999999
#
# number of rings (size 3 to 8) (size 9 to 14) (size 15 to 20)
#    0.000    2.286    1.429    4.286    0.000    1.714 
#    0.000    0.714    0.000    2.571    0.000    3.000 
#    0.000    6.857    0.000    0.000    0.000    0.000 
#
# Total GULP energy -155956.941192 kJ/mol
# GULP energy per Si atom -5569.890757 kJ/mol
# Density = 1.788286 g / cm^3
# Si number density = 17.923650 Si / 1000 Ang^3
#
#
#
# Elastic Constant Matrix: (Units=GPa)
#
#
# Indices 1 2 3 4 5 6 
#
# 1 66.4643 19.5955 15.6217 0.0000 -25.8201 0.0000
# 2 19.5955 85.1831 16.3408 0.0000 -8.3008 0.0000
# 3 15.6217 16.3408 48.9507 0.0000 0.8445 0.0000
# 4 0.0000 0.0000 0.0000 9.9534 0.0000 0.1473
# 5 -25.8201 -8.3008 0.8445 0.0000 30.7669 0.0000
# 6 0.0000 0.0000 0.0000 0.1473 0.0000 17.6101
#
#
#
# Elastic Compliance Matrix: (Units=1/GPa)
#
#
# Indices 1 2 3 4 5 6 
#
# 1 0.025844 -0.002373 -0.007823 0.000000 0.021264 0.000000
# 2 -0.002373 0.013149 -0.003661 0.000000 0.001657 0.000000
# 3 -0.007823 -0.003661 0.024289 0.000000 -0.008219 0.000000
# 4 0.000000 0.000000 0.000000 0.100480 0.000000 -0.000840
# 5 0.021264 0.001657 -0.008219 0.000000 0.051020 0.000000
# 6 0.000000 0.000000 0.000000 -0.000840 0.000000 0.056793
#
#
# Mechanical properties :
#
#
# Convention : Reuss Voigt Hill
#
# Bulk Modulus (GPa) = 28.11327 33.74599 30.92963
# Shear Modulus (GPa) = 16.06973 21.60208 18.83590
#
# Velocity S-wave (km/s) = 2.99752 3.47541 3.24527
# Velocity P-wave (km/s) = 5.26300 5.91381 5.59787
#
# Compressibility (1/GPa) = 0.03557039
#
# Stress axis : x y z
#
# Youngs Moduli (GPa) = 38.69327 76.05191 41.17086
#
# Poissons Ratio (x) = 0.18043 0.32206
# Poissons Ratio (y) = 0.09180 0.15072
# Poissons Ratio (z) = 0.30268 0.27841
#
# Static dielectric constant tensor:
#      x y z
#    x 1.654130 0.000000 0.003040 
#    y 0.000000 1.639270 0.000000 
#    z 0.003040 0.000000 1.654370 
# 
# From -- ./inp_files/99609.got.cif
#   From: 2010.05.17/outbox.cif.g08.bks.cpg/sg12_50_cif.got.tgz:99609.got - 2010.06.03 13:09:07.
