data_PCOD9173162
_publ_section_title
;
Structure prediction by ZEFSAII (Michael W. Deem and Ramdas Pophale) SiO2 
 PCOD9173162
Probable space group: C 2/M
;
_chemical_formula_sum "Si O2"
_cell_formula_units_Z 64
_cell_length_a 13.795672
_cell_length_b 16.321424
_cell_length_c 23.375232
_cell_angle_alpha 90.000000
_cell_angle_beta 42.366007
_cell_angle_gamma 90.000000
_cell_volume 3546.738670
_symmetry_space_group_name_H-M "C 2/M"
_symmetry_group_IT_number 12
_symmetry_cell_setting 'monoclinic'
loop_
_space_group_symop_operation_xyz
x,y,z
-x,y,-z
-x,-y,-z
x,-y,z
1/2+x,1/2+y,z
1/2-x,1/2+y,-z
1/2-x,1/2-y,-z
1/2+x,1/2-y,z
loop_
_atom_site_type_symbol
_atom_site_label
_atom_site_fract_x
_atom_site_fract_y
_atom_site_fract_z
Si Si1 0.233238 0.093495 0.116876
Si Si2 0.168665 0.409940 0.795838
Si Si3 0.837737 0.087946 0.548072
Si Si4 0.086910 0.682345 0.128909
Si Si5 0.385935 0.747824 0.000338
Si Si6 0.106560 0.801719 0.571644
Si Si7 0.543557 0.308820 0.732887
Si Si8 0.695477 0.278148 0.345320
O O1 0.311362 0.096592 0.144880
O O2 0.310118 0.163886 0.046292
O O3 0.067313 0.120524 0.199413
O O4 0.244835 0.000000 0.090588
O O5 0.222832 0.500000 0.755010
O O6 0.253424 0.336444 0.728829
O O7 0.005205 0.397003 0.846161
O O8 0.855327 0.111829 0.474474
O O9 0.778174 0.164188 0.610427
O O10 0.000000 0.081482 0.500000
O O11 0.764871 0.000000 0.588571
O O12 0.258543 0.681380 0.056354
O O13 0.032134 0.725742 0.210403
O O14 0.051402 0.742994 0.090578
O O15 0.500000 0.732864 0.000000
O O16 0.250000 0.750000 0.500000
O O17 0.062183 0.809579 0.656741
O O18 0.972561 0.764451 0.593741
O O19 0.702392 0.300338 0.691522
#
# Coordination Sequence:
#
# PCOD9173162 Si02
#       8
#     8   8   8   8   8   8   8   8
#     4  10  20  32  51  80 108 134 168 216 270 318
#     4  10  18  30  50  77 106 132 167 215 268 314
#     4   9  18  30  47  74 103 129 163 213 263 302
#     4   9  20  32  49  77 103 139 172 210 258 308
#     4  10  18  33  52  75 108 137 173 209 255 317
#     4  11  20  32  50  76 105 136 176 218 258 309
#     4  10  20  34  51  73 106 141 176 213 256 315
#     4  10  19  33  52  74 103 139 178 214 260 310
#
# _framework density 18.044746
#
# number of rings (size 3 to 8) (size 9 to 14) (size 15 to 20)
#    0.000    2.125    3.750    0.375    0.000    1.750 
#    0.000    0.000    0.000    1.125    0.000   10.500 
#    0.000    0.000    0.000    0.000    0.000    0.000 
#
# Total GULP energy -178178.222648 kJ/mol
# GULP energy per Si atom -5568.069458 kJ/mol
# Density = 1.800368 g / cm^3
# Si number density = 18.044746 Si / 1000 Ang^3
#
#
#
# Elastic Constant Matrix: (Units=GPa)
#
#
# Indices 1 2 3 4 5 6 
#
# 1 84.4709 25.7564 21.2021 0.0000 -10.1592 0.0000
# 2 25.7564 50.2324 9.0239 0.0000 -6.5139 0.0000
# 3 21.2021 9.0239 65.9618 0.0000 6.2832 0.0000
# 4 0.0000 0.0000 0.0000 15.6702 0.0000 -0.3549
# 5 -10.1592 -6.5139 6.2832 0.0000 37.8932 0.0000
# 6 0.0000 0.0000 0.0000 -0.3549 0.0000 10.7990
#
#
#
# Elastic Compliance Matrix: (Units=1/GPa)
#
#
# Indices 1 2 3 4 5 6 
#
# 1 0.015412 -0.006629 -0.004402 0.000000 0.003722 0.000000
# 2 -0.006629 0.023886 -0.001381 0.000000 0.002558 0.000000
# 3 -0.004402 -0.001381 0.017170 0.000000 -0.004264 0.000000
# 4 0.000000 0.000000 0.000000 0.063863 0.000000 0.002099
# 5 0.003722 0.002558 -0.004264 0.000000 0.028535 0.000000
# 6 0.000000 0.000000 0.000000 0.002099 0.000000 0.092670
#
#
# Mechanical properties :
#
#
# Convention : Reuss Voigt Hill
#
# Bulk Modulus (GPa) = 31.59963 34.73665 33.16814
# Shear Modulus (GPa) = 18.05657 22.51800 20.28729
#
# Velocity S-wave (km/s) = 3.16675 3.53639 3.35666
# Velocity P-wave (km/s) = 5.56065 5.99724 5.78307
#
# Compressibility (1/GPa) = 0.03164594
#
# Stress axis : x y z
#
# Youngs Moduli (GPa) = 64.88366 41.86518 58.24047
#
# Poissons Ratio (x) = 0.27753 0.25635
# Poissons Ratio (y) = 0.43012 0.08041
# Poissons Ratio (z) = 0.28559 0.05780
#
# Static dielectric constant tensor:
#      x y z
#    x 1.637890 0.000000 -0.008280 
#    y 0.000000 1.632870 0.000000 
#    z -0.008280 0.000000 1.695130 
# 
# From -- ./inp_files/336276.got.cif
#   From: 2010.05.17/outbox.cif.g08.bks.cpg/sg12_169_cif.got.tgz:336276.got - 2010.06.03 13:09:07.
