data_PCOD9173466
_publ_section_title
;
Structure prediction by ZEFSAII (Michael W. Deem and Ramdas Pophale) SiO2 
 PCOD9173466
Probable space group: C 2/M
;
_chemical_formula_sum "Si O2"
_cell_formula_units_Z 56
_cell_length_a 11.857889
_cell_length_b 13.953135
_cell_length_c 13.940556
_cell_angle_alpha 90.000000
_cell_angle_beta 81.971572
_cell_angle_gamma 90.000000
_cell_volume 2283.924321
_symmetry_space_group_name_H-M "C 2/M"
_symmetry_group_IT_number 12
_symmetry_cell_setting 'monoclinic'
loop_
_space_group_symop_operation_xyz
x,y,z
-x,y,-z
-x,-y,-z
x,-y,z
1/2+x,1/2+y,z
1/2-x,1/2+y,-z
1/2-x,1/2-y,-z
1/2+x,1/2-y,z
loop_
_atom_site_type_symbol
_atom_site_label
_atom_site_fract_x
_atom_site_fract_y
_atom_site_fract_z
Si Si1 0.871958 0.642918 0.548414
Si Si2 0.665229 0.383551 0.913902
Si Si3 0.563499 0.116835 0.895182
Si Si4 0.525643 0.615852 0.741963
Si Si5 0.880331 0.144778 0.470137
Si Si6 0.678701 0.617545 0.125579
Si Si7 0.116234 0.615294 0.227291
O O1 0.870832 0.754600 0.523785
O O2 0.751019 0.604379 0.517341
O O3 0.865381 0.634511 0.663859
O O4 0.000000 0.607979 0.500000
O O5 0.667284 0.500000 0.920161
O O6 0.580124 0.362262 0.838203
O O7 0.787111 0.352011 0.858583
O O8 0.639144 0.350967 0.024312
O O9 0.692315 0.148669 0.881038
O O10 0.501246 0.148090 0.805791
O O11 0.564652 0.000000 0.896719
O O12 0.500000 0.145984 0.000000
O O13 0.534072 0.500000 0.726399
O O14 0.588271 0.660265 0.644927
O O15 0.395640 0.645951 0.773954
O O16 0.000000 0.101048 0.500000
O O17 0.673633 0.500000 0.126153
O O18 0.118448 0.500000 0.220538
#
# Coordination Sequence:
#
# PCOD9173466 Si02
#       7
#     8   8   8   8   8   8   8
#     4  10  22  40  59  79 102 141 194 240 285 339
#     4   9  15  26  46  76 115 151 176 206 257 323
#     4   9  15  25  43  73 116 158 185 211 257 319
#     4  10  19  31  51  81 115 148 185 227 273 328
#     4  10  22  40  59  78 103 142 190 241 293 332
#     4   9  16  26  44  77 121 158 181 209 259 330
#     4  10  18  30  53  82 113 148 182 221 269 321
#
# _framework density 24.519202
#
# number of rings (size 3 to 8) (size 9 to 14) (size 15 to 20)
#    0.000    2.429    2.857    0.429    0.000    3.429 
#    0.000    0.000    0.000    0.000    0.000   12.000 
#    0.000    0.000    0.000    0.000    0.000    1.000 
#
# Total GULP energy -156401.547069 kJ/mol
# GULP energy per Si atom -5585.769538 kJ/mol
# Density = 2.446340 g / cm^3
# Si number density = 24.519202 Si / 1000 Ang^3
#
#
#
# Elastic Constant Matrix: (Units=GPa)
#
#
# Indices 1 2 3 4 5 6 
#
# 1 155.3810 9.8762 42.6135 0.0000 3.7582 0.0000
# 2 9.8762 89.1643 14.5164 0.0000 3.6559 0.0000
# 3 42.6135 14.5164 95.0113 0.0000 -0.8493 0.0000
# 4 0.0000 0.0000 0.0000 28.9731 0.0000 2.1076
# 5 3.7582 3.6559 -0.8493 0.0000 40.1479 0.0000
# 6 0.0000 0.0000 0.0000 2.1076 0.0000 4.2516
#
#
#
# Elastic Compliance Matrix: (Units=1/GPa)
#
#
# Indices 1 2 3 4 5 6 
#
# 1 0.007367 -0.000253 -0.003272 0.000000 -0.000736 0.000000
# 2 -0.000253 0.011557 -0.001662 0.000000 -0.001064 0.000000
# 3 -0.003272 -0.001662 0.012253 0.000000 0.000717 0.000000
# 4 0.000000 0.000000 0.000000 0.035806 0.000000 -0.017750
# 5 -0.000736 -0.001064 0.000717 0.000000 0.025089 0.000000
# 6 0.000000 0.000000 0.000000 -0.017750 0.000000 0.244007
#
#
# Mechanical properties :
#
#
# Convention : Reuss Voigt Hill
#
# Bulk Modulus (GPa) = 48.06905 52.61877 50.34391
# Shear Modulus (GPa) = 14.14877 32.84455 23.49666
#
# Velocity S-wave (km/s) = 2.40479 3.66395 3.09899
# Velocity P-wave (km/s) = 5.23048 6.27743 5.77772
#
# Compressibility (1/GPa) = 0.02080341
#
# Stress axis : x y z
#
# Youngs Moduli (GPa) = 135.73937 86.52425 81.61307
#
# Poissons Ratio (x) = 0.02190 0.26705
# Poissons Ratio (y) = 0.03436 0.13562
# Poissons Ratio (z) = 0.44415 0.14379
#
# Static dielectric constant tensor:
#      x y z
#    x 2.046360 0.000000 0.006390 
#    y 0.000000 2.005600 0.000000 
#    z 0.006390 0.000000 1.817180 
# 
# From -- ./inp_files/133132.got.cif
#   From: 2010.05.17/outbox.cif.g08.bks.cpg/sg12_67_cif.got.tgz:133132.got - 2010.06.03 13:09:07.
