data_PCOD9173008
_publ_section_title
;
Structure prediction by ZEFSAII (Michael W. Deem and Ramdas Pophale) SiO2 
 PCOD9173008
Probable space group: C 2/M
;
_chemical_formula_sum "Si O2"
_cell_formula_units_Z 56
_cell_length_a 21.030169
_cell_length_b 7.362142
_cell_length_c 23.475699
_cell_angle_alpha 90.000000
_cell_angle_beta 132.614831
_cell_angle_gamma 90.000000
_cell_volume 2674.836153
_symmetry_space_group_name_H-M "C 2/M"
_symmetry_group_IT_number 12
_symmetry_cell_setting 'monoclinic'
loop_
_space_group_symop_operation_xyz
x,y,z
-x,y,-z
-x,-y,-z
x,-y,z
1/2+x,1/2+y,z
1/2-x,1/2+y,-z
1/2-x,1/2-y,-z
1/2+x,1/2-y,z
loop_
_atom_site_type_symbol
_atom_site_label
_atom_site_fract_x
_atom_site_fract_y
_atom_site_fract_z
Si Si1 0.485262 0.289781 0.663236
Si Si2 0.818712 0.720037 0.241698
Si Si3 0.771486 0.281285 0.340684
Si Si4 0.860694 0.220930 0.916743
Si Si5 0.495393 0.279138 0.088647
Si Si6 0.577606 0.277508 0.253473
Si Si7 0.562020 0.287196 0.488274
O O1 0.456857 0.500000 0.646244
O O2 0.588927 0.282523 0.724378
O O3 0.450070 0.212724 0.701022
O O4 0.452912 0.209089 0.583621
O O5 0.820004 0.500000 0.242597
O O6 0.803019 0.780233 0.297458
O O7 0.736440 0.780116 0.154685
O O8 0.769583 0.500000 0.337416
O O9 0.674764 0.221375 0.296318
O O10 0.841046 0.227695 0.430154
O O11 0.923775 0.272786 0.902725
O O12 0.859620 0.000000 0.916371
O O13 0.908689 0.280082 0.003530
O O14 0.494238 0.500000 0.088050
O O15 0.513939 0.219613 0.163926
O O16 0.576238 0.500000 0.252647
O O17 0.500000 0.208867 0.500000
O O18 0.538394 0.500000 0.469364
#
# Coordination Sequence:
#
# PCOD9173008 Si02
#       7
#     8   8   8   8   8   8   8
#     4  10  21  35  50  67  95 133 163 190 234 290
#     4  10  18  30  49  75 100 121 154 200 242 277
#     4  10  19  31  52  76  95 118 156 206 246 273
#     4   8  13  22  42  73 100 120 149 194 239 274
#     4   8  12  22  43  70  98 123 151 191 236 278
#     4   9  17  31  48  70  98 126 158 196 237 281
#     4  10  20  34  49  68  96 128 162 195 232 285
#
# _framework density 20.935863000000001
#
# number of rings (size 3 to 8) (size 9 to 14) (size 15 to 20)
#    0.000    2.714    2.857    0.857    0.000    1.429 
#    0.000    1.429    0.000    0.000    0.000    3.000 
#    0.000    0.000    0.000    0.000    0.000    0.000 
#
# Total GULP energy -156297.451389 kJ/mol
# GULP energy per Si atom -5582.051835 kJ/mol
# Density = 2.088821 g / cm^3
# Si number density = 20.935863 Si / 1000 Ang^3
#
#
#
# Elastic Constant Matrix: (Units=GPa)
#
#
# Indices 1 2 3 4 5 6 
#
# 1 93.4510 -3.7919 45.1238 0.0000 -22.6700 0.0000
# 2 -3.7919 74.4585 -6.3522 0.0000 -9.7508 0.0001
# 3 45.1238 -6.3522 155.3829 0.0000 -15.2418 0.0000
# 4 0.0000 0.0000 0.0000 10.3031 0.0000 15.7846
# 5 -22.6700 -9.7508 -15.2418 0.0000 33.6458 0.0000
# 6 0.0000 0.0001 0.0000 15.7846 0.0000 4.4748
#
#
#
# Elastic Compliance Matrix: (Units=1/GPa)
#
#
# Indices 1 2 3 4 5 6 
#
# 1 0.014466 0.001599 -0.003280 0.000000 0.008725 0.000000
# 2 0.001599 0.014291 0.000661 0.000000 0.005519 0.000000
# 3 -0.003280 0.000661 0.007553 0.000000 0.001403 0.000000
# 4 0.000000 0.000000 0.000000 -0.022038 0.000000 0.077737
# 5 0.008725 0.005519 0.001403 0.000000 0.037835 0.000000
# 6 0.000000 0.000000 0.000000 0.077737 0.000000 -0.050741
#
#
# Mechanical properties :
#
#
# Convention : Reuss Voigt Hill
#
# Bulk Modulus (GPa) = 29.17909 43.69464 36.43687
# Shear Modulus (GPa) = 337.21246 28.90559 183.05902
#
# Velocity S-wave (km/s) = 12.70508 3.71977 9.36097
# Velocity P-wave (km/s) = 15.13912 6.27415 11.58788
#
# Compressibility (1/GPa) = 0.03427112
#
# Stress axis : x y z
#
# Youngs Moduli (GPa) = 69.12847 69.97472 132.40069
#
# Poissons Ratio (x) = -0.11192 0.43424
# Poissons Ratio (y) = -0.11057 -0.08753
# Poissons Ratio (z) = 0.22672 -0.04626
#
# Static dielectric constant tensor:
#      x y z
#    x 1.704270 0.000000 -0.018460 
#    y 0.000000 1.797690 0.000000 
#    z -0.018460 0.000000 1.749590 
# 
# From -- ./inp_files/223381.got.cif
#   From: 2010.05.17/outbox.cif.g08.bks.cpg/sg12_112_cif.got.tgz:223381.got - 2010.06.03 13:09:07.
