data_PCOD9173877
_publ_section_title
;
Structure prediction by ZEFSAII (Michael W. Deem and Ramdas Pophale) SiO2 
 PCOD9173877
Probable space group: C 2/M
;
_chemical_formula_sum "Si O2"
_cell_formula_units_Z 56
_cell_length_a 29.347286
_cell_length_b 9.004607
_cell_length_c 17.707375
_cell_angle_alpha 90.000000
_cell_angle_beta 130.928525
_cell_angle_gamma 90.000000
_cell_volume 3535.388271
_symmetry_space_group_name_H-M "C 2/M"
_symmetry_group_IT_number 12
_symmetry_cell_setting 'monoclinic'
loop_
_space_group_symop_operation_xyz
x,y,z
-x,y,-z
-x,-y,-z
x,-y,z
1/2+x,1/2+y,z
1/2-x,1/2+y,-z
1/2-x,1/2-y,-z
1/2+x,1/2-y,z
loop_
_atom_site_type_symbol
_atom_site_label
_atom_site_fract_x
_atom_site_fract_y
_atom_site_fract_z
Si Si1 0.590050 0.671449 0.082092
Si Si2 0.654376 0.177325 0.906488
Si Si3 0.767906 0.177360 0.137784
Si Si4 0.042275 0.176892 0.862730
Si Si5 0.716496 0.822063 0.392988
Si Si6 0.924513 0.324269 0.778154
Si Si7 0.265895 0.673285 0.746267
O O1 0.574049 0.500000 0.082723
O O2 0.568737 0.773699 0.127342
O O3 0.662472 0.680931 0.158103
O O4 0.564024 0.709097 0.972235
O O5 0.681514 0.250893 0.860761
O O6 0.590646 0.245406 0.861216
O O7 0.650646 0.000000 0.894187
O O8 0.703996 0.209075 0.026115
O O9 0.766669 0.247715 0.219316
O O10 0.774764 0.000000 0.148694
O O11 0.974788 0.239565 0.784502
O O12 0.043718 0.000000 0.853852
O O13 0.750000 0.750000 0.500000
O O14 0.644677 0.787976 0.318118
O O15 0.741353 0.754503 0.341665
O O16 0.723037 0.000000 0.399824
O O17 0.933250 0.500000 0.781161
O O18 0.249285 0.500000 0.722808
#
# Coordination Sequence:
#
# PCOD9173877 Si02
#       7
#     8   8   8   8   8   8   8
#     4   9  18  30  44  65  95 131 167 200 235 283
#     4  10  20  31  46  67  97 135 173 210 246 284
#     4  10  19  31  47  69  98 132 171 210 247 288
#     4  11  20  31  46  67  97 133 170 203 240 287
#     4  10  21  37  55  76 100 126 161 206 254 301
#     4  10  21  33  47  69  96 126 162 202 245 295
#     4  10  18  31  51  73 100 132 166 204 248 295
#
# _framework density 15.839843999999999
#
# number of rings (size 3 to 8) (size 9 to 14) (size 15 to 20)
#    0.000    2.000    1.429    3.000    0.000    6.286 
#    0.000    0.000    0.000    0.000    0.000    1.000 
#    0.000    8.000    0.000    0.000    0.000    0.000 
#
# Total GULP energy -156287.686464 kJ/mol
# GULP energy per Si atom -5581.703088 kJ/mol
# Density = 1.580379 g / cm^3
# Si number density = 15.839844 Si / 1000 Ang^3
#
#
#
# Elastic Constant Matrix: (Units=GPa)
#
#
# Indices 1 2 3 4 5 6 
#
# 1 132.7725 76.2526 51.9351 0.0000 -17.0993 0.0000
# 2 76.2526 80.0374 50.1936 0.0000 -12.5635 0.0000
# 3 51.9351 50.1936 83.7719 0.0000 -17.8514 0.0000
# 4 0.0000 0.0000 0.0000 21.7157 0.0000 -5.1631
# 5 -17.0993 -12.5635 -17.8514 0.0000 14.9913 0.0000
# 6 0.0000 0.0000 0.0000 -5.1631 0.0000 32.4204
#
#
#
# Elastic Compliance Matrix: (Units=1/GPa)
#
#
# Indices 1 2 3 4 5 6 
#
# 1 0.017211 -0.015296 -0.000072 0.000000 0.006727 0.000000
# 2 -0.015296 0.033735 -0.011288 0.000000 -0.002616 0.000000
# 3 -0.000072 -0.011288 0.022394 0.000000 0.017125 0.000000
# 4 0.000000 0.000000 0.000000 0.047862 0.000000 0.007622
# 5 0.006727 -0.002616 0.017125 0.000000 0.092578 0.000000
# 6 0.000000 0.000000 0.000000 0.007622 0.000000 0.032059
#
#
# Mechanical properties :
#
#
# Convention : Reuss Voigt Hill
#
# Bulk Modulus (GPa) = 49.92683 72.59384 61.26034
# Shear Modulus (GPa) = 16.34922 21.70551 19.02737
#
# Velocity S-wave (km/s) = 3.21621 3.70579 3.46964
# Velocity P-wave (km/s) = 6.73648 8.01498 7.40338
#
# Compressibility (1/GPa) = 0.02002931
#
# Stress axis : x y z
#
# Youngs Moduli (GPa) = 58.10357 29.64285 44.65474
#
# Poissons Ratio (x) = 0.45342 0.00319
# Poissons Ratio (y) = 0.88875 0.50404
# Poissons Ratio (z) = 0.00416 0.33460
#
# Static dielectric constant tensor:
#      x y z
#    x 1.527820 0.000000 0.009860 
#    y 0.000000 1.525140 0.000000 
#    z 0.009860 0.000000 1.503060 
# 
# From -- ./inp_files/244300.got.cif
#   From: 2010.05.17/outbox.cif.g08.bks.cpg/sg12_123_cif.got.tgz:244300.got - 2010.06.03 13:09:07.
