data_PCOD9173995
_publ_section_title
;
Structure prediction by ZEFSAII (Michael W. Deem and Ramdas Pophale) SiO2 
 PCOD9173995
Probable space group: C 2/M
;
_chemical_formula_sum "Si O2"
_cell_formula_units_Z 64
_cell_length_a 14.855367
_cell_length_b 7.480087
_cell_length_c 27.194730
_cell_angle_alpha 90.000000
_cell_angle_beta 78.978703
_cell_angle_gamma 90.000000
_cell_volume 2966.128438
_symmetry_space_group_name_H-M "C 2/M"
_symmetry_group_IT_number 12
_symmetry_cell_setting 'monoclinic'
loop_
_space_group_symop_operation_xyz
x,y,z
-x,y,-z
-x,-y,-z
x,-y,z
1/2+x,1/2+y,z
1/2-x,1/2+y,-z
1/2-x,1/2-y,-z
1/2+x,1/2-y,z
loop_
_atom_site_type_symbol
_atom_site_label
_atom_site_fract_x
_atom_site_fract_y
_atom_site_fract_z
Si Si1 0.066534 0.282109 0.595653
Si Si2 0.325974 0.791573 0.323524
Si Si3 0.135257 0.715479 0.378197
Si Si4 0.650209 0.213223 0.488260
Si Si5 0.047289 0.706675 0.947037
Si Si6 0.782092 0.280911 0.132018
Si Si7 0.424999 0.710569 0.866815
Si Si8 0.599810 0.784046 0.786700
O O1 0.071622 0.500000 0.591850
O O2 0.140319 0.216940 0.627524
O O3 0.082604 0.219220 0.538147
O O4 0.966962 0.233774 0.625979
O O5 0.216646 0.779800 0.335387
O O6 0.371705 0.715451 0.269878
O O7 0.352126 0.000000 0.321872
O O8 0.140611 0.500000 0.378079
O O9 0.146225 0.782708 0.433279
O O10 0.750000 0.250000 0.500000
O O11 0.634973 0.000000 0.485641
O O12 0.067480 0.500000 0.957130
O O13 0.143831 0.780279 0.916625
O O14 0.975585 0.710435 0.909331
O O15 0.000000 0.788806 0.000000
O O16 0.781994 0.500000 0.132080
O O17 0.677630 0.222279 0.133807
O O18 0.827416 0.225182 0.179178
O O19 0.417160 0.500000 0.877111
O O20 0.497672 0.736596 0.815089
O O21 0.604349 0.000000 0.785492
#
# Coordination Sequence:
#
# PCOD9173995 Si02
#       8
#     8   8   8   8   8   8   8   8
#     4   9  18  33  51  72 100 131 163 199 247 305
#     4  10  20  35  54  74  98 129 164 208 254 296
#     4  10  20  33  51  74  99 130 164 200 248 305
#     4  10  18  31  52  72  96 130 164 199 244 298
#     4   9  18  34  54  76 107 145 176 202 242 300
#     4   8  16  32  51  72 101 135 169 206 251 297
#     4  10  19  32  52  76 102 133 170 214 256 288
#     4   9  19  36  54  71  97 134 171 205 251 309
#
# _framework density 21.57695
#
# number of rings (size 3 to 8) (size 9 to 14) (size 15 to 20)
#    0.000    2.625    1.250    1.500    0.000    3.750 
#    0.000    6.250    0.000    1.500    0.000    0.000 
#    0.000    0.000    0.000    0.000    0.000    0.000 
#
# Total GULP energy -178533.756125 kJ/mol
# GULP energy per Si atom -5579.179879 kJ/mol
# Density = 2.152784 g / cm^3
# Si number density = 21.576950 Si / 1000 Ang^3
#
#
#
# Elastic Constant Matrix: (Units=GPa)
#
#
# Indices 1 2 3 4 5 6 
#
# 1 133.3136 -10.6043 43.8495 0.0000 -25.9942 0.0000
# 2 -10.6043 56.5330 2.6161 0.0000 0.0610 0.0000
# 3 43.8495 2.6161 121.5637 0.0000 -35.4118 0.0000
# 4 0.0000 0.0000 0.0000 -1.4385 0.0000 6.2504
# 5 -25.9942 0.0610 -35.4118 0.0000 20.5856 0.0000
# 6 0.0000 0.0000 0.0000 6.2504 0.0000 7.5634
#
#
#
# Elastic Compliance Matrix: (Units=1/GPa)
#
#
# Indices 1 2 3 4 5 6 
#
# 1 0.010149 0.001887 0.000060 0.000000 0.012914 0.000000
# 2 0.001887 0.018078 -0.000784 0.000000 0.000980 0.000000
# 3 0.000060 -0.000784 0.016525 0.000000 0.028505 0.000000
# 4 0.000000 0.000000 0.000000 -0.151427 0.000000 0.125140
# 5 0.012914 0.000980 0.028505 0.000000 0.113917 0.000000
# 6 0.000000 0.000000 0.000000 0.125140 0.000000 0.028801
#
#
# Mechanical properties :
#
#
# Convention : Reuss Voigt Hill
#
# Bulk Modulus (GPa) = 21.24100 42.57032 31.90566
# Shear Modulus (GPa) = 101.19622 23.71202 62.45412
#
# Velocity S-wave (km/s) = 6.85580 3.31864 5.38588
# Velocity P-wave (km/s) = 8.51675 5.87000 7.31409
#
# Compressibility (1/GPa) = 0.04707877
#
# Stress axis : x y z
#
# Youngs Moduli (GPa) = 98.52724 55.31590 60.51527
#
# Poissons Ratio (x) = -0.10439 -0.00365
# Poissons Ratio (y) = -0.18593 0.04745
# Poissons Ratio (z) = -0.00594 0.04337
#
# Static dielectric constant tensor:
#      x y z
#    x 1.761830 0.000000 -0.011350 
#    y 0.000000 1.863420 0.000000 
#    z -0.011350 0.000000 1.781240 
# 
# From -- ./inp_files/359830.got.cif
#   From: 2010.05.17/outbox.cif.g08.bks.cpg/sg12_180_cif.got.tgz:359830.got - 2010.06.03 13:09:07.
