data_PCOD9173835
_publ_section_title
;
Structure prediction by ZEFSAII (Michael W. Deem and Ramdas Pophale) SiO2 
 PCOD9173835
Probable space group: C 2/M
;
_chemical_formula_sum "Si O2"
_cell_formula_units_Z 64
_cell_length_a 22.126720
_cell_length_b 13.640387
_cell_length_c 11.837585
_cell_angle_alpha 90.000000
_cell_angle_beta 73.885833
_cell_angle_gamma 90.000000
_cell_volume 3432.411950
_symmetry_space_group_name_H-M "C 2/M"
_symmetry_group_IT_number 12
_symmetry_cell_setting 'monoclinic'
loop_
_space_group_symop_operation_xyz
x,y,z
-x,y,-z
-x,-y,-z
x,-y,z
1/2+x,1/2+y,z
1/2-x,1/2+y,-z
1/2-x,1/2-y,-z
1/2+x,1/2-y,z
loop_
_atom_site_type_symbol
_atom_site_label
_atom_site_fract_x
_atom_site_fract_y
_atom_site_fract_z
Si Si1 0.284422 0.387515 0.813380
Si Si2 0.008717 0.173994 0.242080
Si Si3 0.091783 0.108778 0.407216
Si Si4 0.621359 0.615110 0.043298
Si Si5 0.376913 0.608743 0.225624
Si Si6 0.446508 0.197759 0.439519
Si Si7 0.773606 0.740901 0.323684
Si Si8 0.688838 0.113593 0.488928
O O1 0.261851 0.500000 0.829095
O O2 0.341421 0.383544 0.691562
O O3 0.316652 0.362180 0.915775
O O4 0.234177 0.311383 0.792350
O O5 0.040633 0.121560 0.333771
O O6 0.063580 0.177967 0.121153
O O7 0.949215 0.118083 0.222928
O O8 0.981752 0.275906 0.305013
O O9 0.079935 0.197591 0.498670
O O10 0.086830 0.000000 0.460584
O O11 0.606544 0.500000 0.077316
O O12 0.628913 0.622098 0.906122
O O13 0.353682 0.500000 0.267490
O O14 0.335523 0.692994 0.303053
O O15 0.500000 0.163937 0.500000
O O16 0.386063 0.129373 0.462030
O O17 0.716593 0.815793 0.377465
O O18 0.777990 0.656424 0.415803
O O19 0.703292 0.000000 0.464166
#
# Coordination Sequence:
#
# PCOD9173835 Si02
#       8
#     8   8   8   8   8   8   8   8
#     4   9  17  33  55  75 103 140 176 214 257 309
#     4  10  18  31  50  77 110 138 169 210 263 320
#     4   9  17  29  49  78 109 136 168 214 261 309
#     4   9  19  33  52  80 108 137 173 218 271 310
#     4  11  21  33  51  79 112 141 173 215 262 317
#     4  10  20  34  53  80 104 137 179 217 258 320
#     4  11  22  37  55  79 103 144 179 210 259 319
#     4  11  23  40  55  77 109 138 174 220 264 315
#
# _framework density 18.645780999999999
#
# number of rings (size 3 to 8) (size 9 to 14) (size 15 to 20)
#    0.000    2.000    2.500    3.000    0.000    5.000 
#    0.000    0.000    0.000    0.000    0.000    2.625 
#    0.000    0.000    0.000    0.000    0.000    0.000 
#
# Total GULP energy -178598.776395 kJ/mol
# GULP energy per Si atom -5581.211762 kJ/mol
# Density = 1.860334 g / cm^3
# Si number density = 18.645781 Si / 1000 Ang^3
#
#
#
# Elastic Constant Matrix: (Units=GPa)
#
#
# Indices 1 2 3 4 5 6 
#
# 1 59.7259 30.0119 -4.9885 0.0000 14.9511 0.0000
# 2 30.0119 75.7883 9.1671 0.0000 12.0707 0.0000
# 3 -4.9885 9.1671 26.8517 0.0000 15.3122 0.0000
# 4 0.0000 0.0000 0.0000 13.5252 0.0000 2.8781
# 5 14.9511 12.0707 15.3122 0.0000 20.7623 0.0000
# 6 0.0000 0.0000 0.0000 2.8781 0.0000 18.5686
#
#
#
# Elastic Compliance Matrix: (Units=1/GPa)
#
#
# Indices 1 2 3 4 5 6 
#
# 1 0.038918 -0.012220 0.040267 0.000000 -0.050617 0.000000
# 2 -0.012220 0.018379 -0.012891 0.000000 0.007622 0.000000
# 3 0.040267 -0.012891 0.105938 0.000000 -0.099631 0.000000
# 4 0.000000 0.000000 0.000000 0.076458 0.000000 -0.011851
# 5 -0.050617 0.007622 -0.099631 0.000000 0.153660 0.000000
# 6 0.000000 0.000000 0.000000 -0.011851 0.000000 0.055691
#
#
# Mechanical properties :
#
#
# Convention : Reuss Voigt Hill
#
# Bulk Modulus (GPa) = 5.16675 25.63855 15.40265
# Shear Modulus (GPa) = 10.34663 19.11626 14.73145
#
# Velocity S-wave (km/s) = 2.35820 3.20540 2.81387
# Velocity P-wave (km/s) = 3.19246 5.24210 4.34001
#
# Compressibility (1/GPa) = 0.19354535
#
# Stress axis : x y z
#
# Youngs Moduli (GPa) = 25.69517 54.40961 9.43948
#
# Poissons Ratio (x) = 0.66489 -0.38010
# Poissons Ratio (y) = 0.31400 0.12169
# Poissons Ratio (z) = -1.03466 0.70141
#
# Static dielectric constant tensor:
#      x y z
#    x 1.668790 0.000000 -0.005260 
#    y 0.000000 1.639400 0.000000 
#    z -0.005260 0.000000 1.657000 
# 
# From -- ./inp_files/174586.got.cif
#   From: 2010.05.17/outbox.cif.g08.bks.cpg/sg12_88_cif.got.tgz:174586.got - 2010.06.03 13:09:07.
