data_PCOD9173648
_publ_section_title
;
Structure prediction by ZEFSAII (Michael W. Deem and Ramdas Pophale) SiO2 
 PCOD9173648
Probable space group: C 2/M
;
_chemical_formula_sum "Si O2"
_cell_formula_units_Z 64
_cell_length_a 24.187836
_cell_length_b 14.737792
_cell_length_c 10.910876
_cell_angle_alpha 90.000000
_cell_angle_beta 123.996442
_cell_angle_gamma 90.000000
_cell_volume 3224.641668
_symmetry_space_group_name_H-M "C 2/M"
_symmetry_group_IT_number 12
_symmetry_cell_setting 'monoclinic'
loop_
_space_group_symop_operation_xyz
x,y,z
-x,y,-z
-x,-y,-z
x,-y,z
1/2+x,1/2+y,z
1/2-x,1/2+y,-z
1/2-x,1/2-y,-z
1/2+x,1/2-y,z
loop_
_atom_site_type_symbol
_atom_site_label
_atom_site_fract_x
_atom_site_fract_y
_atom_site_fract_z
Si Si1 0.312532 0.104470 0.869628
Si Si2 0.665903 0.610815 0.688689
Si Si3 0.829858 0.891321 0.020996
Si Si4 0.527364 0.359745 0.906577
Si Si5 0.971067 0.850944 0.586659
Si Si6 0.186383 0.605128 0.833293
Si Si7 0.539360 0.152453 0.661216
Si Si8 0.459320 0.149669 0.060590
O O1 0.240189 0.137425 0.737901
O O2 0.320778 0.000000 0.840160
O O3 0.307383 0.103998 0.011246
O O4 0.381454 0.153667 0.927171
O O5 0.662394 0.500000 0.680361
O O6 0.657390 0.637744 0.821987
O O7 0.607526 0.651157 0.533898
O O8 0.893868 0.870777 0.018897
O O9 0.821825 0.000000 0.016103
O O10 0.758420 0.855639 0.883891
O O11 0.491409 0.395216 0.739763
O O12 0.514234 0.251947 0.894617
O O13 0.500000 0.397507 0.000000
O O14 0.000000 0.897292 0.500000
O O15 0.006437 0.752132 0.631427
O O16 0.179001 0.500000 0.783196
O O17 0.117350 0.655307 0.721387
O O18 0.500000 0.107053 0.500000
O O19 0.536223 0.110747 0.794947
O O20 0.500000 0.105286 0.000000
#
# Coordination Sequence:
#
# PCOD9173648 Si02
#       8
#     8   8   8   8   8   8   8   8
#     4   8  15  30  51  77  99 122 161 204 244 285
#     4   9  17  30  51  76 101 124 156 206 251 284
#     4   9  17  31  51  74  96 124 164 204 241 286
#     4  10  20  33  48  69 102 134 164 195 238 288
#     4  10  18  31  48  73 100 126 159 201 237 283
#     4   8  15  30  50  72  99 127 158 200 247 287
#     4   9  18  31  48  74 100 124 159 203 237 283
#     4   9  18  33  51  71 100 132 162 197 241 288
#
# _framework density 19.847166000000001
#
# number of rings (size 3 to 8) (size 9 to 14) (size 15 to 20)
#    0.000    3.000    1.250    1.500    0.000    1.500 
#    4.500    2.500    2.750    2.250    0.000    0.000 
#    0.000    0.000    0.000    0.000    0.000    0.000 
#
# Total GULP energy -178211.392819 kJ/mol
# GULP energy per Si atom -5569.106026 kJ/mol
# Density = 1.980199 g / cm^3
# Si number density = 19.847166 Si / 1000 Ang^3
#
#
#
# Elastic Constant Matrix: (Units=GPa)
#
#
# Indices 1 2 3 4 5 6 
#
# 1 138.2970 3.0374 88.1223 0.0000 4.2334 0.0000
# 2 3.0374 55.7192 21.2167 0.0000 1.3230 0.0000
# 3 88.1223 21.2167 144.7390 0.0000 23.0686 0.0000
# 4 0.0000 0.0000 0.0000 13.3227 0.0000 13.9135
# 5 4.2334 1.3230 23.0686 0.0000 35.9900 0.0000
# 6 0.0000 0.0000 0.0000 13.9135 0.0000 15.6209
#
#
#
# Elastic Compliance Matrix: (Units=1/GPa)
#
#
# Indices 1 2 3 4 5 6 
#
# 1 0.012569 0.002516 -0.008655 0.000000 0.003977 0.000000
# 2 0.002516 0.019559 -0.004719 0.000000 0.002010 0.000000
# 3 -0.008655 -0.004719 0.014123 0.000000 -0.007861 0.000000
# 4 0.000000 0.000000 0.000000 1.075154 0.000000 -0.957633
# 5 0.003977 0.002010 -0.007861 0.000000 0.032282 0.000000
# 6 0.000000 0.000000 0.000000 -0.957633 0.000000 0.916975
#
#
# Mechanical properties :
#
#
# Convention : Reuss Voigt Hill
#
# Bulk Modulus (GPa) = 40.75863 62.61198 51.68530
# Shear Modulus (GPa) = 2.38032 28.07866 15.22949
#
# Velocity S-wave (km/s) = 1.09633 3.76539 2.77309
# Velocity P-wave (km/s) = 4.70993 7.10772 6.02923
#
# Compressibility (1/GPa) = 0.02453468
#
# Stress axis : x y z
#
# Youngs Moduli (GPa) = 79.56294 51.12667 70.80628
#
# Poissons Ratio (x) = -0.12864 0.61282
# Poissons Ratio (y) = -0.20018 0.33416
# Poissons Ratio (z) = 0.68861 0.24128
#
# Static dielectric constant tensor:
#      x y z
#    x 1.742650 0.000000 0.002100 
#    y 0.000000 1.764630 0.000000 
#    z 0.002100 0.000000 1.738530 
# 
# From -- ./inp_files/177156.got.cif
#   From: 2010.05.17/outbox.cif.g08.bks.cpg/sg12_89_cif.got.tgz:177156.got - 2010.06.03 13:09:07.
