data_PCOD9173904
_publ_section_title
;
Structure prediction by ZEFSAII (Michael W. Deem and Ramdas Pophale) SiO2 
 PCOD9173904
Probable space group: C 2/M
;
_chemical_formula_sum "Si O2"
_cell_formula_units_Z 64
_cell_length_a 33.950344
_cell_length_b 14.305800
_cell_length_c 10.139036
_cell_angle_alpha 90.000000
_cell_angle_beta 143.482328
_cell_angle_gamma 90.000000
_cell_volume 2930.363912
_symmetry_space_group_name_H-M "C 2/M"
_symmetry_group_IT_number 12
_symmetry_cell_setting 'monoclinic'
loop_
_space_group_symop_operation_xyz
x,y,z
-x,y,-z
-x,-y,-z
x,-y,z
1/2+x,1/2+y,z
1/2-x,1/2+y,-z
1/2-x,1/2-y,-z
1/2+x,1/2-y,z
loop_
_atom_site_type_symbol
_atom_site_label
_atom_site_fract_x
_atom_site_fract_y
_atom_site_fract_z
Si Si1 0.224363 0.391319 0.888846
Si Si2 0.048550 0.388091 0.241760
Si Si3 0.428174 0.608524 0.374906
Si Si4 0.156532 0.605340 0.323447
Si Si5 0.541893 0.892192 0.791178
Si Si6 0.772108 0.747915 0.348576
Si Si7 0.646222 0.605500 0.573449
Si Si8 0.359151 0.207469 0.115153
O O1 0.208699 0.500000 0.816386
O O2 0.235364 0.324001 0.795055
O O3 0.168219 0.342580 0.827484
O O4 0.290850 0.392093 0.156853
O O5 0.035152 0.500000 0.214308
O O6 0.119425 0.382380 0.365955
O O7 0.000000 0.347304 0.000000
O O8 0.024065 0.352137 0.316823
O O9 0.500000 0.619472 0.500000
O O10 0.408135 0.500000 0.299058
O O11 0.417601 0.623567 0.504823
O O12 0.379951 0.685073 0.183858
O O13 0.183295 0.500000 0.386474
O O14 0.098654 0.612408 0.059127
O O15 0.211238 0.684691 0.480956
O O16 0.532419 0.000000 0.730472
O O17 0.574866 0.841382 0.758833
O O18 0.832293 0.818906 0.476978
O O19 0.702152 0.801588 0.152435
O O20 0.641334 0.500000 0.506976
#
# Coordination Sequence:
#
# PCOD9173904 Si02
#       8
#     8   8   8   8   8   8   8   8
#     4  10  18  31  51  74  98 127 156 197 254 307
#     4   7  12  27  48  67  89 121 160 191 226 285
#     4  10  20  34  51  70  96 131 170 207 242 286
#     4   9  18  31  50  75 100 130 166 201 241 295
#     4   9  18  33  51  72 102 136 163 196 246 300
#     4  11  19  30  50  75  99 128 166 205 246 292
#     4   9  17  32  49  67  93 125 167 206 242 289
#     4  11  20  33  50  73 101 130 166 203 248 299
#
# _framework density 21.84029
#
# number of rings (size 3 to 8) (size 9 to 14) (size 15 to 20)
#    0.000    2.500    2.500    3.000    0.000    2.500 
#    0.000    0.000    0.000    1.500    0.000    0.000 
#    0.000    6.000    0.000    0.000    0.000    0.000 
#
# Total GULP energy -178442.039156 kJ/mol
# GULP energy per Si atom -5576.313724 kJ/mol
# Density = 2.179058 g / cm^3
# Si number density = 21.840290 Si / 1000 Ang^3
#
#
#
# Elastic Constant Matrix: (Units=GPa)
#
#
# Indices 1 2 3 4 5 6 
#
# 1 83.2548 26.5072 15.2103 0.0000 22.1510 0.0000
# 2 26.5072 96.9503 7.9706 0.0000 12.3236 0.0000
# 3 15.2103 7.9706 40.3383 0.0000 5.0306 0.0000
# 4 0.0000 0.0000 0.0000 17.1734 0.0000 13.6544
# 5 22.1510 12.3236 5.0306 0.0000 28.6020 0.0000
# 6 0.0000 0.0000 0.0000 13.6544 0.0000 21.3839
#
#
#
# Elastic Compliance Matrix: (Units=1/GPa)
#
#
# Indices 1 2 3 4 5 6 
#
# 1 0.016590 -0.002796 -0.004346 0.000000 -0.010879 0.000000
# 2 -0.002796 0.011486 -0.000888 0.000000 -0.002628 0.000000
# 3 -0.004346 -0.000888 0.026723 0.000000 -0.000952 0.000000
# 4 0.000000 0.000000 0.000000 0.118280 0.000000 -0.075526
# 5 -0.010879 -0.002628 -0.000952 0.000000 0.044688 0.000000
# 6 0.000000 0.000000 0.000000 -0.075526 0.000000 0.094990
#
#
# Mechanical properties :
#
#
# Convention : Reuss Voigt Hill
#
# Bulk Modulus (GPa) = 25.81327 35.54661 30.67994
# Shear Modulus (GPa) = 14.63143 24.82220 19.72682
#
# Velocity S-wave (km/s) = 2.59111 3.37491 3.00864
# Velocity P-wave (km/s) = 4.56032 5.61228 5.11343
#
# Compressibility (1/GPa) = 0.03873976
#
# Stress axis : x y z
#
# Youngs Moduli (GPa) = 60.27714 87.06316 37.42048
#
# Poissons Ratio (x) = 0.24340 0.16264
# Poissons Ratio (y) = 0.16851 0.03322
# Poissons Ratio (z) = 0.26199 0.07729
#
# Static dielectric constant tensor:
#      x y z
#    x 1.860840 0.000000 0.021950 
#    y 0.000000 1.805230 0.000000 
#    z 0.021950 0.000000 1.847290 
# 
# From -- ./inp_files/189476.got.cif
#   From: 2010.05.17/outbox.cif.g08.bks.cpg/sg12_95_cif.got.tgz:189476.got - 2010.06.03 13:09:07.
