data_PCOD9173513
_publ_section_title
;
Structure prediction by ZEFSAII (Michael W. Deem and Ramdas Pophale) SiO2 
 PCOD9173513
Probable space group: C 2/M
;
_chemical_formula_sum "Si O2"
_cell_formula_units_Z 60
_cell_length_a 25.429411
_cell_length_b 32.212632
_cell_length_c 5.033194
_cell_angle_alpha 90.000000
_cell_angle_beta 41.955471
_cell_angle_gamma 90.000000
_cell_volume 2756.398001
_symmetry_space_group_name_H-M "C 2/M"
_symmetry_group_IT_number 12
_symmetry_cell_setting 'monoclinic'
loop_
_space_group_symop_operation_xyz
x,y,z
-x,y,-z
-x,-y,-z
x,-y,z
1/2+x,1/2+y,z
1/2-x,1/2+y,-z
1/2-x,1/2-y,-z
1/2+x,1/2-y,z
loop_
_atom_site_type_symbol
_atom_site_label
_atom_site_fract_x
_atom_site_fract_y
_atom_site_fract_z
Si Si1 0.942727 0.000000 0.465864
Si Si2 0.651844 0.843650 0.100332
Si Si3 0.230828 0.091176 0.449391
Si Si4 0.307843 0.950785 0.654230
Si Si5 0.058958 0.261801 0.525634
Si Si6 0.942301 0.169873 0.467998
Si Si7 0.919755 0.383840 0.140401
Si Si8 0.907031 0.914174 0.415684
O O1 0.895315 0.957418 0.614157
O O2 0.000000 0.000000 0.500000
O O3 0.000000 0.000000 0.000000
O O4 0.625319 0.796228 0.225572
O O5 0.641346 0.860213 0.438712
O O6 0.736073 0.861651 0.692127
O O7 0.592339 0.865674 0.109289
O O8 0.251511 0.072107 0.654413
O O9 0.143733 0.086715 0.661142
O O10 0.282542 0.064295 0.042253
O O11 0.392842 0.931615 0.258099
O O12 0.304197 0.000000 0.646895
O O13 0.095499 0.215474 0.391255
O O14 0.000000 0.263263 0.500000
O O15 0.000000 0.269175 0.000000
O O16 0.890280 0.128662 0.633978
O O17 0.000000 0.165076 0.500000
O O18 0.000000 0.171660 0.000000
O O19 0.000000 0.377383 0.000000
O O20 0.000000 0.913165 0.000000
#
# Coordination Sequence:
#
# PCOD9173513 Si02
#       8
#     4   8   8   8   8   8   8   8
#     4  10  22  36  56  84 104 128 173 228 281 320
#     4  10  19  33  51  80 115 143 185 225 268 324
#     4  10  23  38  56  80 108 149 180 226 285 331
#     4  10  22  38  56  77 110 146 184 223 278 336
#     4  10  18  30  54  84 110 147 184 224 268 318
#     4   9  19  34  54  80 112 142 177 224 282 329
#     4  10  19  32  53  80 109 146 184 228 269 311
#     4  10  22  41  60  83 110 142 184 236 279 337
#
# _framework density 21.767538999999999
#
# number of rings (size 3 to 8) (size 9 to 14) (size 15 to 20)
#    0.000    2.133    0.000    3.200    1.867    4.533 
#    0.000    0.667    0.000    4.800    0.000   16.800 
#    0.000    0.000    0.000    0.000    0.000    0.000 
#
# Total GULP energy -167374.328076 kJ/mol
# GULP energy per Si atom -5579.144269 kJ/mol
# Density = 2.171800 g / cm^3
# Si number density = 21.767539 Si / 1000 Ang^3
#
#
#
# Elastic Constant Matrix: (Units=GPa)
#
#
# Indices 1 2 3 4 5 6 
#
# 1 110.1683 18.0427 15.5275 0.0000 17.8103 0.0000
# 2 18.0427 195.0202 19.1673 0.0000 -4.5754 0.0000
# 3 15.5275 19.1673 39.9250 0.0000 18.8018 0.0000
# 4 0.0000 0.0000 0.0000 -146.2065 0.0000 85.2105
# 5 17.8103 -4.5754 18.8018 0.0000 39.1388 0.0000
# 6 0.0000 0.0000 0.0000 85.2105 0.0000 -21.1039
#
#
#
# Elastic Compliance Matrix: (Units=1/GPa)
#
#
# Indices 1 2 3 4 5 6 
#
# 1 0.010082 -0.000859 -0.001681 0.000000 -0.003880 0.000000
# 2 -0.000859 0.005638 -0.003705 0.000000 0.002830 0.000000
# 3 -0.001681 -0.003705 0.035312 0.000000 -0.016631 0.000000
# 4 0.000000 0.000000 0.000000 0.005054 0.000000 0.020408
# 5 -0.003880 0.002830 -0.016631 0.000000 0.035636 0.000000
# 6 0.000000 0.000000 0.000000 0.020408 0.000000 0.035017
#
#
# Mechanical properties :
#
#
# Convention : Reuss Voigt Hill
#
# Bulk Modulus (GPa) = 25.94632 50.06538 38.00585
# Shear Modulus (GPa) = 32.87817 -6.14259 13.36779
#
# Velocity S-wave (km/s) = 3.89063 -1.68168 2.48082
# Velocity P-wave (km/s) = 5.66818 4.39081 5.06989
#
# Compressibility (1/GPa) = 0.03854111
#
# Stress axis : x y z
#
# Youngs Moduli (GPa) = 99.18714 177.37884 28.31909
#
# Poissons Ratio (x) = 0.15229 0.04762
# Poissons Ratio (y) = 0.08516 0.10493
# Poissons Ratio (z) = 0.16678 0.65722
#
# Static dielectric constant tensor:
#      x y z
#    x 1.773230 0.000000 -0.025560 
#    y 0.000000 1.877730 0.000000 
#    z -0.025560 0.000000 1.861780 
# 
# From -- ./inp_files/26688.got.cif
#   From: 2010.05.17/outbox.cif.g08.bks.cpg/sg12_14_cif.got.tgz:26688.got - 2010.06.03 13:09:07.
