data_PCOD9173250
_publ_section_title
;
Structure prediction by ZEFSAII (Michael W. Deem and Ramdas Pophale) SiO2 
 PCOD9173250
Probable space group: C 2/M
;
_chemical_formula_sum "Si O2"
_cell_formula_units_Z 56
_cell_length_a 29.531251
_cell_length_b 13.522841
_cell_length_c 27.072771
_cell_angle_alpha 90.000000
_cell_angle_beta 19.484627
_cell_angle_gamma 90.000000
_cell_volume 3606.189588
_symmetry_space_group_name_H-M "C 2/M"
_symmetry_group_IT_number 12
_symmetry_cell_setting 'monoclinic'
loop_
_space_group_symop_operation_xyz
x,y,z
-x,y,-z
-x,-y,-z
x,-y,z
1/2+x,1/2+y,z
1/2-x,1/2+y,-z
1/2-x,1/2-y,-z
1/2+x,1/2-y,z
loop_
_atom_site_type_symbol
_atom_site_label
_atom_site_fract_x
_atom_site_fract_y
_atom_site_fract_z
Si Si1 0.779461 0.881026 0.854138
Si Si2 0.351317 0.620209 0.668019
Si Si3 0.101611 0.221693 0.174748
Si Si4 0.883332 0.617495 0.160956
Si Si5 0.074721 0.114267 0.723429
Si Si6 0.971044 0.308790 0.176477
Si Si7 0.384237 0.115557 0.369601
O O1 0.813268 0.852614 0.762928
O O2 0.871402 0.823735 0.799188
O O3 0.794095 0.000000 0.844382
O O4 0.623421 0.850922 0.023639
O O5 0.500000 0.651944 0.500000
O O6 0.345017 0.500000 0.673708
O O7 0.249183 0.654977 0.730863
O O8 0.025910 0.141234 0.218199
O O9 0.998158 0.314806 0.277768
O O10 0.250000 0.250000 0.000000
O O11 0.871837 0.500000 0.182585
O O12 0.915104 0.666769 0.180220
O O13 0.000000 0.629620 0.000000
O O14 0.034881 0.192285 0.806443
O O15 0.231475 0.132960 0.546278
O O16 0.061628 0.000000 0.750536
O O17 0.890120 0.358510 0.305213
O O18 0.416373 0.000000 0.343418
#
# Coordination Sequence:
#
# PCOD9173250 Si02
#       7
#     8   8   8   8   8   8   8
#     4  11  20  32  50  76 109 137 168 211 255 304
#     4   9  19  32  46  71 104 132 161 204 255 303
#     4  11  20  32  52  79 104 137 175 212 253 309
#     4  10  18  30  51  76 101 131 167 209 257 311
#     4  10  22  38  52  74 108 139 174 218 258 301
#     4  11  19  32  54  78  99 135 178 209 251 309
#     4  10  21  36  53  76 108 140 171 213 259 306
#
# _framework density 15.528857
#
# number of rings (size 3 to 8) (size 9 to 14) (size 15 to 20)
#    0.000    1.714    4.286    3.429    0.000    2.857 
#    0.000    2.857    0.000    0.429    0.000    0.000 
#    0.000    4.000    0.000    0.000    0.000    0.000 
#
# Total GULP energy -156103.317563 kJ/mol
# GULP energy per Si atom -5575.118484 kJ/mol
# Density = 1.549351 g / cm^3
# Si number density = 15.528857 Si / 1000 Ang^3
#
#
#
# Elastic Constant Matrix: (Units=GPa)
#
#
# Indices 1 2 3 4 5 6 
#
# 1 158.3112 53.0034 38.6983 0.0004 -7.6669 -0.0005
# 2 53.0034 81.2978 27.5689 0.0004 -0.8541 -0.0009
# 3 38.6983 27.5689 48.3244 0.0016 -10.1681 -0.0018
# 4 0.0004 0.0004 0.0016 19.1676 -0.0003 1.6258
# 5 -7.6669 -0.8541 -10.1681 -0.0003 26.0043 0.0004
# 6 -0.0005 -0.0009 -0.0018 1.6258 0.0004 17.7949
#
#
#
# Elastic Compliance Matrix: (Units=1/GPa)
#
#
# Indices 1 2 3 4 5 6 
#
# 1 0.008882 -0.004242 -0.004545 0.000000 0.000702 0.000000
# 2 -0.004242 0.017519 -0.007344 0.000000 -0.003547 0.000000
# 3 -0.004545 -0.007344 0.030717 -0.000002 0.010430 0.000003
# 4 0.000000 0.000000 -0.000002 0.052579 0.000000 -0.004804
# 5 0.000702 -0.003547 0.010430 0.000000 0.042624 0.000000
# 6 0.000000 0.000000 0.000003 -0.004804 0.000000 0.056635
#
#
# Mechanical properties :
#
#
# Convention : Reuss Voigt Hill
#
# Bulk Modulus (GPa) = 40.23047 58.49716 49.36381
# Shear Modulus (GPa) = 20.03982 23.83754 21.93868
#
# Velocity S-wave (km/s) = 3.59624 3.92222 3.76276
# Velocity P-wave (km/s) = 6.57321 7.63305 7.12287
#
# Compressibility (1/GPa) = 0.02485678
#
# Stress axis : x y z
#
# Youngs Moduli (GPa) = 112.58830 57.07981 32.55508
#
# Poissons Ratio (x) = 0.24214 0.14796
# Poissons Ratio (y) = 0.47762 0.23908
# Poissons Ratio (z) = 0.51169 0.41919
#
# Static dielectric constant tensor:
#      x y z
#    x 1.478630 0.000000 0.008510 
#    y 0.000000 1.514040 0.000000 
#    z 0.008510 0.000000 1.512830 
# 
# From -- ./inp_files/110909.got.cif
#   From: 2010.05.17/outbox.cif.g08.bks.cpg/sg12_56_cif.got.tgz:110909.got - 2010.06.03 13:09:07.
