data_PCOD9173945
_publ_section_title
;
Structure prediction by ZEFSAII (Michael W. Deem and Ramdas Pophale) SiO2 
 PCOD9173945
Probable space group: C 2/M
;
_chemical_formula_sum "Si O2"
_cell_formula_units_Z 56
_cell_length_a 20.983185
_cell_length_b 8.879755
_cell_length_c 20.133509
_cell_angle_alpha 90.000000
_cell_angle_beta 59.039119
_cell_angle_gamma 90.000000
_cell_volume 3216.884654
_symmetry_space_group_name_H-M "C 2/M"
_symmetry_group_IT_number 12
_symmetry_cell_setting 'monoclinic'
loop_
_space_group_symop_operation_xyz
x,y,z
-x,y,-z
-x,-y,-z
x,-y,z
1/2+x,1/2+y,z
1/2-x,1/2+y,-z
1/2-x,1/2-y,-z
1/2+x,1/2-y,z
loop_
_atom_site_type_symbol
_atom_site_label
_atom_site_fract_x
_atom_site_fract_y
_atom_site_fract_z
Si Si1 0.156080 0.318827 0.834825
Si Si2 0.720727 0.818352 0.317840
Si Si3 0.425710 0.826694 0.993938
Si Si4 0.469766 0.681425 0.324024
Si Si5 0.547755 0.818283 0.410184
Si Si6 0.797094 0.181135 0.415506
Si Si7 0.985484 0.820318 0.164861
O O1 0.153114 0.500000 0.833652
O O2 0.233513 0.257193 0.766041
O O3 0.137448 0.273974 0.920935
O O4 0.089676 0.253899 0.824282
O O5 0.634388 0.775348 0.368659
O O6 0.762116 0.774324 0.363751
O O7 0.725253 0.000000 0.308983
O O8 0.411960 0.000000 0.981829
O O9 0.500000 0.826134 0.000000
O O10 0.447105 0.729998 0.918661
O O11 0.474281 0.500000 0.327121
O O12 0.513636 0.754635 0.360856
O O13 0.383058 0.725647 0.374301
O O14 0.496559 0.723489 0.235616
O O15 0.500000 0.767868 0.500000
O O16 0.544227 0.000000 0.410508
O O17 0.750000 0.250000 0.500000
O O18 0.793602 0.000000 0.420932
O O19 0.975511 0.000000 0.167396
#
# Coordination Sequence:
#
# PCOD9173945 Si02
#       7
#     8   8   8   8   8   8   8
#     4  10  19  31  50  78 110 141 175 216 264 314
#     4  10  20  36  55  76 107 139 175 222 264 314
#     4   8  16  29  45  73 110 140 170 214 262 311
#     4  10  21  36  54  77 108 140 173 219 267 313
#     4  10  22  39  58  78 103 140 181 221 267 319
#     4  10  20  35  53  76 104 134 170 218 268 314
#     4  10  18  31  51  77 108 142 177 215 263 314
#
# _framework density 17.408147
#
# number of rings (size 3 to 8) (size 9 to 14) (size 15 to 20)
#    0.000    2.286    1.429    2.571    0.000    7.429 
#    0.000    0.000    0.000    0.857    0.000    0.000 
#    0.000    0.000    0.000    0.000    0.000    0.000 
#
# Total GULP energy -156183.429745 kJ/mol
# GULP energy per Si atom -5577.979634 kJ/mol
# Density = 1.736852 g / cm^3
# Si number density = 17.408147 Si / 1000 Ang^3
#
#
#
# Elastic Constant Matrix: (Units=GPa)
#
#
# Indices 1 2 3 4 5 6 
#
# 1 75.6532 16.4554 35.9087 0.0000 -8.6216 0.0000
# 2 16.4554 20.0291 31.3396 0.0000 -3.9498 -0.0001
# 3 35.9087 31.3396 144.4570 0.0000 -17.7041 0.0000
# 4 0.0000 0.0000 0.0000 34.9439 0.0000 -0.0617
# 5 -8.6216 -3.9498 -17.7041 0.0000 25.6183 0.0000
# 6 0.0000 -0.0001 0.0000 -0.0617 0.0000 23.2250
#
#
#
# Elastic Compliance Matrix: (Units=1/GPa)
#
#
# Indices 1 2 3 4 5 6 
#
# 1 0.016579 -0.010834 -0.001411 0.000000 0.002934 0.000000
# 2 -0.010834 0.082669 -0.015433 0.000000 -0.001566 0.000000
# 3 -0.001411 -0.015433 0.011222 0.000000 0.004901 0.000000
# 4 0.000000 0.000000 0.000000 0.028617 0.000000 0.000076
# 5 0.002934 -0.001566 0.004901 0.000000 0.043167 0.000000
# 6 0.000000 0.000000 0.000000 0.000076 0.000000 0.043057
#
#
# Mechanical properties :
#
#
# Convention : Reuss Voigt Hill
#
# Bulk Modulus (GPa) = 18.14495 45.28297 31.71396
# Shear Modulus (GPa) = 16.72016 27.18646 21.95331
#
# Velocity S-wave (km/s) = 3.10252 3.95613 3.55504
# Velocity P-wave (km/s) = 4.82494 6.85106 5.92524
#
# Compressibility (1/GPa) = 0.05511175
#
# Stress axis : x y z
#
# Youngs Moduli (GPa) = 60.31750 12.09651 89.10962
#
# Poissons Ratio (x) = 0.13106 0.12574
# Poissons Ratio (y) = 0.65350 1.37527
# Poissons Ratio (z) = 0.08511 0.18669
#
# Static dielectric constant tensor:
#      x y z
#    x 1.568330 0.000000 -0.014710 
#    y 0.000000 1.586860 0.000000 
#    z -0.014710 0.000000 1.607370 
# 
# From -- ./inp_files/275275.got.cif
#   From: 2010.05.17/outbox.cif.g08.bks.cpg/sg12_138_cif.got.tgz:275275.got - 2010.06.03 13:09:07.
