data_PCOD9173146
_publ_section_title
;
Structure prediction by ZEFSAII (Michael W. Deem and Ramdas Pophale) SiO2 
 PCOD9173146
Probable space group: C 2/M
;
_chemical_formula_sum "Si O2"
_cell_formula_units_Z 48
_cell_length_a 18.003643
_cell_length_b 13.464956
_cell_length_c 15.226323
_cell_angle_alpha 90.000000
_cell_angle_beta 132.176346
_cell_angle_gamma 90.000000
_cell_volume 2735.435913
_symmetry_space_group_name_H-M "C 2/M"
_symmetry_group_IT_number 12
_symmetry_cell_setting 'monoclinic'
loop_
_space_group_symop_operation_xyz
x,y,z
-x,y,-z
-x,-y,-z
x,-y,z
1/2+x,1/2+y,z
1/2-x,1/2+y,-z
1/2-x,1/2-y,-z
1/2+x,1/2-y,z
loop_
_atom_site_type_symbol
_atom_site_label
_atom_site_fract_x
_atom_site_fract_y
_atom_site_fract_z
Si Si1 0.857717 0.810047 0.818613
Si Si2 0.270445 0.112390 0.434004
Si Si3 0.244008 0.884946 0.720947
Si Si4 0.598974 0.382003 0.764475
Si Si5 0.419542 0.619494 0.051225
Si Si6 0.883322 0.188006 0.542787
O O1 0.774742 0.870945 0.698736
O O2 0.832244 0.694947 0.780235
O O3 0.966672 0.841710 0.869922
O O4 0.857982 0.834494 0.921856
O O5 0.179016 0.137635 0.427521
O O6 0.353252 0.196210 0.516944
O O7 0.303877 0.000000 0.473750
O O8 0.191538 0.866638 0.773026
O O9 0.160888 0.861009 0.580688
O O10 0.274150 0.000000 0.737823
O O11 0.576075 0.500000 0.744821
O O12 0.617075 0.354921 0.880226
O O13 0.500105 0.328599 0.649613
O O14 0.420502 0.500000 0.042074
#
# Coordination Sequence:
#
# PCOD9173146 Si02
#       6
#     8   8   8   8   8   8
#     4  10  19  32  52  76  99 128 165 208 250 290
#     4  10  18  30  50  76 103 128 161 207 251 292
#     4  10  21  34  50  74 103 134 165 202 248 299
#     4  10  19  33  53  75 101 130 166 208 247 292
#     4  10  19  33  55  77  97 125 167 213 250 288
#     4  10  19  30  50  76 101 131 165 202 246 295
#
# _framework density 17.547477000000001
#
# number of rings (size 3 to 8) (size 9 to 14) (size 15 to 20)
#    0.000    2.000    1.667    4.000    0.000    2.000 
#    0.000    1.667    0.000   11.000    0.000    0.000 
#    0.000    0.000    0.000    0.000    0.000    0.000 
#
# Total GULP energy -133915.483860 kJ/mol
# GULP energy per Si atom -5579.811828 kJ/mol
# Density = 1.750754 g / cm^3
# Si number density = 17.547477 Si / 1000 Ang^3
#
#
#
# Elastic Constant Matrix: (Units=GPa)
#
#
# Indices 1 2 3 4 5 6 
#
# 1 14.6637 12.8182 10.5279 0.0000 -10.7286 0.0000
# 2 12.8182 96.4089 14.4926 0.0000 -5.5405 0.0000
# 3 10.5279 14.4926 75.0946 0.0000 -26.1489 0.0000
# 4 0.0000 0.0000 0.0000 15.5143 0.0000 -0.8013
# 5 -10.7286 -5.5405 -26.1489 0.0000 20.0748 0.0000
# 6 0.0000 0.0000 0.0000 -0.8013 0.0000 10.1192
#
#
#
# Elastic Compliance Matrix: (Units=1/GPa)
#
#
# Indices 1 2 3 4 5 6 
#
# 1 0.133877 -0.014975 0.013901 0.000000 0.085522 0.000000
# 2 -0.014975 0.012360 -0.003449 0.000000 -0.009085 0.000000
# 3 0.013901 -0.003449 0.026149 0.000000 0.040539 0.000000
# 4 0.000000 0.000000 0.000000 0.064721 0.000000 0.005125
# 5 0.085522 -0.009085 0.040539 0.000000 0.145816 0.000000
# 6 0.000000 0.000000 0.000000 0.005125 0.000000 0.099228
#
#
# Mechanical properties :
#
#
# Convention : Reuss Voigt Hill
#
# Bulk Modulus (GPa) = 6.12220 29.09386 17.60803
# Shear Modulus (GPa) = 9.16347 19.03024 14.09686
#
# Velocity S-wave (km/s) = 2.28767 3.29675 2.83743
# Velocity P-wave (km/s) = 3.23642 5.57741 4.55971
#
# Compressibility (1/GPa) = 0.16333995
#
# Stress axis : x y z
#
# Youngs Moduli (GPa) = 7.46955 80.90677 38.24169
#
# Poissons Ratio (x) = 1.21155 -0.53159
# Poissons Ratio (y) = 0.11185 0.13191
# Poissons Ratio (z) = -0.10383 0.27908
#
# Static dielectric constant tensor:
#      x y z
#    x 1.596750 0.000000 -0.038170 
#    y 0.000000 1.596270 0.000000 
#    z -0.038170 0.000000 1.604260 
# 
# From -- ./inp_files/214101.got.cif
#   From: 2010.05.17/outbox.cif.g08.bks.cpg/sg12_108_cif.got.tgz:214101.got - 2010.06.03 13:09:07.
