data_PCOD9173601
_publ_section_title
;
Structure prediction by ZEFSAII (Michael W. Deem and Ramdas Pophale) SiO2 
 PCOD9173601
Probable space group: C 2/M
;
_chemical_formula_sum "Si O2"
_cell_formula_units_Z 52
_cell_length_a 20.922708
_cell_length_b 33.801724
_cell_length_c 4.986431
_cell_angle_alpha 90.000000
_cell_angle_beta 124.609622
_cell_angle_gamma 90.000000
_cell_volume 2902.471922
_symmetry_space_group_name_H-M "C 2/M"
_symmetry_group_IT_number 12
_symmetry_cell_setting 'monoclinic'
loop_
_space_group_symop_operation_xyz
x,y,z
-x,y,-z
-x,-y,-z
x,-y,z
1/2+x,1/2+y,z
1/2-x,1/2+y,-z
1/2-x,1/2-y,-z
1/2+x,1/2-y,z
loop_
_atom_site_type_symbol
_atom_site_label
_atom_site_fract_x
_atom_site_fract_y
_atom_site_fract_z
Si Si1 0.855880 0.082928 0.848025
Si Si2 0.925390 0.118622 0.503316
Si Si3 0.940160 0.000000 0.101061
Si Si4 0.324692 0.312696 0.159535
Si Si5 0.589039 0.234801 0.748663
Si Si6 0.244474 0.352219 0.460714
Si Si7 0.912301 0.318733 0.753154
O O1 0.916852 0.103178 0.783609
O O2 0.777011 0.102795 0.545115
O O3 0.860296 0.097569 0.165034
O O4 0.883952 0.037934 0.937754
O O5 0.903565 0.164518 0.436500
O O6 0.000000 0.109956 0.500000
O O7 0.000000 0.000000 0.500000
O O8 0.000000 0.000000 0.000000
O O9 0.347641 0.267246 0.182467
O O10 0.263636 0.328416 0.233942
O O11 0.294794 0.328625 0.803616
O O12 0.500000 0.249649 0.500000
O O13 0.596374 0.197609 0.566885
O O14 0.597056 0.219038 0.069872
O O15 0.155251 0.348572 0.327776
O O16 0.000000 0.333658 0.000000
#
# Coordination Sequence:
#
# PCOD9173601 Si02
#       7
#     8   8   4   8   8   8   8
#     4  10  21  33  48  71  97 126 161 198 230 274
#     4  10  18  31  47  66  96 132 166 195 228 274
#     4  12  22  34  54  78 105 134 161 188 230 282
#     4  10  20  31  48  70  97 130 161 202 246 284
#     4  10  20  33  48  71  98 127 166 206 245 289
#     4  10  21  35  49  70  95 125 165 201 244 294
#     4  10  21  35  51  68  92 124 162 209 254 294
#
# _framework density 17.915762000000001
#
# number of rings (size 3 to 8) (size 9 to 14) (size 15 to 20)
#    0.000    1.846    0.000    5.077    0.000    3.692 
#    0.000    4.615    0.000    0.000    0.000    0.538 
#    0.000    0.000    0.000   18.615    0.000    0.000 
#
# Total GULP energy -144845.906440 kJ/mol
# GULP energy per Si atom -5570.996402 kJ/mol
# Density = 1.787498 g / cm^3
# Si number density = 17.915762 Si / 1000 Ang^3
#
#
#
# Elastic Constant Matrix: (Units=GPa)
#
#
# Indices 1 2 3 4 5 6 
#
# 1 86.0053 35.5866 24.6196 0.0000 2.2479 0.0000
# 2 35.5866 57.7465 20.9112 0.0000 29.5136 0.0000
# 3 24.6196 20.9112 56.0413 0.0000 -7.5560 0.0000
# 4 0.0000 0.0000 0.0000 10.7836 0.0000 -1.5748
# 5 2.2479 29.5136 -7.5560 0.0000 40.3047 0.0000
# 6 0.0000 0.0000 0.0000 -1.5748 0.0000 15.2240
#
#
#
# Elastic Compliance Matrix: (Units=1/GPa)
#
#
# Indices 1 2 3 4 5 6 
#
# 1 0.018519 -0.017317 -0.000106 0.000000 0.011627 0.000000
# 2 -0.017317 0.059050 -0.020648 0.000000 -0.046146 0.000000
# 3 -0.000106 -0.020648 0.028352 0.000000 0.020441 0.000000
# 4 0.000000 0.000000 0.000000 0.094156 0.000000 0.009740
# 5 0.011627 -0.046146 0.020441 0.000000 0.061785 0.000000
# 6 0.000000 0.000000 0.000000 0.009740 0.000000 0.066693
#
#
# Mechanical properties :
#
#
# Convention : Reuss Voigt Hill
#
# Bulk Modulus (GPa) = 33.58182 40.22533 36.90357
# Shear Modulus (GPa) = 12.05912 21.17415 16.61664
#
# Velocity S-wave (km/s) = 2.59723 3.44157 3.04877
# Velocity P-wave (km/s) = 5.27059 6.18819 5.74773
#
# Compressibility (1/GPa) = 0.02977802
#
# Stress axis : x y z
#
# Youngs Moduli (GPa) = 53.99912 16.93473 35.27143
#
# Poissons Ratio (x) = 0.29325 0.00375
# Poissons Ratio (y) = 0.93508 0.72830
# Poissons Ratio (z) = 0.00574 0.34968
#
# Static dielectric constant tensor:
#      x y z
#    x 1.647790 0.000000 0.032910 
#    y 0.000000 1.638410 0.000000 
#    z 0.032910 0.000000 1.656740 
# 
# From -- ./inp_files/22824.got.cif
#   From: 2010.05.17/outbox.cif.g08.bks.cpg/sg12_12_cif.got.tgz:22824.got - 2010.06.03 13:09:07.
