data_PCOD9173829
_publ_section_title
;
Structure prediction by ZEFSAII (Michael W. Deem and Ramdas Pophale) SiO2 
 PCOD9173829
Probable space group: C 2/M
;
_chemical_formula_sum "Si O2"
_cell_formula_units_Z 56
_cell_length_a 13.782616
_cell_length_b 25.208625
_cell_length_c 25.598797
_cell_angle_alpha 90.000000
_cell_angle_beta 159.338237
_cell_angle_gamma 90.000000
_cell_volume 3138.275672
_symmetry_space_group_name_H-M "C 2/M"
_symmetry_group_IT_number 12
_symmetry_cell_setting 'monoclinic'
loop_
_space_group_symop_operation_xyz
x,y,z
-x,y,-z
-x,-y,-z
x,-y,z
1/2+x,1/2+y,z
1/2-x,1/2+y,-z
1/2-x,1/2-y,-z
1/2+x,1/2-y,z
loop_
_atom_site_type_symbol
_atom_site_label
_atom_site_fract_x
_atom_site_fract_y
_atom_site_fract_z
Si Si1 0.142899 0.258621 0.019733
Si Si2 0.876925 0.059893 0.152676
Si Si3 0.155523 0.610416 0.671941
Si Si4 0.792298 0.792319 0.662983
Si Si5 0.964239 0.120446 0.665777
Si Si6 0.023061 0.862512 0.951642
Si Si7 0.028521 0.363017 0.903243
O O1 0.466401 0.254722 0.195624
O O2 0.010376 0.201673 0.943703
O O3 0.096161 0.301983 0.951735
O O4 0.000000 0.281445 0.000000
O O5 0.170918 0.066341 0.271697
O O6 0.927103 0.078377 0.236980
O O7 0.776609 0.000000 0.098520
O O8 0.676566 0.101025 0.022264
O O9 0.229108 0.664106 0.676179
O O10 0.284055 0.615662 0.793931
O O11 0.829950 0.603700 0.505202
O O12 0.500000 0.767606 0.500000
O O13 0.905877 0.826452 0.670963
O O14 0.203834 0.129334 0.744629
O O15 0.312660 0.876750 0.069919
O O16 0.000000 0.879096 0.000000
#
# Coordination Sequence:
#
# PCOD9173829 Si02
#       7
#     8   8   8   8   8   8   8
#     4  11  17  31  53  74  99 134 177 216 264 317
#     4  10  19  32  55  86 115 138 163 196 253 334
#     4   9  19  34  50  71 106 141 171 209 258 309
#     4   9  16  28  47  73 102 130 161 203 259 323
#     4  10  18  31  50  76 108 139 162 203 266 320
#     4  10  22  35  52  69  95 140 193 226 251 297
#     4  11  19  33  51  76 106 140 170 214 265 306
#
# _framework density 17.844194000000002
#
# number of rings (size 3 to 8) (size 9 to 14) (size 15 to 20)
#    0.000    2.000    5.714    2.143    0.000    2.286 
#    0.000    4.286    0.000    6.857    0.000    0.000 
#    0.000   10.286    0.000    0.000    0.000    0.000 
#
# Total GULP energy -156159.180974 kJ/mol
# GULP energy per Si atom -5577.113606 kJ/mol
# Density = 1.780358 g / cm^3
# Si number density = 17.844194 Si / 1000 Ang^3
#
#
#
# Elastic Constant Matrix: (Units=GPa)
#
#
# Indices 1 2 3 4 5 6 
#
# 1 124.8119 -4.0295 51.6824 0.0206 2.1182 -0.0044
# 2 -4.0295 34.8828 2.9373 0.0049 -3.1954 0.0043
# 3 51.6824 2.9373 88.0466 -0.0168 24.1160 0.0052
# 4 0.0206 0.0049 -0.0168 6.6450 -0.0123 -1.4474
# 5 2.1182 -3.1954 24.1160 -0.0123 25.5524 -0.0025
# 6 -0.0044 0.0043 0.0052 -1.4474 -0.0025 3.8331
#
#
#
# Elastic Compliance Matrix: (Units=1/GPa)
#
#
# Indices 1 2 3 4 5 6 
#
# 1 0.011793 0.002882 -0.009237 -0.000045 0.008101 0.000011
# 2 0.002882 0.030168 -0.004944 -0.000035 0.008200 -0.000032
# 3 -0.009237 -0.004944 0.022797 0.000043 -0.021368 -0.000034
# 4 -0.000045 -0.000035 0.000043 0.163975 0.000044 0.061918
# 5 0.008101 0.008200 -0.021368 0.000044 0.059656 0.000085
# 6 0.000011 -0.000032 -0.000034 0.061918 0.000085 0.284267
#
#
# Mechanical properties :
#
#
# Convention : Reuss Voigt Hill
#
# Bulk Modulus (GPa) = 23.71934 38.76906 31.24420
# Shear Modulus (GPa) = 8.20604 20.34952 14.27778
#
# Velocity S-wave (km/s) = 2.14679 3.38064 2.83174
# Velocity P-wave (km/s) = 4.41206 6.08374 5.31405
#
# Compressibility (1/GPa) = 0.04215970
#
# Stress axis : x y z
#
# Youngs Moduli (GPa) = 84.79960 33.14789 43.86462
#
# Poissons Ratio (x) = -0.09553 0.40518
# Poissons Ratio (y) = -0.24440 0.21687
# Poissons Ratio (z) = 0.78329 0.16389
#
# Static dielectric constant tensor:
#      x y z
#    x 1.651960 0.000010 0.024170 
#    y 0.000010 1.605380 -0.000040 
#    z 0.024170 -0.000040 1.618060 
# 
# From -- ./inp_files/362218.got.cif
#   From: 2010.05.17/outbox.cif.g08.bks.cpg/sg12_182_cif.got.tgz:362218.got - 2010.06.03 13:09:07.
