data_PCOD9173050
_publ_section_title
;
Structure prediction by ZEFSAII (Michael W. Deem and Ramdas Pophale) SiO2 
 PCOD9173050
Probable space group: C 2/M
;
_chemical_formula_sum "Si O2"
_cell_formula_units_Z 64
_cell_length_a 22.862559
_cell_length_b 20.301613
_cell_length_c 21.596941
_cell_angle_alpha 90.000000
_cell_angle_beta 160.830178
_cell_angle_gamma 90.000000
_cell_volume 3291.622569
_symmetry_space_group_name_H-M "C 2/M"
_symmetry_group_IT_number 12
_symmetry_cell_setting 'monoclinic'
loop_
_space_group_symop_operation_xyz
x,y,z
-x,y,-z
-x,-y,-z
x,-y,z
1/2+x,1/2+y,z
1/2-x,1/2+y,-z
1/2-x,1/2-y,-z
1/2+x,1/2-y,z
loop_
_atom_site_type_symbol
_atom_site_label
_atom_site_fract_x
_atom_site_fract_y
_atom_site_fract_z
Si Si1 0.286157 0.790355 0.973509
Si Si2 0.290008 0.286262 0.857581
Si Si3 0.217326 0.426851 0.454859
Si Si4 0.290252 0.713703 0.722679
Si Si5 0.714694 0.073039 0.833156
Si Si6 0.782928 0.573135 0.020533
Si Si7 0.284732 0.073037 0.403267
Si Si8 0.286152 0.209675 0.598814
O O1 0.220678 0.864829 0.918638
O O2 0.500008 0.793454 0.181701
O O3 0.250000 0.750000 0.000000
O O4 0.215253 0.752703 0.842153
O O5 0.213671 0.270367 0.713658
O O6 0.274367 0.364208 0.854479
O O7 0.499893 0.271009 0.065346
O O8 0.273859 0.500000 0.491447
O O9 0.270052 0.418005 0.579594
O O10 0.279450 0.364793 0.477328
O O11 0.000128 0.426409 0.237266
O O12 0.274892 0.635753 0.694756
O O13 0.215363 0.752624 0.588476
O O14 0.769639 0.081961 0.960003
O O15 0.499717 0.072959 0.617139
O O16 0.773775 0.000000 0.871822
O O17 0.726370 0.500000 0.944030
O O18 0.225562 0.000000 0.323738
O O19 0.250000 0.250000 0.500000
#
# Coordination Sequence:
#
# PCOD9173050 Si02
#       8
#     8   8   8   8   8   8   8   8
#     4  10  18  30  50  70  90 119 154 192 228 270
#     4  10  21  33  44  65  98 130 154 183 231 283
#     4   8  14  26  46  70  91 112 144 189 234 267
#     4  10  21  33  44  65  98 130 154 183 231 283
#     4   9  17  30  48  69  92 120 158 197 227 264
#     4   8  14  26  46  70  91 112 144 189 234 267
#     4   9  17  30  48  69  92 120 158 197 227 264
#     4  10  18  30  50  70  90 119 154 192 228 270
#
# _framework density 19.443300000000001
#
# number of rings (size 3 to 8) (size 9 to 14) (size 15 to 20)
#    0.000    2.750    2.500    1.500    0.000    1.500 
#    0.000    2.500    0.000    1.500    0.000    5.250 
#    0.000    0.000    0.000    4.500    0.000    5.000 
#
# Total GULP energy -178491.734197 kJ/mol
# GULP energy per Si atom -5577.866694 kJ/mol
# Density = 1.939905 g / cm^3
# Si number density = 19.443300 Si / 1000 Ang^3
#
#
#
# Elastic Constant Matrix: (Units=GPa)
#
#
# Indices 1 2 3 4 5 6 
#
# 1 92.2008 65.3407 34.7232 -0.0139 -35.9783 -0.0112
# 2 65.3407 144.6469 22.7736 0.0050 -38.9015 -0.0077
# 3 34.7232 22.7736 47.6596 0.0109 -4.8719 -0.0024
# 4 -0.0139 0.0050 0.0109 13.2115 -0.0075 -1.4367
# 5 -35.9783 -38.9015 -4.8719 -0.0075 37.4285 -0.0028
# 6 -0.0112 -0.0077 -0.0024 -1.4367 -0.0028 14.7854
#
#
#
# Elastic Compliance Matrix: (Units=1/GPa)
#
#
# Indices 1 2 3 4 5 6 
#
# 1 0.028098 -0.004791 -0.016144 0.000059 0.019928 0.000026
# 2 -0.004791 0.011069 -0.001108 -0.000004 0.006755 0.000003
# 3 -0.016144 -0.001108 0.031996 -0.000052 -0.012506 -0.000015
# 4 0.000059 -0.000004 -0.000052 0.076500 0.000061 0.007434
# 5 0.019928 0.006755 -0.012506 0.000061 0.051266 0.000032
# 6 0.000026 0.000003 -0.000015 0.007434 0.000032 0.068357
#
#
# Mechanical properties :
#
#
# Convention : Reuss Voigt Hill
#
# Bulk Modulus (GPa) = 36.93496 58.90916 47.92206
# Shear Modulus (GPa) = 15.60567 23.86306 19.73436
#
# Velocity S-wave (km/s) = 2.83614 3.50711 3.18932
# Velocity P-wave (km/s) = 5.45549 6.83838 6.18570
#
# Compressibility (1/GPa) = 0.02707462
#
# Stress axis : x y z
#
# Youngs Moduli (GPa) = 35.59035 90.34498 31.25436
#
# Poissons Ratio (x) = 0.43286 0.50459
# Poissons Ratio (y) = 0.17052 0.03463
# Poissons Ratio (z) = 0.57459 0.10009
#
# Static dielectric constant tensor:
#      x y z
#    x 1.702020 -0.000020 0.035730 
#    y -0.000020 1.692190 -0.000020 
#    z 0.035730 -0.000020 1.740950 
# 
# From -- ./inp_files/285773.got.cif
#   From: 2010.05.17/outbox.cif.g08.bks.cpg/sg12_143_cif.got.tgz:285773.got - 2010.06.03 13:09:07.
