data_PCOD9173088
_publ_section_title
;
Structure prediction by ZEFSAII (Michael W. Deem and Ramdas Pophale) SiO2 
 PCOD9173088
Probable space group: C 2/M
;
_chemical_formula_sum "Si O2"
_cell_formula_units_Z 48
_cell_length_a 18.670880
_cell_length_b 8.840250
_cell_length_c 16.325706
_cell_angle_alpha 90.000000
_cell_angle_beta 90.193945
_cell_angle_gamma 90.000000
_cell_volume 2694.627997
_symmetry_space_group_name_H-M "C 2/M"
_symmetry_group_IT_number 12
_symmetry_cell_setting 'monoclinic'
loop_
_space_group_symop_operation_xyz
x,y,z
-x,y,-z
-x,-y,-z
x,-y,z
1/2+x,1/2+y,z
1/2-x,1/2+y,-z
1/2-x,1/2-y,-z
1/2+x,1/2-y,z
loop_
_atom_site_type_symbol
_atom_site_label
_atom_site_fract_x
_atom_site_fract_y
_atom_site_fract_z
Si Si1 0.209848 0.818625 0.579949
Si Si2 0.584641 0.819621 0.494738
Si Si3 0.337438 0.681936 0.662984
Si Si4 0.045054 0.675238 0.915030
Si Si5 0.915311 0.181258 0.832263
Si Si6 0.671715 0.319589 0.004630
O O1 0.250000 0.750000 0.500000
O O2 0.129782 0.755184 0.568991
O O3 0.258646 0.755286 0.653439
O O4 0.210742 0.000000 0.577756
O O5 0.500000 0.793914 0.500000
O O6 0.615234 0.746146 0.411651
O O7 0.598254 0.000000 0.493758
O O8 0.331676 0.500000 0.655913
O O9 0.376295 0.721084 0.747857
O O10 0.059187 0.500000 0.898852
O O11 0.992580 0.744265 0.846929
O O12 0.118690 0.761121 0.933427
O O13 0.000000 0.687031 0.000000
O O14 0.865137 0.224143 0.909001
O O15 0.924323 0.000000 0.834804
O O16 0.675738 0.500000 0.001478
O O17 0.750000 0.250000 0.000000
#
# Coordination Sequence:
#
# PCOD9173088 Si02
#       6
#     8   8   8   8   8   8
#     4  10  18  30  50  73  98 129 165 201 240 290
#     4  10  20  34  52  74 100 130 164 202 245 291
#     4  10  19  33  53  75 100 129 164 203 244 291
#     4   9  17  30  50  74  98 128 166 203 241 291
#     4   9  19  34  52  74 100 131 163 201 247 292
#     4  10  19  33  52  74 101 131 166 204 245 292
#
# _framework density 17.813220000000001
#
# number of rings (size 3 to 8) (size 9 to 14) (size 15 to 20)
#    0.000    2.333    0.000    5.500    0.000    5.333 
#    0.000    1.667    0.000    2.000    0.000    0.000 
#    0.000    0.000    0.000    0.000    0.000    0.000 
#
# Total GULP energy -133839.850544 kJ/mol
# GULP energy per Si atom -5576.660439 kJ/mol
# Density = 1.777268 g / cm^3
# Si number density = 17.813220 Si / 1000 Ang^3
#
#
#
# Elastic Constant Matrix: (Units=GPa)
#
#
# Indices 1 2 3 4 5 6 
#
# 1 146.8399 73.6714 58.8086 0.0000 44.6638 0.0000
# 2 73.6714 94.9722 48.1744 0.0000 28.7647 0.0000
# 3 58.8086 48.1744 92.6657 0.0000 43.3773 0.0000
# 4 0.0000 0.0000 0.0000 22.9694 0.0000 8.9744
# 5 44.6638 28.7647 43.3773 0.0000 33.8591 0.0000
# 6 0.0000 0.0000 0.0000 8.9744 0.0000 34.8114
#
#
#
# Elastic Compliance Matrix: (Units=1/GPa)
#
#
# Indices 1 2 3 4 5 6 
#
# 1 0.014422 -0.007577 0.001695 0.000000 -0.014758 0.000000
# 2 -0.007577 0.018889 -0.005441 0.000000 0.000919 0.000000
# 3 0.001695 -0.005441 0.028546 0.000000 -0.034184 0.000000
# 4 0.000000 0.000000 0.000000 0.048413 0.000000 -0.012481
# 5 -0.014758 0.000919 -0.034184 0.000000 0.092015 0.000000
# 6 0.000000 0.000000 0.000000 -0.012481 0.000000 0.031944
#
#
# Mechanical properties :
#
#
# Convention : Reuss Voigt Hill
#
# Bulk Modulus (GPa) = 25.50351 77.30962 51.40656
# Shear Modulus (GPa) = 18.52225 28.58288 23.55257
#
# Velocity S-wave (km/s) = 3.22810 4.01008 3.64015
# Velocity P-wave (km/s) = 5.31436 8.05824 6.82560
#
# Compressibility (1/GPa) = 0.03921030
#
# Stress axis : x y z
#
# Youngs Moduli (GPa) = 69.33950 52.94151 35.03061
#
# Poissons Ratio (x) = 0.40114 -0.05938
# Poissons Ratio (y) = 0.52539 0.19061
# Poissons Ratio (z) = -0.11753 0.28807
#
# Static dielectric constant tensor:
#      x y z
#    x 1.619280 0.000000 0.019040 
#    y 0.000000 1.596780 0.000000 
#    z 0.019040 0.000000 1.618030 
# 
# From -- ./inp_files/273711.got.cif
#   From: 2010.05.17/outbox.cif.g08.bks.cpg/sg12_137_cif.got.tgz:273711.got - 2010.06.03 13:09:07.
