data_PCOD9173204
_publ_section_title
;
Structure prediction by ZEFSAII (Michael W. Deem and Ramdas Pophale) SiO2 
 PCOD9173204
Probable space group: C 2/M
;
_chemical_formula_sum "Si O2"
_cell_formula_units_Z 64
_cell_length_a 20.822221
_cell_length_b 7.508917
_cell_length_c 19.842775
_cell_angle_alpha 90.000000
_cell_angle_beta 88.427021
_cell_angle_gamma 90.000000
_cell_volume 3101.294994
_symmetry_space_group_name_H-M "C 2/M"
_symmetry_group_IT_number 12
_symmetry_cell_setting 'monoclinic'
loop_
_space_group_symop_operation_xyz
x,y,z
-x,y,-z
-x,-y,-z
x,-y,z
1/2+x,1/2+y,z
1/2-x,1/2+y,-z
1/2-x,1/2-y,-z
1/2+x,1/2-y,z
loop_
_atom_site_type_symbol
_atom_site_label
_atom_site_fract_x
_atom_site_fract_y
_atom_site_fract_z
Si Si1 0.141756 0.715937 0.923273
Si Si2 0.620698 0.781790 0.077185
Si Si3 0.266078 0.792757 0.832715
Si Si4 0.452640 0.210354 0.292052
Si Si5 0.303359 0.715830 0.295316
Si Si6 0.988500 0.717829 0.147778
Si Si7 0.806546 0.788820 0.446325
Si Si8 0.546094 0.209825 0.556852
O O1 0.143826 0.500000 0.921848
O O2 0.204749 0.782249 0.883532
O O3 0.077626 0.772796 0.885770
O O4 0.137633 0.773864 0.000975
O O5 0.673351 0.717328 0.129222
O O6 0.550138 0.727383 0.103224
O O7 0.621839 0.000000 0.076397
O O8 0.243457 0.716216 0.761730
O O9 0.281469 0.000000 0.819858
O O10 0.376871 0.231519 0.278855
O O11 0.489522 0.280096 0.225426
O O12 0.463368 0.285147 0.367028
O O13 0.466398 0.000000 0.295298
O O14 0.301139 0.500000 0.294159
O O15 0.289409 0.777955 0.371678
O O16 0.988189 0.500000 0.148786
O O17 0.750000 0.750000 0.500000
O O18 0.878118 0.723275 0.462378
O O19 0.812872 0.000000 0.441370
O O20 0.500000 0.284886 0.500000
O O21 0.531229 0.000000 0.562068
#
# Coordination Sequence:
#
# PCOD9173204 Si02
#       8
#     8   8   8   8   8   8   8   8
#     4  10  18  30  51  72  92 125 165 204 241 286
#     4   9  18  30  45  70 100 126 158 202 248 288
#     4  10  19  32  49  71  98 128 160 198 244 293
#     4   9  16  29  51  75  95 125 164 200 240 286
#     4   9  18  32  50  72  97 129 164 197 239 290
#     4   9  16  28  47  72  95 121 161 203 239 279
#     4  10  20  35  54  77 103 135 171 209 252 301
#     4   9  18  33  52  78 107 132 164 208 254 302
#
# _framework density 20.636541000000001
#
# number of rings (size 3 to 8) (size 9 to 14) (size 15 to 20)
#    0.000    2.625    1.250    1.125    0.000    2.250 
#    2.250    0.000    0.000    3.750    0.000    0.000 
#    0.000    0.000    0.000    0.000    0.000    0.000 
#
# Total GULP energy -178563.360415 kJ/mol
# GULP energy per Si atom -5580.105013 kJ/mol
# Density = 2.058957 g / cm^3
# Si number density = 20.636541 Si / 1000 Ang^3
#
#
#
# Elastic Constant Matrix: (Units=GPa)
#
#
# Indices 1 2 3 4 5 6 
#
# 1 31.0091 -11.8762 8.2983 0.0000 10.7739 0.0000
# 2 -11.8762 55.4095 -2.1211 0.0000 6.9757 0.0000
# 3 8.2983 -2.1211 104.4792 0.0000 13.0053 0.0000
# 4 0.0000 0.0000 0.0000 3.2209 0.0000 -2.4461
# 5 10.7739 6.9757 13.0053 0.0000 35.6603 0.0000
# 6 0.0000 0.0000 0.0000 -2.4461 0.0000 15.6710
#
#
#
# Elastic Compliance Matrix: (Units=1/GPa)
#
#
# Indices 1 2 3 4 5 6 
#
# 1 0.041606 0.010651 -0.001324 0.000000 -0.014171 0.000000
# 2 0.010651 0.021305 0.000530 0.000000 -0.007579 0.000000
# 3 -0.001324 0.000530 0.010109 0.000000 -0.003390 0.000000
# 4 0.000000 0.000000 0.000000 0.352229 0.000000 0.054979
# 5 -0.014171 -0.007579 -0.003390 0.000000 0.035043 0.000000
# 6 0.000000 0.000000 0.000000 0.054979 0.000000 0.072394
#
#
# Mechanical properties :
#
#
# Convention : Reuss Voigt Hill
#
# Bulk Modulus (GPa) = 10.78375 19.94444 15.36410
# Shear Modulus (GPa) = 9.19316 24.01689 16.60502
#
# Velocity S-wave (km/s) = 2.11293 3.41516 2.83970
# Velocity P-wave (km/s) = 3.34507 5.02361 4.26768
#
# Compressibility (1/GPa) = 0.09273214
#
# Stress axis : x y z
#
# Youngs Moduli (GPa) = 24.03523 46.93810 98.91919
#
# Poissons Ratio (x) = -0.49993 0.13101
# Poissons Ratio (y) = -0.25599 -0.05242
# Poissons Ratio (z) = 0.03183 -0.02487
#
# Static dielectric constant tensor:
#      x y z
#    x 1.758260 0.000000 -0.027730 
#    y 0.000000 1.779870 0.000000 
#    z -0.027730 0.000000 1.792390 
# 
# From -- ./inp_files/281330.got.cif
#   From: 2010.05.17/outbox.cif.g08.bks.cpg/sg12_141_cif.got.tgz:281330.got - 2010.06.03 13:09:07.
