data_PCOD9173212
_publ_section_title
;
Structure prediction by ZEFSAII (Michael W. Deem and Ramdas Pophale) SiO2 
 PCOD9173212
Probable space group: C 2/M
;
_chemical_formula_sum "Si O2"
_cell_formula_units_Z 56
_cell_length_a 9.542885
_cell_length_b 25.100949
_cell_length_c 16.342653
_cell_angle_alpha 90.000000
_cell_angle_beta 125.515718
_cell_angle_gamma 90.000000
_cell_volume 3186.349553
_symmetry_space_group_name_H-M "C 2/M"
_symmetry_group_IT_number 12
_symmetry_cell_setting 'monoclinic'
loop_
_space_group_symop_operation_xyz
x,y,z
-x,y,-z
-x,-y,-z
x,-y,z
1/2+x,1/2+y,z
1/2-x,1/2+y,-z
1/2-x,1/2-y,-z
1/2+x,1/2-y,z
loop_
_atom_site_type_symbol
_atom_site_label
_atom_site_fract_x
_atom_site_fract_y
_atom_site_fract_z
Si Si1 0.443293 0.157795 0.736128
Si Si2 0.306009 0.744143 0.426415
Si Si3 0.770718 0.821896 0.743584
Si Si4 0.388288 0.216430 0.880139
Si Si5 0.814856 0.438825 0.762339
Si Si6 0.355527 0.940227 0.022082
Si Si7 0.628838 0.626794 0.840909
O O1 0.326628 0.203975 0.659251
O O2 0.615126 0.152802 0.741920
O O3 0.477064 0.179111 0.840728
O O4 0.323471 0.105463 0.695822
O O5 0.500000 0.724082 0.500000
O O6 0.250000 0.750000 0.500000
O O7 0.296821 0.796015 0.364413
O O8 0.840754 0.772475 0.822846
O O9 0.927866 0.861897 0.780088
O O10 0.218963 0.182785 0.847854
O O11 0.500000 0.222366 0.000000
O O12 0.771139 0.500000 0.730753
O O13 0.692754 0.414964 0.792727
O O14 0.018076 0.437266 0.858074
O O15 0.281322 0.000000 0.992304
O O16 0.500000 0.935214 0.000000
O O17 0.213397 0.896573 0.952821
#
# Coordination Sequence:
#
# PCOD9173212 Si02
#       7
#     8   8   8   8   8   8   8
#     4  10  21  36  54  83 112 141 185 226 277 331
#     4  11  22  39  63  85 111 143 182 229 279 333
#     4  11  23  34  49  84 115 142 181 228 278 336
#     4  10  20  33  49  71 112 158 187 214 260 330
#     4   9  18  34  56  77 105 145 192 234 270 320
#     4   8  14  28  50  74  97 136 191 233 261 305
#     4  10  18  30  51  73 105 143 189 227 268 319
#
# _framework density 17.574971000000001
#
# number of rings (size 3 to 8) (size 9 to 14) (size 15 to 20)
#    0.000    2.143    1.429    5.143    4.000    3.429 
#    0.000    1.429    0.000    2.143    0.000    1.000 
#    0.000    0.000    0.000    0.000    0.000    0.000 
#
# Total GULP energy -155942.650144 kJ/mol
# GULP energy per Si atom -5569.380362 kJ/mol
# Density = 1.753497 g / cm^3
# Si number density = 17.574971 Si / 1000 Ang^3
#
#
#
# Elastic Constant Matrix: (Units=GPa)
#
#
# Indices 1 2 3 4 5 6 
#
# 1 106.1347 15.8092 22.3596 0.0000 8.0649 0.0000
# 2 15.8092 62.5809 4.3823 0.0000 1.9274 0.0000
# 3 22.3596 4.3823 61.7330 0.0000 -8.9024 0.0000
# 4 0.0000 0.0000 0.0000 2.5849 0.0000 1.6077
# 5 8.0649 1.9274 -8.9024 0.0000 20.7731 0.0000
# 6 0.0000 0.0000 0.0000 1.6077 0.0000 7.7016
#
#
#
# Elastic Compliance Matrix: (Units=1/GPa)
#
#
# Indices 1 2 3 4 5 6 
#
# 1 0.011252 -0.002314 -0.004807 0.000000 -0.006214 0.000000
# 2 -0.002314 0.016622 -0.000463 0.000000 -0.000842 0.000000
# 3 -0.004807 -0.000463 0.019450 0.000000 0.010245 0.000000
# 4 0.000000 0.000000 0.000000 0.444590 0.000000 -0.092808
# 5 -0.006214 -0.000842 0.010245 0.000000 0.055020 0.000000
# 6 0.000000 0.000000 0.000000 -0.092808 0.000000 0.149217
#
#
# Mechanical properties :
#
#
# Convention : Reuss Voigt Hill
#
# Bulk Modulus (GPa) = 31.09952 35.06119 33.08036
# Shear Modulus (GPa) = 6.92484 18.73843 12.83163
#
# Velocity S-wave (km/s) = 1.98714 3.26881 2.70498
# Velocity P-wave (km/s) = 4.79570 5.85147 5.34969
#
# Compressibility (1/GPa) = 0.03215483
#
# Stress axis : x y z
#
# Youngs Moduli (GPa) = 88.87628 60.15999 51.41343
#
# Poissons Ratio (x) = 0.13923 0.24715
# Poissons Ratio (y) = 0.20569 0.02381
# Poissons Ratio (z) = 0.42723 0.02786
#
# Static dielectric constant tensor:
#      x y z
#    x 1.579790 0.000000 -0.026390 
#    y 0.000000 1.637380 0.000000 
#    z -0.026390 0.000000 1.649930 
# 
# From -- ./inp_files/185142.got.cif
#   From: 2010.05.17/outbox.cif.g08.bks.cpg/sg12_93_cif.got.tgz:185142.got - 2010.06.03 13:09:07.
