data_PCOD9173612
_publ_section_title
;
Structure prediction by ZEFSAII (Michael W. Deem and Ramdas Pophale) SiO2 
 PCOD9173612
Probable space group: C 2/M
;
_chemical_formula_sum "Si O2"
_cell_formula_units_Z 64
_cell_length_a 9.007946
_cell_length_b 22.106428
_cell_length_c 17.728379
_cell_angle_alpha 90.000000
_cell_angle_beta 97.844354
_cell_angle_gamma 90.000000
_cell_volume 3497.279355
_symmetry_space_group_name_H-M "C 2/M"
_symmetry_group_IT_number 12
_symmetry_cell_setting 'monoclinic'
loop_
_space_group_symop_operation_xyz
x,y,z
-x,y,-z
-x,-y,-z
x,-y,z
1/2+x,1/2+y,z
1/2-x,1/2+y,-z
1/2-x,1/2-y,-z
1/2+x,1/2-y,z
loop_
_atom_site_type_symbol
_atom_site_label
_atom_site_fract_x
_atom_site_fract_y
_atom_site_fract_z
Si Si1 0.616610 0.787994 0.072980
Si Si2 0.936179 0.430324 0.580465
Si Si3 0.216256 0.157063 0.645464
Si Si4 0.637792 0.767950 0.556641
Si Si5 0.992670 0.140200 0.238993
Si Si6 0.186290 0.636374 0.686911
Si Si7 0.952230 0.162255 0.072432
Si Si8 0.528588 0.786451 0.235280
O O1 0.786821 0.805844 0.063563
O O2 0.576535 0.716523 0.078328
O O3 0.581916 0.807917 0.156401
O O4 0.500000 0.809840 0.000000
O O5 0.892411 0.500000 0.587314
O O6 0.797339 0.386704 0.591793
O O7 0.000000 0.424119 0.500000
O O8 0.067470 0.412444 0.648824
O O9 0.106037 0.205762 0.599294
O O10 0.347631 0.196423 0.693865
O O11 0.131525 0.124252 0.707766
O O12 0.500000 0.792554 0.500000
O O13 0.750000 0.750000 0.500000
O O14 0.698237 0.816954 0.618332
O O15 0.151289 0.115242 0.277432
O O16 0.999364 0.214569 0.236677
O O17 0.961731 0.124945 0.150071
O O18 0.117195 0.676273 0.750033
O O19 0.000000 0.127368 0.000000
#
# Coordination Sequence:
#
# PCOD9173612 Si02
#       8
#     8   8   8   8   8   8   8   8
#     4  10  19  28  43  65 102 154 197 222 246 313
#     4  10  23  44  62  75 102 146 191 231 275 327
#     4  11  20  35  53  80 109 141 179 222 279 327
#     4  12  21  31  48  77 110 135 171 216 271 334
#     4  11  19  31  50  79 114 143 180 222 274 325
#     4  11  21  33  54  80 110 148 178 223 274 333
#     4  10  20  29  43  67 107 155 192 218 254 318
#     4  10  18  31  47  73 112 151 182 212 268 326
#
# _framework density 18.299938999999998
#
# number of rings (size 3 to 8) (size 9 to 14) (size 15 to 20)
#    0.000    1.375    3.750    4.875    7.000    0.000 
#    0.000    0.625    0.000    1.875    0.000    0.000 
#    0.000   19.000    0.000    0.000    0.000    0.000 
#
# Total GULP energy -178440.559443 kJ/mol
# GULP energy per Si atom -5576.267483 kJ/mol
# Density = 1.825829 g / cm^3
# Si number density = 18.299939 Si / 1000 Ang^3
#
#
#
# Elastic Constant Matrix: (Units=GPa)
#
#
# Indices 1 2 3 4 5 6 
#
# 1 63.7256 -6.0943 17.6153 0.0000 -7.5227 0.0000
# 2 -6.0943 32.3359 8.8564 0.0000 3.7251 0.0000
# 3 17.6153 8.8564 107.9364 0.0000 -20.1356 0.0000
# 4 0.0000 0.0000 0.0000 10.0041 0.0000 -1.2171
# 5 -7.5227 3.7251 -20.1356 0.0000 37.3441 0.0000
# 6 0.0000 0.0000 0.0000 -1.2171 0.0000 8.3915
#
#
#
# Elastic Compliance Matrix: (Units=1/GPa)
#
#
# Indices 1 2 3 4 5 6 
#
# 1 0.017011 0.003796 -0.002801 0.000000 0.001538 0.000000
# 2 0.003796 0.033369 -0.004265 0.000000 -0.004863 0.000000
# 3 -0.002801 -0.004265 0.011169 0.000000 0.005884 0.000000
# 4 0.000000 0.000000 0.000000 0.101755 0.000000 0.014758
# 5 0.001538 -0.004863 0.005884 0.000000 0.030745 0.000000
# 6 0.000000 0.000000 0.000000 0.014758 0.000000 0.121308
#
#
# Mechanical properties :
#
#
# Convention : Reuss Voigt Hill
#
# Bulk Modulus (GPa) = 18.17838 27.19472 22.68655
# Shear Modulus (GPa) = 14.69578 23.38931 19.04254
#
# Velocity S-wave (km/s) = 2.83689 3.57894 3.22930
# Velocity P-wave (km/s) = 4.54816 5.65431 5.13113
#
# Compressibility (1/GPa) = 0.05501040
#
# Stress axis : x y z
#
# Youngs Moduli (GPa) = 58.78528 29.96779 89.53092
#
# Poissons Ratio (x) = -0.11376 0.25076
# Poissons Ratio (y) = -0.22315 0.38183
# Poissons Ratio (z) = 0.16464 0.12781
#
# Static dielectric constant tensor:
#      x y z
#    x 1.661230 0.000000 0.003130 
#    y 0.000000 1.616020 0.000000 
#    z 0.003130 0.000000 1.720820 
# 
# From -- ./inp_files/258938.got.cif
#   From: 2010.05.17/outbox.cif.g08.bks.cpg/sg12_130_cif.got.tgz:258938.got - 2010.06.03 13:09:07.
