data_PCOD9173759
_publ_section_title
;
Structure prediction by ZEFSAII (Michael W. Deem and Ramdas Pophale) SiO2 
 PCOD9173759
Probable space group: C 2/M
;
_chemical_formula_sum "Si O2"
_cell_formula_units_Z 48
_cell_length_a 15.886894
_cell_length_b 12.207218
_cell_length_c 15.915858
_cell_angle_alpha 90.000000
_cell_angle_beta 133.238119
_cell_angle_gamma 90.000000
_cell_volume 2248.656306
_symmetry_space_group_name_H-M "C 2/M"
_symmetry_group_IT_number 12
_symmetry_cell_setting 'monoclinic'
loop_
_space_group_symop_operation_xyz
x,y,z
-x,y,-z
-x,-y,-z
x,-y,z
1/2+x,1/2+y,z
1/2-x,1/2+y,-z
1/2-x,1/2-y,-z
1/2+x,1/2-y,z
loop_
_atom_site_type_symbol
_atom_site_label
_atom_site_fract_x
_atom_site_fract_y
_atom_site_fract_z
Si Si1 0.441948 0.000000 0.097954
Si Si2 0.100905 0.132246 0.251771
Si Si3 0.614140 0.766841 0.917136
Si Si4 0.413814 0.129268 0.322705
Si Si5 0.341628 0.129103 0.471159
Si Si6 0.179580 0.500000 0.156924
Si Si7 0.304460 0.242714 0.845536
O O1 0.560752 0.000000 0.127986
O O2 0.429419 0.112693 0.138488
O O3 0.342827 0.000000 0.958662
O O4 0.208646 0.167116 0.385729
O O5 0.136854 0.186932 0.187638
O O6 0.101109 0.000000 0.246728
O O7 0.972707 0.177601 0.180175
O O8 0.609614 0.765478 0.016710
O O9 0.750000 0.750000 0.000000
O O10 0.377108 0.137641 0.396757
O O11 0.544887 0.172694 0.403826
O O12 0.313696 0.196820 0.209856
O O13 0.408569 0.000000 0.300289
O O14 0.339044 0.000000 0.490136
O O15 0.229872 0.620281 0.208710
#
# Coordination Sequence:
#
# PCOD9173759 Si02
#       7
#     4   8   8   8   8   4   8
#     4   9  18  36  48  61  87 133 168 184 222 288
#     4  10  19  31  51  76  98 121 156 201 244 278
#     4  11  23  34  47  68  99 129 159 195 238 283
#     4   8  13  24  45  72  98 118 145 192 246 282
#     4   7  12  24  43  69  97 122 146 184 238 291
#     4   9  16  30  52  64  85 128 173 188 210 279
#     4  10  18  31  50  71  95 125 161 195 232 281
#
# _framework density 21.346081999999999
#
# number of rings (size 3 to 8) (size 9 to 14) (size 15 to 20)
#    0.000    2.833    1.667    3.000    1.167    2.000 
#    0.000    0.000    0.000   10.000    0.000    0.000 
#    0.000    0.000    0.000    0.000    0.000    0.000 
#
# Total GULP energy -133692.803105 kJ/mol
# GULP energy per Si atom -5570.533463 kJ/mol
# Density = 2.129750 g / cm^3
# Si number density = 21.346082 Si / 1000 Ang^3
#
#
#
# Elastic Constant Matrix: (Units=GPa)
#
#
# Indices 1 2 3 4 5 6 
#
# 1 44.1308 18.8988 18.5351 0.0000 17.4301 0.0000
# 2 18.8988 125.1373 54.2198 0.0000 15.4265 0.0000
# 3 18.5351 54.2198 143.8962 0.0000 34.0183 0.0000
# 4 0.0000 0.0000 0.0000 27.8163 0.0000 7.0520
# 5 17.4301 15.4265 34.0183 0.0000 35.0755 0.0000
# 6 0.0000 0.0000 0.0000 7.0520 0.0000 19.8874
#
#
#
# Elastic Compliance Matrix: (Units=1/GPa)
#
#
# Indices 1 2 3 4 5 6 
#
# 1 0.029105 -0.002969 0.000623 0.000000 -0.013762 0.000000
# 2 -0.002969 0.009876 -0.003452 0.000000 0.000480 0.000000
# 3 0.000623 -0.003452 0.010230 0.000000 -0.008713 0.000000
# 4 0.000000 0.000000 0.000000 0.039501 0.000000 -0.014007
# 5 -0.013762 0.000480 -0.008713 0.000000 0.043588 0.000000
# 6 0.000000 0.000000 0.000000 -0.014007 0.000000 0.055250
#
#
# Mechanical properties :
#
#
# Convention : Reuss Voigt Hill
#
# Bulk Modulus (GPa) = 26.58542 55.16351 40.87447
# Shear Modulus (GPa) = 23.62003 31.32323 27.47163
#
# Velocity S-wave (km/s) = 3.33006 3.83482 3.59132
# Velocity P-wave (km/s) = 5.22180 6.74584 6.03215
#
# Compressibility (1/GPa) = 0.03761460
#
# Stress axis : x y z
#
# Youngs Moduli (GPa) = 34.35818 101.25230 97.75332
#
# Poissons Ratio (x) = 0.30063 -0.06092
# Poissons Ratio (y) = 0.10201 0.33749
# Poissons Ratio (z) = -0.02141 0.34957
#
# Static dielectric constant tensor:
#      x y z
#    x 1.869700 0.000000 -0.013930 
#    y 0.000000 1.762310 0.000000 
#    z -0.013930 0.000000 1.814680 
# 
# From -- ./inp_files/365753.got.cif
#   From: 2010.05.17/outbox.cif.g08.bks.cpg/sg12_183_cif.got.tgz:365753.got - 2010.06.03 13:09:07.
