data_PCOD9173746
_publ_section_title
;
Structure prediction by ZEFSAII (Michael W. Deem and Ramdas Pophale) SiO2 
 PCOD9173746
Probable space group: C 2/M
;
_chemical_formula_sum "Si O2"
_cell_formula_units_Z 48
_cell_length_a 27.766752
_cell_length_b 8.619676
_cell_length_c 12.320270
_cell_angle_alpha 90.000000
_cell_angle_beta 105.652308
_cell_angle_gamma 90.000000
_cell_volume 2839.389340
_symmetry_space_group_name_H-M "C 2/M"
_symmetry_group_IT_number 12
_symmetry_cell_setting 'monoclinic'
loop_
_space_group_symop_operation_xyz
x,y,z
-x,y,-z
-x,-y,-z
x,-y,z
1/2+x,1/2+y,z
1/2-x,1/2+y,-z
1/2-x,1/2-y,-z
1/2+x,1/2-y,z
loop_
_atom_site_type_symbol
_atom_site_label
_atom_site_fract_x
_atom_site_fract_y
_atom_site_fract_z
Si Si1 0.820355 0.816020 0.763478
Si Si2 0.864313 0.683887 0.585688
Si Si3 0.133244 0.819728 0.760117
Si Si4 0.716701 0.320491 0.623481
Si Si5 0.557979 0.688333 0.536592
Si Si6 0.195017 0.188848 0.998061
O O1 0.859825 0.736141 0.707401
O O2 0.765763 0.773400 0.683727
O O3 0.827781 0.000000 0.763762
O O4 0.819770 0.765825 0.888787
O O5 0.864032 0.500000 0.577184
O O6 0.815515 0.751200 0.494014
O O7 0.911424 0.750793 0.548373
O O8 0.179577 0.816932 0.704225
O O9 0.086985 0.754033 0.662667
O O10 0.154521 0.753524 0.885046
O O11 0.120759 0.000000 0.774553
O O12 0.729635 0.500000 0.608854
O O13 0.500000 0.731781 0.500000
O O14 0.561634 0.500000 0.537676
O O15 0.196995 0.000000 0.994410
O O16 0.250000 0.250000 0.000000
#
# Coordination Sequence:
#
# PCOD9173746 Si02
#       6
#     8   8   8   8   8   8
#     4  11  21  31  46  70 102 138 174 207 245 296
#     4  11  22  34  49  71 101 132 168 209 253 304
#     4   8  15  29  49  74 101 129 162 203 248 293
#     4  10  18  31  50  70 100 135 169 208 250 299
#     4   9  18  35  59  81 100 124 159 208 264 313
#     4  10  19  31  48  71 102 138 174 207 239 291
#
# _framework density 16.905042000000002
#
# number of rings (size 3 to 8) (size 9 to 14) (size 15 to 20)
#    0.000    2.167    1.667    4.000    0.000    1.000 
#    0.000    0.000    0.000    1.000    0.000    7.000 
#    0.000    0.000    0.000    0.000    0.000    0.000 
#
# Total GULP energy -133845.856198 kJ/mol
# GULP energy per Si atom -5576.910675 kJ/mol
# Density = 1.686657 g / cm^3
# Si number density = 16.905042 Si / 1000 Ang^3
#
#
#
# Elastic Constant Matrix: (Units=GPa)
#
#
# Indices 1 2 3 4 5 6 
#
# 1 81.1422 5.1508 73.5113 0.0000 4.8280 0.0000
# 2 5.1508 19.5688 23.5518 0.0000 -6.7218 0.0000
# 3 73.5113 23.5518 140.1070 0.0000 -17.4844 0.0000
# 4 0.0000 0.0000 0.0000 9.6344 0.0000 -1.9519
# 5 4.8280 -6.7218 -17.4844 0.0000 18.8095 0.0000
# 6 0.0000 0.0000 0.0000 -1.9519 0.0000 21.2203
#
#
#
# Elastic Compliance Matrix: (Units=1/GPa)
#
#
# Indices 1 2 3 4 5 6 
#
# 1 0.033686 0.009184 -0.022498 0.000000 -0.026277 0.000000
# 2 0.009184 0.070304 -0.015606 0.000000 0.008260 0.000000
# 3 -0.022498 -0.015606 0.024422 0.000000 0.022900 0.000000
# 4 0.000000 0.000000 0.000000 0.105766 0.000000 0.009729
# 5 -0.026277 0.008260 0.022900 0.000000 0.084148 0.000000
# 6 0.000000 0.000000 0.000000 0.009729 0.000000 0.048020
#
#
# Mechanical properties :
#
#
# Convention : Reuss Voigt Hill
#
# Bulk Modulus (GPa) = 14.16956 49.47172 31.82064
# Shear Modulus (GPa) = 11.16794 19.17310 15.17052
#
# Velocity S-wave (km/s) = 2.57306 3.37139 2.99891
# Velocity P-wave (km/s) = 4.15061 6.66956 5.55475
#
# Compressibility (1/GPa) = 0.07057384
#
# Stress axis : x y z
#
# Youngs Moduli (GPa) = 29.68555 14.22396 40.94596
#
# Poissons Ratio (x) = -0.13063 0.92119
# Poissons Ratio (y) = -0.27263 0.63899
# Poissons Ratio (z) = 0.66785 0.22197
#
# Static dielectric constant tensor:
#      x y z
#    x 1.552000 0.000000 -0.007820 
#    y 0.000000 1.577430 0.000000 
#    z -0.007820 0.000000 1.605490 
# 
# From -- ./inp_files/172334.got.cif
#   From: 2010.05.17/outbox.cif.g08.bks.cpg/sg12_87_cif.got.tgz:172334.got - 2010.06.03 13:09:07.
