data_PCOD9173900
_publ_section_title
;
Structure prediction by ZEFSAII (Michael W. Deem and Ramdas Pophale) SiO2 
 PCOD9173900
Probable space group: C 2/M
;
_chemical_formula_sum "Si O2"
_cell_formula_units_Z 60
_cell_length_a 8.710715
_cell_length_b 19.438400
_cell_length_c 21.444397
_cell_angle_alpha 90.000000
_cell_angle_beta 69.233530
_cell_angle_gamma 90.000000
_cell_volume 3395.120939
_symmetry_space_group_name_H-M "C 2/M"
_symmetry_group_IT_number 12
_symmetry_cell_setting 'monoclinic'
loop_
_space_group_symop_operation_xyz
x,y,z
-x,y,-z
-x,-y,-z
x,-y,z
1/2+x,1/2+y,z
1/2-x,1/2+y,-z
1/2-x,1/2-y,-z
1/2+x,1/2-y,z
loop_
_atom_site_type_symbol
_atom_site_label
_atom_site_fract_x
_atom_site_fract_y
_atom_site_fract_z
Si Si1 0.181516 0.166788 0.635585
Si Si2 0.000000 0.293033 0.000000
Si Si3 0.191916 0.422700 0.637718
Si Si4 0.689397 0.300843 0.817719
Si Si5 0.691692 0.923468 0.275097
Si Si6 0.307443 0.079814 0.509608
Si Si7 0.835088 0.213843 0.907552
Si Si8 0.179969 0.213555 0.314894
O O1 0.208300 0.105420 0.680595
O O2 0.204684 0.133776 0.564791
O O3 0.309438 0.226778 0.634383
O O4 0.008889 0.202245 0.673327
O O5 0.832837 0.327947 0.051422
O O6 0.082036 0.247236 0.042865
O O7 0.255667 0.500000 0.644111
O O8 0.218295 0.410918 0.560291
O O9 0.258596 0.359352 0.668087
O O10 0.996945 0.424125 0.676840
O O11 0.995720 0.182128 0.851600
O O12 0.782948 0.368772 0.782845
O O13 0.765751 0.271612 0.870360
O O14 0.722616 0.243744 0.758901
O O15 0.741966 0.000000 0.250473
O O16 0.500000 0.088647 0.500000
O O17 0.266035 0.000000 0.530832
#
# Coordination Sequence:
#
# PCOD9173900 Si02
#       8
#     8   4   8   8   8   8   8   8
#     4  11  22  36  54  73 102 133 173 226 276 323
#     4   8  16  28  48  82 108 132 172 206 246 292
#     4  10  21  37  55  73 101 135 174 224 275 324
#     4  10  18  31  51  74 108 140 167 208 258 307
#     4  10  19  34  54  76 101 138 179 218 263 319
#     4  10  20  37  58  74  92 131 180 224 276 331
#     4   9  16  29  50  78 109 137 165 206 252 293
#     4  11  23  37  51  79 107 137 172 215 270 326
#
# _framework density 17.672418
#
# number of rings (size 3 to 8) (size 9 to 14) (size 15 to 20)
#    0.000    2.000    1.333    4.400    0.000    2.133 
#    0.000    1.333    0.000    0.000    0.000   17.733 
#    0.000    0.000    0.000    0.000    0.000    0.000 
#
# Total GULP energy -167107.531349 kJ/mol
# GULP energy per Si atom -5570.251045 kJ/mol
# Density = 1.763219 g / cm^3
# Si number density = 17.672418 Si / 1000 Ang^3
#
#
#
# Elastic Constant Matrix: (Units=GPa)
#
#
# Indices 1 2 3 4 5 6 
#
# 1 53.9804 8.3817 18.7912 0.0000 2.7140 0.0000
# 2 8.3817 78.9621 41.3275 0.0000 15.4275 0.0000
# 3 18.7912 41.3275 73.0275 0.0000 -1.0163 0.0000
# 4 0.0000 0.0000 0.0000 -0.6840 0.0000 -2.6697
# 5 2.7140 15.4275 -1.0163 0.0000 27.3588 0.0000
# 6 0.0000 0.0000 0.0000 -2.6697 0.0000 17.8509
#
#
#
# Elastic Compliance Matrix: (Units=1/GPa)
#
#
# Indices 1 2 3 4 5 6 
#
# 1 0.020629 0.001783 -0.006363 0.000000 -0.003288 0.000000
# 2 0.001783 0.021795 -0.012973 0.000000 -0.012949 0.000000
# 3 -0.006363 -0.012973 0.022795 0.000000 0.008793 0.000000
# 4 0.000000 0.000000 0.000000 -0.923137 0.000000 -0.138060
# 5 -0.003288 -0.012949 0.008793 0.000000 0.044506 0.000000
# 6 0.000000 0.000000 0.000000 -0.138060 0.000000 0.035372
#
#
# Mechanical properties :
#
#
# Convention : Reuss Voigt Hill
#
# Bulk Modulus (GPa) = 33.20895 38.10788 35.65841
# Shear Modulus (GPa) = -6.82224 18.06978 5.62377
#
# Velocity S-wave (km/s) = -1.96692 3.20110 1.78582
# Velocity P-wave (km/s) = 3.69781 5.93911 4.94706
#
# Compressibility (1/GPa) = 0.03011237
#
# Stress axis : x y z
#
# Youngs Moduli (GPa) = 48.47615 45.88242 43.86968
#
# Poissons Ratio (x) = -0.08180 0.27914
# Poissons Ratio (y) = -0.08643 0.56912
# Poissons Ratio (z) = 0.30845 0.59524
#
# Static dielectric constant tensor:
#      x y z
#    x 1.639370 0.000000 -0.027870 
#    y 0.000000 1.581380 0.000000 
#    z -0.027870 0.000000 1.648440 
# 
# From -- ./inp_files/258055.got.cif
#   From: 2010.05.17/outbox.cif.g08.bks.cpg/sg12_130_cif.got.tgz:258055.got - 2010.06.03 13:09:07.
