data_PCOD9173938
_publ_section_title
;
Structure prediction by ZEFSAII (Michael W. Deem and Ramdas Pophale) SiO2 
 PCOD9173938
Probable space group: C 2/M
;
_chemical_formula_sum "Si O2"
_cell_formula_units_Z 64
_cell_length_a 21.795123
_cell_length_b 20.582974
_cell_length_c 12.176761
_cell_angle_alpha 90.000000
_cell_angle_beta 47.256107
_cell_angle_gamma 90.000000
_cell_volume 4011.703787
_symmetry_space_group_name_H-M "C 2/M"
_symmetry_group_IT_number 12
_symmetry_cell_setting 'monoclinic'
loop_
_space_group_symop_operation_xyz
x,y,z
-x,y,-z
-x,-y,-z
x,-y,z
1/2+x,1/2+y,z
1/2-x,1/2+y,-z
1/2-x,1/2-y,-z
1/2+x,1/2-y,z
loop_
_atom_site_type_symbol
_atom_site_label
_atom_site_fract_x
_atom_site_fract_y
_atom_site_fract_z
Si Si1 0.657268 0.726427 0.866593
Si Si2 0.043421 0.573181 0.066155
Si Si3 0.244849 0.677706 0.061905
Si Si4 0.659321 0.282610 0.622820
Si Si5 0.921688 0.275846 0.661262
Si Si6 0.487364 0.211111 0.819381
Si Si7 0.681393 0.322739 0.358212
Si Si8 0.261001 0.074551 0.126663
O O1 0.685086 0.678625 0.930181
O O2 0.652399 0.690906 0.755199
O O3 0.732297 0.780131 0.761914
O O4 0.573445 0.762410 0.010038
O O5 0.021675 0.500000 0.130277
O O6 0.016618 0.633209 0.173845
O O7 0.144166 0.577045 0.942262
O O8 0.000000 0.582188 0.000000
O O9 0.155777 0.675808 0.230592
O O10 0.250000 0.750000 0.000000
O O11 0.247330 0.622680 0.967311
O O12 0.750000 0.250000 0.500000
O O13 0.582671 0.232348 0.713872
O O14 0.653206 0.323795 0.518837
O O15 0.951252 0.261508 0.748902
O O16 0.885808 0.214871 0.636002
O O17 0.000000 0.302919 0.500000
O O18 0.700979 0.393604 0.289439
O O19 0.242336 0.000000 0.122703
#
# Coordination Sequence:
#
# PCOD9173938 Si02
#       8
#     8   8   8   8   8   8   8   8
#     4  10  18  31  51  77 101 135 173 221 265 304
#     4  10  20  31  46  73 105 140 177 211 252 310
#     4  11  17  33  55  75 105 135 179 225 261 308
#     4  10  22  30  46  77 106 134 168 220 267 308
#     4  11  19  30  50  81 102 141 170 213 272 312
#     4  12  18  31  53  75 107 136 177 221 260 311
#     4  10  18  34  48  76 111 130 170 217 269 315
#     4  11  20  33  55  80 105 138 181 221 265 316
#
# _framework density 15.953321000000001
#
# number of rings (size 3 to 8) (size 9 to 14) (size 15 to 20)
#    0.000    1.375    7.500    1.125    1.750    0.000 
#    0.000    0.000    0.000    2.625    0.000    0.000 
#    0.000    3.250    0.000    0.125    0.000    0.000 
#
# Total GULP energy -178186.692320 kJ/mol
# GULP energy per Si atom -5568.334135 kJ/mol
# Density = 1.591701 g / cm^3
# Si number density = 15.953321 Si / 1000 Ang^3
#
#
#
# Elastic Constant Matrix: (Units=GPa)
#
#
# Indices 1 2 3 4 5 6 
#
# 1 95.0936 40.0430 35.9493 0.0000 16.4516 0.0000
# 2 40.0430 87.8466 41.7695 0.0000 12.0953 0.0000
# 3 35.9493 41.7695 106.8949 0.0000 9.4800 0.0000
# 4 0.0000 0.0000 0.0000 14.7473 0.0000 -2.3079
# 5 16.4516 12.0953 9.4800 0.0000 37.4659 0.0000
# 6 0.0000 0.0000 0.0000 -2.3079 0.0000 14.8195
#
#
#
# Elastic Compliance Matrix: (Units=1/GPa)
#
#
# Indices 1 2 3 4 5 6 
#
# 1 0.014159 -0.004670 -0.002577 0.000000 -0.004057 0.000000
# 2 -0.004670 0.015908 -0.004472 0.000000 -0.001953 0.000000
# 3 -0.002577 -0.004472 0.012010 0.000000 -0.000464 0.000000
# 4 0.000000 0.000000 0.000000 0.069503 0.000000 0.010824
# 5 -0.004057 -0.001953 -0.000464 0.000000 0.029220 0.000000
# 6 0.000000 0.000000 0.000000 0.010824 0.000000 0.069164
#
#
# Mechanical properties :
#
#
# Convention : Reuss Voigt Hill
#
# Bulk Modulus (GPa) = 53.65312 58.37321 56.01316
# Shear Modulus (GPa) = 20.86681 24.87810 22.87245
#
# Velocity S-wave (km/s) = 3.62054 3.95325 3.79055
# Velocity P-wave (km/s) = 7.15416 7.58334 7.37187
#
# Compressibility (1/GPa) = 0.01863825
#
# Stress axis : x y z
#
# Youngs Moduli (GPa) = 70.62852 62.86318 83.26211
#
# Poissons Ratio (x) = 0.29357 0.21456
# Poissons Ratio (y) = 0.32983 0.37236
# Poissons Ratio (z) = 0.18201 0.28114
#
# Static dielectric constant tensor:
#      x y z
#    x 1.596920 0.000000 0.013900 
#    y 0.000000 1.520950 0.000000 
#    z 0.013900 0.000000 1.561410 
# 
# From -- ./inp_files/169432.got.cif
#   From: 2010.05.17/outbox.cif.g08.bks.cpg/sg12_85_cif.got.tgz:169432.got - 2010.06.03 13:09:07.
