data_PCOD9173507
_publ_section_title
;
Structure prediction by ZEFSAII (Michael W. Deem and Ramdas Pophale) SiO2 
 PCOD9173507
Probable space group: C 2/M
;
_chemical_formula_sum "Si O2"
_cell_formula_units_Z 44
_cell_length_a 14.205337
_cell_length_b 15.790580
_cell_length_c 17.700115
_cell_angle_alpha 90.000000
_cell_angle_beta 146.431828
_cell_angle_gamma 90.000000
_cell_volume 2195.305178
_symmetry_space_group_name_H-M "C 2/M"
_symmetry_group_IT_number 12
_symmetry_cell_setting 'monoclinic'
loop_
_space_group_symop_operation_xyz
x,y,z
-x,y,-z
-x,-y,-z
x,-y,z
1/2+x,1/2+y,z
1/2-x,1/2+y,-z
1/2-x,1/2-y,-z
1/2+x,1/2-y,z
loop_
_atom_site_type_symbol
_atom_site_label
_atom_site_fract_x
_atom_site_fract_y
_atom_site_fract_z
Si Si1 0.369361 0.233300 0.355892
Si Si2 0.480681 0.311520 0.816169
Si Si3 0.160243 0.500000 0.796079
Si Si4 0.163930 0.000000 0.252143
Si Si5 0.723075 0.000000 0.508556
Si Si6 0.183564 0.165438 0.084127
Si Si7 0.399195 0.678879 0.596293
O O1 0.500000 0.185191 0.500000
O O2 0.192619 0.241088 0.282263
O O3 0.305781 0.192923 0.234611
O O4 0.486615 0.308663 0.401971
O O5 0.436780 0.411038 0.805013
O O6 0.509834 0.307173 0.746598
O O7 0.623787 0.282611 0.971047
O O8 0.249153 0.500000 0.771986
O O9 0.225859 0.581393 0.883444
O O10 0.961657 0.500000 0.650717
O O11 0.288165 0.000000 0.407675
O O12 0.819296 0.914192 0.549129
O O13 0.000000 0.148487 0.000000
O O14 0.250000 0.750000 0.500000
#
# Coordination Sequence:
#
# PCOD9173507 Si02
#       7
#     8   8   4   4   4   8   8
#     4  11  21  35  56  81 111 154 194 238 280 338
#     4  10  21  36  56  86 120 151 189 236 299 355
#     4  12  17  28  55  81 122 151 176 230 310 363
#     4  10  18  30  54  82 119 141 179 231 306 360
#     4  10  25  35  53  90 115 153 198 238 290 343
#     4  10  20  31  52  87 119 148 185 230 299 364
#     4  11  22  39  60  84 121 151 197 246 285 343
#
# _framework density 20.042770999999998
#
# number of rings (size 3 to 8) (size 9 to 14) (size 15 to 20)
#    0.000    1.455    5.455    2.182    2.545    0.727 
#    0.000    0.455    0.000    0.000    0.000    5.727 
#    0.000    0.000    0.000    0.000    0.000    0.000 
#
# Total GULP energy -122526.067592 kJ/mol
# GULP energy per Si atom -5569.366709 kJ/mol
# Density = 1.999715 g / cm^3
# Si number density = 20.042771 Si / 1000 Ang^3
#
#
#
# Elastic Constant Matrix: (Units=GPa)
#
#
# Indices 1 2 3 4 5 6 
#
# 1 84.7329 20.4116 21.2687 -0.0003 -8.8584 -0.0001
# 2 20.4116 57.2876 21.7669 -0.0007 1.2063 -0.0003
# 3 21.2687 21.7669 177.5283 -0.0017 -15.6998 -0.0006
# 4 -0.0003 -0.0007 -0.0017 12.5134 -0.0005 1.7496
# 5 -8.8584 1.2063 -15.6998 -0.0005 20.6632 -0.0002
# 6 -0.0001 -0.0003 -0.0006 1.7496 -0.0002 18.1977
#
#
#
# Elastic Compliance Matrix: (Units=1/GPa)
#
#
# Indices 1 2 3 4 5 6 
#
# 1 0.013693 -0.004792 -0.000546 0.000000 0.005735 0.000000
# 2 -0.004792 0.020158 -0.002340 0.000001 -0.005010 0.000000
# 3 -0.000546 -0.002340 0.006407 0.000001 0.004771 0.000000
# 4 0.000000 0.000001 0.000001 0.081003 0.000003 -0.007788
# 5 0.005735 -0.005010 0.004771 0.000003 0.054771 0.000000
# 6 0.000000 0.000000 0.000000 -0.007788 0.000000 0.055701
#
#
# Mechanical properties :
#
#
# Convention : Reuss Voigt Hill
#
# Bulk Modulus (GPa) = 40.15862 49.60480 44.88171
# Shear Modulus (GPa) = 19.57788 27.34831 23.46309
#
# Velocity S-wave (km/s) = 3.12878 3.69792 3.42519
# Velocity P-wave (km/s) = 5.75607 6.56018 6.17124
#
# Compressibility (1/GPa) = 0.02490125
#
# Stress axis : x y z
#
# Youngs Moduli (GPa) = 73.03125 49.60807 156.07531
#
# Poissons Ratio (x) = 0.23773 0.08517
# Poissons Ratio (y) = 0.34998 0.36529
# Poissons Ratio (z) = 0.03985 0.11611
#
# Static dielectric constant tensor:
#      x y z
#    x 1.708530 0.000000 -0.014670 
#    y 0.000000 1.736500 0.000000 
#    z -0.014670 0.000000 1.773130 
# 
# From -- ./inp_files/271521.got.cif
#   From: 2010.05.17/outbox.cif.g08.bks.cpg/sg12_136_cif.got.tgz:271521.got - 2010.06.03 13:09:07.
