data_PCOD9173131
_publ_section_title
;
Structure prediction by ZEFSAII (Michael W. Deem and Ramdas Pophale) SiO2 
 PCOD9173131
Probable space group: C 2/M
;
_chemical_formula_sum "Si O2"
_cell_formula_units_Z 56
_cell_length_a 24.795719
_cell_length_b 12.943834
_cell_length_c 14.416166
_cell_angle_alpha 90.000000
_cell_angle_beta 138.836864
_cell_angle_gamma 90.000000
_cell_volume 3045.444843
_symmetry_space_group_name_H-M "C 2/M"
_symmetry_group_IT_number 12
_symmetry_cell_setting 'monoclinic'
loop_
_space_group_symop_operation_xyz
x,y,z
-x,y,-z
-x,-y,-z
x,-y,z
1/2+x,1/2+y,z
1/2-x,1/2+y,-z
1/2-x,1/2-y,-z
1/2+x,1/2-y,z
loop_
_atom_site_type_symbol
_atom_site_label
_atom_site_fract_x
_atom_site_fract_y
_atom_site_fract_z
Si Si1 0.469116 0.624981 0.143548
Si Si2 0.845498 0.877187 0.655613
Si Si3 0.316316 0.696386 0.823498
Si Si4 0.774725 0.123912 0.373836
Si Si5 0.135201 0.175409 0.820915
Si Si6 0.290697 0.880652 0.148299
Si Si7 0.580117 0.383801 0.561696
O O1 0.463144 0.500000 0.125662
O O2 0.561189 0.660834 0.240422
O O3 0.442179 0.653264 0.213440
O O4 0.401487 0.675125 0.987368
O O5 0.819066 0.853665 0.725589
O O6 0.782818 0.847393 0.492438
O O7 0.852322 0.000000 0.654168
O O8 0.293954 0.814997 0.771923
O O9 0.245203 0.649782 0.797170
O O10 0.862517 0.157416 0.444182
O O11 0.767226 0.000000 0.353644
O O12 0.145434 0.295270 0.805351
O O13 0.134947 0.113975 0.724847
O O14 0.212480 0.137274 0.980284
O O15 0.316400 0.000000 0.179361
O O16 0.500000 0.328947 0.500000
O O17 0.555679 0.500000 0.500749
#
# Coordination Sequence:
#
# PCOD9173131 Si02
#       7
#     8   8   8   8   8   8   8
#     4  10  20  34  55  84 108 133 176 224 272 320
#     4  10  20  35  56  80 108 137 173 225 272 312
#     4  11  19  34  53  80 110 141 172 217 270 313
#     4  10  21  34  50  80 109 138 180 215 262 319
#     4  10  18  32  49  74 104 131 165 209 264 305
#     4  10  20  32  50  76 103 133 172 210 254 314
#     4  10  18  30  50  75 103 133 166 211 263 312
#
# _framework density 18.388117999999999
#
# number of rings (size 3 to 8) (size 9 to 14) (size 15 to 20)
#    0.000    1.857    1.429    5.143    0.000    3.429 
#    0.000    0.000    0.000    3.000    0.000    0.000 
#    0.000    0.000    0.000    0.000    0.000    0.000 
#
# Total GULP energy -156009.940190 kJ/mol
# GULP energy per Si atom -5571.783578 kJ/mol
# Density = 1.834627 g / cm^3
# Si number density = 18.388118 Si / 1000 Ang^3
#
#
#
# Elastic Constant Matrix: (Units=GPa)
#
#
# Indices 1 2 3 4 5 6 
#
# 1 59.4628 16.9030 23.3194 0.0000 -20.7442 0.0000
# 2 16.9030 97.0380 32.6146 0.0000 2.5249 0.0000
# 3 23.3194 32.6146 49.9935 0.0000 -14.9247 0.0000
# 4 0.0000 0.0000 0.0000 22.2082 0.0000 -5.4713
# 5 -20.7442 2.5249 -14.9247 0.0000 28.4619 0.0000
# 6 0.0000 0.0000 0.0000 -5.4713 0.0000 22.8283
#
#
#
# Elastic Compliance Matrix: (Units=1/GPa)
#
#
# Indices 1 2 3 4 5 6 
#
# 1 0.025268 -0.003174 -0.004901 0.000000 0.016128 0.000000
# 2 -0.003174 0.014787 -0.010965 0.000000 -0.009375 0.000000
# 3 -0.004901 -0.010965 0.033987 0.000000 0.015223 0.000000
# 4 0.000000 0.000000 0.000000 0.047854 0.000000 0.011469
# 5 0.016128 -0.009375 0.015223 0.000000 0.055703 0.000000
# 6 0.000000 0.000000 0.000000 0.011469 0.000000 0.046554
#
#
# Mechanical properties :
#
#
# Convention : Reuss Voigt Hill
#
# Bulk Modulus (GPa) = 27.80737 39.12981 33.46859
# Shear Modulus (GPa) = 18.23351 23.61018 20.92185
#
# Velocity S-wave (km/s) = 3.15237 3.58717 3.37678
# Velocity P-wave (km/s) = 5.32966 6.20348 5.78310
#
# Compressibility (1/GPa) = 0.03596169
#
# Stress axis : x y z
#
# Youngs Moduli (GPa) = 39.57613 67.62472 29.42341
#
# Poissons Ratio (x) = 0.21463 0.14420
# Poissons Ratio (y) = 0.12561 0.32264
# Poissons Ratio (z) = 0.19396 0.74153
#
# Static dielectric constant tensor:
#      x y z
#    x 1.660420 0.000000 0.011790 
#    y 0.000000 1.654550 0.000000 
#    z 0.011790 0.000000 1.684200 
# 
# From -- ./inp_files/245688.got.cif
#   From: 2010.05.17/outbox.cif.g08.bks.cpg/sg12_123_cif.got.tgz:245688.got - 2010.06.03 13:09:07.
