data_PCOD9173620
_publ_section_title
;
Structure prediction by ZEFSAII (Michael W. Deem and Ramdas Pophale) SiO2 
 PCOD9173620
Probable space group: C 2/M
;
_chemical_formula_sum "Si O2"
_cell_formula_units_Z 64
_cell_length_a 29.079656
_cell_length_b 8.616482
_cell_length_c 15.137186
_cell_angle_alpha 90.000000
_cell_angle_beta 86.765159
_cell_angle_gamma 90.000000
_cell_volume 3786.795529
_symmetry_space_group_name_H-M "C 2/M"
_symmetry_group_IT_number 12
_symmetry_cell_setting 'monoclinic'
loop_
_space_group_symop_operation_xyz
x,y,z
-x,y,-z
-x,-y,-z
x,-y,z
1/2+x,1/2+y,z
1/2-x,1/2+y,-z
1/2-x,1/2-y,-z
1/2+x,1/2-y,z
loop_
_atom_site_type_symbol
_atom_site_label
_atom_site_fract_x
_atom_site_fract_y
_atom_site_fract_z
Si Si1 0.228478 0.316571 0.118968
Si Si2 0.607375 0.818303 0.848060
Si Si3 0.241685 0.184644 0.404101
Si Si4 0.194365 0.185494 0.758087
Si Si5 0.992151 0.811795 0.102904
Si Si6 0.165009 0.188835 0.281718
Si Si7 0.417684 0.681194 0.812869
Si Si8 0.652598 0.321255 0.013226
O O1 0.228625 0.500000 0.099986
O O2 0.277384 0.268446 0.155567
O O3 0.195245 0.278640 0.205912
O O4 0.203043 0.225987 0.042977
O O5 0.642703 0.745632 0.773902
O O6 0.557265 0.741708 0.857681
O O7 0.603095 0.000000 0.833928
O O8 0.631164 0.784106 0.940050
O O9 0.250000 0.250000 0.500000
O O10 0.278232 0.249002 0.328805
O O11 0.190571 0.220533 0.370887
O O12 0.246204 0.000000 0.405468
O O13 0.195429 0.000000 0.754017
O O14 0.034115 0.750997 0.159170
O O15 0.993361 0.000000 0.101920
O O16 0.000000 0.762215 0.000000
O O17 0.112481 0.237368 0.267215
O O18 0.168340 0.000000 0.265494
O O19 0.426948 0.500000 0.794225
O O20 0.382488 0.687884 0.899869
O O21 0.653250 0.500000 0.982264
#
# Coordination Sequence:
#
# PCOD9173620 Si02
#       8
#     8   8   8   8   8   8   8   8
#     4   9  17  29  46  69  94 123 162 207 249 290
#     4  12  24  34  46  68  98 130 171 217 258 295
#     4  10  19  33  55  82 109 133 162 198 242 297
#     4  10  21  37  53  70  98 133 167 203 249 303
#     4  10  18  32  51  70  94 130 175 215 255 299
#     4   8  15  28  47  72 100 132 164 196 237 293
#     4   8  14  27  48  69  92 126 169 210 244 285
#     4  10  18  31  48  66  91 130 173 208 248 296
#
# _framework density 16.900834
#
# number of rings (size 3 to 8) (size 9 to 14) (size 15 to 20)
#    0.000    2.375    1.250    3.375    0.000    2.750 
#    0.000    0.625    0.000    0.000    0.000    0.875 
#    0.000    7.000    0.000    0.000    0.000    0.000 
#
# Total GULP energy -178366.116537 kJ/mol
# GULP energy per Si atom -5573.941142 kJ/mol
# Density = 1.686237 g / cm^3
# Si number density = 16.900834 Si / 1000 Ang^3
#
#
#
# Elastic Constant Matrix: (Units=GPa)
#
#
# Indices 1 2 3 4 5 6 
#
# 1 159.9517 24.7244 48.8883 0.0000 11.9506 0.0000
# 2 24.7244 31.1014 17.4010 0.0000 3.7728 0.0000
# 3 48.8883 17.4010 80.7800 0.0000 16.5398 0.0000
# 4 0.0000 0.0000 0.0000 22.4753 0.0000 0.9662
# 5 11.9506 3.7728 16.5398 0.0000 20.7991 0.0000
# 6 0.0000 0.0000 0.0000 0.9662 0.0000 22.9892
#
#
#
# Elastic Compliance Matrix: (Units=1/GPa)
#
#
# Indices 1 2 3 4 5 6 
#
# 1 0.008143 -0.004219 -0.003844 0.000000 -0.000857 0.000000
# 2 -0.004219 0.038748 -0.005794 0.000000 0.000003 0.000000
# 3 -0.003844 -0.005794 0.018259 0.000000 -0.011261 0.000000
# 4 0.000000 0.000000 0.000000 0.044574 0.000000 -0.001873
# 5 -0.000857 0.000003 -0.011261 0.000000 0.057525 0.000000
# 6 0.000000 0.000000 0.000000 -0.001873 0.000000 0.043577
#
#
# Mechanical properties :
#
#
# Convention : Reuss Voigt Hill
#
# Bulk Modulus (GPa) = 26.71181 50.42896 38.57038
# Shear Modulus (GPa) = 19.91876 25.30735 22.61305
#
# Velocity S-wave (km/s) = 3.43675 3.87383 3.66182
# Velocity P-wave (km/s) = 5.62029 7.06482 6.38355
#
# Compressibility (1/GPa) = 0.03743663
#
# Stress axis : x y z
#
# Youngs Moduli (GPa) = 122.80690 25.80768 54.76625
#
# Poissons Ratio (x) = 0.10887 0.21052
# Poissons Ratio (y) = 0.51809 0.31733
# Poissons Ratio (z) = 0.47206 0.14954
#
# Static dielectric constant tensor:
#      x y z
#    x 1.614960 0.000000 0.015570 
#    y 0.000000 1.564580 0.000000 
#    z 0.015570 0.000000 1.572260 
# 
# From -- ./inp_files/243993.got.cif
#   From: 2010.05.17/outbox.cif.g08.bks.cpg/sg12_122_cif.got.tgz:243993.got - 2010.06.03 13:09:07.
