data_PCOD9173196
_publ_section_title
;
Structure prediction by ZEFSAII (Michael W. Deem and Ramdas Pophale) SiO2 
 PCOD9173196
Probable space group: C 2/M
;
_chemical_formula_sum "Si O2"
_cell_formula_units_Z 64
_cell_length_a 9.831073
_cell_length_b 28.759787
_cell_length_c 14.660960
_cell_angle_alpha 90.000000
_cell_angle_beta 136.228358
_cell_angle_gamma 90.000000
_cell_volume 2867.613897
_symmetry_space_group_name_H-M "C 2/M"
_symmetry_group_IT_number 12
_symmetry_cell_setting 'monoclinic'
loop_
_space_group_symop_operation_xyz
x,y,z
-x,y,-z
-x,-y,-z
x,-y,z
1/2+x,1/2+y,z
1/2-x,1/2+y,-z
1/2-x,1/2-y,-z
1/2+x,1/2-y,z
loop_
_atom_site_type_symbol
_atom_site_label
_atom_site_fract_x
_atom_site_fract_y
_atom_site_fract_z
Si Si1 0.834637 0.447489 0.498117
Si Si2 0.307586 0.166887 0.345134
Si Si3 0.715970 0.247847 0.186231
Si Si4 0.126628 0.692096 0.902729
Si Si5 0.315856 0.552870 0.964085
Si Si6 0.630559 0.347347 0.810442
Si Si7 0.113343 0.948596 0.785991
Si Si8 0.502600 0.885265 0.725804
O O1 0.878877 0.500000 0.552721
O O2 0.616808 0.448264 0.351140
O O3 0.000000 0.437966 0.500000
O O4 0.845063 0.411484 0.587034
O O5 0.500000 0.163518 0.500000
O O6 0.282615 0.220245 0.302364
O O7 0.346595 0.134914 0.276445
O O8 0.103237 0.150676 0.288888
O O9 0.754636 0.281892 0.119295
O O10 0.498002 0.229977 0.102754
O O11 0.830235 0.199729 0.226101
O O12 0.970189 0.658714 0.775289
O O13 0.259312 0.663339 0.039062
O O14 0.298040 0.500000 0.921989
O O15 0.116868 0.578294 0.843096
O O16 0.500000 0.574923 0.000000
O O17 0.361706 0.552211 0.092877
O O18 0.696833 0.397235 0.800601
O O19 0.191965 0.000000 0.792545
#
# Coordination Sequence:
#
# PCOD9173196 Si02
#       8
#     8   8   8   8   8   8   8   8
#     4  10  19  34  57  88 131 176 218 268 326 391
#     4  11  25  41  61  93 132 173 218 267 329 399
#     4  11  25  45  67  95 131 171 221 277 331 399
#     4  11  25  42  68  99 130 168 222 274 338 397
#     4  10  18  30  50  83 123 161 208 263 316 375
#     4  12  22  40  69  93 132 174 215 279 332 390
#     4  10  21  36  55  87 126 169 217 264 323 391
#     4  11  21  35  59  89 128 166 219 259 329 385
#
# _framework density 22.318207000000001
#
# number of rings (size 3 to 8) (size 9 to 14) (size 15 to 20)
#    0.000    1.250    2.500    4.500    1.750    3.500 
#    2.250    0.000    0.000    3.000    0.000    1.750 
#    0.000    0.000    0.000    0.000    0.000    0.000 
#
# Total GULP energy -178621.610545 kJ/mol
# GULP energy per Si atom -5581.925330 kJ/mol
# Density = 2.226741 g / cm^3
# Si number density = 22.318207 Si / 1000 Ang^3
#
#
#
# Elastic Constant Matrix: (Units=GPa)
#
#
# Indices 1 2 3 4 5 6 
#
# 1 24.7074 4.5533 23.5192 0.0000 -4.0720 0.0000
# 2 4.5533 169.5612 51.9597 0.0000 -12.6529 0.0000
# 3 23.5192 51.9597 116.8299 0.0000 7.0439 0.0000
# 4 0.0000 0.0000 0.0000 25.4360 0.0000 10.5374
# 5 -4.0720 -12.6529 7.0439 0.0000 9.8719 0.0000
# 6 0.0000 0.0000 0.0000 10.5374 0.0000 -183.0653
#
#
#
# Elastic Compliance Matrix: (Units=1/GPa)
#
#
# Indices 1 2 3 4 5 6 
#
# 1 0.067166 0.008435 -0.020476 0.000000 0.053126 0.000000
# 2 0.008435 0.009387 -0.007114 0.000000 0.020588 0.000000
# 3 -0.020476 -0.007114 0.017665 0.000000 -0.030169 0.000000
# 4 0.000000 0.000000 0.000000 0.038399 0.000000 0.002210
# 5 0.053126 0.020588 -0.030169 0.000000 0.171124 0.000000
# 6 0.000000 0.000000 0.000000 0.002210 0.000000 -0.005335
#
#
# Mechanical properties :
#
#
# Convention : Reuss Voigt Hill
#
# Bulk Modulus (GPa) = 17.88660 52.35143 35.11902
# Shear Modulus (GPa) = 14.07058 -14.14704 -0.03823
#
# Velocity S-wave (km/s) = 2.51361 -2.52043 -0.13103
# Velocity P-wave (km/s) = 4.05660 3.87784 3.96823
#
# Compressibility (1/GPa) = 0.05590776
#
# Stress axis : x y z
#
# Youngs Moduli (GPa) = 14.88852 106.52483 56.61056
#
# Poissons Ratio (x) = -0.89857 1.15915
# Poissons Ratio (y) = -0.12559 0.40275
# Poissons Ratio (z) = 0.30486 0.75787
#
# Static dielectric constant tensor:
#      x y z
#    x 1.796990 0.000000 0.017670 
#    y 0.000000 1.912140 0.000000 
#    z 0.017670 0.000000 1.779460 
# 
# From -- ./inp_files/209875.got.cif
#   From: 2010.05.17/outbox.cif.g08.bks.cpg/sg12_105_cif.got.tgz:209875.got - 2010.06.03 13:09:07.
