data_PCOD9173813
_publ_section_title
;
Structure prediction by ZEFSAII (Michael W. Deem and Ramdas Pophale) SiO2 
 PCOD9173813
Probable space group: C 2/M
;
_chemical_formula_sum "Si O2"
_cell_formula_units_Z 64
_cell_length_a 8.848408
_cell_length_b 14.972531
_cell_length_c 24.356930
_cell_angle_alpha 90.000000
_cell_angle_beta 71.870204
_cell_angle_gamma 90.000000
_cell_volume 3066.679102
_symmetry_space_group_name_H-M "C 2/M"
_symmetry_group_IT_number 12
_symmetry_cell_setting 'monoclinic'
loop_
_space_group_symop_operation_xyz
x,y,z
-x,y,-z
-x,-y,-z
x,-y,z
1/2+x,1/2+y,z
1/2-x,1/2+y,-z
1/2-x,1/2-y,-z
1/2+x,1/2-y,z
loop_
_atom_site_type_symbol
_atom_site_label
_atom_site_fract_x
_atom_site_fract_y
_atom_site_fract_z
Si Si1 0.687590 0.793322 0.692072
Si Si2 0.913609 0.650331 0.800684
Si Si3 0.162385 0.306672 0.461374
Si Si4 0.420157 0.720525 0.958318
Si Si5 0.170167 0.904106 0.739549
Si Si6 0.029158 0.594735 0.901730
Si Si7 0.628811 0.652233 0.157421
Si Si8 0.516562 0.291285 0.617909
O O1 0.583879 0.835756 0.752056
O O2 0.697190 0.686561 0.702585
O O3 0.586732 0.791275 0.646539
O O4 0.866596 0.831135 0.668392
O O5 0.804859 0.599214 0.770703
O O6 0.843803 0.749476 0.819452
O O7 0.926743 0.605742 0.858186
O O8 0.250000 0.250000 0.500000
O O9 0.324440 0.346920 0.416064
O O10 0.078260 0.243546 0.425177
O O11 0.000000 0.357068 0.500000
O O12 0.507918 0.814745 0.937833
O O13 0.420590 0.669856 0.900426
O O14 0.500000 0.669519 0.000000
O O15 0.250000 0.750000 0.000000
O O16 0.006538 0.892261 0.791114
O O17 0.174443 0.000000 0.709993
O O18 0.992080 0.500000 0.933113
O O19 0.210644 0.597786 0.862082
#
# Coordination Sequence:
#
# PCOD9173813 Si02
#       8
#     8   8   8   8   8   8   8   8
#     4  10  18  31  50  75 101 148 178 212 261 324
#     4  10  20  35  55  74 104 143 181 208 256 328
#     4   8  14  25  42  71 111 142 168 225 283 305
#     4  11  22  40  62  82 102 136 173 215 263 324
#     4  11  22  35  52  77 108 139 176 221 259 307
#     4  11  23  38  57  82 106 134 173 220 264 311
#     4  10  21  38  59  78 102 138 178 208 256 328
#     4   9  16  26  46  74 106 141 181 216 260 324
#
# _framework density 20.869481
#
# number of rings (size 3 to 8) (size 9 to 14) (size 15 to 20)
#    0.000    2.000    2.500    3.000    3.500    0.250 
#    0.000    0.000    0.000    1.875    0.000    0.000 
#    0.000   63.000    0.000    0.000    0.000    0.000 
#
# Total GULP energy -178188.716163 kJ/mol
# GULP energy per Si atom -5568.397380 kJ/mol
# Density = 2.082198 g / cm^3
# Si number density = 20.869481 Si / 1000 Ang^3
#
#
#
# Elastic Constant Matrix: (Units=GPa)
#
#
# Indices 1 2 3 4 5 6 
#
# 1 99.7793 5.2191 20.6803 0.0000 -11.1411 0.0000
# 2 5.2191 64.1967 -0.9035 0.0000 -0.5309 0.0000
# 3 20.6803 -0.9035 65.1949 0.0000 -0.3337 0.0000
# 4 0.0000 0.0000 0.0000 -1.4815 0.0000 -37.9355
# 5 -11.1411 -0.5309 -0.3337 0.0000 51.7136 0.0000
# 6 0.0000 0.0000 0.0000 -37.9355 0.0000 800.2004
#
#
#
# Elastic Compliance Matrix: (Units=1/GPa)
#
#
# Indices 1 2 3 4 5 6 
#
# 1 0.011061 -0.000929 -0.003509 0.000000 0.002351 0.000000
# 2 -0.000929 0.015660 0.000512 0.000000 -0.000036 0.000000
# 3 -0.003509 0.000512 0.016456 0.000000 -0.000645 0.000000
# 4 0.000000 0.000000 0.000000 -0.304887 0.000000 -0.014454
# 5 0.002351 -0.000036 -0.000645 0.000000 0.019839 0.000000
# 6 0.000000 0.000000 0.000000 -0.014454 0.000000 0.000564
#
#
# Mechanical properties :
#
#
# Convention : Reuss Voigt Hill
#
# Bulk Modulus (GPa) = 28.31110 31.01810 29.66460
# Shear Modulus (GPa) = -22.55504 183.69818 80.57157
#
# Velocity S-wave (km/s) = -3.29107 9.39220 6.22022
# Velocity P-wave (km/s) = 0.91993 11.51144 8.11378
#
# Compressibility (1/GPa) = 0.03532184
#
# Stress axis : x y z
#
# Youngs Moduli (GPa) = 90.41151 63.85877 60.76961
#
# Poissons Ratio (x) = 0.05934 0.21326
# Poissons Ratio (y) = 0.08401 -0.03109
# Poissons Ratio (z) = 0.31728 -0.03267
#
# Static dielectric constant tensor:
#      x y z
#    x 1.800060 0.000000 -0.013420 
#    y 0.000000 1.799830 0.000000 
#    z -0.013420 0.000000 1.838440 
# 
# From -- ./inp_files/356131.got.cif
#   From: 2010.05.17/outbox.cif.g08.bks.cpg/sg12_179_cif.got.tgz:356131.got - 2010.06.03 13:09:07.
