data_PCOD9173516
_publ_section_title
;
Structure prediction by ZEFSAII (Michael W. Deem and Ramdas Pophale) SiO2 
 PCOD9173516
Probable space group: C 2/M
;
_chemical_formula_sum "Si O2"
_cell_formula_units_Z 52
_cell_length_a 22.058844
_cell_length_b 17.554996
_cell_length_c 15.546699
_cell_angle_alpha 90.000000
_cell_angle_beta 158.423679
_cell_angle_gamma 90.000000
_cell_volume 2213.924778
_symmetry_space_group_name_H-M "C 2/M"
_symmetry_group_IT_number 12
_symmetry_cell_setting 'monoclinic'
loop_
_space_group_symop_operation_xyz
x,y,z
-x,y,-z
-x,-y,-z
x,-y,z
1/2+x,1/2+y,z
1/2-x,1/2+y,-z
1/2-x,1/2-y,-z
1/2+x,1/2-y,z
loop_
_atom_site_type_symbol
_atom_site_label
_atom_site_fract_x
_atom_site_fract_y
_atom_site_fract_z
Si Si1 0.409312 0.000000 0.469626
Si Si2 0.360645 0.166648 0.433885
Si Si3 0.551497 0.410672 0.698125
Si Si4 0.000000 0.204212 0.500000
Si Si5 0.128468 0.253381 0.249446
Si Si6 0.475006 0.500000 0.067526
Si Si7 0.574200 0.648366 0.914858
Si Si8 0.685459 0.083193 0.284710
O O1 0.500000 0.000000 0.500000
O O2 0.438674 0.082774 0.552219
O O3 0.221380 0.000000 0.190401
O O4 0.460210 0.237850 0.525761
O O5 0.265108 0.196704 0.391210
O O6 0.232072 0.155146 0.184848
O O7 0.596978 0.500000 0.751596
O O8 0.611303 0.358030 0.698407
O O9 0.611568 0.373554 0.866841
O O10 0.348393 0.408809 0.438078
O O11 0.188264 0.339038 0.341046
O O12 0.029829 0.222944 0.200992
O O13 0.000000 0.254994 0.000000
O O14 0.529002 0.576697 0.184141
O O15 0.500000 0.500000 0.000000
O O16 0.703798 0.000000 0.350475
O O17 0.500000 0.082168 0.000000
#
# Coordination Sequence:
#
# PCOD9173516 Si02
#       8
#     4   8   8   4   8   4   8   8
#     4  10  18  30  54  84 115 151 188 236 294 354
#     4  10  20  36  57  88 116 151 195 239 291 361
#     4  11  23  40  60  88 115 156 199 250 290 344
#     4  12  23  39  60  82 114 164 214 231 281 346
#     4   9  17  33  58  87 111 145 186 234 298 356
#     4  10  18  34  58  91 116 153 192 245 303 362
#     4  10  20  35  61  87 121 143 189 252 306 344
#     4   9  18  34  57  82 112 151 193 238 294 348
#
# _framework density 23.487701000000001
#
# number of rings (size 3 to 8) (size 9 to 14) (size 15 to 20)
#    0.000    2.000    3.077    2.538    0.000    1.231 
#    0.000    0.000    0.000    0.000    2.000    0.000 
#    0.000    0.000    0.000    0.000    0.000    0.000 
#
# Total GULP energy -144833.488551 kJ/mol
# GULP energy per Si atom -5570.518790 kJ/mol
# Density = 2.343424 g / cm^3
# Si number density = 23.487701 Si / 1000 Ang^3
#
#
#
# Elastic Constant Matrix: (Units=GPa)
#
#
# Indices 1 2 3 4 5 6 
#
# 1 40.9584 28.9860 -1.9801 0.0000 -9.8024 0.0000
# 2 28.9860 173.2552 -21.1089 0.0000 -6.4282 0.0000
# 3 -1.9801 -21.1089 48.3140 0.0000 -15.7574 0.0000
# 4 0.0000 0.0000 0.0000 18.9492 0.0000 -1.9720
# 5 -9.8024 -6.4282 -15.7574 0.0000 37.4228 0.0000
# 6 0.0000 0.0000 0.0000 -1.9720 0.0000 8.9355
#
#
#
# Elastic Compliance Matrix: (Units=1/GPa)
#
#
# Indices 1 2 3 4 5 6 
#
# 1 0.029482 -0.004428 0.001790 0.000000 0.007715 0.000000
# 2 -0.004428 0.006973 0.003335 0.000000 0.001442 0.000000
# 3 0.001790 0.003335 0.026161 0.000000 0.012057 0.000000
# 4 0.000000 0.000000 0.000000 0.054013 0.000000 0.011920
# 5 0.007715 0.001442 0.012057 0.000000 0.034067 0.000000
# 6 0.000000 0.000000 0.000000 0.011920 0.000000 0.114544
#
#
# Mechanical properties :
#
#
# Convention : Reuss Voigt Hill
#
# Bulk Modulus (GPa) = 15.62268 30.48018 23.05143
# Shear Modulus (GPa) = 17.53270 30.17020 23.85145
#
# Velocity S-wave (km/s) = 2.73511 3.58790 3.19013
# Velocity P-wave (km/s) = 4.07925 5.49265 4.83785
#
# Compressibility (1/GPa) = 0.06400952
#
# Stress axis : x y z
#
# Youngs Moduli (GPa) = 33.91936 143.42029 38.22502
#
# Poissons Ratio (x) = 0.63507 -0.06842
# Poissons Ratio (y) = 0.15020 -0.12749
# Poissons Ratio (z) = -0.06071 -0.47834
#
# Static dielectric constant tensor:
#      x y z
#    x 1.856280 0.000000 0.018520 
#    y 0.000000 1.681610 0.000000 
#    z 0.018520 0.000000 1.985100 
# 
# From -- ./inp_files/234527.got.cif
#   From: 2010.05.17/outbox.cif.g08.bks.cpg/sg12_118_cif.got.tgz:234527.got - 2010.06.03 13:09:07.
