data_PCOD9173213
_publ_section_title
;
Structure prediction by ZEFSAII (Michael W. Deem and Ramdas Pophale) SiO2 
 PCOD9173213
Probable space group: C 2/M
;
_chemical_formula_sum "Si O2"
_cell_formula_units_Z 64
_cell_length_a 21.349186
_cell_length_b 21.720821
_cell_length_c 8.154606
_cell_angle_alpha 90.000000
_cell_angle_beta 50.167393
_cell_angle_gamma 90.000000
_cell_volume 2903.862291
_symmetry_space_group_name_H-M "C 2/M"
_symmetry_group_IT_number 12
_symmetry_cell_setting 'monoclinic'
loop_
_space_group_symop_operation_xyz
x,y,z
-x,y,-z
-x,-y,-z
x,-y,z
1/2+x,1/2+y,z
1/2-x,1/2+y,-z
1/2-x,1/2-y,-z
1/2+x,1/2-y,z
loop_
_atom_site_type_symbol
_atom_site_label
_atom_site_fract_x
_atom_site_fract_y
_atom_site_fract_z
Si Si1 0.478406 0.192893 0.220519
Si Si2 0.534372 0.571931 0.185042
Si Si3 0.624526 0.427075 0.389004
Si Si4 0.304758 0.810185 0.406336
Si Si5 0.718069 0.879661 0.020984
Si Si6 0.187144 0.867429 0.826989
Si Si7 0.041127 0.568889 0.251647
Si Si8 0.859076 0.268613 0.972139
O O1 0.381740 0.198629 0.398574
O O2 0.500766 0.121494 0.208995
O O3 0.500000 0.214255 0.000000
O O4 0.543799 0.228742 0.222762
O O5 0.527205 0.500000 0.158366
O O6 0.443028 0.596299 0.368412
O O7 0.579563 0.576928 0.286738
O O8 0.598422 0.602849 0.955667
O O9 0.640273 0.500000 0.390986
O O10 0.708272 0.390342 0.230328
O O11 0.250000 0.750000 0.500000
O O12 0.243979 0.862184 0.572943
O O13 0.341327 0.811644 0.162908
O O14 0.689450 0.808238 0.079376
O O15 0.757429 0.899855 0.127616
O O16 0.636995 0.917216 0.114036
O O17 0.167830 0.799522 0.935412
O O18 0.028584 0.500000 0.210092
O O19 0.000000 0.574017 0.500000
#
# Coordination Sequence:
#
# PCOD9173213 Si02
#       8
#     8   8   8   8   8   8   8   8
#     4   9  18  35  54  70  99 136 173 214 256 308
#     4   8  15  28  47  71 100 130 168 216 256 301
#     4   8  14  27  47  70  97 133 172 208 253 307
#     4   9  18  34  53  71  96 130 170 208 254 310
#     4  10  18  30  51  73 106 135 171 213 260 298
#     4  10  18  31  51  75 103 131 174 213 259 307
#     4  10  20  32  49  77 109 139 172 211 264 315
#     4   9  19  33  49  73 104 132 169 211 258 314
#
# _framework density 22.039612999999999
#
# number of rings (size 3 to 8) (size 9 to 14) (size 15 to 20)
#    0.000    2.875    0.000    2.250    0.000    0.750 
#    4.500    0.625   19.250    3.750    0.000    1.750 
#    0.000    0.000    0.000    0.000    0.000    0.000 
#
# Total GULP energy -178363.069527 kJ/mol
# GULP energy per Si atom -5573.845923 kJ/mol
# Density = 2.198945 g / cm^3
# Si number density = 22.039613 Si / 1000 Ang^3
#
#
#
# Elastic Constant Matrix: (Units=GPa)
#
#
# Indices 1 2 3 4 5 6 
#
# 1 75.0472 18.4028 43.2251 0.0000 -32.1409 0.0000
# 2 18.4028 28.4562 2.4023 0.0000 -19.7217 0.0000
# 3 43.2251 2.4023 108.6000 0.0000 -36.8276 0.0000
# 4 0.0000 0.0000 0.0000 23.8588 0.0000 -2.5156
# 5 -32.1409 -19.7217 -36.8276 0.0000 42.8776 0.0000
# 6 0.0000 0.0000 0.0000 -2.5156 0.0000 11.0288
#
#
#
# Elastic Compliance Matrix: (Units=1/GPa)
#
#
# Indices 1 2 3 4 5 6 
#
# 1 0.022128 -0.008736 -0.006140 0.000000 0.007295 0.000000
# 2 -0.008736 0.063546 0.013774 0.000000 0.034511 0.000000
# 3 -0.006140 0.013774 0.016840 0.000000 0.016197 0.000000
# 4 0.000000 0.000000 0.000000 0.042946 0.000000 0.009796
# 5 0.007295 0.034511 0.016197 0.000000 0.058575 0.000000
# 6 0.000000 0.000000 0.000000 0.009796 0.000000 0.092906
#
#
# Mechanical properties :
#
#
# Convention : Reuss Voigt Hill
#
# Bulk Modulus (GPa) = 9.96909 37.79597 23.88253
# Shear Modulus (GPa) = 15.03387 25.42458 20.22922
#
# Velocity S-wave (km/s) = 2.61459 3.40013 3.03290
# Velocity P-wave (km/s) = 3.69430 5.70972 4.80878
#
# Compressibility (1/GPa) = 0.10031001
#
# Stress axis : x y z
#
# Youngs Moduli (GPa) = 45.19129 15.73655 59.38289
#
# Poissons Ratio (x) = 0.13748 0.36464
# Poissons Ratio (y) = 0.39480 -0.81797
# Poissons Ratio (z) = 0.27749 -0.21676
#
# Static dielectric constant tensor:
#      x y z
#    x 1.877510 0.000000 0.010870 
#    y 0.000000 1.814360 0.000000 
#    z 0.010870 0.000000 1.869210 
# 
# From -- ./inp_files/90646.got.cif
#   From: 2010.05.17/outbox.cif.g08.bks.cpg/sg12_46_cif.got.tgz:90646.got - 2010.06.03 13:09:07.
