data_PCOD9173495
_publ_section_title
;
Structure prediction by ZEFSAII (Michael W. Deem and Ramdas Pophale) SiO2 
 PCOD9173495
Probable space group: C 2/M
;
_chemical_formula_sum "Si O2"
_cell_formula_units_Z 40
_cell_length_a 25.461298
_cell_length_b 11.397810
_cell_length_c 10.435259
_cell_angle_alpha 90.000000
_cell_angle_beta 127.720783
_cell_angle_gamma 90.000000
_cell_volume 2395.425017
_symmetry_space_group_name_H-M "C 2/M"
_symmetry_group_IT_number 12
_symmetry_cell_setting 'monoclinic'
loop_
_space_group_symop_operation_xyz
x,y,z
-x,y,-z
-x,-y,-z
x,-y,z
1/2+x,1/2+y,z
1/2-x,1/2+y,-z
1/2-x,1/2-y,-z
1/2+x,1/2-y,z
loop_
_atom_site_type_symbol
_atom_site_label
_atom_site_fract_x
_atom_site_fract_y
_atom_site_fract_z
Si Si1 0.918047 0.000000 0.523772
Si Si2 0.076589 0.000000 0.770851
Si Si3 0.658596 0.283318 0.983741
Si Si4 0.164949 0.214789 0.499375
Si Si5 0.680950 0.139301 0.270978
Si Si6 0.689214 0.136162 0.782781
O O1 0.886981 0.113147 0.546438
O O2 0.899826 0.000000 0.343984
O O3 0.997275 0.000000 0.650973
O O4 0.105164 0.885266 0.884055
O O5 0.654156 0.202633 0.102993
O O6 0.731204 0.344351 0.095342
O O7 0.658962 0.201716 0.859388
O O8 0.238780 0.157039 0.607424
O O9 0.155159 0.287542 0.354631
O O10 0.164261 0.304835 0.615966
O O11 0.666788 0.000000 0.254075
O O12 0.674324 0.000000 0.764764
#
# Coordination Sequence:
#
# PCOD9173495 Si02
#       6
#     4   4   8   8   8   8
#     4  11  22  39  61  79 117 153 188 239 268 338
#     4  11  22  39  59  83 115 149 196 234 271 334
#     4  10  20  32  53  83 112 143 188 228 285 330
#     4  10  20  34  55  84 114 149 187 219 288 339
#     4  10  20  34  56  84 120 144 174 241 286 334
#     4  10  18  30  54  80 113 145 177 242 281 325
#
# _framework density 16.698498000000001
#
# number of rings (size 3 to 8) (size 9 to 14) (size 15 to 20)
#    0.000    1.800    4.000    1.200    0.000    0.800 
#    0.000    2.000    0.000    7.200    0.000    0.000 
#    0.000    0.000    0.000    0.000    0.000    0.000 
#
# Total GULP energy -111601.518412 kJ/mol
# GULP energy per Si atom -5580.075921 kJ/mol
# Density = 1.666049 g / cm^3
# Si number density = 16.698498 Si / 1000 Ang^3
#
#
#
# Elastic Constant Matrix: (Units=GPa)
#
#
# Indices 1 2 3 4 5 6 
#
# 1 69.5041 54.4392 47.0262 0.0000 -18.2460 0.0000
# 2 54.4392 152.7392 50.2906 0.0000 -11.9256 0.0000
# 3 47.0262 50.2906 83.4432 0.0000 -28.4926 0.0000
# 4 0.0000 0.0000 0.0000 16.2815 0.0000 -2.4495
# 5 -18.2460 -11.9256 -28.4926 0.0000 28.9512 0.0000
# 6 0.0000 0.0000 0.0000 -2.4495 0.0000 16.9201
#
#
#
# Elastic Compliance Matrix: (Units=1/GPa)
#
#
# Indices 1 2 3 4 5 6 
#
# 1 0.027127 -0.005985 -0.010069 0.000000 0.004722 0.000000
# 2 -0.005985 0.009585 -0.003530 0.000000 -0.003298 0.000000
# 3 -0.010069 -0.003530 0.025790 0.000000 0.017581 0.000000
# 4 0.000000 0.000000 0.000000 0.062787 0.000000 0.009089
# 5 0.004722 -0.003298 0.017581 0.000000 0.053461 0.000000
# 6 0.000000 0.000000 0.000000 0.009089 0.000000 0.060417
#
#
# Mechanical properties :
#
#
# Convention : Reuss Voigt Hill
#
# Bulk Modulus (GPa) = 42.85462 67.68871 55.27167
# Shear Modulus (GPa) = 17.47564 22.69259 20.08412
#
# Velocity S-wave (km/s) = 3.23854 3.69041 3.47183
# Velocity P-wave (km/s) = 6.30108 7.66698 7.01734
#
# Compressibility (1/GPa) = 0.02333470
#
# Stress axis : x y z
#
# Youngs Moduli (GPa) = 36.86314 104.32966 38.77546
#
# Poissons Ratio (x) = 0.62439 0.39042
# Poissons Ratio (y) = 0.22062 0.13688
# Poissons Ratio (z) = 0.37117 0.36828
#
# Static dielectric constant tensor:
#      x y z
#    x 1.545610 0.000000 -0.011610 
#    y 0.000000 1.538940 0.000000 
#    z -0.011610 0.000000 1.553620 
# 
# From -- ./inp_files/83505.got.cif
#   From: 2010.05.17/outbox.cif.g08.bks.cpg/sg12_42_cif.got.tgz:83505.got - 2010.06.03 13:09:07.
