data_PCOD9173573
_publ_section_title
;
Structure prediction by ZEFSAII (Michael W. Deem and Ramdas Pophale) SiO2 
 PCOD9173573
Probable space group: C 2/M
;
_chemical_formula_sum "Si O2"
_cell_formula_units_Z 56
_cell_length_a 13.330905
_cell_length_b 26.631547
_cell_length_c 15.733991
_cell_angle_alpha 90.000000
_cell_angle_beta 37.188935
_cell_angle_gamma 90.000000
_cell_volume 3376.384629
_symmetry_space_group_name_H-M "C 2/M"
_symmetry_group_IT_number 12
_symmetry_cell_setting 'monoclinic'
loop_
_space_group_symop_operation_xyz
x,y,z
-x,y,-z
-x,-y,-z
x,-y,z
1/2+x,1/2+y,z
1/2-x,1/2+y,-z
1/2-x,1/2-y,-z
1/2+x,1/2-y,z
loop_
_atom_site_type_symbol
_atom_site_label
_atom_site_fract_x
_atom_site_fract_y
_atom_site_fract_z
Si Si1 0.764379 0.285863 0.748198
Si Si2 0.818191 0.886573 0.097483
Si Si3 0.184392 0.442636 0.337427
Si Si4 0.978184 0.274044 0.885762
Si Si5 0.605428 0.209363 0.610159
Si Si6 0.666779 0.669019 0.081131
Si Si7 0.808668 0.852756 0.363402
O O1 0.697582 0.331529 0.850104
O O2 0.639409 0.239144 0.832462
O O3 0.755597 0.310164 0.660193
O O4 0.947652 0.276246 0.658597
O O5 0.692605 0.920908 0.235877
O O6 0.804539 0.875299 0.006930
O O7 0.000000 0.906242 0.000000
O O8 0.242749 0.500000 0.299746
O O9 0.286844 0.404796 0.328419
O O10 0.000000 0.440614 0.500000
O O11 0.041389 0.291097 0.749756
O O12 0.891497 0.219548 0.930091
O O13 0.838367 0.313699 0.007381
O O14 0.750000 0.250000 0.500000
O O15 0.688131 0.157056 0.523870
O O16 0.504094 0.656514 0.246457
#
# Coordination Sequence:
#
# PCOD9173573 Si02
#       7
#     8   8   8   8   8   8   8
#     4  10  19  30  44  63  92 123 166 195 228 271
#     4  11  17  32  48  64  88 126 160 195 236 280
#     4  10  21  33  47  68  91 123 165 204 247 290
#     4  10  20  29  45  62  91 122 166 199 223 276
#     4  12  20  29  45  67  89 131 168 194 232 279
#     4  10  18  31  41  66  89 116 162 198 227 273
#     4  10  19  32  47  64  93 124 160 199 232 283
#
# _framework density 16.585788999999998
#
# number of rings (size 3 to 8) (size 9 to 14) (size 15 to 20)
#    0.000    1.571    8.571    2.143    0.000    0.286 
#    0.000    0.000    0.000    0.000    0.000    0.000 
#    0.000    0.000    0.000    6.429    0.000    1.857 
#
# Total GULP energy -156010.467306 kJ/mol
# GULP energy per Si atom -5571.802404 kJ/mol
# Density = 1.654804 g / cm^3
# Si number density = 16.585789 Si / 1000 Ang^3
#
#
#
# Elastic Constant Matrix: (Units=GPa)
#
#
# Indices 1 2 3 4 5 6 
#
# 1 51.6668 28.4713 41.2099 -0.0002 -17.8673 0.0001
# 2 28.4713 66.7980 33.9185 -0.0001 -4.5159 0.0000
# 3 41.2099 33.9185 90.0721 -0.0001 -13.0023 0.0001
# 4 -0.0002 -0.0001 -0.0001 17.0083 0.0002 -2.5603
# 5 -17.8673 -4.5159 -13.0023 0.0002 32.9727 -0.0001
# 6 0.0001 0.0000 0.0001 -2.5603 -0.0001 10.6600
#
#
#
# Elastic Compliance Matrix: (Units=1/GPa)
#
#
# Indices 1 2 3 4 5 6 
#
# 1 0.039891 -0.009673 -0.012384 0.000000 0.015408 0.000000
# 2 -0.009673 0.020857 -0.004001 0.000000 -0.003963 0.000000
# 3 -0.012384 -0.004001 0.018267 0.000000 -0.000056 0.000000
# 4 0.000000 0.000000 0.000000 0.061001 0.000000 0.014651
# 5 0.015408 -0.003963 -0.000056 0.000000 0.038113 0.000000
# 6 0.000000 0.000000 0.000000 0.014651 0.000000 0.097328
#
#
# Mechanical properties :
#
#
# Convention : Reuss Voigt Hill
#
# Bulk Modulus (GPa) = 37.17544 46.19294 41.68419
# Shear Modulus (GPa) = 14.85715 19.12400 16.99058
#
# Velocity S-wave (km/s) = 2.99620 3.39932 3.20411
# Velocity P-wave (km/s) = 5.86790 6.58168 6.23502
#
# Compressibility (1/GPa) = 0.02689948
#
# Stress axis : x y z
#
# Youngs Moduli (GPa) = 25.06811 47.94590 54.74395
#
# Poissons Ratio (x) = 0.46377 0.67797
# Poissons Ratio (y) = 0.24248 0.21901
# Poissons Ratio (z) = 0.31045 0.19181
#
# Static dielectric constant tensor:
#      x y z
#    x 1.605970 0.000000 0.011000 
#    y 0.000000 1.558160 0.000000 
#    z 0.011000 0.000000 1.663890 
# 
# From -- ./inp_files/209671.got.cif
#   From: 2010.05.17/outbox.cif.g08.bks.cpg/sg12_105_cif.got.tgz:209671.got - 2010.06.03 13:09:07.
