data_PCOD9173491
_publ_section_title
;
Structure prediction by ZEFSAII (Michael W. Deem and Ramdas Pophale) SiO2 
 PCOD9173491
Probable space group: C 2/M
;
_chemical_formula_sum "Si O2"
_cell_formula_units_Z 64
_cell_length_a 28.015450
_cell_length_b 18.712620
_cell_length_c 10.415066
_cell_angle_alpha 90.000000
_cell_angle_beta 133.517670
_cell_angle_gamma 90.000000
_cell_volume 3959.399232
_symmetry_space_group_name_H-M "C 2/M"
_symmetry_group_IT_number 12
_symmetry_cell_setting 'monoclinic'
loop_
_space_group_symop_operation_xyz
x,y,z
-x,y,-z
-x,-y,-z
x,-y,z
1/2+x,1/2+y,z
1/2-x,1/2+y,-z
1/2-x,1/2-y,-z
1/2+x,1/2-y,z
loop_
_atom_site_type_symbol
_atom_site_label
_atom_site_fract_x
_atom_site_fract_y
_atom_site_fract_z
Si Si1 0.197340 0.687920 0.788837
Si Si2 0.442919 0.690465 0.218869
Si Si3 0.089585 0.813321 0.554101
Si Si4 0.321966 0.212966 0.967856
Si Si5 0.390058 0.583275 0.914148
Si Si6 0.364818 0.414706 0.582216
Si Si7 0.233704 0.326959 0.405168
Si Si8 0.769236 0.415897 0.363279
O O1 0.144038 0.749979 0.655052
O O2 0.268552 0.724079 0.895258
O O3 0.197189 0.620132 0.696802
O O4 0.187967 0.667534 0.920637
O O5 0.419084 0.662210 0.314435
O O6 0.518273 0.713089 0.374813
O O7 0.394840 0.756024 0.101957
O O8 0.430250 0.632952 0.084478
O O9 0.106103 0.878709 0.490662
O O10 0.306349 0.182475 0.799627
O O11 0.402541 0.500000 0.964268
O O12 0.404252 0.596002 0.789244
O O13 0.310864 0.595737 0.786595
O O14 0.353988 0.500000 0.549894
O O15 0.298442 0.370259 0.483377
O O16 0.250000 0.250000 0.500000
O O17 0.203493 0.374768 0.461840
O O18 0.779266 0.500000 0.389953
#
# Coordination Sequence:
#
# PCOD9173491 Si02
#       8
#     8   8   8   8   8   8   8   8
#     4  10  18  33  52  76  99 128 169 212 251 293
#     4  10  20  34  49  73  98 130 169 208 245 296
#     4  10  21  34  50  71 102 132 167 207 249 294
#     4  10  18  30  54  74  98 125 169 214 250 282
#     4   9  18  31  47  67 100 136 167 199 240 291
#     4  10  20  33  47  71 103 137 169 203 244 296
#     4  11  17  30  52  75  98 131 166 212 255 292
#     4  10  19  32  51  78 105 132 164 205 256 307
#
# _framework density 16.164068
#
# number of rings (size 3 to 8) (size 9 to 14) (size 15 to 20)
#    0.000    2.000    3.750    1.875    0.000    1.500 
#    0.000    5.000    0.000    0.000    0.000    9.625 
#    0.000    0.000    0.000    0.000    0.000    0.000 
#
# Total GULP energy -178239.467102 kJ/mol
# GULP energy per Si atom -5569.983347 kJ/mol
# Density = 1.612728 g / cm^3
# Si number density = 16.164068 Si / 1000 Ang^3
#
#
#
# Elastic Constant Matrix: (Units=GPa)
#
#
# Indices 1 2 3 4 5 6 
#
# 1 41.3095 30.0213 30.5375 0.0000 -12.0027 0.0000
# 2 30.0213 68.8176 39.8182 0.0000 -17.6168 0.0000
# 3 30.5375 39.8182 105.4385 0.0000 -22.6346 0.0000
# 4 0.0000 0.0000 0.0000 20.9500 0.0000 -4.2957
# 5 -12.0027 -17.6168 -22.6346 0.0000 31.3046 0.0000
# 6 0.0000 0.0000 0.0000 -4.2957 0.0000 15.2368
#
#
#
# Elastic Compliance Matrix: (Units=1/GPa)
#
#
# Indices 1 2 3 4 5 6 
#
# 1 0.038623 -0.012669 -0.005627 0.000000 0.003611 0.000000
# 2 -0.012669 0.023891 -0.004154 0.000000 0.005583 0.000000
# 3 -0.005627 -0.004154 0.013871 0.000000 0.005534 0.000000
# 4 0.000000 0.000000 0.000000 0.050661 0.000000 0.014283
# 5 0.003611 0.005583 0.005534 0.000000 0.040472 0.000000
# 6 0.000000 0.000000 0.000000 0.014283 0.000000 0.069658
#
#
# Mechanical properties :
#
#
# Convention : Reuss Voigt Hill
#
# Bulk Modulus (GPa) = 31.76167 46.25772 39.00970
# Shear Modulus (GPa) = 17.08984 21.17752 19.13368
#
# Velocity S-wave (km/s) = 3.25510 3.62354 3.44425
# Velocity P-wave (km/s) = 5.81548 6.79606 6.32480
#
# Compressibility (1/GPa) = 0.03148449
#
# Stress axis : x y z
#
# Youngs Moduli (GPa) = 25.89110 41.85647 72.09466
#
# Poissons Ratio (x) = 0.53029 0.40565
# Poissons Ratio (y) = 0.32802 0.29951
# Poissons Ratio (z) = 0.14568 0.17389
#
# Static dielectric constant tensor:
#      x y z
#    x 1.578660 0.000000 -0.009620 
#    y 0.000000 1.520840 0.000000 
#    z -0.009620 0.000000 1.583840 
# 
# From -- ./inp_files/106408.got.cif
#   From: 2010.05.17/outbox.cif.g08.bks.cpg/sg12_54_cif.got.tgz:106408.got - 2010.06.03 13:09:07.
