data_PCOD9173899
_publ_section_title
;
Structure prediction by ZEFSAII (Michael W. Deem and Ramdas Pophale) SiO2 
 PCOD9173899
Probable space group: C 2/M
;
_chemical_formula_sum "Si O2"
_cell_formula_units_Z 56
_cell_length_a 22.619522
_cell_length_b 7.569682
_cell_length_c 19.869721
_cell_angle_alpha 90.000000
_cell_angle_beta 134.619766
_cell_angle_gamma 90.000000
_cell_volume 2421.591651
_symmetry_space_group_name_H-M "C 2/M"
_symmetry_group_IT_number 12
_symmetry_cell_setting 'monoclinic'
loop_
_space_group_symop_operation_xyz
x,y,z
-x,y,-z
-x,-y,-z
x,-y,z
1/2+x,1/2+y,z
1/2-x,1/2+y,-z
1/2-x,1/2-y,-z
1/2+x,1/2-y,z
loop_
_atom_site_type_symbol
_atom_site_label
_atom_site_fract_x
_atom_site_fract_y
_atom_site_fract_z
Si Si1 0.482399 0.788631 0.061110
Si Si2 0.490770 0.789313 0.286518
Si Si3 0.817462 0.288267 0.110160
Si Si4 0.613882 0.783012 0.279070
Si Si5 0.243154 0.202420 0.694334
Si Si6 0.067528 0.787254 0.608833
Si Si7 0.194082 0.209875 0.118909
O O1 0.544694 0.726464 0.168428
O O2 0.491334 0.000000 0.066748
O O3 0.500000 0.717665 0.000000
O O4 0.384865 0.750510 0.990684
O O5 0.410923 0.720652 0.180601
O O6 0.576103 0.725177 0.320676
O O7 0.466874 0.759993 0.344881
O O8 0.493840 0.000000 0.279990
O O9 0.822727 0.500000 0.118364
O O10 0.775862 0.224072 0.146105
O O11 0.750000 0.250000 0.000000
O O12 0.703846 0.719736 0.325022
O O13 0.618262 0.000000 0.281025
O O14 0.157805 0.281583 0.655812
O O15 0.306917 0.204721 0.808584
O O16 0.223599 0.000000 0.660876
O O17 0.000000 0.731030 0.500000
O O18 0.072687 0.000000 0.613091
O O19 0.198457 0.000000 0.131616
#
# Coordination Sequence:
#
# PCOD9173899 Si02
#       7
#     8   8   8   8   8   8   8
#     4  10  18  31  51  74 106 152 202 230 257 321
#     4  10  20  37  58  82 114 146 184 235 283 333
#     4  10  21  34  50  75 110 149 187 228 274 328
#     4   9  18  33  55  81 108 146 192 232 267 319
#     4  10  19  36  59  79 104 143 187 225 270 335
#     4  10  22  40  63  88 111 140 183 237 292 347
#     4  11  21  32  48  76 111 142 183 233 279 319
#
# _framework density 23.125285999999999
#
# number of rings (size 3 to 8) (size 9 to 14) (size 15 to 20)
#    0.000    2.000    2.857    1.286    0.000    3.429 
#    0.000    2.143    0.000    0.000    0.000    0.000 
#    0.000    0.000    0.000    0.000    0.000    0.000 
#
# Total GULP energy -156243.471672 kJ/mol
# GULP energy per Si atom -5580.123988 kJ/mol
# Density = 2.307265 g / cm^3
# Si number density = 23.125286 Si / 1000 Ang^3
#
#
#
# Elastic Constant Matrix: (Units=GPa)
#
#
# Indices 1 2 3 4 5 6 
#
# 1 229.3090 4.9786 52.3473 0.0000 5.5027 0.0000
# 2 4.9786 51.7955 -7.3496 0.0000 1.5505 -0.0001
# 3 52.3473 -7.3496 68.1056 0.0000 0.3637 0.0000
# 4 0.0000 0.0000 0.0000 5.8823 0.0000 -1.6560
# 5 5.5027 1.5505 0.3637 0.0000 20.6591 0.0000
# 6 0.0000 -0.0001 0.0000 -1.6560 0.0000 14.3808
#
#
#
# Elastic Compliance Matrix: (Units=1/GPa)
#
#
# Indices 1 2 3 4 5 6 
#
# 1 0.005385 -0.001082 -0.004249 0.000000 -0.001278 0.000000
# 2 -0.001082 0.019872 0.002983 0.000000 -0.001256 0.000000
# 3 -0.004249 0.002983 0.018268 0.000000 0.000586 0.000000
# 4 0.000000 0.000000 0.000000 0.175699 0.000000 0.020232
# 5 -0.001278 -0.001256 0.000586 0.000000 0.048829 0.000000
# 6 0.000000 0.000000 0.000000 0.020232 0.000000 0.071867
#
#
# Mechanical properties :
#
#
# Convention : Reuss Voigt Hill
#
# Bulk Modulus (GPa) = 25.75473 49.90695 37.83084
# Shear Modulus (GPa) = 13.98374 28.13336 21.05855
#
# Velocity S-wave (km/s) = 2.46172 3.49171 3.02094
# Velocity P-wave (km/s) = 4.38649 6.15500 5.34441
#
# Compressibility (1/GPa) = 0.03882782
#
# Stress axis : x y z
#
# Youngs Moduli (GPa) = 185.69809 50.32308 54.74121
#
# Poissons Ratio (x) = 0.05446 0.23260
# Poissons Ratio (y) = 0.20098 -0.16329
# Poissons Ratio (z) = 0.78904 -0.15011
#
# Static dielectric constant tensor:
#      x y z
#    x 1.976670 0.000000 0.018550 
#    y 0.000000 1.864830 0.000000 
#    z 0.018550 0.000000 1.842060 
# 
# From -- ./inp_files/320206.got.cif
#   From: 2010.05.17/outbox.cif.g08.bks.cpg/sg12_161_cif.got.tgz:320206.got - 2010.06.03 13:09:07.
