data_PCOD9173604
_publ_section_title
;
Structure prediction by ZEFSAII (Michael W. Deem and Ramdas Pophale) SiO2 
 PCOD9173604
Probable space group: C 2/M
;
_chemical_formula_sum "Si O2"
_cell_formula_units_Z 64
_cell_length_a 24.972674
_cell_length_b 8.892239
_cell_length_c 21.811553
_cell_angle_alpha 90.000000
_cell_angle_beta 47.386715
_cell_angle_gamma 90.000000
_cell_volume 3564.554375
_symmetry_space_group_name_H-M "C 2/M"
_symmetry_group_IT_number 12
_symmetry_cell_setting 'monoclinic'
loop_
_space_group_symop_operation_xyz
x,y,z
-x,y,-z
-x,-y,-z
x,-y,z
1/2+x,1/2+y,z
1/2-x,1/2+y,-z
1/2-x,1/2-y,-z
1/2+x,1/2-y,z
loop_
_atom_site_type_symbol
_atom_site_label
_atom_site_fract_x
_atom_site_fract_y
_atom_site_fract_z
Si Si1 0.632434 0.824718 0.274235
Si Si2 0.278933 0.681106 0.216119
Si Si3 0.064846 0.680674 0.905193
Si Si4 0.644298 0.672737 0.516548
Si Si5 0.085721 0.163227 0.424402
Si Si6 0.062733 0.320316 0.764319
Si Si7 0.502319 0.680285 0.299053
Si Si8 0.779880 0.179593 0.358708
O O1 0.715805 0.769907 0.217794
O O2 0.605126 0.798130 0.364873
O O3 0.574314 0.740182 0.276979
O O4 0.632250 0.000000 0.258130
O O5 0.280565 0.500000 0.213542
O O6 0.357657 0.746255 0.139683
O O7 0.263043 0.723236 0.300123
O O8 0.071985 0.500000 0.904354
O O9 0.048495 0.715921 0.846671
O O10 0.000000 0.729725 0.000000
O O11 0.659390 0.500000 0.524431
O O12 0.619137 0.670313 0.465359
O O13 0.573175 0.728628 0.608307
O O14 0.718107 0.767237 0.453956
O O15 0.000000 0.162296 0.500000
O O16 0.106730 0.000000 0.379759
O O17 0.062544 0.500000 0.757018
O O18 0.005839 0.244358 0.762740
O O19 0.142858 0.255627 0.687181
O O20 0.503009 0.500000 0.299691
O O21 0.786768 0.000000 0.355339
#
# Coordination Sequence:
#
# PCOD9173604 Si02
#       8
#     8   8   8   8   8   8   8   8
#     4  11  21  33  50  76 108 142 181 225 268 310
#     4   9  19  33  51  81 114 139 169 213 265 312
#     4   9  19  37  63  91 112 131 161 205 260 321
#     4  10  20  32  48  70 100 140 187 232 272 309
#     4  10  18  31  47  68  99 139 186 233 274 308
#     4  10  21  38  57  79 106 138 173 213 265 322
#     4  11  23  38  52  72 104 147 190 225 263 312
#     4  10  19  33  52  75 104 139 180 228 272 312
#
# _framework density 17.954559
#
# number of rings (size 3 to 8) (size 9 to 14) (size 15 to 20)
#    0.000    2.000    2.500    1.500    0.000    4.000 
#    0.000    0.000    0.000    0.750    0.000    0.000 
#    0.000    0.000    0.000    0.000    0.000    0.000 
#
# Total GULP energy -178455.453451 kJ/mol
# GULP energy per Si atom -5576.732920 kJ/mol
# Density = 1.791369 g / cm^3
# Si number density = 17.954559 Si / 1000 Ang^3
#
#
#
# Elastic Constant Matrix: (Units=GPa)
#
#
# Indices 1 2 3 4 5 6 
#
# 1 125.9514 36.0074 60.8044 0.0001 -1.3682 0.0000
# 2 36.0074 33.9276 30.6271 -0.0002 -2.0368 0.0007
# 3 60.8044 30.6271 86.8425 0.0001 -19.5773 0.0000
# 4 0.0001 -0.0002 0.0001 16.4813 0.0000 -1.9830
# 5 -1.3682 -2.0368 -19.5773 0.0000 14.5890 0.0000
# 6 0.0000 0.0007 0.0000 -1.9830 0.0000 26.8148
#
#
#
# Elastic Compliance Matrix: (Units=1/GPa)
#
#
# Indices 1 2 3 4 5 6 
#
# 1 0.015430 -0.006425 -0.012063 0.000000 -0.015637 0.000000
# 2 -0.006425 0.050758 -0.017119 0.000001 -0.016489 -0.000001
# 3 -0.012063 -0.017119 0.036136 0.000000 0.044971 0.000000
# 4 0.000000 0.000001 0.000000 0.061219 -0.000001 0.004527
# 5 -0.015637 -0.016489 0.044971 -0.000001 0.125123 0.000000
# 6 0.000000 -0.000001 0.000000 0.004527 0.000000 0.037628
#
#
# Mechanical properties :
#
#
# Convention : Reuss Voigt Hill
#
# Bulk Modulus (GPa) = 32.14428 55.73324 43.93876
# Shear Modulus (GPa) = 12.25853 19.52921 15.89387
#
# Velocity S-wave (km/s) = 2.61579 3.30161 2.97851
# Velocity P-wave (km/s) = 5.20242 6.75595 6.02943
#
# Compressibility (1/GPa) = 0.03110973
#
# Stress axis : x y z
#
# Youngs Moduli (GPa) = 64.80874 19.70139 27.67290
#
# Poissons Ratio (x) = 0.12659 0.33381
# Poissons Ratio (y) = 0.41643 0.47374
# Poissons Ratio (z) = 0.78177 0.33727
#
# Static dielectric constant tensor:
#      x y z
#    x 1.664720 0.000000 -0.008990 
#    y 0.000000 1.634270 0.000000 
#    z -0.008990 0.000000 1.605250 
# 
# From -- ./inp_files/324111.got.cif
#   From: 2010.05.17/outbox.cif.g08.bks.cpg/sg12_163_cif.got.tgz:324111.got - 2010.06.03 13:09:07.
