data_PCOD9173539
_publ_section_title
;
Structure prediction by ZEFSAII (Michael W. Deem and Ramdas Pophale) SiO2 
 PCOD9173539
Probable space group: C 2/M
;
_chemical_formula_sum "Si O2"
_cell_formula_units_Z 56
_cell_length_a 12.182623
_cell_length_b 13.768290
_cell_length_c 28.224272
_cell_angle_alpha 90.000000
_cell_angle_beta 141.155128
_cell_angle_gamma 90.000000
_cell_volume 2969.335568
_symmetry_space_group_name_H-M "C 2/M"
_symmetry_group_IT_number 12
_symmetry_cell_setting 'monoclinic'
loop_
_space_group_symop_operation_xyz
x,y,z
-x,y,-z
-x,-y,-z
x,-y,z
1/2+x,1/2+y,z
1/2-x,1/2+y,-z
1/2-x,1/2-y,-z
1/2+x,1/2-y,z
loop_
_atom_site_type_symbol
_atom_site_label
_atom_site_fract_x
_atom_site_fract_y
_atom_site_fract_z
Si Si1 0.094991 0.109282 0.080513
Si Si2 0.505629 0.110267 0.196822
Si Si3 0.528808 0.752633 0.290141
Si Si4 0.093308 0.236871 0.910449
Si Si5 0.341279 0.890489 0.301337
Si Si6 0.922327 0.111434 0.180263
Si Si7 0.344304 0.887750 0.410524
O O1 0.300821 0.105000 0.142135
O O2 0.049101 0.177835 0.107987
O O3 0.029591 0.000000 0.069194
O O4 0.000000 0.139971 0.000000
O O5 0.587378 0.174939 0.266687
O O6 0.493524 0.169605 0.143606
O O7 0.572956 0.000000 0.215815
O O8 0.426019 0.813464 0.294767
O O9 0.408879 0.672060 0.223811
O O10 0.692161 0.691686 0.365291
O O11 0.164874 0.170894 0.891348
O O12 0.250000 0.250000 0.000000
O O13 0.130765 0.884953 0.237116
O O14 0.409329 0.878911 0.378011
O O15 0.380294 0.000000 0.297093
O O16 0.869446 0.000000 0.166031
O O17 0.500000 0.875258 0.500000
O O18 0.277334 0.000000 0.392110
#
# Coordination Sequence:
#
# PCOD9173539 Si02
#       7
#     8   8   8   8   8   8   8
#     4  10  19  33  53  75  97 126 172 223 261 304
#     4  10  21  35  52  75 102 135 176 220 261 306
#     4  10  18  30  55  81 102 132 174 213 252 300
#     4  11  20  30  50  76  99 130 173 223 270 312
#     4   9  17  32  55  79 103 134 171 207 246 297
#     4   9  19  34  51  74 101 132 173 219 259 304
#     4   9  19  36  57  83 111 135 166 209 253 302
#
# _framework density 18.859437
#
# number of rings (size 3 to 8) (size 9 to 14) (size 15 to 20)
#    0.000    2.286    1.429    3.000    0.000    3.429 
#    0.000    0.000    0.000   45.000    0.000    0.000 
#    0.000    0.000    0.000    0.000    0.000    0.000 
#
# Total GULP energy -156238.492732 kJ/mol
# GULP energy per Si atom -5579.946169 kJ/mol
# Density = 1.881651 g / cm^3
# Si number density = 18.859437 Si / 1000 Ang^3
#
#
#
# Elastic Constant Matrix: (Units=GPa)
#
#
# Indices 1 2 3 4 5 6 
#
# 1 50.6364 35.3311 17.5679 0.0000 -9.0155 0.0000
# 2 35.3311 130.0761 37.1250 0.0000 -13.1511 0.0000
# 3 17.5679 37.1250 106.2657 0.0000 -17.9761 0.0000
# 4 0.0000 0.0000 0.0000 21.6996 0.0000 3.5566
# 5 -9.0155 -13.1511 -17.9761 0.0000 17.1784 0.0000
# 6 0.0000 0.0000 0.0000 3.5566 0.0000 30.6273
#
#
#
# Elastic Compliance Matrix: (Units=1/GPa)
#
#
# Indices 1 2 3 4 5 6 
#
# 1 0.025583 -0.005904 -0.000802 0.000000 0.008067 0.000000
# 2 -0.005904 0.010153 -0.002163 0.000000 0.002410 0.000000
# 3 -0.000802 -0.002163 0.012087 0.000000 0.010571 0.000000
# 4 0.000000 0.000000 0.000000 0.046978 0.000000 -0.005455
# 5 0.008067 0.002410 0.010571 0.000000 0.075354 0.000000
# 6 0.000000 0.000000 0.000000 -0.005455 0.000000 0.033284
#
#
# Mechanical properties :
#
#
# Convention : Reuss Voigt Hill
#
# Bulk Modulus (GPa) = 33.24072 51.89179 42.56625
# Shear Modulus (GPa) = 21.62583 27.03133 24.32858
#
# Velocity S-wave (km/s) = 3.38995 3.79001 3.59555
# Velocity P-wave (km/s) = 5.74335 6.83571 6.31320
#
# Compressibility (1/GPa) = 0.03008359
#
# Stress axis : x y z
#
# Youngs Moduli (GPa) = 39.08870 98.49723 82.73393
#
# Poissons Ratio (x) = 0.58155 0.06635
# Poissons Ratio (y) = 0.23079 0.17896
# Poissons Ratio (z) = 0.03135 0.21306
#
# Static dielectric constant tensor:
#      x y z
#    x 1.661410 0.000000 -0.016320 
#    y 0.000000 1.706570 0.000000 
#    z -0.016320 0.000000 1.688160 
# 
# From -- ./inp_files/375907.got.cif
#   From: 2010.05.17/outbox.cif.g08.bks.cpg/sg12_188_cif.got.tgz:375907.got - 2010.06.03 13:09:07.
