data_PCOD9173857
_publ_section_title
;
Structure prediction by ZEFSAII (Michael W. Deem and Ramdas Pophale) SiO2 
 PCOD9173857
Probable space group: C 2/M
;
_chemical_formula_sum "Si O2"
_cell_formula_units_Z 56
_cell_length_a 19.695316
_cell_length_b 8.031194
_cell_length_c 28.618237
_cell_angle_alpha 90.000000
_cell_angle_beta 138.811956
_cell_angle_gamma 90.000000
_cell_volume 2981.007841
_symmetry_space_group_name_H-M "C 2/M"
_symmetry_group_IT_number 12
_symmetry_cell_setting 'monoclinic'
loop_
_space_group_symop_operation_xyz
x,y,z
-x,y,-z
-x,-y,-z
x,-y,z
1/2+x,1/2+y,z
1/2-x,1/2+y,-z
1/2-x,1/2-y,-z
1/2+x,1/2-y,z
loop_
_atom_site_type_symbol
_atom_site_label
_atom_site_fract_x
_atom_site_fract_y
_atom_site_fract_z
Si Si1 0.408339 0.802269 0.057278
Si Si2 0.569814 0.200677 0.643496
Si Si3 0.117183 0.801315 0.568872
Si Si4 0.192006 0.703719 0.797222
Si Si5 0.803063 0.298787 0.097180
Si Si6 0.835349 0.301967 0.506069
Si Si7 0.425082 0.694553 0.921557
O O1 0.372391 0.743936 0.089691
O O2 0.509153 0.712262 0.091106
O O3 0.425728 0.000000 0.067179
O O4 0.312154 0.764565 0.973137
O O5 0.636444 0.245834 0.631987
O O6 0.623640 0.262329 0.718671
O O7 0.451406 0.263953 0.577707
O O8 0.564682 0.000000 0.642602
O O9 0.183046 0.746363 0.557932
O O10 0.000000 0.735913 0.500000
O O11 0.115412 0.000000 0.567371
O O12 0.191329 0.500000 0.794628
O O13 0.157247 0.751016 0.831405
O O14 0.310659 0.762423 0.856210
O O15 0.797515 0.500000 0.092909
O O16 0.840063 0.500000 0.510216
O O17 0.750000 0.250000 0.500000
O O18 0.411157 0.500000 0.926946
O O19 0.500000 0.770984 0.000000
#
# Coordination Sequence:
#
# PCOD9173857 Si02
#       7
#     8   8   8   8   8   8   8
#     4  10  19  29  46  71  97 122 159 215 257 288
#     4   9  18  33  53  76 101 133 170 208 251 301
#     4   9  17  31  52  76 103 134 167 203 245 297
#     4   9  17  32  53  72  94 130 172 206 243 301
#     4   9  17  32  50  67  91 128 166 198 246 306
#     4  10  19  32  53  80 107 135 171 211 249 295
#     4  10  18  31  51  70  92 128 168 203 244 300
#
# _framework density 18.785591
#
# number of rings (size 3 to 8) (size 9 to 14) (size 15 to 20)
#    0.000    2.571    1.429    1.286    0.000    3.143 
#    0.000    2.857    0.000    1.714    0.000    0.000 
#    0.000    0.000    0.000    0.000    0.000    0.000 
#
# Total GULP energy -155991.027940 kJ/mol
# GULP energy per Si atom -5571.108141 kJ/mol
# Density = 1.874283 g / cm^3
# Si number density = 18.785591 Si / 1000 Ang^3
#
#
#
# Elastic Constant Matrix: (Units=GPa)
#
#
# Indices 1 2 3 4 5 6 
#
# 1 125.7397 3.5479 58.3999 0.0000 -23.4108 -0.0001
# 2 3.5479 18.6340 8.8245 0.0001 -1.5961 -0.0003
# 3 58.3999 8.8245 113.0649 0.0000 -30.3195 0.0000
# 4 0.0000 0.0001 0.0000 10.8463 0.0000 -3.8623
# 5 -23.4108 -1.5961 -30.3195 0.0000 29.5735 0.0000
# 6 -0.0001 -0.0003 0.0000 -3.8623 0.0000 28.0471
#
#
#
# Elastic Compliance Matrix: (Units=1/GPa)
#
#
# Indices 1 2 3 4 5 6 
#
# 1 0.010782 0.000440 -0.004563 0.000000 0.003881 0.000000
# 2 0.000440 0.055829 -0.005080 0.000000 -0.001846 0.000001
# 3 -0.004563 -0.005080 0.014558 0.000000 0.011039 0.000000
# 4 0.000000 0.000000 0.000000 0.096951 0.000000 0.013351
# 5 0.003881 -0.001846 0.011039 0.000000 0.048105 0.000000
# 6 0.000000 0.000001 0.000000 0.013351 0.000000 0.037493
#
#
# Mechanical properties :
#
#
# Convention : Reuss Voigt Hill
#
# Bulk Modulus (GPa) = 15.93257 44.33144 30.13201
# Shear Modulus (GPa) = 16.49925 26.13781 21.31853
#
# Velocity S-wave (km/s) = 2.96682 3.73416 3.37238
# Velocity P-wave (km/s) = 4.49841 6.49937 5.58916
#
# Compressibility (1/GPa) = 0.06276451
#
# Stress axis : x y z
#
# Youngs Moduli (GPa) = 92.74405 17.91183 68.69087
#
# Poissons Ratio (x) = -0.00789 0.31342
# Poissons Ratio (y) = -0.04084 0.34895
# Poissons Ratio (z) = 0.42317 0.09099
#
# Static dielectric constant tensor:
#      x y z
#    x 1.678360 0.000000 -0.022100 
#    y 0.000000 1.659230 0.000000 
#    z -0.022100 0.000000 1.668030 
# 
# From -- ./inp_files/313298.got.cif
#   From: 2010.05.17/outbox.cif.g08.bks.cpg/sg12_157_cif.got.tgz:313298.got - 2010.06.03 13:09:07.
