data_PCOD9173077
_publ_section_title
;
Structure prediction by ZEFSAII (Michael W. Deem and Ramdas Pophale) SiO2 
 PCOD9173077
Probable space group: C 2/M
;
_chemical_formula_sum "Si O2"
_cell_formula_units_Z 56
_cell_length_a 17.349212
_cell_length_b 19.229963
_cell_length_c 12.587088
_cell_angle_alpha 90.000000
_cell_angle_beta 48.421187
_cell_angle_gamma 90.000000
_cell_volume 3141.306786
_symmetry_space_group_name_H-M "C 2/M"
_symmetry_group_IT_number 12
_symmetry_cell_setting 'monoclinic'
loop_
_space_group_symop_operation_xyz
x,y,z
-x,y,-z
-x,-y,-z
x,-y,z
1/2+x,1/2+y,z
1/2-x,1/2+y,-z
1/2-x,1/2-y,-z
1/2+x,1/2-y,z
loop_
_atom_site_type_symbol
_atom_site_label
_atom_site_fract_x
_atom_site_fract_y
_atom_site_fract_z
Si Si1 0.798734 0.580293 0.217234
Si Si2 0.219621 0.700093 0.428273
Si Si3 0.069944 0.361174 0.720294
Si Si4 0.880742 0.813661 0.627639
Si Si5 0.364029 0.689053 0.895112
Si Si6 0.556028 0.293956 0.835321
Si Si7 0.654836 0.849837 0.048292
O O1 0.775130 0.500000 0.221076
O O2 0.880623 0.589332 0.236766
O O3 0.696361 0.624774 0.336486
O O4 0.841647 0.614550 0.069867
O O5 0.250000 0.750000 0.500000
O O6 0.144786 0.644116 0.550895
O O7 0.155346 0.746305 0.404427
O O8 0.327626 0.677446 0.276740
O O9 0.066874 0.285143 0.781410
O O10 0.950776 0.374079 0.801119
O O11 0.867108 0.802011 0.765594
O O12 0.000000 0.829255 0.500000
O O13 0.475879 0.665932 0.832452
O O14 0.349193 0.765609 0.959686
O O15 0.264498 0.641084 0.006906
O O16 0.500000 0.293159 0.000000
#
# Coordination Sequence:
#
# PCOD9173077 Si02
#       7
#     8   8   8   8   8   8   8
#     4  11  22  33  50  76 107 151 187 211 255 316
#     4  10  19  31  49  77 101 140 174 213 274 316
#     4  10  18  31  49  70 106 138 171 216 257 314
#     4  11  20  33  52  75 111 140 175 224 268 324
#     4   9  19  29  50  77 101 136 172 208 278 321
#     4  10  18  30  50  73 105 137 164 213 270 326
#     4   9  18  31  47  71 103 132 173 214 255 317
#
# _framework density 17.826975999999998
#
# number of rings (size 3 to 8) (size 9 to 14) (size 15 to 20)
#    0.000    2.000    2.857    4.714    6.000    1.429 
#    0.000    0.000    0.000    0.000    0.000    1.000 
#    0.000   16.571    0.000    0.000    0.000    0.000 
#
# Total GULP energy -155970.687813 kJ/mol
# GULP energy per Si atom -5570.381708 kJ/mol
# Density = 1.778640 g / cm^3
# Si number density = 17.826976 Si / 1000 Ang^3
#
#
#
# Elastic Constant Matrix: (Units=GPa)
#
#
# Indices 1 2 3 4 5 6 
#
# 1 70.7335 15.9084 28.5536 0.0000 -14.9746 0.0000
# 2 15.9084 38.7945 15.7692 0.0000 -0.8572 0.0000
# 3 28.5536 15.7692 104.4648 0.0000 -26.1411 0.0000
# 4 0.0000 0.0000 0.0000 2.1230 0.0000 1.2501
# 5 -14.9746 -0.8572 -26.1411 0.0000 38.7220 0.0000
# 6 0.0000 0.0000 0.0000 1.2501 0.0000 6.3734
#
#
#
# Elastic Compliance Matrix: (Units=1/GPa)
#
#
# Indices 1 2 3 4 5 6 
#
# 1 0.017605 -0.006020 -0.002687 0.000000 0.004861 0.000000
# 2 -0.006020 0.029746 -0.003926 0.000000 -0.004320 0.000000
# 3 -0.002687 -0.003926 0.012776 0.000000 0.007499 0.000000
# 4 0.000000 0.000000 0.000000 0.532536 0.000000 -0.104452
# 5 0.004861 -0.004320 0.007499 0.000000 0.032672 0.000000
# 6 0.000000 0.000000 0.000000 -0.104452 0.000000 0.177389
#
#
# Mechanical properties :
#
#
# Convention : Reuss Voigt Hill
#
# Bulk Modulus (GPa) = 28.68435 37.16169 32.92302
# Shear Modulus (GPa) = 5.95515 19.69445 12.82480
#
# Velocity S-wave (km/s) = 1.82969 3.32739 2.68508
# Velocity P-wave (km/s) = 4.53752 5.97102 5.30293
#
# Compressibility (1/GPa) = 0.03486221
#
# Stress axis : x y z
#
# Youngs Moduli (GPa) = 56.80134 33.61835 78.27040
#
# Poissons Ratio (x) = 0.20237 0.21031
# Poissons Ratio (y) = 0.34193 0.30727
# Poissons Ratio (z) = 0.15262 0.13198
#
# Static dielectric constant tensor:
#      x y z
#    x 1.682890 0.000000 -0.048920 
#    y 0.000000 1.574850 0.000000 
#    z -0.048920 0.000000 1.667570 
# 
# From -- ./inp_files/158205.got.cif
#   From: 2010.05.17/outbox.cif.g08.bks.cpg/sg12_80_cif.got.tgz:158205.got - 2010.06.03 13:09:07.
