data_PCOD9173532
_publ_section_title
;
Structure prediction by ZEFSAII (Michael W. Deem and Ramdas Pophale) SiO2 
 PCOD9173532
Probable space group: C 2/M
;
_chemical_formula_sum "Si O2"
_cell_formula_units_Z 52
_cell_length_a 19.542720
_cell_length_b 18.847319
_cell_length_c 14.074732
_cell_angle_alpha 90.000000
_cell_angle_beta 39.289460
_cell_angle_gamma 90.000000
_cell_volume 3282.781989
_symmetry_space_group_name_H-M "C 2/M"
_symmetry_group_IT_number 12
_symmetry_cell_setting 'monoclinic'
loop_
_space_group_symop_operation_xyz
x,y,z
-x,y,-z
-x,-y,-z
x,-y,z
1/2+x,1/2+y,z
1/2-x,1/2+y,-z
1/2-x,1/2-y,-z
1/2+x,1/2-y,z
loop_
_atom_site_type_symbol
_atom_site_label
_atom_site_fract_x
_atom_site_fract_y
_atom_site_fract_z
Si Si1 0.110840 0.858335 0.824769
Si Si2 0.375581 0.729399 0.379848
Si Si3 0.213422 0.000000 0.635437
Si Si4 0.406977 0.000000 0.290262
Si Si5 0.822147 0.000000 0.543337
Si Si6 0.168302 0.708028 0.842392
Si Si7 0.020465 0.652876 0.828665
Si Si8 0.390329 0.352487 0.559537
O O1 0.090798 0.822355 0.742924
O O2 0.180250 0.928998 0.728332
O O3 0.164197 0.792541 0.826016
O O4 0.000000 0.875448 0.000000
O O5 0.250000 0.750000 0.500000
O O6 0.442986 0.801202 0.299820
O O7 0.393613 0.693144 0.460102
O O8 0.337795 0.000000 0.463411
O O9 0.151418 0.000000 0.598804
O O10 0.308615 0.000000 0.319456
O O11 0.475041 0.929390 0.200344
O O12 0.864660 0.931361 0.550948
O O13 0.112000 0.671320 0.810155
O O14 0.287651 0.678444 0.726225
O O15 0.089819 0.683721 0.010955
O O16 0.500000 0.349383 0.500000
#
# Coordination Sequence:
#
# PCOD9173532 Si02
#       8
#     8   8   4   4   4   8   8   8
#     4  11  18  31  53  82 112 137 180 229 281 320
#     4  11  17  33  56  76 107 143 179 230 269 320
#     4  10  19  29  52  86 114 141 175 226 278 335
#     4  10  18  30  54  89 106 140 182 230 283 326
#     4  10  19  34  47  74 113 142 179 219 276 323
#     4  10  19  33  51  80 109 143 177 229 284 312
#     4  10  18  31  54  80 109 133 180 234 280 313
#     4  12  23  35  53  78 111 152 187 222 276 341
#
# _framework density 15.840223
#
# number of rings (size 3 to 8) (size 9 to 14) (size 15 to 20)
#    0.462    0.923    9.231    1.385    0.000    1.846 
#    0.000    0.769    0.000    0.000    0.000    2.154 
#    0.000    0.000    0.000    0.000    0.000    0.000 
#
# Total GULP energy -144804.719068 kJ/mol
# GULP energy per Si atom -5569.412272 kJ/mol
# Density = 1.580417 g / cm^3
# Si number density = 15.840223 Si / 1000 Ang^3
#
#
#
# Elastic Constant Matrix: (Units=GPa)
#
#
# Indices 1 2 3 4 5 6 
#
# 1 58.8702 31.2195 38.6211 0.0000 -10.4260 0.0000
# 2 31.2195 157.6064 54.5597 0.0000 -2.7995 0.0000
# 3 38.6211 54.5597 100.9900 0.0000 -8.3838 0.0000
# 4 0.0000 0.0000 0.0000 30.5480 0.0000 4.0664
# 5 -10.4260 -2.7995 -8.3838 0.0000 17.0780 0.0000
# 6 0.0000 0.0000 0.0000 4.0664 0.0000 1.7193
#
#
#
# Elastic Compliance Matrix: (Units=1/GPa)
#
#
# Indices 1 2 3 4 5 6 
#
# 1 0.025030 -0.002175 -0.007462 0.000000 0.011261 0.000000
# 2 -0.002175 0.008005 -0.003643 0.000000 -0.001804 0.000000
# 3 -0.007462 -0.003643 0.014903 0.000000 0.002163 0.000000
# 4 0.000000 0.000000 0.000000 0.047778 0.000000 -0.113003
# 5 0.011261 -0.001804 0.002163 0.000000 0.066196 0.000000
# 6 0.000000 0.000000 0.000000 -0.113003 0.000000 0.848906
#
#
# Mechanical properties :
#
#
# Convention : Reuss Voigt Hill
#
# Bulk Modulus (GPa) = 46.77620 62.91858 54.84739
# Shear Modulus (GPa) = 4.78697 22.74014 13.76356
#
# Velocity S-wave (km/s) = 1.74029 3.79304 2.95091
# Velocity P-wave (km/s) = 5.79933 7.68048 6.80522
#
# Compressibility (1/GPa) = 0.02137839
#
# Stress axis : x y z
#
# Youngs Moduli (GPa) = 39.95274 124.92762 67.09976
#
# Poissons Ratio (x) = 0.27168 0.50071
# Poissons Ratio (y) = 0.08689 0.24441
# Poissons Ratio (z) = 0.29814 0.45506
#
# Static dielectric constant tensor:
#      x y z
#    x 1.490060 0.000000 0.002830 
#    y 0.000000 1.557510 0.000000 
#    z 0.002830 0.000000 1.574800 
# 
# From -- ./inp_files/234079.got.cif
#   From: 2010.05.17/outbox.cif.g08.bks.cpg/sg12_118_cif.got.tgz:234079.got - 2010.06.03 13:09:07.
