data_PCOD9173368
_publ_section_title
;
Structure prediction by ZEFSAII (Michael W. Deem and Ramdas Pophale) SiO2 
 PCOD9173368
Probable space group: C 2/M
;
_chemical_formula_sum "Si O2"
_cell_formula_units_Z 56
_cell_length_a 34.691510
_cell_length_b 8.226824
_cell_length_c 15.572715
_cell_angle_alpha 90.000000
_cell_angle_beta 133.806790
_cell_angle_gamma 90.000000
_cell_volume 3207.475378
_symmetry_space_group_name_H-M "C 2/M"
_symmetry_group_IT_number 12
_symmetry_cell_setting 'monoclinic'
loop_
_space_group_symop_operation_xyz
x,y,z
-x,y,-z
-x,-y,-z
x,-y,z
1/2+x,1/2+y,z
1/2-x,1/2+y,-z
1/2-x,1/2-y,-z
1/2+x,1/2-y,z
loop_
_atom_site_type_symbol
_atom_site_label
_atom_site_fract_x
_atom_site_fract_y
_atom_site_fract_z
Si Si1 0.932903 0.198475 0.252888
Si Si2 0.259774 0.693435 0.112477
Si Si3 0.923429 0.696273 0.946119
Si Si4 0.541388 0.804130 0.184748
Si Si5 0.377203 0.301099 0.343570
Si Si6 0.150645 0.193487 0.021384
Si Si7 0.947795 0.804181 0.610267
O O1 0.912453 0.246793 0.315320
O O2 0.992663 0.254004 0.323521
O O3 0.933340 0.000000 0.251815
O O4 0.890613 0.254029 0.115797
O O5 0.263392 0.500000 0.115736
O O6 0.316619 0.755622 0.235242
O O7 0.209321 0.741824 0.092014
O O8 0.250000 0.750000 0.000000
O O9 0.922626 0.500000 0.946511
O O10 0.926997 0.748103 0.852126
O O11 0.874536 0.759486 0.926410
O O12 0.979606 0.749475 0.076304
O O13 0.562936 0.744549 0.308513
O O14 0.540967 0.000000 0.184310
O O15 0.376658 0.500000 0.343790
O O16 0.405029 0.246299 0.474268
O O17 0.152526 0.000000 0.017062
O O18 0.948789 0.000000 0.607657
#
# Coordination Sequence:
#
# PCOD9173368 Si02
#       7
#     8   8   8   8   8   8   8
#     4   9  16  28  47  74 103 130 162 201 247 295
#     4  11  21  35  53  74 101 137 176 214 250 293
#     4   9  18  33  51  73 102 138 168 199 253 310
#     4   9  18  32  50  73 105 136 164 202 253 310
#     4   9  18  32  50  72 101 136 174 206 244 300
#     4  11  20  32  52  78 104 132 169 214 255 295
#     4  10  18  30  52  77 101 134 169 206 250 299
#
# _framework density 17.459215
#
# number of rings (size 3 to 8) (size 9 to 14) (size 15 to 20)
#    0.000    2.286    2.857    2.143    0.000    2.286 
#    0.000    2.857    0.000    1.714    0.000    0.000 
#    0.000    0.000    0.000    0.000    0.000    0.000 
#
# Total GULP energy -156209.779738 kJ/mol
# GULP energy per Si atom -5578.920705 kJ/mol
# Density = 1.741948 g / cm^3
# Si number density = 17.459215 Si / 1000 Ang^3
#
#
#
# Elastic Constant Matrix: (Units=GPa)
#
#
# Indices 1 2 3 4 5 6 
#
# 1 130.9474 10.2597 78.3519 0.0000 -15.1567 0.0000
# 2 10.2597 11.9481 12.6139 0.0000 0.9111 0.0000
# 3 78.3519 12.6139 140.4526 0.0000 -11.2466 0.0000
# 4 0.0000 0.0000 0.0000 16.0231 0.0000 -1.9915
# 5 -15.1567 0.9111 -11.2466 0.0000 23.3153 0.0000
# 6 0.0000 0.0000 0.0000 -1.9915 0.0000 22.7794
#
#
#
# Elastic Compliance Matrix: (Units=1/GPa)
#
#
# Indices 1 2 3 4 5 6 
#
# 1 0.012161 -0.004549 -0.005959 0.000000 0.005209 0.000000
# 2 -0.004549 0.095593 -0.006848 0.000000 -0.009996 0.000000
# 3 -0.005959 -0.006848 0.011203 0.000000 0.001798 0.000000
# 4 0.000000 0.000000 0.000000 0.063095 0.000000 0.005516
# 5 0.005209 -0.009996 0.001798 0.000000 0.047535 0.000000
# 6 0.000000 0.000000 0.000000 0.005516 0.000000 0.044381
#
#
# Mechanical properties :
#
#
# Convention : Reuss Voigt Hill
#
# Bulk Modulus (GPa) = 11.87000 53.97767 32.92384
# Shear Modulus (GPa) = 14.84729 24.56509 19.70619
#
# Velocity S-wave (km/s) = 2.91932 3.75507 3.36326
# Velocity P-wave (km/s) = 4.26342 7.05580 5.82928
#
# Compressibility (1/GPa) = 0.08424600
#
# Stress axis : x y z
#
# Youngs Moduli (GPa) = 82.22786 10.46101 89.26370
#
# Poissons Ratio (x) = 0.04759 0.53188
# Poissons Ratio (y) = 0.37410 0.61124
# Poissons Ratio (z) = 0.48996 0.07163
#
# Static dielectric constant tensor:
#      x y z
#    x 1.574420 0.000000 -0.002630 
#    y 0.000000 1.621650 0.000000 
#    z -0.002630 0.000000 1.589960 
# 
# From -- ./inp_files/237873.got.cif
#   From: 2010.05.17/outbox.cif.g08.bks.cpg/sg12_119_cif.got.tgz:237873.got - 2010.06.03 13:09:07.
