data_PCOD9173132
_publ_section_title
;
Structure prediction by ZEFSAII (Michael W. Deem and Ramdas Pophale) SiO2 
 PCOD9173132
Probable space group: C 2/M
;
_chemical_formula_sum "Si O2"
_cell_formula_units_Z 48
_cell_length_a 20.456648
_cell_length_b 18.147461
_cell_length_c 14.729384
_cell_angle_alpha 90.000000
_cell_angle_beta 27.127613
_cell_angle_gamma 90.000000
_cell_volume 2493.302056
_symmetry_space_group_name_H-M "C 2/M"
_symmetry_group_IT_number 12
_symmetry_cell_setting 'monoclinic'
loop_
_space_group_symop_operation_xyz
x,y,z
-x,y,-z
-x,-y,-z
x,-y,z
1/2+x,1/2+y,z
1/2-x,1/2+y,-z
1/2-x,1/2-y,-z
1/2+x,1/2-y,z
loop_
_atom_site_type_symbol
_atom_site_label
_atom_site_fract_x
_atom_site_fract_y
_atom_site_fract_z
Si Si1 0.698231 0.269170 0.914416
Si Si2 0.237045 0.079208 0.448078
Si Si3 0.714723 0.227306 0.694449
Si Si4 0.962453 0.128108 0.143363
Si Si5 0.527560 0.579893 0.359097
Si Si6 0.944585 0.758312 0.726610
O O1 0.612145 0.344539 0.001089
O O2 0.618467 0.234118 0.099249
O O3 0.688945 0.221336 0.834388
O O4 0.860951 0.280321 0.747547
O O5 0.318561 0.154981 0.324188
O O6 0.137846 0.087557 0.660353
O O7 0.124395 0.076794 0.504237
O O8 0.313976 0.000000 0.356706
O O9 0.623474 0.296326 0.772858
O O10 0.884393 0.245505 0.479311
O O11 0.000000 0.092146 0.000000
O O12 0.500000 0.588334 0.500000
O O13 0.599198 0.500000 0.254694
O O14 0.594864 0.655018 0.239472
#
# Coordination Sequence:
#
# PCOD9173132 Si02
#       6
#     8   8   8   8   8   8
#     4  10  19  30  48  79 104 130 169 217 252 302
#     4  10  19  32  51  75 104 135 172 213 259 306
#     4  10  19  33  54  75 105 137 172 211 260 306
#     4  10  20  34  53  79 103 135 174 214 260 304
#     4   9  16  27  46  71 101 132 162 202 256 310
#     4  10  18  30  50  75 104 131 171 213 257 297
#
# _framework density 19.251577999999999
#
# number of rings (size 3 to 8) (size 9 to 14) (size 15 to 20)
#    0.000    2.167    3.333    3.000    0.000    0.333 
#    0.000    0.000    0.000    5.500    0.000    1.167 
#    0.000    8.333    0.000    0.000    0.000    0.000 
#
# Total GULP energy -133627.811747 kJ/mol
# GULP energy per Si atom -5567.825489 kJ/mol
# Density = 1.920776 g / cm^3
# Si number density = 19.251578 Si / 1000 Ang^3
#
#
#
# Elastic Constant Matrix: (Units=GPa)
#
#
# Indices 1 2 3 4 5 6 
#
# 1 66.9486 11.8474 14.5861 0.0000 10.5952 -0.0003
# 2 11.8474 63.9946 26.5707 -0.0001 -0.7245 -0.0002
# 3 14.5861 26.5707 69.4723 0.0001 9.4448 -0.0005
# 4 0.0000 -0.0001 0.0001 22.9367 0.0000 21.2439
# 5 10.5952 -0.7245 9.4448 0.0000 39.4770 0.0001
# 6 -0.0003 -0.0002 -0.0005 21.2439 0.0001 46.2970
#
#
#
# Elastic Compliance Matrix: (Units=1/GPa)
#
#
# Indices 1 2 3 4 5 6 
#
# 1 0.016404 -0.002229 -0.002055 0.000000 -0.003952 0.000000
# 2 -0.002229 0.019051 -0.007181 0.000000 0.002666 0.000000
# 3 -0.002055 -0.007181 0.018104 0.000000 -0.003912 0.000000
# 4 0.000000 0.000000 0.000000 0.075822 0.000000 -0.034792
# 5 -0.003952 0.002666 -0.003912 0.000000 0.027377 0.000000
# 6 0.000000 0.000000 0.000000 -0.034792 0.000000 0.037564
#
#
# Mechanical properties :
#
#
# Convention : Reuss Voigt Hill
#
# Bulk Modulus (GPa) = 32.64675 34.04710 33.34692
# Shear Modulus (GPa) = 21.98191 31.56956 26.77573
#
# Velocity S-wave (km/s) = 3.38275 4.05389 3.73343
# Velocity P-wave (km/s) = 5.67910 6.29570 5.99533
#
# Compressibility (1/GPa) = 0.03063092
#
# Stress axis : x y z
#
# Youngs Moduli (GPa) = 60.95962 52.49199 55.23728
#
# Poissons Ratio (x) = 0.11699 0.11349
# Poissons Ratio (y) = 0.13586 0.39664
# Poissons Ratio (z) = 0.12524 0.37693
#
# Static dielectric constant tensor:
#      x y z
#    x 1.718250 0.000000 0.005750 
#    y 0.000000 1.733420 0.000000 
#    z 0.005750 0.000000 1.715930 
# 
# From -- ./inp_files/234927.got.cif
#   From: 2010.05.17/outbox.cif.g08.bks.cpg/sg12_118_cif.got.tgz:234927.got - 2010.06.03 13:09:07.
