data_PCOD9173786
_publ_section_title
;
Structure prediction by ZEFSAII (Michael W. Deem and Ramdas Pophale) SiO2 
 PCOD9173786
Probable space group: C 2/M
;
_chemical_formula_sum "Si O2"
_cell_formula_units_Z 40
_cell_length_a 29.321744
_cell_length_b 9.014411
_cell_length_c 13.023338
_cell_angle_alpha 90.000000
_cell_angle_beta 44.120833
_cell_angle_gamma 90.000000
_cell_volume 2396.443423
_symmetry_space_group_name_H-M "C 2/M"
_symmetry_group_IT_number 12
_symmetry_cell_setting 'monoclinic'
loop_
_space_group_symop_operation_xyz
x,y,z
-x,y,-z
-x,-y,-z
x,-y,z
1/2+x,1/2+y,z
1/2-x,1/2+y,-z
1/2-x,1/2-y,-z
1/2+x,1/2-y,z
loop_
_atom_site_type_symbol
_atom_site_label
_atom_site_fract_x
_atom_site_fract_y
_atom_site_fract_z
Si Si1 0.093962 0.822671 0.038725
Si Si2 0.819565 0.821869 0.909194
Si Si3 0.929388 0.178159 0.564324
Si Si4 0.079051 0.670963 0.856189
Si Si5 0.953180 0.678430 0.313071
O O1 0.149441 0.780009 0.030903
O O2 0.025649 0.748148 0.184053
O O3 0.085675 0.000000 0.055106
O O4 0.108030 0.768996 0.900397
O O5 0.872568 0.781735 0.736164
O O6 0.813256 0.000000 0.918116
O O7 0.750000 0.750000 0.000000
O O8 0.923214 0.260118 0.466087
O O9 0.000000 0.214603 0.500000
O O10 0.928281 0.000000 0.550209
O O11 0.100025 0.500000 0.834188
O O12 0.087068 0.719122 0.725196
O O13 0.000000 0.673686 0.000000
O O14 0.958609 0.500000 0.305424
#
# Coordination Sequence:
#
# PCOD9173786 Si02
#       5
#     8   8   8   8   8
#     4  10  18  31  50  73 102 136 173 210 253 303
#     4  10  22  37  53  75 104 138 171 211 256 304
#     4  10  19  35  54  74 105 136 168 214 260 302
#     4   8  16  29  44  70 105 133 163 209 258 300
#     4  10  19  30  48  77 107 133 167 211 257 303
#
# _framework density 16.691402
#
# number of rings (size 3 to 8) (size 9 to 14) (size 15 to 20)
#    0.000    2.400    2.000    2.400    0.000    7.200 
#    0.000    0.000    0.000    1.200    0.000    0.000 
#    0.000    0.000    0.000    0.000    0.000    0.000 
#
# Total GULP energy -111499.560136 kJ/mol
# GULP energy per Si atom -5574.978007 kJ/mol
# Density = 1.665341 g / cm^3
# Si number density = 16.691402 Si / 1000 Ang^3
#
#
#
# Elastic Constant Matrix: (Units=GPa)
#
#
# Indices 1 2 3 4 5 6 
#
# 1 141.3829 56.7504 83.3425 0.0000 27.5926 0.0000
# 2 56.7504 44.1870 40.3554 0.0000 13.7501 0.0000
# 3 83.3425 40.3554 94.8335 0.0000 20.4809 0.0000
# 4 0.0000 0.0000 0.0000 27.4438 0.0000 5.2710
# 5 27.5926 13.7501 20.4809 0.0000 35.5634 0.0000
# 6 0.0000 0.0000 0.0000 5.2710 0.0000 29.3312
#
#
#
# Elastic Compliance Matrix: (Units=1/GPa)
#
#
# Indices 1 2 3 4 5 6 
#
# 1 0.019873 -0.014968 -0.010296 0.000000 -0.003702 0.000000
# 2 -0.014968 0.049441 -0.007155 0.000000 -0.003382 0.000000
# 3 -0.010296 -0.007155 0.023200 0.000000 -0.002607 0.000000
# 4 0.000000 0.000000 0.000000 0.037741 0.000000 -0.006782
# 5 -0.003702 -0.003382 -0.002607 0.000000 0.033800 0.000000
# 6 0.000000 0.000000 0.000000 -0.006782 0.000000 0.035312
#
#
# Mechanical properties :
#
#
# Convention : Reuss Voigt Hill
#
# Bulk Modulus (GPa) = 36.12949 71.25556 53.69252
# Shear Modulus (GPa) = 18.28620 25.13135 21.70877
#
# Velocity S-wave (km/s) = 3.31349 3.88448 3.61029
# Velocity P-wave (km/s) = 6.02757 7.93105 7.04390
#
# Compressibility (1/GPa) = 0.02767822
#
# Stress axis : x y z
#
# Youngs Moduli (GPa) = 50.32028 20.22595 43.10261
#
# Poissons Ratio (x) = 0.30274 0.44377
# Poissons Ratio (y) = 0.75319 0.30838
# Poissons Ratio (z) = 0.51808 0.14471
#
# Static dielectric constant tensor:
#      x y z
#    x 1.560270 0.000000 0.034200 
#    y 0.000000 1.558280 0.000000 
#    z 0.034200 0.000000 1.561990 
# 
# From -- ./inp_files/162387.got.cif
#   From: 2010.05.17/outbox.cif.g08.bks.cpg/sg12_82_cif.got.tgz:162387.got - 2010.06.03 13:09:07.
