data_PCOD9173291
_publ_section_title
;
Structure prediction by ZEFSAII (Michael W. Deem and Ramdas Pophale) SiO2 
 PCOD9173291
Probable space group: C 2/M
;
_chemical_formula_sum "Si O2"
_cell_formula_units_Z 40
_cell_length_a 18.596723
_cell_length_b 19.562398
_cell_length_c 9.697030
_cell_angle_alpha 90.000000
_cell_angle_beta 138.696816
_cell_angle_gamma 90.000000
_cell_volume 2328.465218
_symmetry_space_group_name_H-M "C 2/M"
_symmetry_group_IT_number 12
_symmetry_cell_setting 'monoclinic'
loop_
_space_group_symop_operation_xyz
x,y,z
-x,y,-z
-x,-y,-z
x,-y,z
1/2+x,1/2+y,z
1/2-x,1/2+y,-z
1/2-x,1/2-y,-z
1/2+x,1/2-y,z
loop_
_atom_site_type_symbol
_atom_site_label
_atom_site_fract_x
_atom_site_fract_y
_atom_site_fract_z
Si Si1 0.729974 0.164890 0.841585
Si Si2 0.371605 0.312208 0.304540
Si Si3 0.569830 0.079893 0.804271
Si Si4 0.742420 0.079884 0.291213
Si Si5 0.315458 0.081401 0.477620
O O1 0.690045 0.241309 0.752349
O O2 0.633581 0.126357 0.787077
O O3 0.749442 0.123279 0.730523
O O4 0.831129 0.168028 0.092400
O O5 0.500000 0.303060 0.500000
O O6 0.329940 0.370804 0.347465
O O7 0.443586 0.097441 0.640290
O O8 0.577558 0.000000 0.772864
O O9 0.633440 0.086661 0.040927
O O10 0.718340 0.097130 0.414809
O O11 0.774922 0.000000 0.330206
O O12 0.302592 0.000000 0.438554
#
# Coordination Sequence:
#
# PCOD9173291 Si02
#       5
#     8   8   8   8   8
#     4  10  20  33  52  77  99 124 164 205 241 291
#     4  10  21  37  53  69  96 133 167 201 243 291
#     4   9  16  29  51  77 105 133 157 192 248 301
#     4   9  19  33  49  73 102 133 168 200 239 292
#     4  10  18  30  51  78 105 128 157 204 250 287
#
# _framework density 17.178697
#
# number of rings (size 3 to 8) (size 9 to 14) (size 15 to 20)
#    0.000    2.400    0.000    3.000    0.000    6.000 
#    0.000    1.000    0.000    2.400    0.000    0.000 
#    0.000    0.000    0.000    0.000    0.000    0.000 
#
# Total GULP energy -111607.433060 kJ/mol
# GULP energy per Si atom -5580.371653 kJ/mol
# Density = 1.713960 g / cm^3
# Si number density = 17.178697 Si / 1000 Ang^3
#
#
#
# Elastic Constant Matrix: (Units=GPa)
#
#
# Indices 1 2 3 4 5 6 
#
# 1 50.2631 34.7152 47.3754 0.0000 -21.9379 0.0000
# 2 34.7152 52.4736 36.2769 0.0000 -20.3569 0.0000
# 3 47.3754 36.2769 85.6154 0.0000 -13.9619 0.0000
# 4 0.0000 0.0000 0.0000 25.8591 0.0000 -9.8280
# 5 -21.9379 -20.3569 -13.9619 0.0000 33.6841 0.0000
# 6 0.0000 0.0000 0.0000 -9.8280 0.0000 -2.7185
#
#
#
# Elastic Compliance Matrix: (Units=1/GPa)
#
#
# Indices 1 2 3 4 5 6 
#
# 1 0.064686 -0.017214 -0.025017 0.000000 0.021356 0.000000
# 2 -0.017214 0.037408 -0.004791 0.000000 0.009411 0.000000
# 3 -0.025017 -0.004791 0.026195 0.000000 -0.008331 0.000000
# 4 0.000000 0.000000 0.000000 0.016290 0.000000 -0.058890
# 5 0.021356 0.009411 -0.008331 0.000000 0.045831 0.000000
# 6 0.000000 0.000000 0.000000 -0.058890 0.000000 -0.154949
#
#
# Mechanical properties :
#
#
# Convention : Reuss Voigt Hill
#
# Bulk Modulus (GPa) = 29.20146 47.23190 38.21668
# Shear Modulus (GPa) = 35.48140 16.03056 25.75598
#
# Velocity S-wave (km/s) = 4.54963 3.05809 3.87628
# Velocity P-wave (km/s) = 6.68090 6.32640 6.50606
#
# Compressibility (1/GPa) = 0.03424486
#
# Stress axis : x y z
#
# Youngs Moduli (GPa) = 15.45939 26.73193 38.17564
#
# Poissons Ratio (x) = 0.46017 0.95505
# Poissons Ratio (y) = 0.26612 0.18288
# Poissons Ratio (z) = 0.38675 0.12806
#
# Static dielectric constant tensor:
#      x y z
#    x 1.545230 0.000000 -0.018650 
#    y 0.000000 1.579120 0.000000 
#    z -0.018650 0.000000 1.584640 
# 
# From -- ./inp_files/46930.got.cif
#   From: 2010.05.17/outbox.cif.g08.bks.cpg/sg12_24_cif.got.tgz:46930.got - 2010.06.03 13:09:07.
