data_PCOD9173434
_publ_section_title
;
Structure prediction by ZEFSAII (Michael W. Deem and Ramdas Pophale) SiO2 
 PCOD9173434
Probable space group: C 2/M
;
_chemical_formula_sum "Si O2"
_cell_formula_units_Z 48
_cell_length_a 17.442506
_cell_length_b 14.168907
_cell_length_c 11.475623
_cell_angle_alpha 90.000000
_cell_angle_beta 66.548638
_cell_angle_gamma 90.000000
_cell_volume 2601.832926
_symmetry_space_group_name_H-M "C 2/M"
_symmetry_group_IT_number 12
_symmetry_cell_setting 'monoclinic'
loop_
_space_group_symop_operation_xyz
x,y,z
-x,y,-z
-x,-y,-z
x,-y,z
1/2+x,1/2+y,z
1/2-x,1/2+y,-z
1/2-x,1/2-y,-z
1/2+x,1/2-y,z
loop_
_atom_site_type_symbol
_atom_site_label
_atom_site_fract_x
_atom_site_fract_y
_atom_site_fract_z
Si Si1 0.481231 0.500000 0.688542
Si Si2 0.274349 0.391224 0.996353
Si Si3 0.847244 0.270486 0.792588
Si Si4 0.910522 0.893998 0.115816
Si Si5 0.851329 0.000000 0.571187
Si Si6 0.319298 0.710867 0.547411
Si Si7 0.528559 0.703326 0.716895
O O1 0.395947 0.500000 0.668816
O O2 0.565428 0.500000 0.560111
O O3 0.487020 0.598797 0.748457
O O4 0.270483 0.500000 0.962402
O O5 0.301208 0.320348 0.878131
O O6 0.190870 0.357153 0.112286
O O7 0.343554 0.380600 0.055570
O O8 0.826619 0.264032 0.667166
O O9 0.946958 0.267035 0.754760
O O10 0.912682 0.807176 0.205188
O O11 0.893765 0.000000 0.177396
O O12 0.000000 0.895977 0.000000
O O13 0.805027 0.098569 0.577940
O O14 0.250000 0.750000 0.500000
O O15 0.410054 0.716155 0.429238
#
# Coordination Sequence:
#
# PCOD9173434 Si02
#       7
#     4   8   8   8   4   8   8
#     4   9  16  28  51  86 110 139 179 230 290 342
#     4  10  23  39  57  85 120 156 194 234 280 342
#     4  11  22  37  59  86 113 157 196 232 287 341
#     4  10  18  30  52  83 116 146 177 230 294 343
#     4   9  18  32  54  80 113 148 181 227 290 340
#     4  11  23  37  56  87 120 149 189 242 295 347
#     4  11  19  33  59  87 118 147 188 236 292 346
#
# _framework density 18.448533000000001
#
# number of rings (size 3 to 8) (size 9 to 14) (size 15 to 20)
#    0.000    1.667    4.167    1.500    2.333    0.000 
#    1.500    0.000    1.833    1.000    0.000    3.500 
#    0.000    0.000    0.000    0.000    0.000    0.000 
#
# Total GULP energy -133766.049431 kJ/mol
# GULP energy per Si atom -5573.585393 kJ/mol
# Density = 1.840654 g / cm^3
# Si number density = 18.448533 Si / 1000 Ang^3
#
#
#
# Elastic Constant Matrix: (Units=GPa)
#
#
# Indices 1 2 3 4 5 6 
#
# 1 73.9985 13.4970 19.8363 0.0000 1.3528 0.0000
# 2 13.4970 36.7726 5.7408 0.0000 4.7727 0.0000
# 3 19.8363 5.7408 97.5794 0.0000 2.6740 0.0000
# 4 0.0000 0.0000 0.0000 21.8222 0.0000 -3.2395
# 5 1.3528 4.7727 2.6740 0.0000 28.0769 0.0000
# 6 0.0000 0.0000 0.0000 -3.2395 0.0000 28.0849
#
#
#
# Elastic Compliance Matrix: (Units=1/GPa)
#
#
# Indices 1 2 3 4 5 6 
#
# 1 0.015204 -0.005198 -0.002796 0.000000 0.000417 0.000000
# 2 -0.005198 0.029809 -0.000567 0.000000 -0.004763 0.000000
# 3 -0.002796 -0.000567 0.010872 0.000000 -0.000804 0.000000
# 4 0.000000 0.000000 0.000000 0.046623 0.000000 0.005378
# 5 0.000417 -0.004763 -0.000804 0.000000 0.036483 0.000000
# 6 0.000000 0.000000 0.000000 0.005378 0.000000 0.036227
#
#
# Mechanical properties :
#
#
# Convention : Reuss Voigt Hill
#
# Bulk Modulus (GPa) = 25.79807 31.83321 28.81564
# Shear Modulus (GPa) = 24.35941 26.88188 25.62065
#
# Velocity S-wave (km/s) = 3.63767 3.82138 3.73065
# Velocity P-wave (km/s) = 5.62652 6.06326 5.84897
#
# Compressibility (1/GPa) = 0.03876259
#
# Stress axis : x y z
#
# Youngs Moduli (GPa) = 65.77285 33.54735 91.98036
#
# Poissons Ratio (x) = 0.17438 0.25721
# Poissons Ratio (y) = 0.34189 0.05211
# Poissons Ratio (z) = 0.18392 0.01901
#
# Static dielectric constant tensor:
#      x y z
#    x 1.690730 0.000000 0.043720 
#    y 0.000000 1.659770 0.000000 
#    z 0.043720 0.000000 1.712010 
# 
# From -- ./inp_files/155275.got.cif
#   From: 2010.05.17/outbox.cif.g08.bks.cpg/sg12_78_cif.got.tgz:155275.got - 2010.06.03 13:09:07.
