data_PCOD9173710
_publ_section_title
;
Structure prediction by ZEFSAII (Michael W. Deem and Ramdas Pophale) SiO2 
 PCOD9173710
Probable space group: C 2/M
;
_chemical_formula_sum "Si O2"
_cell_formula_units_Z 56
_cell_length_a 11.747817
_cell_length_b 17.328913
_cell_length_c 20.556208
_cell_angle_alpha 90.000000
_cell_angle_beta 35.880935
_cell_angle_gamma 90.000000
_cell_volume 2452.704810
_symmetry_space_group_name_H-M "C 2/M"
_symmetry_group_IT_number 12
_symmetry_cell_setting 'monoclinic'
loop_
_space_group_symop_operation_xyz
x,y,z
-x,y,-z
-x,-y,-z
x,-y,z
1/2+x,1/2+y,z
1/2-x,1/2+y,-z
1/2-x,1/2-y,-z
1/2+x,1/2-y,z
loop_
_atom_site_type_symbol
_atom_site_label
_atom_site_fract_x
_atom_site_fract_y
_atom_site_fract_z
Si Si1 0.264872 0.325111 0.720251
Si Si2 0.337347 0.820368 0.764792
Si Si3 0.225110 0.409954 0.321309
Si Si4 0.275388 0.911547 0.127611
Si Si5 0.351262 0.258546 0.884371
Si Si6 0.723217 0.664234 0.429857
Si Si7 0.283640 0.848107 0.542105
O O1 0.381925 0.257233 0.702643
O O2 0.231859 0.387357 0.792405
O O3 0.347042 0.351250 0.611627
O O4 0.065385 0.278634 0.794380
O O5 0.208117 0.871690 0.776995
O O6 0.253973 0.792223 0.871621
O O7 0.546384 0.857910 0.681499
O O8 0.226745 0.500000 0.313675
O O9 0.310761 0.387102 0.351442
O O10 0.002571 0.379502 0.431849
O O11 0.170703 0.845561 0.132612
O O12 0.206788 0.000000 0.150241
O O13 0.500000 0.908607 0.000000
O O14 0.250000 0.250000 0.000000
O O15 0.706451 0.757214 0.446288
O O16 0.678232 0.633099 0.523245
#
# Coordination Sequence:
#
# PCOD9173710 Si02
#       7
#     8   8   8   8   8   8   8
#     4  10  18  34  54  76 107 143 182 220 270 326
#     4   9  19  31  50  75 106 136 182 221 260 320
#     4  10  18  31  49  73 107 141 173 217 270 317
#     4  10  20  35  56  83 109 138 179 229 278 320
#     4  10  19  34  56  80 105 140 184 224 264 330
#     4   9  17  29  48  74 101 130 181 223 256 311
#     4   9  16  28  46  70 100 133 174 218 263 309
#
# _framework density 22.831935999999999
#
# number of rings (size 3 to 8) (size 9 to 14) (size 15 to 20)
#    0.000    2.429    2.857    0.857    0.000    0.000 
#    0.000    8.571    0.000    0.857    0.000    3.000 
#    0.000   30.286    0.000    0.000    0.000    0.000 
#
# Total GULP energy -156198.656213 kJ/mol
# GULP energy per Si atom -5578.523436 kJ/mol
# Density = 2.277997 g / cm^3
# Si number density = 22.831936 Si / 1000 Ang^3
#
#
#
# Elastic Constant Matrix: (Units=GPa)
#
#
# Indices 1 2 3 4 5 6 
#
# 1 164.4746 35.8917 62.2020 -0.0022 52.4989 0.0006
# 2 35.8917 113.9013 42.5228 -0.0043 29.6398 0.0029
# 3 62.2020 42.5228 128.3769 -0.0160 59.4278 0.0086
# 4 -0.0022 -0.0043 -0.0160 21.4896 0.0051 6.8209
# 5 52.4989 29.6398 59.4278 0.0051 60.2734 -0.0019
# 6 0.0006 0.0029 0.0086 6.8209 -0.0019 17.4187
#
#
#
# Elastic Compliance Matrix: (Units=1/GPa)
#
#
# Indices 1 2 3 4 5 6 
#
# 1 0.008583 -0.000717 -0.001147 0.000002 -0.005992 -0.000001
# 2 -0.000717 0.010391 -0.001873 0.000002 -0.002639 -0.000002
# 3 -0.001147 -0.001873 0.014859 0.000019 -0.012730 -0.000016
# 4 0.000002 0.000002 0.000019 0.053139 -0.000026 -0.020809
# 5 -0.005992 -0.002639 -0.012730 -0.000026 0.035659 0.000021
# 6 -0.000001 -0.000002 -0.000016 -0.020809 0.000021 0.065558
#
#
# Mechanical properties :
#
#
# Convention : Reuss Voigt Hill
#
# Bulk Modulus (GPa) = 37.93882 76.44286 57.19084
# Shear Modulus (GPa) = 24.45587 37.57877 31.01732
#
# Velocity S-wave (km/s) = 3.27636 4.06135 3.68979
# Velocity P-wave (km/s) = 5.56465 7.45293 6.57691
#
# Compressibility (1/GPa) = 0.02635823
#
# Stress axis : x y z
#
# Youngs Moduli (GPa) = 116.51022 96.23340 67.30028
#
# Poissons Ratio (x) = 0.06900 0.07722
# Poissons Ratio (y) = 0.08354 0.12606
# Poissons Ratio (z) = 0.13368 0.18025
#
# Static dielectric constant tensor:
#      x y z
#    x 2.063690 0.000000 -0.093770 
#    y 0.000000 1.807800 0.000000 
#    z -0.093770 0.000000 1.960370 
# 
# From -- ./inp_files/305945.got.cif
#   From: 2010.05.17/outbox.cif.g08.bks.cpg/sg12_153_cif.got.tgz:305945.got - 2010.06.03 13:09:07.
