data_PCOD9173216
_publ_section_title
;
Structure prediction by ZEFSAII (Michael W. Deem and Ramdas Pophale) SiO2 
 PCOD9173216
Probable space group: C 2/M
;
_chemical_formula_sum "Si O2"
_cell_formula_units_Z 64
_cell_length_a 21.133867
_cell_length_b 7.625588
_cell_length_c 24.115810
_cell_angle_alpha 90.000000
_cell_angle_beta 123.115110
_cell_angle_gamma 90.000000
_cell_volume 3255.200141
_symmetry_space_group_name_H-M "C 2/M"
_symmetry_group_IT_number 12
_symmetry_cell_setting 'monoclinic'
loop_
_space_group_symop_operation_xyz
x,y,z
-x,y,-z
-x,-y,-z
x,-y,z
1/2+x,1/2+y,z
1/2-x,1/2+y,-z
1/2-x,1/2-y,-z
1/2+x,1/2-y,z
loop_
_atom_site_type_symbol
_atom_site_label
_atom_site_fract_x
_atom_site_fract_y
_atom_site_fract_z
Si Si1 0.688187 0.711876 0.677438
Si Si2 0.457922 0.285481 0.324952
Si Si3 0.127090 0.204015 0.419632
Si Si4 0.338649 0.289313 0.040815
Si Si5 0.275331 0.206999 0.431378
Si Si6 0.134266 0.213801 0.825507
Si Si7 0.279543 0.210754 0.826567
Si Si8 0.915662 0.209396 0.966078
O O1 0.687710 0.500000 0.677921
O O2 0.606281 0.770094 0.661608
O O3 0.706915 0.766788 0.624325
O O4 0.750547 0.771342 0.752517
O O5 0.457795 0.500000 0.326944
O O6 0.542747 0.221257 0.376022
O O7 0.427435 0.233748 0.249563
O O8 0.193254 0.278006 0.411569
O O9 0.161432 0.214546 0.497765
O O10 0.119022 0.000000 0.400116
O O11 0.346546 0.500000 0.044148
O O12 0.374493 0.225058 0.115786
O O13 0.250000 0.250000 0.000000
O O14 0.375641 0.219250 0.002345
O O15 0.275258 0.000000 0.443321
O O16 0.215740 0.269805 0.840181
O O17 0.134472 0.000000 0.826149
O O18 0.361249 0.261743 0.887666
O O19 0.276839 0.000000 0.824502
O O20 0.921559 0.000000 0.975844
O O21 0.000000 0.279988 0.000000
#
# Coordination Sequence:
#
# PCOD9173216 Si02
#       8
#     8   8   8   8   8   8   8   8
#     4   9  18  33  54  76  97 125 164 207 246 289
#     4   8  15  30  52  75  95 121 166 212 242 277
#     4   9  18  34  54  74  97 130 169 204 237 282
#     4  10  18  30  51  73  95 128 166 205 245 288
#     4  10  20  33  50  75 104 135 164 194 242 295
#     4   8  14  27  49  74  94 117 160 211 246 279
#     4   9  17  32  53  73  94 128 167 203 246 292
#     4  10  21  34  46  71 106 134 161 201 254 297
#
# _framework density 19.660848999999999
#
# number of rings (size 3 to 8) (size 9 to 14) (size 15 to 20)
#    0.000    2.875    1.250    1.875    0.000    1.750 
#    2.250    3.125    0.000    1.500    0.000    0.000 
#    0.000    0.000    0.000    0.000    0.000    0.000 
#
# Total GULP energy -178416.989925 kJ/mol
# GULP energy per Si atom -5575.530935 kJ/mol
# Density = 1.961610 g / cm^3
# Si number density = 19.660849 Si / 1000 Ang^3
#
#
#
# Elastic Constant Matrix: (Units=GPa)
#
#
# Indices 1 2 3 4 5 6 
#
# 1 140.5133 1.9996 110.9684 0.0000 15.0458 0.0000
# 2 1.9996 37.0025 -6.6911 0.0000 1.1586 0.0000
# 3 110.9684 -6.6911 148.7144 0.0000 8.4920 0.0000
# 4 0.0000 0.0000 0.0000 15.6344 0.0000 -0.1753
# 5 15.0458 1.1586 8.4920 0.0000 37.4390 0.0000
# 6 0.0000 0.0000 0.0000 -0.1753 0.0000 9.0308
#
#
#
# Elastic Compliance Matrix: (Units=1/GPa)
#
#
# Indices 1 2 3 4 5 6 
#
# 1 0.018363 -0.003323 -0.013612 0.000000 -0.004189 0.000000
# 2 -0.003323 0.027896 0.003756 0.000000 -0.000380 0.000000
# 3 -0.013612 0.003756 0.016965 0.000000 0.001506 0.000000
# 4 0.000000 0.000000 0.000000 0.063976 0.000000 0.001242
# 5 -0.004189 -0.000380 0.001506 0.000000 0.028064 0.000000
# 6 0.000000 0.000000 0.000000 0.001242 0.000000 0.110756
#
#
# Mechanical properties :
#
#
# Convention : Reuss Voigt Hill
#
# Bulk Modulus (GPa) = 27.12557 59.86489 43.49523
# Shear Modulus (GPa) = 16.41152 27.08441 21.74796
#
# Velocity S-wave (km/s) = 2.89231 3.71560 3.32950
# Velocity P-wave (km/s) = 4.99806 6.99446 6.07878
#
# Compressibility (1/GPa) = 0.03686559
#
# Stress axis : x y z
#
# Youngs Moduli (GPa) = 54.45835 35.84757 58.94661
#
# Poissons Ratio (x) = 0.11911 0.80239
# Poissons Ratio (y) = 0.18095 -0.22141
# Poissons Ratio (z) = 0.74130 -0.13465
#
# Static dielectric constant tensor:
#      x y z
#    x 1.686470 0.000000 0.002370 
#    y 0.000000 1.749490 0.000000 
#    z 0.002370 0.000000 1.678150 
# 
# From -- ./inp_files/345571.got.cif
#   From: 2010.05.17/outbox.cif.g08.bks.cpg/sg12_173_cif.got.tgz:345571.got - 2010.06.03 13:09:07.
