data_PCOD9173445
_publ_section_title
;
Structure prediction by ZEFSAII (Michael W. Deem and Ramdas Pophale) SiO2 
 PCOD9173445
Probable space group: C 2/M
;
_chemical_formula_sum "Si O2"
_cell_formula_units_Z 56
_cell_length_a 25.522042
_cell_length_b 7.564701
_cell_length_c 15.628964
_cell_angle_alpha 90.000000
_cell_angle_beta 75.199226
_cell_angle_gamma 90.000000
_cell_volume 2917.312646
_symmetry_space_group_name_H-M "C 2/M"
_symmetry_group_IT_number 12
_symmetry_cell_setting 'monoclinic'
loop_
_space_group_symop_operation_xyz
x,y,z
-x,y,-z
-x,-y,-z
x,-y,z
1/2+x,1/2+y,z
1/2-x,1/2+y,-z
1/2-x,1/2-y,-z
1/2+x,1/2-y,z
loop_
_atom_site_type_symbol
_atom_site_label
_atom_site_fract_x
_atom_site_fract_y
_atom_site_fract_z
Si Si1 0.121160 0.794881 0.424472
Si Si2 0.146599 0.714938 0.717583
Si Si3 0.759088 0.212039 0.596065
Si Si4 0.943069 0.206875 0.387729
Si Si5 0.438605 0.797688 0.719678
Si Si6 0.044953 0.283918 0.099896
Si Si7 0.923648 0.284883 0.097206
O O1 0.181692 0.718305 0.402762
O O2 0.080455 0.719519 0.513104
O O3 0.095066 0.788129 0.342303
O O4 0.126964 0.000000 0.448078
O O5 0.146408 0.500000 0.716461
O O6 0.206761 0.778369 0.669539
O O7 0.104416 0.773400 0.662131
O O8 0.123112 0.773228 0.818917
O O9 0.750000 0.250000 0.500000
O O10 0.759371 0.000000 0.608018
O O11 0.997996 0.294198 0.331961
O O12 0.957016 0.000000 0.392641
O O13 0.434481 0.720644 0.816923
O O14 0.420158 0.000000 0.730818
O O15 0.045138 0.500000 0.102457
O O16 0.982229 0.232235 0.111058
O O17 0.077195 0.228479 0.001408
O O18 0.923371 0.500000 0.096587
#
# Coordination Sequence:
#
# PCOD9173445 Si02
#       7
#     8   8   8   8   8   8   8
#     4  10  22  37  48  66 100 139 167 192 244 303
#     4  10  18  30  53  78  98 124 166 209 238 279
#     4  10  20  34  52  73  98 129 167 206 242 283
#     4  11  21  33  49  70 102 138 160 191 249 303
#     4  11  21  33  51  75  98 127 169 209 238 284
#     4   8  14  25  45  72 100 124 152 197 251 291
#     4   8  13  25  46  73 100 123 151 199 251 289
#
# _framework density 19.195747000000001
#
# number of rings (size 3 to 8) (size 9 to 14) (size 15 to 20)
#    0.000    2.286    2.857    2.143    0.000    3.429 
#    0.000    0.000    0.000    3.429    0.000    0.000 
#    0.000    0.000    0.000    0.000    0.000    0.143 
#
# Total GULP energy -156245.115959 kJ/mol
# GULP energy per Si atom -5580.182713 kJ/mol
# Density = 1.915206 g / cm^3
# Si number density = 19.195747 Si / 1000 Ang^3
#
#
#
# Elastic Constant Matrix: (Units=GPa)
#
#
# Indices 1 2 3 4 5 6 
#
# 1 72.4116 -8.1845 59.6457 0.0000 8.3767 0.0000
# 2 -8.1845 43.7797 -5.9119 0.0000 -2.9446 0.0000
# 3 59.6457 -5.9119 183.5164 0.0000 -0.0198 0.0000
# 4 0.0000 0.0000 0.0000 228.0084 0.0000 42.5449
# 5 8.3767 -2.9446 -0.0198 0.0000 27.2249 0.0000
# 6 0.0000 0.0000 0.0000 42.5449 0.0000 20.5525
#
#
#
# Elastic Compliance Matrix: (Units=1/GPa)
#
#
# Indices 1 2 3 4 5 6 
#
# 1 0.020088 0.002487 -0.006449 0.000000 -0.005916 0.000000
# 2 0.002487 0.023418 -0.000054 0.000000 0.001768 0.000000
# 3 -0.006449 -0.000054 0.007544 0.000000 0.001984 0.000000
# 4 0.000000 0.000000 0.000000 0.007146 0.000000 -0.014793
# 5 -0.005916 0.001768 0.001984 0.000000 0.038744 0.000000
# 6 0.000000 0.000000 0.000000 -0.014793 0.000000 0.079278
#
#
# Mechanical properties :
#
#
# Convention : Reuss Voigt Hill
#
# Bulk Modulus (GPa) = 23.24672 43.42293 33.33483
# Shear Modulus (GPa) = 25.17758 72.10106 48.63932
#
# Velocity S-wave (km/s) = 3.62556 6.13535 5.03921
# Velocity P-wave (km/s) = 5.44637 8.53582 7.15972
#
# Compressibility (1/GPa) = 0.04301681
#
# Stress axis : x y z
#
# Youngs Moduli (GPa) = 49.78148 42.70197 132.56021
#
# Poissons Ratio (x) = -0.10618 0.85493
# Poissons Ratio (y) = -0.12378 0.00710
# Poissons Ratio (z) = 0.32106 0.00229
#
# Static dielectric constant tensor:
#      x y z
#    x 1.643040 0.000000 -0.018620 
#    y 0.000000 1.735810 0.000000 
#    z -0.018620 0.000000 1.686010 
# 
# From -- ./inp_files/237392.got.cif
#   From: 2010.05.17/outbox.cif.g08.bks.cpg/sg12_119_cif.got.tgz:237392.got - 2010.06.03 13:09:07.
