data_PCOD9173338
_publ_section_title
;
Structure prediction by ZEFSAII (Michael W. Deem and Ramdas Pophale) SiO2 
 PCOD9173338
Probable space group: C 2/M
;
_chemical_formula_sum "Si O2"
_cell_formula_units_Z 64
_cell_length_a 24.063029
_cell_length_b 9.083596
_cell_length_c 15.764594
_cell_angle_alpha 90.000000
_cell_angle_beta 87.144531
_cell_angle_gamma 90.000000
_cell_volume 3441.528182
_symmetry_space_group_name_H-M "C 2/M"
_symmetry_group_IT_number 12
_symmetry_cell_setting 'monoclinic'
loop_
_space_group_symop_operation_xyz
x,y,z
-x,y,-z
-x,-y,-z
x,-y,z
1/2+x,1/2+y,z
1/2-x,1/2+y,-z
1/2-x,1/2-y,-z
1/2+x,1/2-y,z
loop_
_atom_site_type_symbol
_atom_site_label
_atom_site_fract_x
_atom_site_fract_y
_atom_site_fract_z
Si Si1 0.709509 0.326554 0.114611
Si Si2 0.835043 0.674386 0.041117
Si Si3 0.587298 0.671885 0.550701
Si Si4 0.896775 0.823261 0.183029
Si Si5 0.699185 0.325964 0.315246
Si Si6 0.411000 0.173645 0.621389
Si Si7 0.498975 0.670494 0.286127
Si Si8 0.326909 0.823806 0.339577
O O1 0.700473 0.500000 0.098054
O O2 0.774394 0.296281 0.088499
O O3 0.699263 0.299440 0.214069
O O4 0.672033 0.232310 0.053827
O O5 0.844911 0.500000 0.043340
O O6 0.880189 0.760491 0.093184
O O7 0.598479 0.500000 0.534317
O O8 0.568330 0.748330 0.466105
O O9 0.542013 0.680985 0.629202
O O10 0.641584 0.753710 0.583023
O O11 0.959377 0.789570 0.210196
O O12 0.855439 0.748154 0.254493
O O13 0.890135 0.000000 0.187543
O O14 0.687734 0.500000 0.329932
O O15 0.651696 0.228984 0.360567
O O16 0.761215 0.294663 0.343591
O O17 0.448586 0.229854 0.696533
O O18 0.414384 0.000000 0.612811
O O19 0.516475 0.500000 0.276587
O O20 0.335210 0.000000 0.336076
#
# Coordination Sequence:
#
# PCOD9173338 Si02
#       8
#     8   8   8   8   8   8   8   8
#     4   9  18  33  51  77 109 145 180 212 260 317
#     4  10  18  30  51  82 113 141 176 219 264 309
#     4  10  21  38  59  81 106 139 176 220 272 322
#     4  10  19  32  54  82 111 143 176 216 267 322
#     4  10  21  38  56  74 108 150 181 215 261 322
#     4  12  25  37  54  80 105 139 183 225 270 314
#     4   9  20  38  58  79 104 138 179 221 268 319
#     4  10  19  34  55  81 109 139 177 221 269 315
#
# _framework density 18.59639
#
# number of rings (size 3 to 8) (size 9 to 14) (size 15 to 20)
#    0.000    2.000    1.250    3.750    0.000    7.000 
#    0.000    0.000    0.000    0.750    0.000    5.250 
#    0.000    0.000    0.000    0.000    0.000    0.000 
#
# Total GULP energy -178697.954513 kJ/mol
# GULP energy per Si atom -5584.311079 kJ/mol
# Density = 1.855406 g / cm^3
# Si number density = 18.596390 Si / 1000 Ang^3
#
#
#
# Elastic Constant Matrix: (Units=GPa)
#
#
# Indices 1 2 3 4 5 6 
#
# 1 65.7156 46.2171 16.9230 0.0000 30.4566 0.0000
# 2 46.2171 79.5643 21.4474 0.0000 23.6157 0.0000
# 3 16.9230 21.4474 40.5013 0.0000 27.3795 0.0000
# 4 0.0000 0.0000 0.0000 30.1017 0.0000 7.1414
# 5 30.4566 23.6157 27.3795 0.0000 32.2932 0.0000
# 6 0.0000 0.0000 0.0000 7.1414 0.0000 25.0794
#
#
#
# Elastic Compliance Matrix: (Units=1/GPa)
#
#
# Indices 1 2 3 4 5 6 
#
# 1 0.044218 -0.017550 0.024209 0.000000 -0.049394 0.000000
# 2 -0.017550 0.023049 -0.010934 0.000000 0.008967 0.000000
# 3 0.024209 -0.010934 0.071208 0.000000 -0.075209 0.000000
# 4 0.000000 0.000000 0.000000 0.035628 0.000000 -0.010145
# 5 -0.049394 0.008967 -0.075209 0.000000 0.134759 0.000000
# 6 0.000000 0.000000 0.000000 -0.010145 0.000000 0.042762
#
#
# Mechanical properties :
#
#
# Convention : Reuss Voigt Hill
#
# Bulk Modulus (GPa) = 7.69683 39.43959 23.56821
# Shear Modulus (GPa) = 12.39212 24.24111 18.31662
#
# Velocity S-wave (km/s) = 2.58422 3.61437 3.14181
# Velocity P-wave (km/s) = 3.61277 6.21872 5.08550
#
# Compressibility (1/GPa) = 0.12992358
#
# Stress axis : x y z
#
# Youngs Moduli (GPa) = 22.61525 43.38614 14.04340
#
# Poissons Ratio (x) = 0.76144 -0.33998
# Poissons Ratio (y) = 0.39690 0.15356
# Poissons Ratio (z) = -0.54749 0.47440
#
# Static dielectric constant tensor:
#      x y z
#    x 1.645040 0.000000 0.011750 
#    y 0.000000 1.615620 0.000000 
#    z 0.011750 0.000000 1.644260 
# 
# From -- ./inp_files/238566.got.cif
#   From: 2010.05.17/outbox.cif.g08.bks.cpg/sg12_120_cif.got.tgz:238566.got - 2010.06.03 13:09:07.
