data_PCOD9173512
_publ_section_title
;
Structure prediction by ZEFSAII (Michael W. Deem and Ramdas Pophale) SiO2 
 PCOD9173512
Probable space group: C 2/M
;
_chemical_formula_sum "Si O2"
_cell_formula_units_Z 60
_cell_length_a 19.682649
_cell_length_b 31.039365
_cell_length_c 5.011293
_cell_angle_alpha 90.000000
_cell_angle_beta 65.184479
_cell_angle_gamma 90.000000
_cell_volume 2778.888973
_symmetry_space_group_name_H-M "C 2/M"
_symmetry_group_IT_number 12
_symmetry_cell_setting 'monoclinic'
loop_
_space_group_symop_operation_xyz
x,y,z
-x,y,-z
-x,-y,-z
x,-y,z
1/2+x,1/2+y,z
1/2-x,1/2+y,-z
1/2-x,1/2-y,-z
1/2+x,1/2-y,z
loop_
_atom_site_type_symbol
_atom_site_label
_atom_site_fract_x
_atom_site_fract_y
_atom_site_fract_z
Si Si1 0.944525 0.000000 0.342161
Si Si2 0.653201 0.846493 0.278157
Si Si3 0.220652 0.095090 0.824322
Si Si4 0.286553 0.950507 0.214663
Si Si5 0.055270 0.271385 0.661284
Si Si6 0.946389 0.174919 0.331884
Si Si7 0.911691 0.391873 0.122754
Si Si8 0.911036 0.910617 0.590001
O O1 0.899100 0.955616 0.453196
O O2 0.000000 0.000000 0.500000
O O3 0.000000 0.000000 0.000000
O O4 0.622686 0.802485 0.458570
O O5 0.615725 0.881306 0.535727
O O6 0.740705 0.858941 0.163876
O O7 0.621597 0.856686 0.034542
O O8 0.259960 0.061345 0.962835
O O9 0.135268 0.091508 0.060118
O O10 0.242453 0.080553 0.493151
O O11 0.372738 0.936089 0.099098
O O12 0.274674 0.000000 0.297572
O O13 0.084613 0.222839 0.667068
O O14 0.000000 0.271559 0.500000
O O15 0.000000 0.283831 0.000000
O O16 0.893428 0.134185 0.468454
O O17 0.000000 0.179452 0.500000
O O18 0.000000 0.163690 0.000000
O O19 0.000000 0.391853 0.000000
O O20 0.000000 0.909446 0.500000
#
# Coordination Sequence:
#
# PCOD9173512 Si02
#       8
#     4   8   8   8   8   8   8   8
#     4  10  22  36  56  84 104 128 173 228 281 320
#     4  10  19  33  51  80 115 143 185 225 268 324
#     4  10  23  38  56  80 108 149 180 226 285 331
#     4  10  22  38  56  77 110 146 184 223 278 336
#     4  10  18  30  54  84 110 147 184 223 266 317
#     4   9  19  34  54  80 112 142 177 223 280 328
#     4  10  19  32  53  80 109 146 184 228 269 311
#     4  10  22  41  60  83 110 142 184 236 279 337
#
# _framework density 21.591365
#
# number of rings (size 3 to 8) (size 9 to 14) (size 15 to 20)
#    0.000    2.133    0.000    3.200    1.867    4.533 
#    0.000    0.667    0.000    4.800    0.000   16.800 
#    0.000    0.000    0.000    0.000    0.000    0.000 
#
# Total GULP energy -167353.203600 kJ/mol
# GULP energy per Si atom -5578.440120 kJ/mol
# Density = 2.154222 g / cm^3
# Si number density = 21.591365 Si / 1000 Ang^3
#
#
#
# Elastic Constant Matrix: (Units=GPa)
#
#
# Indices 1 2 3 4 5 6 
#
# 1 55.2933 11.8158 15.1840 0.0000 -5.9752 0.0000
# 2 11.8158 142.5949 21.0041 0.0000 -19.7198 0.0000
# 3 15.1840 21.0041 117.7773 0.0000 7.0216 0.0000
# 4 0.0000 0.0000 0.0000 33.5659 0.0000 -1.8224
# 5 -5.9752 -19.7198 7.0216 0.0000 38.5710 0.0000
# 6 0.0000 0.0000 0.0000 -1.8224 0.0000 11.2730
#
#
#
# Elastic Compliance Matrix: (Units=1/GPa)
#
#
# Indices 1 2 3 4 5 6 
#
# 1 0.019278 -0.000806 -0.002522 0.000000 0.003033 0.000000
# 2 -0.000806 0.007888 -0.001553 0.000000 0.004190 0.000000
# 3 -0.002522 -0.001553 0.009264 0.000000 -0.002871 0.000000
# 4 0.000000 0.000000 0.000000 0.030056 0.000000 0.004859
# 5 0.003033 0.004190 -0.002871 0.000000 0.029061 0.000000
# 6 0.000000 0.000000 0.000000 0.004859 0.000000 0.089493
#
#
# Mechanical properties :
#
#
# Convention : Reuss Voigt Hill
#
# Bulk Modulus (GPa) = 37.49932 45.74150 41.62041
# Shear Modulus (GPa) = 24.54686 34.52609 29.53648
#
# Velocity S-wave (km/s) = 3.37543 4.00317 3.70263
# Velocity P-wave (km/s) = 5.70936 6.52674 6.13168
#
# Compressibility (1/GPa) = 0.02666715
#
# Stress axis : x y z
#
# Youngs Moduli (GPa) = 51.87213 126.77655 107.94672
#
# Poissons Ratio (x) = 0.10223 0.27228
# Poissons Ratio (y) = 0.04183 0.16759
# Poissons Ratio (z) = 0.13084 0.19683
#
# Static dielectric constant tensor:
#      x y z
#    x 1.839020 0.000000 -0.021890 
#    y 0.000000 1.855780 0.000000 
#    z -0.021890 0.000000 1.766240 
# 
# From -- ./inp_files/26687.got.cif
#   From: 2010.05.17/outbox.cif.g08.bks.cpg/sg12_14_cif.got.tgz:26687.got - 2010.06.03 13:09:07.
