data_PCOD9173806
_publ_section_title
;
Structure prediction by ZEFSAII (Michael W. Deem and Ramdas Pophale) SiO2 
 PCOD9173806
Probable space group: C 2/M
;
_chemical_formula_sum "Si O2"
_cell_formula_units_Z 64
_cell_length_a 21.103601
_cell_length_b 8.374769
_cell_length_c 24.972619
_cell_angle_alpha 90.000000
_cell_angle_beta 126.582031
_cell_angle_gamma 90.000000
_cell_volume 3544.144599
_symmetry_space_group_name_H-M "C 2/M"
_symmetry_group_IT_number 12
_symmetry_cell_setting 'monoclinic'
loop_
_space_group_symop_operation_xyz
x,y,z
-x,y,-z
-x,-y,-z
x,-y,z
1/2+x,1/2+y,z
1/2-x,1/2+y,-z
1/2-x,1/2-y,-z
1/2+x,1/2-y,z
loop_
_atom_site_type_symbol
_atom_site_label
_atom_site_fract_x
_atom_site_fract_y
_atom_site_fract_z
Si Si1 0.204406 0.690621 0.348576
Si Si2 0.913174 0.304927 0.229203
Si Si3 0.139646 0.190497 0.206076
Si Si4 0.684801 0.191677 0.510000
Si Si5 0.318553 0.690655 0.994917
Si Si6 0.568546 0.805643 0.365168
Si Si7 0.537119 0.190544 0.865250
Si Si8 0.766564 0.195294 0.851299
O O1 0.200253 0.500000 0.342414
O O2 0.190587 0.764895 0.283819
O O3 0.285259 0.739110 0.418902
O O4 0.131905 0.742511 0.351229
O O5 0.913649 0.500000 0.229620
O O6 0.936237 0.254089 0.180627
O O7 0.824737 0.253744 0.198338
O O8 0.982014 0.251299 0.304183
O O9 0.182189 0.248280 0.173453
O O10 0.052581 0.261422 0.169244
O O11 0.132286 0.000000 0.199438
O O12 0.750000 0.250000 0.500000
O O13 0.603028 0.242446 0.440426
O O14 0.686504 0.000000 0.513919
O O15 0.315056 0.500000 0.992314
O O16 0.301559 0.747923 0.926017
O O17 0.250000 0.750000 0.000000
O O18 0.402249 0.743127 0.060633
O O19 0.568375 0.000000 0.364722
O O20 0.543227 0.000000 0.868425
O O21 0.766765 0.000000 0.851263
#
# Coordination Sequence:
#
# PCOD9173806 Si02
#       8
#     8   8   8   8   8   8   8   8
#     4  10  18  31  50  74 105 144 180 219 274 327
#     4   9  15  30  55  79 102 136 179 219 264 321
#     4  11  22  36  54  80 110 141 182 227 272 327
#     4   9  16  26  43  74 109 140 175 221 274 324
#     4  11  21  37  59  84 111 142 182 226 274 326
#     4   8  14  25  47  76 103 131 172 222 265 310
#     4  11  21  36  59  82 108 144 182 223 273 324
#     4   9  20  36  55  78 108 145 179 219 275 332
#
# _framework density 18.057953999999999
#
# number of rings (size 3 to 8) (size 9 to 14) (size 15 to 20)
#    0.000    2.250    2.500    2.625    0.000    0.500 
#    0.000    5.000    0.000    0.750    0.000    5.250 
#    0.000    0.000    0.000    0.000    0.000    0.000 
#
# Total GULP energy -178461.857968 kJ/mol
# GULP energy per Si atom -5576.933061 kJ/mol
# Density = 1.801685 g / cm^3
# Si number density = 18.057954 Si / 1000 Ang^3
#
#
#
# Elastic Constant Matrix: (Units=GPa)
#
#
# Indices 1 2 3 4 5 6 
#
# 1 75.3764 -1.2620 35.3483 0.0000 -4.2460 0.0000
# 2 -1.2620 16.9783 -3.2286 0.0000 -1.8766 0.0000
# 3 35.3483 -3.2286 129.5800 0.0000 9.4930 0.0000
# 4 0.0000 0.0000 0.0000 26.5263 0.0000 2.8187
# 5 -4.2460 -1.8766 9.4930 0.0000 25.1958 0.0000
# 6 0.0000 0.0000 0.0000 2.8187 0.0000 18.8038
#
#
#
# Elastic Compliance Matrix: (Units=1/GPa)
#
#
# Indices 1 2 3 4 5 6 
#
# 1 0.015678 0.000783 -0.004582 0.000000 0.004427 0.000000
# 2 0.000783 0.059605 0.000963 0.000000 0.004209 0.000000
# 3 -0.004582 0.000963 0.009299 0.000000 -0.004204 0.000000
# 4 0.000000 0.000000 0.000000 0.038309 0.000000 -0.005743
# 5 0.004427 0.004209 -0.004204 0.000000 0.042333 0.000000
# 6 0.000000 0.000000 0.000000 -0.005743 0.000000 0.054042
#
#
# Mechanical properties :
#
#
# Convention : Reuss Voigt Hill
#
# Bulk Modulus (GPa) = 12.67233 31.51667 22.09450
# Shear Modulus (GPa) = 19.90138 26.84365 23.37251
#
# Velocity S-wave (km/s) = 3.32337 3.85973 3.60155
# Velocity P-wave (km/s) = 4.66467 6.11182 5.43661
#
# Compressibility (1/GPa) = 0.07891206
#
# Stress axis : x y z
#
# Youngs Moduli (GPa) = 63.78471 16.77701 107.53830
#
# Poissons Ratio (x) = -0.01314 0.49269
# Poissons Ratio (y) = -0.04997 -0.10357
# Poissons Ratio (z) = 0.29223 -0.01616
#
# Static dielectric constant tensor:
#      x y z
#    x 1.589780 0.000000 0.008640 
#    y 0.000000 1.631890 0.000000 
#    z 0.008640 0.000000 1.641120 
# 
# From -- ./inp_files/345562.got.cif
#   From: 2010.05.17/outbox.cif.g08.bks.cpg/sg12_173_cif.got.tgz:345562.got - 2010.06.03 13:09:07.
