data_PCOD9173254
_publ_section_title
;
Structure prediction by ZEFSAII (Michael W. Deem and Ramdas Pophale) SiO2 
 PCOD9173254
Probable space group: C 2/M
;
_chemical_formula_sum "Si O2"
_cell_formula_units_Z 48
_cell_length_a 28.659266
_cell_length_b 9.059911
_cell_length_c 11.225838
_cell_angle_alpha 90.000000
_cell_angle_beta 103.173363
_cell_angle_gamma 90.000000
_cell_volume 2838.090413
_symmetry_space_group_name_H-M "C 2/M"
_symmetry_group_IT_number 12
_symmetry_cell_setting 'monoclinic'
loop_
_space_group_symop_operation_xyz
x,y,z
-x,y,-z
-x,-y,-z
x,-y,z
1/2+x,1/2+y,z
1/2-x,1/2+y,-z
1/2-x,1/2-y,-z
1/2+x,1/2-y,z
loop_
_atom_site_type_symbol
_atom_site_label
_atom_site_fract_x
_atom_site_fract_y
_atom_site_fract_z
Si Si1 0.991381 0.169842 0.138165
Si Si2 0.604878 0.824257 0.962838
Si Si3 0.793661 0.677165 0.096803
Si Si4 0.411379 0.175752 0.767083
Si Si5 0.820734 0.825902 0.610570
Si Si6 0.230161 0.825829 0.672412
O O1 0.939252 0.240638 0.124407
O O2 0.035197 0.261427 0.218541
O O3 0.992830 0.000000 0.177477
O O4 0.000000 0.173489 0.000000
O O5 0.656097 0.785648 0.937496
O O6 0.597409 0.000000 0.945403
O O7 0.603162 0.792690 0.103412
O O8 0.788650 0.500000 0.094569
O O9 0.791680 0.741231 0.228514
O O10 0.750000 0.750000 0.000000
O O11 0.372358 0.255564 0.662940
O O12 0.410406 0.000000 0.749660
O O13 0.802287 0.808429 0.464468
O O14 0.781825 0.742655 0.669947
O O15 0.821027 0.000000 0.638742
O O16 0.235264 0.000000 0.701058
#
# Coordination Sequence:
#
# PCOD9173254 Si02
#       6
#     8   8   8   8   8   8
#     4   9  17  29  47  72 100 130 165 204 246 294
#     4   9  19  33  48  71 102 134 165 201 248 297
#     4  11  22  35  53  76 104 136 170 207 248 299
#     4  10  18  30  51  76 103 132 164 205 251 299
#     4  10  20  34  53  75 100 131 169 212 252 296
#     4  10  21  36  52  73 102 134 169 208 253 301
#
# _framework density 16.912780000000001
#
# number of rings (size 3 to 8) (size 9 to 14) (size 15 to 20)
#    0.000    2.167    0.000    3.500    0.000    7.333 
#    0.000    0.000    0.000    1.000    0.000    7.000 
#    0.000    0.000    0.000    0.000    0.000    0.000 
#
# Total GULP energy -133960.528445 kJ/mol
# GULP energy per Si atom -5581.688685 kJ/mol
# Density = 1.687429 g / cm^3
# Si number density = 16.912780 Si / 1000 Ang^3
#
#
#
# Elastic Constant Matrix: (Units=GPa)
#
#
# Indices 1 2 3 4 5 6 
#
# 1 140.7856 74.5918 43.0503 0.0000 18.2133 0.0000
# 2 74.5918 91.2579 39.6607 0.0000 14.0047 0.0000
# 3 43.0503 39.6607 33.0346 0.0000 7.0842 0.0000
# 4 0.0000 0.0000 0.0000 27.8687 0.0000 5.2541
# 5 18.2133 14.0047 7.0842 0.0000 30.8605 0.0000
# 6 0.0000 0.0000 0.0000 5.2541 0.0000 33.8662
#
#
#
# Elastic Compliance Matrix: (Units=1/GPa)
#
#
# Indices 1 2 3 4 5 6 
#
# 1 0.014013 -0.006979 -0.009243 0.000000 -0.002981 0.000000
# 2 -0.006979 0.026944 -0.022628 0.000000 -0.002914 0.000000
# 3 -0.009243 -0.022628 0.069535 0.000000 -0.000238 0.000000
# 4 0.000000 0.000000 0.000000 0.036964 0.000000 -0.005735
# 5 -0.002981 -0.002914 -0.000238 0.000000 0.035540 0.000000
# 6 0.000000 0.000000 0.000000 -0.005735 0.000000 0.030418
#
#
# Mechanical properties :
#
#
# Convention : Reuss Voigt Hill
#
# Bulk Modulus (GPa) = 30.49649 64.40927 47.45288
# Shear Modulus (GPa) = 16.55386 25.70412 21.12899
#
# Velocity S-wave (km/s) = 3.13194 3.90270 3.53837
# Velocity P-wave (km/s) = 5.58117 7.64682 6.69415
#
# Compressibility (1/GPa) = 0.03279066
#
# Stress axis : x y z
#
# Youngs Moduli (GPa) = 71.36340 37.11389 14.38131
#
# Poissons Ratio (x) = 0.25903 0.13292
# Poissons Ratio (y) = 0.49806 0.32543
# Poissons Ratio (z) = 0.65960 0.83983
#
# Static dielectric constant tensor:
#      x y z
#    x 1.551570 0.000000 0.003900 
#    y 0.000000 1.563960 0.000000 
#    z 0.003900 0.000000 1.559140 
# 
# From -- ./inp_files/172189.got.cif
#   From: 2010.05.17/outbox.cif.g08.bks.cpg/sg12_87_cif.got.tgz:172189.got - 2010.06.03 13:09:07.
