data_PCOD9173792
_publ_section_title
;
Structure prediction by ZEFSAII (Michael W. Deem and Ramdas Pophale) SiO2 
 PCOD9173792
Probable space group: C 2/M
;
_chemical_formula_sum "Si O2"
_cell_formula_units_Z 40
_cell_length_a 20.520276
_cell_length_b 13.723713
_cell_length_c 7.624058
_cell_angle_alpha 90.000000
_cell_angle_beta 136.029564
_cell_angle_gamma 90.000000
_cell_volume 1490.665213
_symmetry_space_group_name_H-M "C 2/M"
_symmetry_group_IT_number 12
_symmetry_cell_setting 'monoclinic'
loop_
_space_group_symop_operation_xyz
x,y,z
-x,y,-z
-x,-y,-z
x,-y,z
1/2+x,1/2+y,z
1/2-x,1/2+y,-z
1/2-x,1/2-y,-z
1/2+x,1/2-y,z
loop_
_atom_site_type_symbol
_atom_site_label
_atom_site_fract_x
_atom_site_fract_y
_atom_site_fract_z
Si Si1 0.841737 0.602705 0.862553
Si Si2 0.044615 0.393204 0.393612
Si Si3 0.218653 0.861710 0.944420
Si Si4 0.577420 0.321301 0.390491
Si Si5 0.859200 0.172951 0.857283
O O1 0.814966 0.500000 0.719378
O O2 0.797769 0.595060 0.972490
O O3 0.823366 0.714513 0.772863
O O4 0.953962 0.602149 0.094010
O O5 0.090273 0.500000 0.478497
O O6 0.000000 0.377654 0.500000
O O7 0.098004 0.294989 0.447312
O O8 0.121724 0.870452 0.646974
O O9 0.250000 0.750000 0.000000
O O10 0.200680 0.883478 0.112822
O O11 0.628267 0.363376 0.316356
O O12 0.465818 0.326667 0.143387
#
# Coordination Sequence:
#
# PCOD9173792 Si02
#       5
#     8   8   8   8   8
#     4   9  18  31  47  70  99 128 157 192 239 290
#     4   9  16  28  47  71 100 130 159 192 233 285
#     4  10  19  31  49  71  99 129 159 197 240 286
#     4  10  18  31  50  73  98 126 162 200 239 281
#     4   9  19  32  51  73  94 127 165 200 236 280
#
# _framework density 26.833658
#
# number of rings (size 3 to 8) (size 9 to 14) (size 15 to 20)
#    0.000    2.600    0.000    4.200    0.000    4.000 
#    0.000    4.000    0.000   10.800    0.000    2.800 
#    0.000    0.000    0.000    0.000    0.000    0.000 
#
# Total GULP energy -111687.983363 kJ/mol
# GULP energy per Si atom -5584.399168 kJ/mol
# Density = 2.677258 g / cm^3
# Si number density = 26.833658 Si / 1000 Ang^3
#
#
#
# Elastic Constant Matrix: (Units=GPa)
#
#
# Indices 1 2 3 4 5 6 
#
# 1 174.3746 14.9084 33.8898 0.0000 -39.2099 0.0000
# 2 14.9084 72.5830 16.6156 0.0000 -8.2222 0.0000
# 3 33.8898 16.6156 103.6265 0.0000 15.8162 0.0000
# 4 0.0000 0.0000 0.0000 7.0527 0.0000 -14.7963
# 5 -39.2099 -8.2222 15.8162 0.0000 52.0770 0.0000
# 6 0.0000 0.0000 0.0000 -14.7963 0.0000 -77.2712
#
#
#
# Elastic Compliance Matrix: (Units=1/GPa)
#
#
# Indices 1 2 3 4 5 6 
#
# 1 0.008089 0.000017 -0.003752 0.000000 0.007232 0.000000
# 2 0.000017 0.014795 -0.002869 0.000000 0.003220 0.000000
# 3 -0.003752 -0.002869 0.012413 0.000000 -0.007048 0.000000
# 4 0.000000 0.000000 0.000000 0.101154 0.000000 -0.019369
# 5 0.007232 0.003220 -0.007048 0.000000 0.027297 0.000000
# 6 0.000000 0.000000 0.000000 -0.019369 0.000000 -0.009232
#
#
# Mechanical properties :
#
#
# Convention : Reuss Voigt Hill
#
# Bulk Modulus (GPa) = 45.27295 53.49020 49.38158
# Shear Modulus (GPa) = 28.55733 15.38306 21.97019
#
# Velocity S-wave (km/s) = 3.26580 2.39691 2.86449
# Velocity P-wave (km/s) = 5.57933 5.25714 5.42063
#
# Compressibility (1/GPa) = 0.02208824
#
# Stress axis : x y z
#
# Youngs Moduli (GPa) = 123.62786 67.58820 80.56215
#
# Poissons Ratio (x) = -0.00113 0.30226
# Poissons Ratio (y) = -0.00207 0.23115
# Poissons Ratio (z) = 0.46384 0.19393
#
# Static dielectric constant tensor:
#      x y z
#    x 2.058170 0.000000 0.011030 
#    y 0.000000 2.095040 0.000000 
#    z 0.011030 0.000000 2.144380 
# 
# From -- ./inp_files/86089.got.cif
#   From: 2010.05.17/outbox.cif.g08.bks.cpg/sg12_44_cif.got.tgz:86089.got - 2010.06.03 13:09:07.
