data_PCOD9173401
_publ_section_title
;
Structure prediction by ZEFSAII (Michael W. Deem and Ramdas Pophale) SiO2 
 PCOD9173401
Probable space group: C 2/M
;
_chemical_formula_sum "Si O2"
_cell_formula_units_Z 64
_cell_length_a 16.563056
_cell_length_b 22.903392
_cell_length_c 13.720124
_cell_angle_alpha 90.000000
_cell_angle_beta 151.396134
_cell_angle_gamma 90.000000
_cell_volume 2491.770823
_symmetry_space_group_name_H-M "C 2/M"
_symmetry_group_IT_number 12
_symmetry_cell_setting 'monoclinic'
loop_
_space_group_symop_operation_xyz
x,y,z
-x,y,-z
-x,-y,-z
x,-y,z
1/2+x,1/2+y,z
1/2-x,1/2+y,-z
1/2-x,1/2-y,-z
1/2+x,1/2-y,z
loop_
_atom_site_type_symbol
_atom_site_label
_atom_site_fract_x
_atom_site_fract_y
_atom_site_fract_z
Si Si1 0.820692 0.363858 0.266176
Si Si2 0.436277 0.884455 0.690847
Si Si3 0.888492 0.134078 0.508779
Si Si4 0.869449 0.067355 0.094896
Si Si5 0.343724 0.883627 0.904944
Si Si6 0.628236 0.255004 0.046718
Si Si7 0.065955 0.252132 0.353200
Si Si8 0.811637 0.937223 0.712566
O O1 0.789645 0.295130 0.228542
O O2 0.692739 0.387079 0.213102
O O3 0.000000 0.379300 0.500000
O O4 0.769913 0.397267 0.114077
O O5 0.278587 0.871718 0.598742
O O6 0.466981 0.821499 0.670207
O O7 0.353728 0.929436 0.529437
O O8 0.591926 0.906452 0.922230
O O9 0.045637 0.100506 0.723434
O O10 0.821927 0.108138 0.336235
O O11 0.931775 0.203504 0.559671
O O12 0.028945 0.065995 0.188741
O O13 0.826301 0.000000 0.069703
O O14 0.344181 0.813804 0.921908
O O15 0.500000 0.899537 0.000000
O O16 0.500000 0.266376 0.000000
O O17 0.554245 0.269789 0.861702
O O18 0.250000 0.250000 0.500000
O O19 0.807461 0.000000 0.758809
#
# Coordination Sequence:
#
# PCOD9173401 Si02
#       8
#     8   8   8   8   8   8   8   8
#     4  12  25  36  50  75 108 143 174 215 268 314
#     4   8  16  27  46  77 106 132 168 208 257 311
#     4   9  15  26  46  76 109 133 163 211 260 306
#     4  10  20  36  55  76 102 135 179 222 257 307
#     4   8  15  27  48  81 111 135 166 209 258 309
#     4  10  18  30  52  80 107 137 178 213 248 307
#     4   9  15  24  46  80 105 129 167 213 257 300
#     4  10  21  36  56  77 101 137 178 221 263 305
#
# _framework density 25.684546000000001
#
# number of rings (size 3 to 8) (size 9 to 14) (size 15 to 20)
#    0.000    2.500    1.250    3.750    5.250    2.000 
#    0.000    0.625    0.000   10.500    0.000    0.000 
#    0.000    2.000    0.000    0.000    0.000    0.000 
#
# Total GULP energy -179052.338288 kJ/mol
# GULP energy per Si atom -5595.385571 kJ/mol
# Density = 2.562609 g / cm^3
# Si number density = 25.684546 Si / 1000 Ang^3
#
#
#
# Elastic Constant Matrix: (Units=GPa)
#
#
# Indices 1 2 3 4 5 6 
#
# 1 76.7802 6.6178 21.7349 0.0000 -9.7740 0.0000
# 2 6.6178 78.2817 38.7088 0.0000 -0.0138 0.0000
# 3 21.7349 38.7088 212.4697 0.0000 -16.6355 0.0000
# 4 0.0000 0.0000 0.0000 26.7385 0.0000 -0.0435
# 5 -9.7740 -0.0138 -16.6355 0.0000 42.9341 0.0000
# 6 0.0000 0.0000 0.0000 -0.0435 0.0000 10.2328
#
#
#
# Elastic Compliance Matrix: (Units=1/GPa)
#
#
# Indices 1 2 3 4 5 6 
#
# 1 0.013728 -0.000627 -0.001078 0.000000 0.002707 0.000000
# 2 -0.000627 0.014111 -0.002596 0.000000 -0.001144 0.000000
# 3 -0.001078 -0.002596 0.005435 0.000000 0.001860 0.000000
# 4 0.000000 0.000000 0.000000 0.037400 0.000000 0.000159
# 5 0.002707 -0.001144 0.001860 0.000000 0.024628 0.000000
# 6 0.000000 0.000000 0.000000 0.000159 0.000000 0.097726
#
#
# Mechanical properties :
#
#
# Convention : Reuss Voigt Hill
#
# Bulk Modulus (GPa) = 40.53212 55.73942 48.13577
# Shear Modulus (GPa) = 23.82599 36.01239 29.91919
#
# Velocity S-wave (km/s) = 3.04902 3.74853 3.41672
# Velocity P-wave (km/s) = 5.31134 6.36270 5.86065
#
# Compressibility (1/GPa) = 0.02467179
#
# Stress axis : x y z
#
# Youngs Moduli (GPa) = 72.84352 70.86678 183.97714
#
# Poissons Ratio (x) = 0.04443 0.19835
# Poissons Ratio (y) = 0.04567 0.47765
# Poissons Ratio (z) = 0.07854 0.18399
#
# Static dielectric constant tensor:
#      x y z
#    x 2.105100 0.000000 0.064030 
#    y 0.000000 1.901940 0.000000 
#    z 0.064030 0.000000 1.972830 
# 
# From -- ./inp_files/291205.got.cif
#   From: 2010.05.17/outbox.cif.g08.bks.cpg/sg12_146_cif.got.tgz:291205.got - 2010.06.03 13:09:07.
