data_PCOD9173154
_publ_section_title
;
Structure prediction by ZEFSAII (Michael W. Deem and Ramdas Pophale) SiO2 
 PCOD9173154
Probable space group: C 2/M
;
_chemical_formula_sum "Si O2"
_cell_formula_units_Z 40
_cell_length_a 10.944700
_cell_length_b 14.036611
_cell_length_c 18.152809
_cell_angle_alpha 90.000000
_cell_angle_beta 46.669400
_cell_angle_gamma 90.000000
_cell_volume 2028.556317
_symmetry_space_group_name_H-M "C 2/M"
_symmetry_group_IT_number 12
_symmetry_cell_setting 'monoclinic'
loop_
_space_group_symop_operation_xyz
x,y,z
-x,y,-z
-x,-y,-z
x,-y,z
1/2+x,1/2+y,z
1/2-x,1/2+y,-z
1/2-x,1/2-y,-z
1/2+x,1/2-y,z
loop_
_atom_site_type_symbol
_atom_site_label
_atom_site_fract_x
_atom_site_fract_y
_atom_site_fract_z
Si Si1 0.667220 0.888891 0.385642
Si Si2 0.210821 0.758244 0.796106
Si Si3 0.529556 0.394952 0.258940
Si Si4 0.948372 0.613466 0.933978
Si Si5 0.563591 0.607724 0.069504
O O1 0.500000 0.866797 0.500000
O O2 0.699444 0.817352 0.305196
O O3 0.837622 0.883069 0.363747
O O4 0.656227 0.000000 0.365402
O O5 0.353084 0.693107 0.772535
O O6 0.070134 0.678622 0.834609
O O7 0.095294 0.830348 0.892587
O O8 0.594367 0.500000 0.256077
O O9 0.521218 0.397987 0.174175
O O10 0.966186 0.500000 0.914994
O O11 0.757350 0.640443 0.992208
O O12 0.000000 0.628566 0.000000
O O13 0.563687 0.500000 0.042472
#
# Coordination Sequence:
#
# PCOD9173154 Si02
#       5
#     8   8   8   8   8
#     4   9  20  38  56  75 100 130 167 212 258 305
#     4  11  18  28  54  80 100 129 175 212 249 287
#     4   9  17  31  52  77 102 130 169 210 247 298
#     4  10  18  30  50  76 105 137 172 206 242 293
#     4   9  18  32  48  73 106 138 171 205 242 294
#
# _framework density 19.718457000000001
#
# number of rings (size 3 to 8) (size 9 to 14) (size 15 to 20)
#    0.000    2.400    2.000    3.000    0.000    0.800 
#    0.000    0.000    0.000   24.000    0.000    0.000 
#    0.000    0.000    0.000    0.000    0.000    0.000 
#
# Total GULP energy -111344.213030 kJ/mol
# GULP energy per Si atom -5567.210651 kJ/mol
# Density = 1.967358 g / cm^3
# Si number density = 19.718457 Si / 1000 Ang^3
#
#
#
# Elastic Constant Matrix: (Units=GPa)
#
#
# Indices 1 2 3 4 5 6 
#
# 1 73.5935 36.8127 41.1417 0.0000 -21.6669 0.0000
# 2 36.8127 113.9442 44.8269 0.0000 -7.1447 0.0000
# 3 41.1417 44.8269 140.7463 0.0001 -25.7729 0.0000
# 4 0.0000 0.0000 0.0001 39.3662 0.0000 -5.3076
# 5 -21.6669 -7.1447 -25.7729 0.0000 28.5156 0.0000
# 6 0.0000 0.0000 0.0000 -5.3076 0.0000 17.4307
#
#
#
# Elastic Compliance Matrix: (Units=1/GPa)
#
#
# Indices 1 2 3 4 5 6 
#
# 1 0.021175 -0.005174 -0.002197 0.000000 0.012808 0.000000
# 2 -0.005174 0.011302 -0.002743 0.000000 -0.003578 0.000000
# 3 -0.002197 -0.002743 0.009813 0.000000 0.006513 0.000000
# 4 0.000000 0.000000 0.000000 0.026490 0.000000 0.008066
# 5 0.012808 -0.003578 0.006513 0.000000 0.049790 0.000000
# 6 0.000000 0.000000 0.000000 0.008066 0.000000 0.059826
#
#
# Mechanical properties :
#
#
# Convention : Reuss Voigt Hill
#
# Bulk Modulus (GPa) = 45.32160 63.76073 54.54117
# Shear Modulus (GPa) = 24.27445 30.76268 27.51857
#
# Velocity S-wave (km/s) = 3.51244 3.95409 3.73979
# Velocity P-wave (km/s) = 6.28362 7.29741 6.80941
#
# Compressibility (1/GPa) = 0.02206453
#
# Stress axis : x y z
#
# Youngs Moduli (GPa) = 47.22569 88.47692 101.90334
#
# Poissons Ratio (x) = 0.45777 0.22383
# Poissons Ratio (y) = 0.24434 0.27948
# Poissons Ratio (z) = 0.10373 0.24266
#
# Static dielectric constant tensor:
#      x y z
#    x 1.752860 0.000000 -0.039640 
#    y 0.000000 1.761270 0.000000 
#    z -0.039640 0.000000 1.717460 
# 
# From -- ./inp_files/203636.got.cif
#   From: 2010.05.17/outbox.cif.g08.bks.cpg/sg12_102_cif.got.tgz:203636.got - 2010.06.03 13:09:07.
