data_PCOD9173644
_publ_section_title
;
Structure prediction by ZEFSAII (Michael W. Deem and Ramdas Pophale) SiO2 
 PCOD9173644
Probable space group: C 2/M
;
_chemical_formula_sum "Si O2"
_cell_formula_units_Z 48
_cell_length_a 24.596161
_cell_length_b 8.216418
_cell_length_c 13.733739
_cell_angle_alpha 90.000000
_cell_angle_beta 73.763394
_cell_angle_gamma 90.000000
_cell_volume 2664.783970
_symmetry_space_group_name_H-M "C 2/M"
_symmetry_group_IT_number 12
_symmetry_cell_setting 'monoclinic'
loop_
_space_group_symop_operation_xyz
x,y,z
-x,y,-z
-x,-y,-z
x,-y,z
1/2+x,1/2+y,z
1/2-x,1/2+y,-z
1/2-x,1/2-y,-z
1/2+x,1/2-y,z
loop_
_atom_site_type_symbol
_atom_site_label
_atom_site_fract_x
_atom_site_fract_y
_atom_site_fract_z
Si Si1 0.293618 0.301508 0.774621
Si Si2 0.993490 0.308324 0.115670
Si Si3 0.892143 0.189214 0.850359
Si Si4 0.772691 0.695193 0.384732
Si Si5 0.374094 0.311714 0.216560
Si Si6 0.184766 0.689435 0.942590
O O1 0.293570 0.500000 0.776593
O O2 0.355976 0.248367 0.776048
O O3 0.269689 0.251474 0.681631
O O4 0.246627 0.250889 0.878221
O O5 0.981431 0.500000 0.117068
O O6 0.051496 0.279640 0.144496
O O7 0.940459 0.221714 0.192741
O O8 0.000000 0.249152 0.000000
O O9 0.906272 0.000000 0.829107
O O10 0.847494 0.207344 0.961015
O O11 0.776207 0.500000 0.379571
O O12 0.750000 0.750000 0.500000
O O13 0.834175 0.766733 0.327012
O O14 0.364865 0.500000 0.196026
O O15 0.351926 0.203317 0.137841
O O16 0.187180 0.500000 0.971228
#
# Coordination Sequence:
#
# PCOD9173644 Si02
#       6
#     8   8   8   8   8   8
#     4   8  18  33  50  74 106 138 171 215 265 314
#     4  11  22  35  51  72 107 149 183 218 264 310
#     4  11  20  31  49  74 104 142 182 216 254 308
#     4  10  20  38  61  84 109 136 171 218 272 320
#     4  11  21  34  54  80 106 138 182 224 262 310
#     4  10  18  31  48  71 106 144 175 213 262 310
#
# _framework density 18.012718
#
# number of rings (size 3 to 8) (size 9 to 14) (size 15 to 20)
#    0.000    1.833    1.667    5.000    0.000    0.667 
#    0.000    9.167    0.000    1.000    0.000    7.000 
#    0.000    0.000    0.000    0.000    0.000    0.000 
#
# Total GULP energy -133951.656953 kJ/mol
# GULP energy per Si atom -5581.319040 kJ/mol
# Density = 1.797172 g / cm^3
# Si number density = 18.012718 Si / 1000 Ang^3
#
#
#
# Elastic Constant Matrix: (Units=GPa)
#
#
# Indices 1 2 3 4 5 6 
#
# 1 129.2594 9.3122 45.0513 0.0000 -8.2251 0.0000
# 2 9.3122 47.7460 7.8655 0.0000 -4.9735 0.0000
# 3 45.0513 7.8655 88.9185 0.0000 -9.0694 0.0000
# 4 0.0000 0.0000 0.0000 22.1314 0.0000 -5.4018
# 5 -8.2251 -4.9735 -9.0694 0.0000 11.9149 0.0000
# 6 0.0000 0.0000 0.0000 -5.4018 0.0000 11.1417
#
#
#
# Elastic Compliance Matrix: (Units=1/GPa)
#
#
# Indices 1 2 3 4 5 6 
#
# 1 0.009534 -0.000828 -0.004468 0.000000 0.002835 0.000000
# 2 -0.000828 0.022066 -0.000706 0.000000 0.008102 0.000000
# 3 -0.004468 -0.000706 0.014341 0.000000 0.007537 0.000000
# 4 0.000000 0.000000 0.000000 0.051249 0.000000 0.024847
# 5 0.002835 0.008102 0.007537 0.000000 0.095004 0.000000
# 6 0.000000 0.000000 0.000000 0.024847 0.000000 0.101800
#
#
# Mechanical properties :
#
#
# Convention : Reuss Voigt Hill
#
# Bulk Modulus (GPa) = 29.46665 43.37576 36.42121
# Shear Modulus (GPa) = 15.75747 22.61726 19.18736
#
# Velocity S-wave (km/s) = 2.96091 3.54733 3.26730
# Velocity P-wave (km/s) = 5.29940 6.39617 5.87344
#
# Compressibility (1/GPa) = 0.03393667
#
# Stress axis : x y z
#
# Youngs Moduli (GPa) = 104.89163 45.31889 69.72924
#
# Poissons Ratio (x) = 0.03753 0.31154
# Poissons Ratio (y) = 0.08686 0.04923
# Poissons Ratio (z) = 0.46865 0.03200
#
# Static dielectric constant tensor:
#      x y z
#    x 1.656200 0.000000 0.014800 
#    y 0.000000 1.621010 0.000000 
#    z 0.014800 0.000000 1.597250 
# 
# From -- ./inp_files/236583.got.cif
#   From: 2010.05.17/outbox.cif.g08.bks.cpg/sg12_119_cif.got.tgz:236583.got - 2010.06.03 13:09:07.
