data_PCOD9173096
_publ_section_title
;
Structure prediction by ZEFSAII (Michael W. Deem and Ramdas Pophale) SiO2 
 PCOD9173096
Probable space group: C 2/M
;
_chemical_formula_sum "Si O2"
_cell_formula_units_Z 40
_cell_length_a 13.212267
_cell_length_b 15.459353
_cell_length_c 30.691559
_cell_angle_alpha 90.000000
_cell_angle_beta 160.529710
_cell_angle_gamma 90.000000
_cell_volume 2089.519352
_symmetry_space_group_name_H-M "C 2/M"
_symmetry_group_IT_number 12
_symmetry_cell_setting 'monoclinic'
loop_
_space_group_symop_operation_xyz
x,y,z
-x,y,-z
-x,-y,-z
x,-y,z
1/2+x,1/2+y,z
1/2-x,1/2+y,-z
1/2-x,1/2-y,-z
1/2+x,1/2-y,z
loop_
_atom_site_type_symbol
_atom_site_label
_atom_site_fract_x
_atom_site_fract_y
_atom_site_fract_z
Si Si1 0.694948 0.398940 0.846854
Si Si2 0.851863 0.099739 0.788297
Si Si3 0.084294 0.341430 0.930723
Si Si4 0.845850 0.606047 0.648160
Si Si5 0.650300 0.895429 0.861722
O O1 0.630391 0.500000 0.810119
O O2 0.446312 0.361927 0.779717
O O3 0.790365 0.349504 0.842032
O O4 0.000000 0.398635 0.000000
O O5 0.575767 0.137762 0.703906
O O6 0.776399 0.000000 0.748332
O O7 0.149552 0.099139 0.940275
O O8 0.022040 0.364792 0.855737
O O9 0.250000 0.250000 0.000000
O O10 0.500000 0.631862 0.500000
O O11 0.857840 0.500000 0.652326
O O12 0.970057 0.632772 0.745772
O O13 0.653781 0.000000 0.863610
O O14 0.000000 0.865212 0.000000
#
# Coordination Sequence:
#
# PCOD9173096 Si02
#       5
#     8   8   8   8   8
#     4   8  15  28  46  65  91 129 165 197 240 294
#     4   9  16  31  50  69  96 129 166 204 247 295
#     4  11  20  28  44  73 105 130 161 206 249 298
#     4   9  17  30  52  79 101 126 165 209 254 303
#     4  10  18  30  50  74 101 129 160 207 259 299
#
# _framework density 19.143158
#
# number of rings (size 3 to 8) (size 9 to 14) (size 15 to 20)
#    0.000    2.600    2.000    3.000    0.000    2.400 
#    0.000    0.000    0.000    2.400    0.000    7.000 
#    0.000    0.000    0.000    0.000    0.000    0.800 
#
# Total GULP energy -111456.982082 kJ/mol
# GULP energy per Si atom -5572.849104 kJ/mol
# Density = 1.909959 g / cm^3
# Si number density = 19.143158 Si / 1000 Ang^3
#
#
#
# Elastic Constant Matrix: (Units=GPa)
#
#
# Indices 1 2 3 4 5 6 
#
# 1 235.2486 32.7447 85.0271 0.0043 29.4570 0.0018
# 2 32.7447 29.1335 4.1656 -0.0092 1.1175 0.0024
# 3 85.0271 4.1656 96.2754 0.0013 6.3278 0.0114
# 4 0.0043 -0.0092 0.0013 4.1795 -0.0032 -1.0148
# 5 29.4570 1.1175 6.3278 -0.0032 24.5308 0.0018
# 6 0.0018 0.0024 0.0114 -1.0148 0.0018 -0.6133
#
#
#
# Elastic Compliance Matrix: (Units=1/GPa)
#
#
# Indices 1 2 3 4 5 6 
#
# 1 0.009176 -0.008956 -0.007140 -0.000053 -0.008769 -0.000079
# 2 -0.008956 0.043315 0.005553 0.000124 0.007349 0.000063
# 3 -0.007140 0.005553 0.016180 0.000067 0.004147 0.000203
# 4 -0.000053 0.000124 0.000067 0.170685 0.000084 -0.282439
# 5 -0.008769 0.007349 0.004147 0.000084 0.049890 0.000088
# 6 -0.000079 0.000063 0.000203 -0.282439 0.000088 -1.163231
#
#
# Mechanical properties :
#
#
# Convention : Reuss Voigt Hill
#
# Bulk Modulus (GPa) = 21.01552 67.17026 44.09289
# Shear Modulus (GPa) = -5.97347 21.53409 7.78031
#
# Velocity S-wave (km/s) = -1.76839 3.35759 2.01819
# Velocity P-wave (km/s) = 2.61387 7.08490 5.33985
#
# Compressibility (1/GPa) = 0.04758389
#
# Stress axis : x y z
#
# Youngs Moduli (GPa) = 108.97702 23.08648 61.80464
#
# Poissons Ratio (x) = 0.20677 0.44130
# Poissons Ratio (y) = 0.97604 -0.34318
# Poissons Ratio (z) = 0.77812 -0.12819
#
# Static dielectric constant tensor:
#      x y z
#    x 1.711610 0.000000 0.035400 
#    y 0.000000 1.731030 -0.000010 
#    z 0.035400 -0.000010 1.641210 
# 
# From -- ./inp_files/88228.got.cif
#   From: 2010.05.17/outbox.cif.g08.bks.cpg/sg12_45_cif.got.tgz:88228.got - 2010.06.03 13:09:07.
