data_PCOD9173594
_publ_section_title
;
Structure prediction by ZEFSAII (Michael W. Deem and Ramdas Pophale) SiO2 
 PCOD9173594
Probable space group: C 2/M
;
_chemical_formula_sum "Si O2"
_cell_formula_units_Z 64
_cell_length_a 16.688549
_cell_length_b 14.587928
_cell_length_c 15.763456
_cell_angle_alpha 90.000000
_cell_angle_beta 89.989553
_cell_angle_gamma 90.000000
_cell_volume 3837.634600
_symmetry_space_group_name_H-M "C 2/M"
_symmetry_group_IT_number 12
_symmetry_cell_setting 'monoclinic'
loop_
_space_group_symop_operation_xyz
x,y,z
-x,y,-z
-x,-y,-z
x,-y,z
1/2+x,1/2+y,z
1/2-x,1/2+y,-z
1/2-x,1/2-y,-z
1/2+x,1/2-y,z
loop_
_atom_site_type_symbol
_atom_site_label
_atom_site_fract_x
_atom_site_fract_y
_atom_site_fract_z
Si Si1 0.592050 0.388496 0.990761
Si Si2 0.119007 0.893632 0.505968
Si Si3 0.083289 0.396750 0.549516
Si Si4 0.212161 0.601712 0.399116
Si Si5 0.445802 0.725725 0.351278
Si Si6 0.867958 0.776809 0.665835
Si Si7 0.922163 0.894280 0.194799
Si Si8 0.617219 0.394262 0.173329
O O1 0.590563 0.500000 0.992830
O O2 0.635684 0.360572 0.077572
O O3 0.500000 0.356939 0.000000
O O4 0.616788 0.365320 0.894894
O O5 0.199900 0.890639 0.561998
O O6 0.056703 0.843558 0.568667
O O7 0.136325 0.838724 0.419383
O O8 0.099197 0.000000 0.488672
O O9 0.078455 0.500000 0.584278
O O10 0.152001 0.393615 0.479270
O O11 0.096122 0.318418 0.618313
O O12 0.000000 0.377442 0.500000
O O13 0.202970 0.500000 0.360042
O O14 0.186685 0.687333 0.342492
O O15 0.537822 0.749468 0.329963
O O16 0.407004 0.673530 0.272148
O O17 0.849781 0.834801 0.749769
O O18 0.019414 0.894639 0.181895
O O19 0.900032 0.000000 0.214748
O O20 0.642600 0.500000 0.181932
#
# Coordination Sequence:
#
# PCOD9173594 Si02
#       8
#     8   8   8   8   8   8   8   8
#     4   7  10  20  36  55  83 117 141 166 206 253
#     4  11  22  32  43  62  93 123 144 172 218 269
#     4  10  18  31  47  61  80 111 153 195 221 242
#     4  10  21  35  47  59  82 119 160 191 211 245
#     4  11  19  28  44  68  89 116 144 178 221 261
#     4  11  19  29  44  66  89 116 147 181 220 258
#     4   8  14  23  37  60  91 117 140 168 208 267
#     4   8  14  23  38  61  88 114 141 173 214 260
#
# _framework density 16.676939999999998
#
# number of rings (size 3 to 8) (size 9 to 14) (size 15 to 20)
#    0.000    2.500    2.500    3.000    0.000    2.000 
#    0.000    0.000    0.000    0.000    0.000    1.750 
#    0.000    5.000    0.000    0.000    0.000    0.000 
#
# Total GULP energy -178270.003226 kJ/mol
# GULP energy per Si atom -5570.937601 kJ/mol
# Density = 1.663898 g / cm^3
# Si number density = 16.676940 Si / 1000 Ang^3
#
#
#
# Elastic Constant Matrix: (Units=GPa)
#
#
# Indices 1 2 3 4 5 6 
#
# 1 23.8938 -3.1067 -3.9583 0.0000 3.1450 0.0000
# 2 -3.1067 101.5870 68.8860 0.0000 6.6317 0.0000
# 3 -3.9583 68.8860 135.5168 0.0000 5.5959 0.0000
# 4 0.0000 0.0000 0.0000 -19.7844 0.0000 -9.7653
# 5 3.1450 6.6317 5.5959 0.0000 7.9822 0.0000
# 6 0.0000 0.0000 0.0000 -9.7653 0.0000 10.9807
#
#
#
# Elastic Compliance Matrix: (Units=1/GPa)
#
#
# Indices 1 2 3 4 5 6 
#
# 1 0.044939 0.001882 0.001186 0.000000 -0.020101 0.000000
# 2 0.001882 0.015530 -0.007493 0.000000 -0.008391 0.000000
# 3 0.001186 -0.007493 0.011312 0.000000 -0.002173 0.000000
# 4 0.000000 0.000000 0.000000 -0.035126 0.000000 -0.031238
# 5 -0.020101 -0.008391 -0.002173 0.000000 0.141694 0.000000
# 6 0.000000 0.000000 0.000000 -0.031238 0.000000 0.063288
#
#
# Mechanical properties :
#
#
# Convention : Reuss Voigt Hill
#
# Bulk Modulus (GPa) = 15.89019 42.73775 29.31397
# Shear Modulus (GPa) = 18.41871 13.11413 15.76642
#
# Velocity S-wave (km/s) = 3.32692 2.80726 3.07808
# Velocity P-wave (km/s) = 4.93019 6.01582 5.49986
#
# Compressibility (1/GPa) = 0.06293191
#
# Stress axis : x y z
#
# Youngs Moduli (GPa) = 22.25249 64.39182 88.40013
#
# Poissons Ratio (x) = -0.12121 -0.10482
# Poissons Ratio (y) = -0.04189 0.66236
# Poissons Ratio (z) = -0.02639 0.48247
#
# Static dielectric constant tensor:
#      x y z
#    x 1.594530 0.000000 0.003480 
#    y 0.000000 1.575910 0.000000 
#    z 0.003480 0.000000 1.584670 
# 
# From -- ./inp_files/224845.got.cif
#   From: 2010.05.17/outbox.cif.g08.bks.cpg/sg12_113_cif.got.tgz:224845.got - 2010.06.03 13:09:07.
