data_PCOD9173211
_publ_section_title
;
Structure prediction by ZEFSAII (Michael W. Deem and Ramdas Pophale) SiO2 
 PCOD9173211
Probable space group: C 2/M
;
_chemical_formula_sum "Si O2"
_cell_formula_units_Z 56
_cell_length_a 9.180833
_cell_length_b 23.863610
_cell_length_c 13.796390
_cell_angle_alpha 90.000000
_cell_angle_beta 67.059300
_cell_angle_gamma 90.000000
_cell_volume 2783.558140
_symmetry_space_group_name_H-M "C 2/M"
_symmetry_group_IT_number 12
_symmetry_cell_setting 'monoclinic'
loop_
_space_group_symop_operation_xyz
x,y,z
-x,y,-z
-x,-y,-z
x,-y,z
1/2+x,1/2+y,z
1/2-x,1/2+y,-z
1/2-x,1/2-y,-z
1/2+x,1/2-y,z
loop_
_atom_site_type_symbol
_atom_site_label
_atom_site_fract_x
_atom_site_fract_y
_atom_site_fract_z
Si Si1 0.497342 0.219069 0.116007
Si Si2 0.197465 0.838272 0.295111
Si Si3 0.715962 0.121585 0.120580
Si Si4 0.334854 0.228587 0.574194
Si Si5 0.820823 0.435448 0.054952
Si Si6 0.114884 0.436314 0.740010
Si Si7 0.918426 0.164578 0.232549
O O1 0.339550 0.186572 0.191987
O O2 0.643636 0.183408 0.120360
O O3 0.493129 0.280569 0.162281
O O4 0.500000 0.221707 0.000000
O O5 0.135950 0.784975 0.371073
O O6 0.282941 0.886960 0.335868
O O7 0.051673 0.859105 0.268575
O O8 0.566212 0.083918 0.195884
O O9 0.847761 0.125061 0.168199
O O10 0.772728 0.099133 0.001033
O O11 0.500000 0.202075 0.500000
O O12 0.250000 0.250000 0.500000
O O13 0.226565 0.187715 0.665151
O O14 0.821152 0.500000 0.021700
O O15 0.801708 0.436654 0.174801
O O16 0.000000 0.412291 0.000000
O O17 0.118976 0.500000 0.701605
#
# Coordination Sequence:
#
# PCOD9173211 Si02
#       7
#     8   8   8   8   8   8   8
#     4  10  20  33  49  71 112 158 187 213 260 331
#     4  10  21  36  54  83 112 141 186 224 278 331
#     4  10  18  30  51  73 105 143 189 226 266 318
#     4  11  22  39  63  85 111 143 182 229 279 333
#     4   8  14  28  50  74  97 136 191 232 261 306
#     4   9  18  34  56  77 105 145 191 233 272 325
#     4  11  23  34  49  84 115 142 180 229 276 336
#
# _framework density 20.118136
#
# number of rings (size 3 to 8) (size 9 to 14) (size 15 to 20)
#    0.000    2.143    1.429    5.143    4.000    3.429 
#    0.000    1.429    0.000    2.143    0.000    1.000 
#    0.000    0.000    0.000    0.000    0.000    0.000 
#
# Total GULP energy -156266.113992 kJ/mol
# GULP energy per Si atom -5580.932643 kJ/mol
# Density = 2.007235 g / cm^3
# Si number density = 20.118136 Si / 1000 Ang^3
#
#
#
# Elastic Constant Matrix: (Units=GPa)
#
#
# Indices 1 2 3 4 5 6 
#
# 1 84.1993 9.9055 5.5304 0.0000 11.5133 0.0000
# 2 9.9055 67.9465 -5.5929 0.0000 -11.1673 0.0000
# 3 5.5304 -5.5929 37.8208 0.0000 2.8172 0.0000
# 4 0.0000 0.0000 0.0000 12.9715 0.0000 3.3751
# 5 11.5133 -11.1673 2.8172 0.0000 25.5536 0.0000
# 6 0.0000 0.0000 0.0000 3.3751 0.0000 4.1790
#
#
#
# Elastic Compliance Matrix: (Units=1/GPa)
#
#
# Indices 1 2 3 4 5 6 
#
# 1 0.013383 -0.003301 -0.001904 0.000000 -0.007263 0.000000
# 2 -0.003301 0.016799 0.002328 0.000000 0.008572 0.000000
# 3 -0.001904 0.002328 0.027147 0.000000 -0.001117 0.000000
# 4 0.000000 0.000000 0.000000 0.097602 0.000000 -0.078826
# 5 -0.007263 0.008572 -0.001117 0.000000 0.046275 0.000000
# 6 0.000000 0.000000 0.000000 -0.078826 0.000000 0.302953
#
#
# Mechanical properties :
#
#
# Convention : Reuss Voigt Hill
#
# Bulk Modulus (GPa) = 19.38937 23.29473 21.34205
# Shear Modulus (GPa) = 9.48578 20.54907 15.01743
#
# Velocity S-wave (km/s) = 2.17377 3.19943 2.73511
# Velocity P-wave (km/s) = 3.99488 5.02520 4.53936
#
# Compressibility (1/GPa) = 0.05157465
#
# Stress axis : x y z
#
# Youngs Moduli (GPa) = 74.72091 59.52631 36.83715
#
# Poissons Ratio (x) = 0.19652 0.07015
# Poissons Ratio (y) = 0.24669 -0.08577
# Poissons Ratio (z) = 0.14228 -0.13861
#
# Static dielectric constant tensor:
#      x y z
#    x 1.642740 0.000000 0.053210 
#    y 0.000000 1.779200 0.000000 
#    z 0.053210 0.000000 1.711700 
# 
# From -- ./inp_files/199305.got.cif
#   From: 2010.05.17/outbox.cif.g08.bks.cpg/sg12_100_cif.got.tgz:199305.got - 2010.06.03 13:09:07.
