data_PCOD9173282
_publ_section_title
;
Structure prediction by ZEFSAII (Michael W. Deem and Ramdas Pophale) SiO2 
 PCOD9173282
Probable space group: C 2/M
;
_chemical_formula_sum "Si O2"
_cell_formula_units_Z 64
_cell_length_a 22.524437
_cell_length_b 14.088163
_cell_length_c 14.504896
_cell_angle_alpha 90.000000
_cell_angle_beta 117.926616
_cell_angle_gamma 90.000000
_cell_volume 4066.803236
_symmetry_space_group_name_H-M "C 2/M"
_symmetry_group_IT_number 12
_symmetry_cell_setting 'monoclinic'
loop_
_space_group_symop_operation_xyz
x,y,z
-x,y,-z
-x,-y,-z
x,-y,z
1/2+x,1/2+y,z
1/2-x,1/2+y,-z
1/2-x,1/2-y,-z
1/2+x,1/2-y,z
loop_
_atom_site_type_symbol
_atom_site_label
_atom_site_fract_x
_atom_site_fract_y
_atom_site_fract_z
Si Si1 0.912960 0.890018 0.264040
Si Si2 0.432534 0.888487 0.698451
Si Si3 0.816241 0.298603 0.934347
Si Si4 0.650719 0.610562 0.582483
Si Si5 0.468014 0.263290 0.577041
Si Si6 0.801772 0.385877 0.722561
Si Si7 0.301414 0.388278 0.028886
Si Si8 0.041215 0.387691 0.937138
O O1 0.866431 0.878496 0.321149
O O2 0.866994 0.873558 0.141389
O O3 0.976192 0.822068 0.325077
O O4 0.935394 0.000000 0.279532
O O5 0.446903 0.827918 0.618946
O O6 0.362969 0.863173 0.699072
O O7 0.492250 0.873025 0.815407
O O8 0.429933 0.000000 0.675462
O O9 0.808663 0.329106 0.822811
O O10 0.762390 0.357874 0.955346
O O11 0.804600 0.187603 0.948383
O O12 0.890919 0.328517 0.018718
O O13 0.640213 0.500000 0.552197
O O14 0.597580 0.673020 0.489112
O O15 0.728812 0.633880 0.626457
O O16 0.500000 0.242374 0.500000
O O17 0.804810 0.500000 0.745153
O O18 0.297652 0.500000 0.001860
O O19 0.058438 0.500000 0.955035
O O20 0.000000 0.364611 0.000000
#
# Coordination Sequence:
#
# PCOD9173282 Si02
#       8
#     8   8   8   8   8   8   8   8
#     4   9  16  30  51  74 100 125 156 204 252 291
#     4  10  21  34  50  73  99 131 169 208 246 289
#     4  11  19  30  52  74 101 134 165 204 252 296
#     4   9  17  30  52  76  96 120 158 210 255 289
#     4  10  20  33  50  73 102 129 163 201 250 308
#     4  10  18  32  53  75  97 124 167 214 252 287
#     4  10  20  31  48  76 105 133 165 202 246 302
#     4  10  18  30  51  78 102 124 164 215 252 284
#
# _framework density 15.737177000000001
#
# number of rings (size 3 to 8) (size 9 to 14) (size 15 to 20)
#    0.000    2.125    2.500    2.250    0.000    2.250 
#    0.000    0.000    0.000    2.625    0.000    0.000 
#    0.000    0.000    0.000    0.000    0.000    0.000 
#
# Total GULP energy -178454.189929 kJ/mol
# GULP energy per Si atom -5576.693435 kJ/mol
# Density = 1.570136 g / cm^3
# Si number density = 15.737177 Si / 1000 Ang^3
#
#
#
# Elastic Constant Matrix: (Units=GPa)
#
#
# Indices 1 2 3 4 5 6 
#
# 1 112.7284 63.7401 49.1425 0.0000 12.9474 0.0000
# 2 63.7401 85.8360 49.7222 0.0000 0.2234 0.0000
# 3 49.1425 49.7222 54.1438 0.0000 3.8044 0.0000
# 4 0.0000 0.0000 0.0000 21.7365 0.0000 -9.9337
# 5 12.9474 0.2234 3.8044 0.0000 17.4505 0.0000
# 6 0.0000 0.0000 0.0000 -9.9337 0.0000 17.1745
#
#
#
# Elastic Compliance Matrix: (Units=1/GPa)
#
#
# Indices 1 2 3 4 5 6 
#
# 1 0.019106 -0.009863 -0.007410 0.000000 -0.012434 0.000000
# 2 -0.009863 0.030375 -0.019731 0.000000 0.011231 0.000000
# 3 -0.007410 -0.019731 0.043578 0.000000 -0.003750 0.000000
# 4 0.000000 0.000000 0.000000 0.062535 0.000000 0.036170
# 5 -0.012434 0.011231 -0.003750 0.000000 0.067204 0.000000
# 6 0.000000 0.000000 0.000000 0.036170 0.000000 0.079146
#
#
# Mechanical properties :
#
#
# Convention : Reuss Voigt Hill
#
# Bulk Modulus (GPa) = 52.49218 64.21309 58.35264
# Shear Modulus (GPa) = 13.07857 17.27920 15.17889
#
# Velocity S-wave (km/s) = 2.88594 3.31718 3.10905
# Velocity P-wave (km/s) = 6.67329 7.45410 7.07448
#
# Compressibility (1/GPa) = 0.01905046
#
# Stress axis : x y z
#
# Youngs Moduli (GPa) = 52.33904 32.92193 22.94710
#
# Poissons Ratio (x) = 0.32471 0.17004
# Poissons Ratio (y) = 0.51623 0.45278
# Poissons Ratio (z) = 0.38783 0.64960
#
# Static dielectric constant tensor:
#      x y z
#    x 1.516400 0.000000 0.011920 
#    y 0.000000 1.510880 0.000000 
#    z 0.011920 0.000000 1.515030 
# 
# From -- ./inp_files/232520.got.cif
#   From: 2010.05.17/outbox.cif.g08.bks.cpg/sg12_117_cif.got.tgz:232520.got - 2010.06.03 13:09:07.
