data_PCOD9173262
_publ_section_title
;
Structure prediction by ZEFSAII (Michael W. Deem and Ramdas Pophale) SiO2 
 PCOD9173262
Probable space group: C 2/M
;
_chemical_formula_sum "Si O2"
_cell_formula_units_Z 64
_cell_length_a 18.809020
_cell_length_b 14.867484
_cell_length_c 17.044297
_cell_angle_alpha 90.000000
_cell_angle_beta 125.524964
_cell_angle_gamma 90.000000
_cell_volume 3879.124694
_symmetry_space_group_name_H-M "C 2/M"
_symmetry_group_IT_number 12
_symmetry_cell_setting 'monoclinic'
loop_
_space_group_symop_operation_xyz
x,y,z
-x,y,-z
-x,-y,-z
x,-y,z
1/2+x,1/2+y,z
1/2-x,1/2+y,-z
1/2-x,1/2-y,-z
1/2+x,1/2-y,z
loop_
_atom_site_type_symbol
_atom_site_label
_atom_site_fract_x
_atom_site_fract_y
_atom_site_fract_z
Si Si1 0.964423 0.891713 0.725033
Si Si2 0.352844 0.599764 0.071398
Si Si3 0.872389 0.249530 0.765982
Si Si4 0.504604 0.901378 0.907836
Si Si5 0.457188 0.391576 0.392523
Si Si6 0.604148 0.331968 0.057465
Si Si7 0.685182 0.849966 0.047360
Si Si8 0.254399 0.604408 0.263499
O O1 0.051920 0.876257 0.833614
O O2 0.990272 0.869878 0.652418
O O3 0.894512 0.819161 0.710740
O O4 0.943366 0.000000 0.718182
O O5 0.333409 0.500000 0.090388
O O6 0.273481 0.657281 0.054651
O O7 0.360372 0.597348 0.982290
O O8 0.859620 0.182889 0.832401
O O9 0.793764 0.321514 0.713618
O O10 0.953338 0.317493 0.837906
O O11 0.466472 0.000000 0.863169
O O12 0.500000 0.893069 0.000000
O O13 0.607409 0.902256 0.954391
O O14 0.500000 0.356267 0.500000
O O15 0.458592 0.500000 0.397450
O O16 0.355433 0.368147 0.319705
O O17 0.635684 0.242429 0.033515
O O18 0.500000 0.340885 0.000000
O O19 0.710049 0.889620 0.148788
O O20 0.249911 0.500000 0.287243
#
# Coordination Sequence:
#
# PCOD9173262 Si02
#       8
#     8   8   8   8   8   8   8   8
#     4  10  20  33  50  70  95 129 163 200 244 288
#     4  11  21  30  43  63  92 128 168 205 232 267
#     4  11  20  32  45  71 100 136 169 194 233 280
#     4  11  18  27  45  68 100 136 166 202 239 275
#     4   9  18  35  57  78  97 117 149 200 259 305
#     4  11  19  31  42  62  91 131 169 192 223 271
#     4  11  18  30  44  65  93 126 165 203 238 274
#     4  10  18  30  51  76  98 122 154 198 249 293
#
# _framework density 16.498566
#
# number of rings (size 3 to 8) (size 9 to 14) (size 15 to 20)
#    0.000    1.500    6.250    1.875    0.000    0.750 
#    0.000    0.625    0.000    0.000    0.000    0.000 
#    0.000    2.500    0.000    0.000    0.000    0.000 
#
# Total GULP energy -178143.061158 kJ/mol
# GULP energy per Si atom -5566.970661 kJ/mol
# Density = 1.646101 g / cm^3
# Si number density = 16.498566 Si / 1000 Ang^3
#
#
#
# Elastic Constant Matrix: (Units=GPa)
#
#
# Indices 1 2 3 4 5 6 
#
# 1 101.4184 39.0064 19.2738 0.0000 -15.4219 0.0000
# 2 39.0064 74.4566 17.7294 0.0000 -12.5775 0.0000
# 3 19.2738 17.7294 38.7785 0.0000 -10.7972 0.0000
# 4 0.0000 0.0000 0.0000 6.8884 0.0000 -2.4348
# 5 -15.4219 -12.5775 -10.7972 0.0000 12.1886 0.0000
# 6 0.0000 0.0000 0.0000 -2.4348 0.0000 21.3639
#
#
#
# Elastic Compliance Matrix: (Units=1/GPa)
#
#
# Indices 1 2 3 4 5 6 
#
# 1 0.013720 -0.004992 -0.001510 0.000000 0.010871 0.000000
# 2 -0.004992 0.018485 -0.003209 0.000000 0.009916 0.000000
# 3 -0.001510 -0.003209 0.035244 0.000000 0.025998 0.000000
# 4 0.000000 0.000000 0.000000 0.151265 0.000000 0.017239
# 5 0.010871 0.009916 0.025998 0.000000 0.129061 0.000000
# 6 0.000000 0.000000 0.000000 0.017239 0.000000 0.048773
#
#
# Mechanical properties :
#
#
# Convention : Reuss Voigt Hill
#
# Bulk Modulus (GPa) = 20.82180 40.74141 30.78161
# Shear Modulus (GPa) = 11.57461 17.33109 14.45285
#
# Velocity S-wave (km/s) = 2.65156 3.24460 2.96295
# Velocity P-wave (km/s) = 4.69277 6.22769 5.51390
#
# Compressibility (1/GPa) = 0.04802659
#
# Stress axis : x y z
#
# Youngs Moduli (GPa) = 72.88600 54.09809 28.37354
#
# Poissons Ratio (x) = 0.27004 0.04285
# Poissons Ratio (y) = 0.36383 0.09106
# Poissons Ratio (z) = 0.11007 0.17362
#
# Static dielectric constant tensor:
#      x y z
#    x 1.596660 0.000000 -0.000790 
#    y 0.000000 1.624350 0.000000 
#    z -0.000790 0.000000 1.553270 
# 
# From -- ./inp_files/225323.got.cif
#   From: 2010.05.17/outbox.cif.g08.bks.cpg/sg12_113_cif.got.tgz:225323.got - 2010.06.03 13:09:07.
