data_PCOD9173118
_publ_section_title
;
Structure prediction by ZEFSAII (Michael W. Deem and Ramdas Pophale) SiO2 
 PCOD9173118
Probable space group: C 2/M
;
_chemical_formula_sum "Si O2"
_cell_formula_units_Z 56
_cell_length_a 16.138218
_cell_length_b 21.351939
_cell_length_c 13.647732
_cell_angle_alpha 90.000000
_cell_angle_beta 148.457700
_cell_angle_gamma 90.000000
_cell_volume 2460.148201
_symmetry_space_group_name_H-M "C 2/M"
_symmetry_group_IT_number 12
_symmetry_cell_setting 'monoclinic'
loop_
_space_group_symop_operation_xyz
x,y,z
-x,y,-z
-x,-y,-z
x,-y,z
1/2+x,1/2+y,z
1/2-x,1/2+y,-z
1/2-x,1/2-y,-z
1/2+x,1/2-y,z
loop_
_atom_site_type_symbol
_atom_site_label
_atom_site_fract_x
_atom_site_fract_y
_atom_site_fract_z
Si Si1 0.619744 0.070957 0.921142
Si Si2 0.814392 0.378780 0.807875
Si Si3 0.061859 0.069866 0.458926
Si Si4 0.352484 0.697885 0.967845
Si Si5 0.562837 0.428673 0.872325
Si Si6 0.522133 0.199203 0.762155
Si Si7 0.835278 0.252680 0.394387
O O1 0.500742 0.126835 0.772396
O O2 0.564097 0.000000 0.885355
O O3 0.716248 0.098946 0.111632
O O4 0.752294 0.065671 0.970720
O O5 0.748148 0.430901 0.668369
O O6 0.732708 0.317025 0.683211
O O7 0.000000 0.371192 0.000000
O O8 0.000000 0.098057 0.500000
O O9 0.025089 0.095100 0.315288
O O10 0.993192 0.000000 0.385768
O O11 0.439558 0.631298 0.060878
O O12 0.451470 0.754489 0.118498
O O13 0.189563 0.698640 0.870063
O O14 0.292734 0.709358 0.797828
O O15 0.509016 0.500000 0.844673
O O16 0.385258 0.223855 0.551963
O O17 0.000000 0.254588 0.500000
#
# Coordination Sequence:
#
# PCOD9173118 Si02
#       7
#     8   8   8   8   8   8   8
#     4  10  19  33  51  75 110 141 170 213 267 320
#     4  12  23  33  48  77 108 141 171 218 272 313
#     4  10  18  30  50  74  99 134 174 206 249 318
#     4   9  16  29  49  78 106 129 169 225 263 303
#     4   9  17  29  51  79 104 134 172 217 262 310
#     4   9  17  30  52  78  99 138 179 214 258 311
#     4  10  20  34  56  77 101 136 180 219 261 311
#
# _framework density 22.762854999999998
#
# number of rings (size 3 to 8) (size 9 to 14) (size 15 to 20)
#    0.000    2.143    2.857    1.714    2.000    1.143 
#    0.000    1.429    0.000    4.286    0.000    0.000 
#    0.000    1.143    0.000    0.000    0.000    0.000 
#
# Total GULP energy -156093.382838 kJ/mol
# GULP energy per Si atom -5574.763673 kJ/mol
# Density = 2.271105 g / cm^3
# Si number density = 22.762855 Si / 1000 Ang^3
#
#
#
# Elastic Constant Matrix: (Units=GPa)
#
#
# Indices 1 2 3 4 5 6 
#
# 1 37.2201 22.2152 22.9744 0.0000 -4.9158 0.0000
# 2 22.2152 174.6221 90.1307 0.0000 -19.4887 0.0000
# 3 22.9744 90.1307 156.1188 0.0000 -33.6183 0.0000
# 4 0.0000 0.0000 0.0000 36.9580 0.0000 -3.2412
# 5 -4.9158 -19.4887 -33.6183 0.0000 13.8710 0.0000
# 6 0.0000 0.0000 0.0000 -3.2412 0.0000 10.3137
#
#
#
# Elastic Compliance Matrix: (Units=1/GPa)
#
#
# Indices 1 2 3 4 5 6 
#
# 1 0.030134 -0.002201 -0.003201 0.000000 -0.000169 0.000000
# 2 -0.002201 0.008318 -0.004455 0.000000 0.000111 0.000000
# 3 -0.003201 -0.004455 0.016432 0.000000 0.032432 0.000000
# 4 0.000000 0.000000 0.000000 0.027825 0.000000 0.008744
# 5 -0.000169 0.000111 0.032432 0.000000 0.150791 0.000000
# 6 0.000000 0.000000 0.000000 0.008744 0.000000 0.099706
#
#
# Mechanical properties :
#
#
# Convention : Reuss Voigt Hill
#
# Bulk Modulus (GPa) = 28.43118 70.95574 49.69346
# Shear Modulus (GPa) = 13.71209 27.73793 20.72501
#
# Velocity S-wave (km/s) = 2.45702 3.49458 3.02068
# Velocity P-wave (km/s) = 4.53504 6.89363 5.83475
#
# Compressibility (1/GPa) = 0.03517265
#
# Stress axis : x y z
#
# Youngs Moduli (GPa) = 33.18530 120.21851 60.85724
#
# Poissons Ratio (x) = 0.26455 0.19478
# Poissons Ratio (y) = 0.07303 0.27109
# Poissons Ratio (z) = 0.10621 0.53552
#
# Static dielectric constant tensor:
#      x y z
#    x 1.976150 0.000000 0.081180 
#    y 0.000000 1.902830 0.000000 
#    z 0.081180 0.000000 1.891310 
# 
# From -- ./inp_files/89518.got.cif
#   From: 2010.05.17/outbox.cif.g08.bks.cpg/sg12_45_cif.got.tgz:89518.got - 2010.06.03 13:09:07.
