data_PCOD9173220
_publ_section_title
;
Structure prediction by ZEFSAII (Michael W. Deem and Ramdas Pophale) SiO2 
 PCOD9173220
Probable space group: C 2/M
;
_chemical_formula_sum "Si O2"
_cell_formula_units_Z 48
_cell_length_a 13.760607
_cell_length_b 13.553850
_cell_length_c 24.019958
_cell_angle_alpha 90.000000
_cell_angle_beta 37.901842
_cell_angle_gamma 90.000000
_cell_volume 2752.076469
_symmetry_space_group_name_H-M "C 2/M"
_symmetry_group_IT_number 12
_symmetry_cell_setting 'monoclinic'
loop_
_space_group_symop_operation_xyz
x,y,z
-x,y,-z
-x,-y,-z
x,-y,z
1/2+x,1/2+y,z
1/2-x,1/2+y,-z
1/2-x,1/2-y,-z
1/2+x,1/2-y,z
loop_
_atom_site_type_symbol
_atom_site_label
_atom_site_fract_x
_atom_site_fract_y
_atom_site_fract_z
Si Si1 0.352557 0.300795 0.283495
Si Si2 0.855371 0.195842 0.023623
Si Si3 0.430697 0.118606 0.662335
Si Si4 0.658144 0.886808 0.466977
Si Si5 0.537965 0.885661 0.220759
Si Si6 0.342329 0.614839 0.908175
O O1 0.217223 0.329137 0.300413
O O2 0.284309 0.324787 0.375458
O O3 0.407029 0.187882 0.255850
O O4 0.509397 0.363972 0.199172
O O5 0.702725 0.138404 0.116032
O O6 0.798844 0.309430 0.042556
O O7 0.895861 0.149514 0.945554
O O8 0.000000 0.187094 0.000000
O O9 0.591273 0.146924 0.556786
O O10 0.440399 0.136634 0.723410
O O11 0.411291 0.000000 0.662517
O O12 0.500000 0.887437 0.500000
O O13 0.714044 0.000000 0.445941
O O14 0.497470 0.000000 0.232729
O O15 0.299501 0.500000 0.927083
#
# Coordination Sequence:
#
# PCOD9173220 Si02
#       6
#     8   8   8   8   8   8
#     4  10  18  30  51  73  98 126 159 199 239 280
#     4  10  21  35  51  72  97 127 161 197 239 285
#     4   9  17  31  52  75  97 125 161 198 237 281
#     4   8  14  26  47  74  98 122 156 197 238 278
#     4  10  21  34  49  71  97 127 162 198 239 285
#     4  10  20  33  51  75  99 125 159 197 239 285
#
# _framework density 17.441376000000002
#
# number of rings (size 3 to 8) (size 9 to 14) (size 15 to 20)
#    0.000    2.500    0.000    4.000    0.000    3.667 
#    0.000    0.000    0.000   16.500    0.000    0.000 
#    0.000    0.000    0.000    0.000    0.000    0.000 
#
# Total GULP energy -133831.252921 kJ/mol
# GULP energy per Si atom -5576.302205 kJ/mol
# Density = 1.740168 g / cm^3
# Si number density = 17.441376 Si / 1000 Ang^3
#
#
#
# Elastic Constant Matrix: (Units=GPa)
#
#
# Indices 1 2 3 4 5 6 
#
# 1 39.6652 12.2369 11.9705 0.0000 2.1737 0.0000
# 2 12.2369 89.8400 26.8198 0.0000 -2.9797 0.0000
# 3 11.9705 26.8198 67.8248 -0.0001 -2.4793 0.0000
# 4 0.0000 0.0000 -0.0001 13.0103 0.0000 4.7161
# 5 2.1737 -2.9797 -2.4793 0.0000 14.6685 0.0000
# 6 0.0000 0.0000 0.0000 4.7161 0.0000 16.6251
#
#
#
# Elastic Compliance Matrix: (Units=1/GPa)
#
#
# Indices 1 2 3 4 5 6 
#
# 1 0.027547 -0.002743 -0.003971 0.000000 -0.005310 0.000000
# 2 -0.002743 0.012938 -0.004549 0.000000 0.002266 0.000000
# 3 -0.003971 -0.004549 0.017338 0.000000 0.002595 0.000000
# 4 0.000000 0.000000 0.000000 0.085672 0.000000 -0.024303
# 5 -0.005310 0.002266 0.002595 0.000000 0.069859 0.000000
# 6 0.000000 0.000000 0.000000 -0.024303 0.000000 0.067044
#
#
# Mechanical properties :
#
#
# Convention : Reuss Voigt Hill
#
# Bulk Modulus (GPa) = 28.33126 33.26494 30.79810
# Shear Modulus (GPa) = 15.88867 18.61429 17.25148
#
# Velocity S-wave (km/s) = 3.02151 3.27042 3.14843
# Velocity P-wave (km/s) = 5.33401 5.77709 5.55996
#
# Compressibility (1/GPa) = 0.03529670
#
# Stress axis : x y z
#
# Youngs Moduli (GPa) = 36.30202 77.29397 57.67524
#
# Poissons Ratio (x) = 0.21199 0.22905
# Poissons Ratio (y) = 0.09956 0.26237
# Poissons Ratio (z) = 0.14417 0.35161
#
# Static dielectric constant tensor:
#      x y z
#    x 1.569610 0.000000 0.027310 
#    y 0.000000 1.585040 0.000000 
#    z 0.027310 0.000000 1.610800 
# 
# From -- ./inp_files/214107.got.cif
#   From: 2010.05.17/outbox.cif.g08.bks.cpg/sg12_108_cif.got.tgz:214107.got - 2010.06.03 13:09:07.
