data_PCOD9173514
_publ_section_title
;
Structure prediction by ZEFSAII (Michael W. Deem and Ramdas Pophale) SiO2 
 PCOD9173514
Probable space group: C 2/M
;
_chemical_formula_sum "Si O2"
_cell_formula_units_Z 30
_cell_length_a 11.939708
_cell_length_b 18.443617
_cell_length_c 10.300013
_cell_angle_alpha 90.000000
_cell_angle_beta 39.250205
_cell_angle_gamma 90.000000
_cell_volume 1435.096045
_symmetry_space_group_name_H-M "C 2/M"
_symmetry_group_IT_number 12
_symmetry_cell_setting 'monoclinic'
loop_
_space_group_symop_operation_xyz
x,y,z
-x,y,-z
-x,-y,-z
x,-y,z
1/2+x,1/2+y,z
1/2-x,1/2+y,-z
1/2-x,1/2-y,-z
1/2+x,1/2-y,z
loop_
_atom_site_type_symbol
_atom_site_label
_atom_site_fract_x
_atom_site_fract_y
_atom_site_fract_z
Si Si1 0.500000 0.258110 0.500000
Si Si2 0.280737 0.132412 0.575809
Si Si3 0.033342 0.666930 0.117878
Si Si4 0.906574 0.829563 0.853803
Si Si5 0.500000 0.000000 0.500000
O O1 0.340869 0.204275 0.601481
O O2 0.444730 0.306372 0.670879
O O3 0.366801 0.147839 0.356875
O O4 0.371428 0.063525 0.555493
O O5 0.070759 0.124499 0.756025
O O6 0.076439 0.752946 0.085899
O O7 0.211432 0.636120 0.027556
O O8 0.000000 0.644700 0.000000
#
# Coordination Sequence:
#
# PCOD9173514 Si02
#       5
#     4   8   8   8   2
#     4   9  16  31  54  81 110 133 166 220 274 321
#     4  10  20  36  54  75 108 147 180 218 261 310
#     4  10  19  31  53  86 113 132 168 223 278 326
#     4  10  18  30  54  84 111 139 168 213 279 329
#     4  10  24  44  56  70 106 150 196 226 246 312
#
# _framework density 20.904525
#
# number of rings (size 3 to 8) (size 9 to 14) (size 15 to 20)
#    0.000    2.133    0.000    6.400    0.000    2.133 
#    0.000    3.333    0.000    5.600    0.000    0.000 
#    0.000    0.000    0.000    0.000    0.000    0.000 
#
# Total GULP energy -83554.833526 kJ/mol
# GULP energy per Si atom -5570.322235 kJ/mol
# Density = 2.085695 g / cm^3
# Si number density = 20.904525 Si / 1000 Ang^3
#
#
#
# Elastic Constant Matrix: (Units=GPa)
#
#
# Indices 1 2 3 4 5 6 
#
# 1 109.7381 13.0923 35.1671 -0.0008 -26.0232 0.0008
# 2 13.0923 40.1456 0.8335 -0.0003 -6.6529 0.0003
# 3 35.1671 0.8335 61.2174 -0.0013 -26.0339 0.0017
# 4 -0.0008 -0.0003 -0.0013 -0.1764 0.0008 -10.2487
# 5 -26.0232 -6.6529 -26.0339 0.0008 41.8576 -0.0009
# 6 0.0008 0.0003 0.0017 -10.2487 -0.0009 9.4234
#
#
#
# Elastic Compliance Matrix: (Units=1/GPa)
#
#
# Indices 1 2 3 4 5 6 
#
# 1 0.012077 -0.003218 -0.005328 0.000000 0.003684 0.000000
# 2 -0.003218 0.026600 0.003309 0.000000 0.004285 -0.000001
# 3 -0.005328 0.003309 0.024699 0.000001 0.012575 -0.000002
# 4 0.000000 0.000000 0.000001 -0.088318 0.000000 -0.096053
# 5 0.003684 0.004285 0.012575 0.000000 0.034683 0.000001
# 6 0.000000 -0.000001 -0.000002 -0.096053 0.000001 0.001653
#
#
# Mechanical properties :
#
#
# Convention : Reuss Voigt Hill
#
# Bulk Modulus (GPa) = 18.90262 34.36520 26.63391
# Shear Modulus (GPa) = 126.57569 21.02148 73.79858
#
# Velocity S-wave (km/s) = 7.78979 3.17455 5.94805
# Velocity P-wave (km/s) = 9.48524 5.46917 7.74215
#
# Compressibility (1/GPa) = 0.05290271
#
# Stress axis : x y z
#
# Youngs Moduli (GPa) = 82.79980 37.59384 40.48820
#
# Poissons Ratio (x) = 0.12096 0.21571
# Poissons Ratio (y) = 0.26642 -0.13396
# Poissons Ratio (z) = 0.44113 -0.12438
#
# Static dielectric constant tensor:
#      x y z
#    x 1.795050 0.000000 -0.026590 
#    y 0.000000 1.680380 0.000000 
#    z -0.026590 0.000000 1.825940 
# 
# From -- ./inp_files/46307.got.cif
#   From: 2010.05.17/outbox.cif.g08.bks.cpg/sg12_24_cif.got.tgz:46307.got - 2010.06.03 13:09:07.
