data_PCOD9173773
_publ_section_title
;
Structure prediction by ZEFSAII (Michael W. Deem and Ramdas Pophale) SiO2 
 PCOD9173773
Probable space group: C 2/M
;
_chemical_formula_sum "Si O2"
_cell_formula_units_Z 52
_cell_length_a 13.363060
_cell_length_b 25.448464
_cell_length_c 11.165284
_cell_angle_alpha 90.000000
_cell_angle_beta 136.523027
_cell_angle_gamma 90.000000
_cell_volume 2612.555158
_symmetry_space_group_name_H-M "C 2/M"
_symmetry_group_IT_number 12
_symmetry_cell_setting 'monoclinic'
loop_
_space_group_symop_operation_xyz
x,y,z
-x,y,-z
-x,-y,-z
x,-y,z
1/2+x,1/2+y,z
1/2-x,1/2+y,-z
1/2-x,1/2-y,-z
1/2+x,1/2-y,z
loop_
_atom_site_type_symbol
_atom_site_label
_atom_site_fract_x
_atom_site_fract_y
_atom_site_fract_z
Si Si1 0.331047 0.854785 0.527014
Si Si2 0.166952 0.888729 0.733171
Si Si3 0.646200 0.725447 0.078767
Si Si4 0.336265 0.714157 0.436135
Si Si5 0.362531 0.438885 0.533125
Si Si6 0.135148 0.329743 0.914457
Si Si7 0.500000 0.799759 0.500000
O O1 0.229907 0.810757 0.502675
O O2 0.246301 0.908572 0.473659
O O3 0.486092 0.851972 0.730319
O O4 0.374317 0.839944 0.430067
O O5 0.144406 0.835474 0.635849
O O6 0.199605 0.930394 0.656272
O O7 0.018950 0.909274 0.665984
O O8 0.287954 0.872732 0.933797
O O9 0.269606 0.749572 0.734455
O O10 0.604135 0.777241 0.964877
O O11 0.500000 0.698794 0.000000
O O12 0.749892 0.689642 0.086562
O O13 0.472888 0.753732 0.578072
O O14 0.380491 0.500000 0.573816
#
# Coordination Sequence:
#
# PCOD9173773 Si02
#       7
#     8   8   8   8   8   8   4
#     4  11  22  36  54  82 114 150 191 235 276 329
#     4   9  19  35  58  84 112 144 182 229 275 339
#     4  10  18  31  50  72 114 164 181 206 259 324
#     4  10  19  31  52  80 115 152 184 216 263 332
#     4  10  21  40  61  83 107 142 185 238 297 333
#     4  10  20  33  51  81 115 147 190 220 267 323
#     4  12  22  34  49  80 117 156 190 222 270 334
#
# _framework density 19.903884999999999
#
# number of rings (size 3 to 8) (size 9 to 14) (size 15 to 20)
#    0.000    1.846    3.077    3.231    0.000    1.231 
#    0.000    2.692    0.000    0.000    0.000    1.077 
#    0.000    0.000    0.000    0.000    0.000    0.000 
#
# Total GULP energy -144814.995197 kJ/mol
# GULP energy per Si atom -5569.807508 kJ/mol
# Density = 1.985858 g / cm^3
# Si number density = 19.903885 Si / 1000 Ang^3
#
#
#
# Elastic Constant Matrix: (Units=GPa)
#
#
# Indices 1 2 3 4 5 6 
#
# 1 131.4703 51.7739 10.1964 0.0000 19.5855 0.0000
# 2 51.7739 95.3437 13.5227 0.0000 14.5655 0.0000
# 3 10.1964 13.5227 54.6331 0.0000 0.2682 0.0000
# 4 0.0000 0.0000 0.0000 16.4037 0.0000 -1.1225
# 5 19.5855 14.5655 0.2682 0.0000 24.9662 0.0000
# 6 0.0000 0.0000 0.0000 -1.1225 0.0000 18.8082
#
#
#
# Elastic Compliance Matrix: (Units=1/GPa)
#
#
# Indices 1 2 3 4 5 6 
#
# 1 0.010300 -0.004671 -0.000740 0.000000 -0.005347 0.000000
# 2 -0.004671 0.014084 -0.002592 0.000000 -0.004524 0.000000
# 3 -0.000740 -0.002592 0.019074 0.000000 0.001888 0.000000
# 4 0.000000 0.000000 0.000000 0.061212 0.000000 0.003653
# 5 -0.005347 -0.004524 0.001888 0.000000 0.046868 0.000000
# 6 0.000000 0.000000 0.000000 0.003653 0.000000 0.053386
#
#
# Mechanical properties :
#
#
# Convention : Reuss Voigt Hill
#
# Bulk Modulus (GPa) = 36.42762 48.04814 42.23788
# Shear Modulus (GPa) = 21.73156 25.76592 23.74874
#
# Velocity S-wave (km/s) = 3.30786 3.60184 3.45798
# Velocity P-wave (km/s) = 5.73853 6.44129 6.10004
#
# Compressibility (1/GPa) = 0.02745170
#
# Stress axis : x y z
#
# Youngs Moduli (GPa) = 97.08965 71.00381 52.42665
#
# Poissons Ratio (x) = 0.33168 0.03879
# Poissons Ratio (y) = 0.45353 0.13589
# Poissons Ratio (z) = 0.07183 0.18404
#
# Static dielectric constant tensor:
#      x y z
#    x 1.826590 0.000000 0.027240 
#    y 0.000000 1.695670 0.000000 
#    z 0.027240 0.000000 1.908470 
# 
# From -- ./inp_files/136018.got.cif
#   From: 2010.05.17/outbox.cif.g08.bks.cpg/sg12_69_cif.got.tgz:136018.got - 2010.06.03 13:09:07.
