data_PCOD9173562
_publ_section_title
;
Structure prediction by ZEFSAII (Michael W. Deem and Ramdas Pophale) SiO2 
 PCOD9173562
Probable space group: C 2/M
;
_chemical_formula_sum "Si O2"
_cell_formula_units_Z 40
_cell_length_a 7.599400
_cell_length_b 19.045793
_cell_length_c 14.576269
_cell_angle_alpha 90.000000
_cell_angle_beta 100.892994
_cell_angle_gamma 90.000000
_cell_volume 2071.706314
_symmetry_space_group_name_H-M "C 2/M"
_symmetry_group_IT_number 12
_symmetry_cell_setting 'monoclinic'
loop_
_space_group_symop_operation_xyz
x,y,z
-x,y,-z
-x,-y,-z
x,-y,z
1/2+x,1/2+y,z
1/2-x,1/2+y,-z
1/2-x,1/2-y,-z
1/2+x,1/2-y,z
loop_
_atom_site_type_symbol
_atom_site_label
_atom_site_fract_x
_atom_site_fract_y
_atom_site_fract_z
Si Si1 0.536713 0.816350 0.610359
Si Si2 0.939348 0.829190 0.700342
Si Si3 0.711504 0.081137 0.300707
Si Si4 0.565441 0.863019 0.100862
Si Si5 0.940406 0.213163 0.097868
O O1 0.500000 0.803851 0.500000
O O2 0.239951 0.657785 0.644932
O O3 0.509333 0.743444 0.662189
O O4 0.396034 0.871700 0.637413
O O5 0.089066 0.887264 0.692618
O O6 0.935336 0.816886 0.809340
O O7 0.606268 0.090922 0.193395
O O8 0.717383 0.000000 0.326760
O O9 0.750006 0.822205 0.096964
O O10 0.434566 0.797470 0.109135
O O11 0.500000 0.898275 0.000000
O O12 0.000000 0.198612 0.000000
#
# Coordination Sequence:
#
# PCOD9173562 Si02
#       5
#     8   8   8   8   8
#     4  12  24  41  72  98 120 164 220 266 316 373
#     4  11  22  41  68  95 129 164 209 266 314 369
#     4  11  26  43  61  94 134 168 210 261 319 380
#     4  10  19  32  58  86 124 163 203 252 314 365
#     4  10  18  30  57  96 119 152 204 257 305 363
#
# _framework density 19.307756000000001
#
# number of rings (size 3 to 8) (size 9 to 14) (size 15 to 20)
#    0.000    1.200    4.000    4.200    2.800    1.600 
#    0.000    1.000    0.000    2.400    0.000    0.000 
#    0.000    0.000    0.000    0.000    0.000    0.000 
#
# Total GULP energy -111743.771245 kJ/mol
# GULP energy per Si atom -5587.188562 kJ/mol
# Density = 1.926381 g / cm^3
# Si number density = 19.307756 Si / 1000 Ang^3
#
#
#
# Elastic Constant Matrix: (Units=GPa)
#
#
# Indices 1 2 3 4 5 6 
#
# 1 78.9330 3.0707 31.2833 0.0000 5.1764 0.0000
# 2 3.0707 76.2073 5.0637 0.0000 -14.1096 0.0000
# 3 31.2833 5.0637 106.3378 0.0000 6.3316 0.0000
# 4 0.0000 0.0000 0.0000 3.8623 0.0000 -5.4259
# 5 5.1764 -14.1096 6.3316 0.0000 29.9163 0.0000
# 6 0.0000 0.0000 0.0000 -5.4259 0.0000 16.5835
#
#
#
# Elastic Compliance Matrix: (Units=1/GPa)
#
#
# Indices 1 2 3 4 5 6 
#
# 1 0.014449 -0.000670 -0.004103 0.000000 -0.001948 0.000000
# 2 -0.000670 0.014537 -0.000922 0.000000 0.007167 0.000000
# 3 -0.004103 -0.000922 0.010774 0.000000 -0.002005 0.000000
# 4 0.000000 0.000000 0.000000 0.479153 0.000000 0.156772
# 5 -0.001948 0.007167 -0.002005 0.000000 0.037568 0.000000
# 6 0.000000 0.000000 0.000000 0.156772 0.000000 0.111595
#
#
# Mechanical properties :
#
#
# Convention : Reuss Voigt Hill
#
# Bulk Modulus (GPa) = 35.24750 37.81259 36.53005
# Shear Modulus (GPa) = 7.25770 24.87644 16.06707
#
# Velocity S-wave (km/s) = 1.94091 3.59335 2.88784
# Velocity P-wave (km/s) = 4.82888 6.06983 5.48457
#
# Compressibility (1/GPa) = 0.02837080
#
# Stress axis : x y z
#
# Youngs Moduli (GPa) = 69.20976 68.78813 92.81373
#
# Poissons Ratio (x) = 0.04610 0.38079
# Poissons Ratio (y) = 0.04639 0.08556
# Poissons Ratio (z) = 0.28395 0.06341
#
# Static dielectric constant tensor:
#      x y z
#    x 1.710830 0.000000 0.023160 
#    y 0.000000 1.636750 0.000000 
#    z 0.023160 0.000000 1.695540 
# 
# From -- ./inp_files/195061.got.cif
#   From: 2010.05.17/outbox.cif.g08.bks.cpg/sg12_98_cif.got.tgz:195061.got - 2010.06.03 13:09:07.
