data_PCOD9173286
_publ_section_title
;
Structure prediction by ZEFSAII (Michael W. Deem and Ramdas Pophale) SiO2 
 PCOD9173286
Probable space group: C 2/M
;
_chemical_formula_sum "Si O2"
_cell_formula_units_Z 48
_cell_length_a 18.317017
_cell_length_b 19.331468
_cell_length_c 8.865429
_cell_angle_alpha 90.000000
_cell_angle_beta 61.923648
_cell_angle_gamma 90.000000
_cell_volume 2769.784949
_symmetry_space_group_name_H-M "C 2/M"
_symmetry_group_IT_number 12
_symmetry_cell_setting 'monoclinic'
loop_
_space_group_symop_operation_xyz
x,y,z
-x,y,-z
-x,-y,-z
x,-y,z
1/2+x,1/2+y,z
1/2-x,1/2+y,-z
1/2-x,1/2-y,-z
1/2+x,1/2-y,z
loop_
_atom_site_type_symbol
_atom_site_label
_atom_site_fract_x
_atom_site_fract_y
_atom_site_fract_z
Si Si1 0.370750 0.761671 0.977427
Si Si2 0.413327 0.175531 0.633446
Si Si3 0.721043 0.353548 0.141890
Si Si4 0.246259 0.421395 0.188551
Si Si5 0.585805 0.328515 0.497870
Si Si6 0.584210 0.642540 0.852451
O O1 0.305401 0.815935 0.107408
O O2 0.410963 0.716776 0.068178
O O3 0.423016 0.801096 0.799338
O O4 0.323837 0.704067 0.920509
O O5 0.500000 0.142249 0.500000
O O6 0.330988 0.129376 0.701386
O O7 0.402365 0.246272 0.547237
O O8 0.660907 0.366454 0.339361
O O9 0.739013 0.414018 0.006371
O O10 0.227441 0.500000 0.247490
O O11 0.331267 0.396797 0.185297
O O12 0.500000 0.347163 0.500000
O O13 0.580043 0.346066 0.678337
O O14 0.500000 0.608781 0.000000
#
# Coordination Sequence:
#
# PCOD9173286 Si02
#       6
#     8   8   8   8   8   8
#     4   8  15  28  47  72  97 122 155 200 253 298
#     4   9  17  32  53  77 105 129 160 205 255 309
#     4   8  15  30  48  66  94 127 161 201 245 293
#     4  10  21  35  50  70 100 141 179 205 237 289
#     4  10  18  30  51  78 103 127 161 210 266 309
#     4  11  20  31  51  77 105 133 164 209 255 297
#
# _framework density 17.329864000000001
#
# number of rings (size 3 to 8) (size 9 to 14) (size 15 to 20)
#    0.000    2.667    0.000    7.000    0.000    3.333 
#    0.000    0.833    0.000    2.000    0.000    0.000 
#    0.000   19.333    0.000    0.000    0.000    0.000 
#
# Total GULP energy -133636.471362 kJ/mol
# GULP energy per Si atom -5568.186307 kJ/mol
# Density = 1.729042 g / cm^3
# Si number density = 17.329864 Si / 1000 Ang^3
#
#
#
# Elastic Constant Matrix: (Units=GPa)
#
#
# Indices 1 2 3 4 5 6 
#
# 1 54.0732 9.1621 22.0042 0.0000 -8.1510 0.0000
# 2 9.1621 30.0437 7.8969 0.0000 -4.1539 0.0000
# 3 22.0042 7.8969 98.8623 0.0000 -12.4114 0.0000
# 4 0.0000 0.0000 0.0000 3.2724 0.0000 0.8412
# 5 -8.1510 -4.1539 -12.4114 0.0000 32.8962 0.0000
# 6 0.0000 0.0000 0.0000 0.8412 0.0000 7.0765
#
#
#
# Elastic Compliance Matrix: (Units=1/GPa)
#
#
# Indices 1 2 3 4 5 6 
#
# 1 0.021445 -0.005057 -0.003970 0.000000 0.003177 0.000000
# 2 -0.005057 0.035564 -0.001374 0.000000 0.002719 0.000000
# 3 -0.003970 -0.001374 0.011508 0.000000 0.003185 0.000000
# 4 0.000000 0.000000 0.000000 0.315219 0.000000 -0.037470
# 5 0.003177 0.002719 0.003185 0.000000 0.032731 0.000000
# 6 0.000000 0.000000 0.000000 -0.037470 0.000000 0.145767
#
#
# Mechanical properties :
#
#
# Convention : Reuss Voigt Hill
#
# Bulk Modulus (GPa) = 20.95771 29.01173 24.98472
# Shear Modulus (GPa) = 8.34806 18.24342 13.29574
#
# Velocity S-wave (km/s) = 2.19718 3.24808 2.77287
# Velocity P-wave (km/s) = 4.30772 5.55373 4.96993
#
# Compressibility (1/GPa) = 0.04771514
#
# Stress axis : x y z
#
# Youngs Moduli (GPa) = 46.63125 28.11828 86.89370
#
# Poissons Ratio (x) = 0.14219 0.34499
# Poissons Ratio (y) = 0.23581 0.11938
# Poissons Ratio (z) = 0.18514 0.03863
#
# Static dielectric constant tensor:
#      x y z
#    x 1.610360 0.000000 -0.031200 
#    y 0.000000 1.580550 0.000000 
#    z -0.031200 0.000000 1.616220 
# 
# From -- ./inp_files/75092.got.cif
#   From: 2010.05.17/outbox.cif.g08.bks.cpg/sg12_38_cif.got.tgz:75092.got - 2010.06.03 13:09:07.
