data_PCOD9173403
_publ_section_title
;
Structure prediction by ZEFSAII (Michael W. Deem and Ramdas Pophale) SiO2 
 PCOD9173403
Probable space group: C 2/M
;
_chemical_formula_sum "Si O2"
_cell_formula_units_Z 64
_cell_length_a 33.868049
_cell_length_b 8.856625
_cell_length_c 20.645222
_cell_angle_alpha 90.000000
_cell_angle_beta 142.933823
_cell_angle_gamma 90.000000
_cell_volume 3732.552130
_symmetry_space_group_name_H-M "C 2/M"
_symmetry_group_IT_number 12
_symmetry_cell_setting 'monoclinic'
loop_
_space_group_symop_operation_xyz
x,y,z
-x,y,-z
-x,-y,-z
x,-y,z
1/2+x,1/2+y,z
1/2-x,1/2+y,-z
1/2-x,1/2-y,-z
1/2+x,1/2-y,z
loop_
_atom_site_type_symbol
_atom_site_label
_atom_site_fract_x
_atom_site_fract_y
_atom_site_fract_z
Si Si1 0.314095 0.319370 0.445500
Si Si2 0.593513 0.681647 0.314966
Si Si3 0.550375 0.818390 0.884197
Si Si4 0.835978 0.319025 0.717259
Si Si5 0.700382 0.319840 0.843970
Si Si6 0.364260 0.318895 0.890276
Si Si7 0.212924 0.679545 0.724365
Si Si8 0.343982 0.181108 0.085831
O O1 0.316392 0.500000 0.439016
O O2 0.367977 0.276526 0.568941
O O3 0.241486 0.283400 0.377854
O O4 0.320479 0.240341 0.384554
O O5 0.590613 0.500000 0.307402
O O6 0.521368 0.751079 0.218878
O O7 0.633568 0.745167 0.306341
O O8 0.596897 0.777869 0.884244
O O9 0.548059 0.000000 0.886042
O O10 0.584308 0.751072 0.992629
O O11 0.843524 0.500000 0.725452
O O12 0.869191 0.252046 0.825357
O O13 0.696997 0.500000 0.837382
O O14 0.686643 0.252557 0.755658
O O15 0.655851 0.257279 0.843724
O O16 0.775120 0.275819 0.961499
O O17 0.370713 0.500000 0.895732
O O18 0.290494 0.282257 0.818573
O O19 0.207366 0.500000 0.720533
O O20 0.343447 0.000000 0.093079
#
# Coordination Sequence:
#
# PCOD9173403 Si02
#       8
#     8   8   8   8   8   8   8   8
#     4   9  20  37  57  79 106 138 176 222 268 313
#     4  11  23  38  55  78 106 140 180 221 265 315
#     4  11  22  37  55  76 108 146 180 216 260 317
#     4  10  20  36  58  81 105 136 175 222 270 316
#     4  10  18  30  52  80 110 141 174 213 260 313
#     4  10  20  34  53  79 109 141 175 217 266 315
#     4  10  19  31  53  82 111 139 173 218 266 314
#     4   9  19  33  50  76 109 142 175 214 257 310
#
# _framework density 17.146443999999999
#
# number of rings (size 3 to 8) (size 9 to 14) (size 15 to 20)
#    0.000    2.000    1.250    2.625    0.000    4.500 
#    0.000    2.500    0.000    0.750    0.000    5.250 
#    0.000    0.000    0.000    0.000    0.000    0.000 
#
# Total GULP energy -178681.729250 kJ/mol
# GULP energy per Si atom -5583.804039 kJ/mol
# Density = 1.710742 g / cm^3
# Si number density = 17.146444 Si / 1000 Ang^3
#
#
#
# Elastic Constant Matrix: (Units=GPa)
#
#
# Indices 1 2 3 4 5 6 
#
# 1 33.8804 23.8514 61.7066 0.0000 -34.5156 0.0000
# 2 23.8514 41.9115 50.2923 0.0000 -13.2330 0.0000
# 3 61.7066 50.2923 140.5751 0.0000 -25.0316 0.0000
# 4 0.0000 0.0000 0.0000 26.8261 0.0000 -5.7546
# 5 -34.5156 -13.2330 -25.0316 0.0000 25.3386 0.0000
# 6 0.0000 0.0000 0.0000 -5.7546 0.0000 30.5717
#
#
#
# Elastic Compliance Matrix: (Units=1/GPa)
#
#
# Indices 1 2 3 4 5 6 
#
# 1 -0.049706 -0.006568 0.013956 0.000000 -0.057351 0.000000
# 2 -0.006568 0.042530 -0.012099 0.000000 0.001312 0.000000
# 3 0.013956 -0.012099 0.009193 0.000000 0.021774 0.000000
# 4 0.000000 0.000000 0.000000 0.038846 0.000000 0.007312
# 5 -0.057351 0.001312 0.021774 0.000000 -0.016461 0.000000
# 6 0.000000 0.000000 0.000000 0.007312 0.000000 0.034086
#
#
# Mechanical properties :
#
#
# Convention : Reuss Voigt Hill
#
# Bulk Modulus (GPa) = -135.06826 54.22972 -40.41927
# Shear Modulus (GPa) = 76.40528 21.91506 49.16017
#
# Velocity S-wave (km/s) = 6.68260 3.57895 5.36032
# Velocity P-wave (km/s) = 4.40471 6.98388 3.83230
#
# Compressibility (1/GPa) = -0.00740366
#
# Stress axis : x y z
#
# Youngs Moduli (GPa) = -20.11819 23.51268 108.77638
#
# Poissons Ratio (x) = 0.15442 -1.51812
# Poissons Ratio (y) = -0.13213 1.31609
# Poissons Ratio (z) = 0.28078 0.28448
#
# Static dielectric constant tensor:
#      x y z
#    x 1.564820 0.000000 -0.000610 
#    y 0.000000 1.569190 0.000000 
#    z -0.000610 0.000000 1.560310 
# 
# From -- ./inp_files/295506.got.cif
#   From: 2010.05.17/outbox.cif.g08.bks.cpg/sg12_148_cif.got.tgz:295506.got - 2010.06.03 13:09:07.
