data_PCOD9173294
_publ_section_title
;
Structure prediction by ZEFSAII (Michael W. Deem and Ramdas Pophale) SiO2 
 PCOD9173294
Probable space group: C 2/M
;
_chemical_formula_sum "Si O2"
_cell_formula_units_Z 64
_cell_length_a 16.190313
_cell_length_b 24.918953
_cell_length_c 13.871845
_cell_angle_alpha 90.000000
_cell_angle_beta 149.846558
_cell_angle_gamma 90.000000
_cell_volume 2811.237607
_symmetry_space_group_name_H-M "C 2/M"
_symmetry_group_IT_number 12
_symmetry_cell_setting 'monoclinic'
loop_
_space_group_symop_operation_xyz
x,y,z
-x,y,-z
-x,-y,-z
x,-y,z
1/2+x,1/2+y,z
1/2-x,1/2+y,-z
1/2-x,1/2-y,-z
1/2+x,1/2-y,z
loop_
_atom_site_type_symbol
_atom_site_label
_atom_site_fract_x
_atom_site_fract_y
_atom_site_fract_z
Si Si1 0.999370 0.560886 0.741936
Si Si2 0.838145 0.161490 0.276794
Si Si3 0.032967 0.860036 0.302635
Si Si4 0.236160 0.282780 0.774502
Si Si5 0.135882 0.640471 0.251038
Si Si6 0.082040 0.764168 0.226224
Si Si7 0.345273 0.562205 0.727423
Si Si8 0.160462 0.597657 0.721414
O O1 0.013505 0.500000 0.788939
O O2 0.985696 0.599304 0.820164
O O3 0.829121 0.565935 0.507476
O O4 0.141585 0.573931 0.808358
O O5 0.843343 0.226346 0.277738
O O6 0.679937 0.145614 0.181482
O O7 0.000000 0.145396 0.500000
O O8 0.869325 0.139316 0.201637
O O9 0.188065 0.875611 0.524881
O O10 0.074919 0.798864 0.314720
O O11 0.037504 0.897165 0.212765
O O12 0.268985 0.282555 0.692704
O O13 0.153788 0.337818 0.722030
O O14 0.413660 0.279931 0.003355
O O15 0.088781 0.700280 0.238293
O O16 0.397152 0.500000 0.777442
O O17 0.307950 0.580654 0.799202
O O18 0.000000 0.578939 0.500000
#
# Coordination Sequence:
#
# PCOD9173294 Si02
#       8
#     8   8   8   8   8   8   8   8
#     4   9  18  31  51  78 102 129 172 216 255 298
#     4   9  19  33  50  73 103 134 168 211 253 300
#     4  10  18  32  53  74 101 136 173 210 250 305
#     4  10  20  33  48  75 108 136 166 203 254 311
#     4   9  19  34  51  74 103 134 171 214 259 295
#     4  10  20  33  50  74 104 139 170 204 255 311
#     4   9  17  31  51  76 105 134 167 211 254 298
#     4  10  18  30  51  78 106 136 165 206 257 305
#
# _framework density 22.765772999999999
#
# number of rings (size 3 to 8) (size 9 to 14) (size 15 to 20)
#    0.000    2.500    1.250    1.125    1.750    2.000 
#    0.000    0.625    0.000    6.000    0.000    7.000 
#    0.000    0.000    0.000    0.000    0.000    0.125 
#
# Total GULP energy -178715.535789 kJ/mol
# GULP energy per Si atom -5584.860493 kJ/mol
# Density = 2.271396 g / cm^3
# Si number density = 22.765773 Si / 1000 Ang^3
#
#
#
# Elastic Constant Matrix: (Units=GPa)
#
#
# Indices 1 2 3 4 5 6 
#
# 1 190.7698 101.0659 8.9806 0.0000 10.5898 0.0000
# 2 101.0659 124.4694 -2.2712 0.0000 -2.8319 0.0000
# 3 8.9806 -2.2712 39.1745 0.0000 4.1443 0.0000
# 4 0.0000 0.0000 0.0000 -3.3378 0.0000 -0.9116
# 5 10.5898 -2.8319 4.1443 0.0000 23.0054 0.0000
# 6 0.0000 0.0000 0.0000 -0.9116 0.0000 32.8252
#
#
#
# Elastic Compliance Matrix: (Units=1/GPa)
#
#
# Indices 1 2 3 4 5 6 
#
# 1 0.010043 -0.008315 -0.002229 0.000000 -0.005245 0.000000
# 2 -0.008315 0.014946 0.002215 0.000000 0.005268 0.000000
# 3 -0.002229 0.002215 0.026535 0.000000 -0.003481 0.000000
# 4 0.000000 0.000000 0.000000 -0.297340 0.000000 -0.008257
# 5 -0.005245 0.005268 -0.003481 0.000000 0.047158 0.000000
# 6 0.000000 0.000000 0.000000 -0.008257 0.000000 0.030235
#
#
# Mechanical properties :
#
#
# Convention : Reuss Voigt Hill
#
# Bulk Modulus (GPa) = 28.68162 63.32934 46.00548
# Shear Modulus (GPa) = -35.67751 26.94112 -4.36820
#
# Velocity S-wave (km/s) = -3.96303 3.44380 -1.38669
# Velocity P-wave (km/s) = 2.88355 6.60993 4.20573
#
# Compressibility (1/GPa) = 0.03486554
#
# Stress axis : x y z
#
# Youngs Moduli (GPa) = 99.57262 66.90924 37.68658
#
# Poissons Ratio (x) = 0.55632 0.08402
# Poissons Ratio (y) = 0.82791 -0.08349
# Poissons Ratio (z) = 0.22200 -0.14822
#
# Static dielectric constant tensor:
#      x y z
#    x 1.880560 0.000000 -0.020520 
#    y 0.000000 1.790080 0.000000 
#    z -0.020520 0.000000 1.944010 
# 
# From -- ./inp_files/218526.got.cif
#   From: 2010.05.17/outbox.cif.g08.bks.cpg/sg12_110_cif.got.tgz:218526.got - 2010.06.03 13:09:07.
