data_PCOD9173185
_publ_section_title
;
Structure prediction by ZEFSAII (Michael W. Deem and Ramdas Pophale) SiO2 
 PCOD9173185
Probable space group: C 2/M
;
_chemical_formula_sum "Si O2"
_cell_formula_units_Z 60
_cell_length_a 26.117677
_cell_length_b 27.035063
_cell_length_c 14.361839
_cell_angle_alpha 90.000000
_cell_angle_beta 160.494508
_cell_angle_gamma 90.000000
_cell_volume 3385.983058
_symmetry_space_group_name_H-M "C 2/M"
_symmetry_group_IT_number 12
_symmetry_cell_setting 'monoclinic'
loop_
_space_group_symop_operation_xyz
x,y,z
-x,y,-z
-x,-y,-z
x,-y,z
1/2+x,1/2+y,z
1/2-x,1/2+y,-z
1/2-x,1/2-y,-z
1/2+x,1/2-y,z
loop_
_atom_site_type_symbol
_atom_site_label
_atom_site_fract_x
_atom_site_fract_y
_atom_site_fract_z
Si Si1 0.271927 0.054870 0.082790
Si Si2 0.989167 0.297468 0.370329
Si Si3 0.968728 0.442445 0.242131
Si Si4 0.260143 0.852159 0.847622
Si Si5 0.500000 0.593136 0.500000
Si Si6 0.172657 0.227976 0.555885
Si Si7 0.055536 0.191607 0.991073
Si Si8 0.734788 0.117253 0.748262
O O1 0.126638 0.059642 0.766130
O O2 0.285249 0.000000 0.145697
O O3 0.416171 0.063217 0.261144
O O4 0.240259 0.094141 0.107977
O O5 0.000000 0.290190 0.500000
O O6 0.045459 0.249701 0.409931
O O7 0.112488 0.339213 0.555120
O O8 0.832495 0.319327 0.056840
O O9 0.944407 0.500000 0.176225
O O10 0.143622 0.424719 0.534549
O O11 0.864520 0.401191 0.013520
O O12 0.250784 0.818268 0.741262
O O13 0.093988 0.871931 0.591393
O O14 0.304446 0.268818 0.765945
O O15 0.081369 0.213234 0.306873
O O16 0.121918 0.142323 0.055690
O O17 0.000000 0.182101 0.000000
#
# Coordination Sequence:
#
# PCOD9173185 Si02
#       8
#     8   8   8   8   4   8   8   8
#     4  10  18  30  50  79 112 151 189 225 273 334
#     4  10  20  33  52  78 118 155 184 221 273 341
#     4   9  18  33  56  83 116 153 187 224 270 338
#     4  10  20  34  50  79 118 151 197 228 272 327
#     4  10  19  28  44  72 118 156 184 220 267 328
#     4  11  22  39  58  84 112 150 193 238 284 345
#     4  11  24  42  61  81 111 148 195 250 299 337
#     4  10  19  33  54  80 108 141 193 233 277 332
#
# _framework density 17.720112
#
# number of rings (size 3 to 8) (size 9 to 14) (size 15 to 20)
#    0.000    1.867    1.333    4.600    0.933    3.200 
#    0.000    0.000    0.000    1.600    0.000    0.933 
#    0.000    0.000    0.000    0.000    0.000    0.000 
#
# Total GULP energy -167329.232151 kJ/mol
# GULP energy per Si atom -5577.641072 kJ/mol
# Density = 1.767978 g / cm^3
# Si number density = 17.720112 Si / 1000 Ang^3
#
#
#
# Elastic Constant Matrix: (Units=GPa)
#
#
# Indices 1 2 3 4 5 6 
#
# 1 67.0986 33.6119 21.0620 0.0000 -9.6983 0.0000
# 2 33.6119 100.3115 23.5210 0.0000 -4.1354 0.0000
# 3 21.0620 23.5210 66.8312 0.0000 -10.4799 0.0000
# 4 0.0000 0.0000 0.0000 18.9484 0.0000 -4.0628
# 5 -9.6983 -4.1354 -10.4799 0.0000 20.7386 0.0000
# 6 0.0000 0.0000 0.0000 -4.0628 0.0000 15.6776
#
#
#
# Elastic Compliance Matrix: (Units=1/GPa)
#
#
# Indices 1 2 3 4 5 6 
#
# 1 0.019629 -0.005557 -0.003220 0.000000 0.006444 0.000000
# 2 -0.005557 0.012440 -0.002873 0.000000 -0.001570 0.000000
# 3 -0.003220 -0.002873 0.018097 0.000000 0.007066 0.000000
# 4 0.000000 0.000000 0.000000 0.055880 0.000000 0.014481
# 5 0.006444 -0.001570 0.007066 0.000000 0.054491 0.000000
# 6 0.000000 0.000000 0.000000 0.014481 0.000000 0.067538
#
#
# Mechanical properties :
#
#
# Convention : Reuss Voigt Hill
#
# Bulk Modulus (GPa) = 37.22090 43.40346 40.31218
# Shear Modulus (GPa) = 19.20642 21.47602 20.34122
#
# Velocity S-wave (km/s) = 3.29580 3.48509 3.39177
# Velocity P-wave (km/s) = 5.96100 6.38291 6.17556
#
# Compressibility (1/GPa) = 0.02686663
#
# Stress axis : x y z
#
# Youngs Moduli (GPa) = 50.94490 80.38737 55.25732
#
# Poissons Ratio (x) = 0.44667 0.17793
# Poissons Ratio (y) = 0.28308 0.15876
# Poissons Ratio (z) = 0.16404 0.23096
#
# Static dielectric constant tensor:
#      x y z
#    x 1.576240 0.000000 -0.008130 
#    y 0.000000 1.636470 0.000000 
#    z -0.008130 0.000000 1.652410 
# 
# From -- ./inp_files/247491.got.cif
#   From: 2010.05.17/outbox.cif.g08.bks.cpg/sg12_124_cif.got.tgz:247491.got - 2010.06.03 13:09:07.
