data_PCOD9173094
_publ_section_title
;
Structure prediction by ZEFSAII (Michael W. Deem and Ramdas Pophale) SiO2 
 PCOD9173094
Probable space group: C 2/M
;
_chemical_formula_sum "Si O2"
_cell_formula_units_Z 48
_cell_length_a 9.941049
_cell_length_b 14.367631
_cell_length_c 15.884684
_cell_angle_alpha 90.000000
_cell_angle_beta 56.518194
_cell_angle_gamma 90.000000
_cell_volume 1892.316593
_symmetry_space_group_name_H-M "C 2/M"
_symmetry_group_IT_number 12
_symmetry_cell_setting 'monoclinic'
loop_
_space_group_symop_operation_xyz
x,y,z
-x,y,-z
-x,-y,-z
x,-y,z
1/2+x,1/2+y,z
1/2-x,1/2+y,-z
1/2-x,1/2-y,-z
1/2+x,1/2-y,z
loop_
_atom_site_type_symbol
_atom_site_label
_atom_site_fract_x
_atom_site_fract_y
_atom_site_fract_z
Si Si1 0.270479 0.361695 0.004283
Si Si2 0.447066 0.318212 0.295591
Si Si3 0.640687 0.347934 0.852954
Si Si4 0.848756 0.107722 0.499129
Si Si5 0.691376 0.130980 0.853620
Si Si6 0.959569 0.601498 0.271521
O O1 0.458954 0.384260 0.926516
O O2 0.178479 0.401149 0.955148
O O3 0.250000 0.250000 0.000000
O O4 0.246248 0.387477 0.111014
O O5 0.336157 0.350613 0.255028
O O6 0.347070 0.334599 0.414085
O O7 0.617492 0.373288 0.234985
O O8 0.508199 0.211193 0.265068
O O9 0.636222 0.238417 0.873837
O O10 0.697424 0.107037 0.612742
O O11 0.000000 0.143583 0.500000
O O12 0.881588 0.000000 0.463613
O O13 0.595643 0.093700 0.806954
O O14 0.032076 0.500000 0.272588
#
# Coordination Sequence:
#
# PCOD9173094 Si02
#       6
#     8   8   8   8   8   8
#     4   8  13  24  42  68  99 125 159 203 240 286
#     4  10  18  30  50  74 100 132 165 205 251 295
#     4   8  15  25  42  71  96 125 165 200 240 290
#     4  10  19  32  51  74  97 127 166 209 251 294
#     4   9  16  27  46  71  97 131 165 199 243 291
#     4  10  20  33  50  75 102 130 168 208 248 295
#
# _framework density 25.365734
#
# number of rings (size 3 to 8) (size 9 to 14) (size 15 to 20)
#    0.000    2.833    1.667    0.500    0.000    0.000 
#    0.000    0.000    0.000    5.500    0.000  236.833 
#    0.000    0.000    0.000    0.000    0.000    0.000 
#
# Total GULP energy -133823.460424 kJ/mol
# GULP energy per Si atom -5575.977518 kJ/mol
# Density = 2.530800 g / cm^3
# Si number density = 25.365734 Si / 1000 Ang^3
#
#
#
# Elastic Constant Matrix: (Units=GPa)
#
#
# Indices 1 2 3 4 5 6 
#
# 1 97.6277 13.9777 34.4006 0.0000 29.7862 0.0000
# 2 13.9777 98.2171 27.2601 0.0000 7.1052 0.0000
# 3 34.4006 27.2601 162.6313 0.0000 41.1017 0.0000
# 4 0.0000 0.0000 0.0000 502.1005 0.0000 -75.7816
# 5 29.7862 7.1052 41.1017 0.0000 45.9977 0.0000
# 6 0.0000 0.0000 0.0000 -75.7816 0.0000 9.6828
#
#
#
# Elastic Compliance Matrix: (Units=1/GPa)
#
#
# Indices 1 2 3 4 5 6 
#
# 1 0.012960 -0.001119 -0.000616 0.000000 -0.007670 0.000000
# 2 -0.001119 0.010775 -0.001720 0.000000 0.000597 0.000000
# 3 -0.000616 -0.001720 0.008266 0.000000 -0.006722 0.000000
# 4 0.000000 0.000000 0.000000 -0.010989 0.000000 -0.086005
# 5 -0.007670 0.000597 -0.006722 0.000000 0.032621 0.000000
# 6 0.000000 0.000000 0.000000 -0.086005 0.000000 -0.569835
#
#
# Mechanical properties :
#
#
# Convention : Reuss Voigt Hill
#
# Bulk Modulus (GPa) = 39.85331 56.63921 48.24626
# Shear Modulus (GPa) = -9.98147 130.41205 60.21529
#
# Velocity S-wave (km/s) = -1.98584 7.17804 4.87754
# Velocity P-wave (km/s) = 3.23844 9.54340 7.12615
#
# Compressibility (1/GPa) = 0.02509202
#
# Stress axis : x y z
#
# Youngs Moduli (GPa) = 77.16026 92.80724 120.97270
#
# Poissons Ratio (x) = 0.10383 0.07446
# Poissons Ratio (y) = 0.08632 0.20812
# Poissons Ratio (z) = 0.04749 0.15967
#
# Static dielectric constant tensor:
#      x y z
#    x 2.164660 0.000000 -0.091630 
#    y 0.000000 2.034280 0.000000 
#    z -0.091630 0.000000 2.063480 
# 
# From -- ./inp_files/204271.got.cif
#   From: 2010.05.17/outbox.cif.g08.bks.cpg/sg12_103_cif.got.tgz:204271.got - 2010.06.03 13:09:07.
