data_PCOD9173411
_publ_section_title
;
Structure prediction by ZEFSAII (Michael W. Deem and Ramdas Pophale) SiO2 
 PCOD9173411
Probable space group: C 2/M
;
_chemical_formula_sum "Si O2"
_cell_formula_units_Z 40
_cell_length_a 16.068295
_cell_length_b 21.773964
_cell_length_c 10.838502
_cell_angle_alpha 90.000000
_cell_angle_beta 33.525909
_cell_angle_gamma 90.000000
_cell_volume 2094.414416
_symmetry_space_group_name_H-M "C 2/M"
_symmetry_group_IT_number 12
_symmetry_cell_setting 'monoclinic'
loop_
_space_group_symop_operation_xyz
x,y,z
-x,y,-z
-x,-y,-z
x,-y,z
1/2+x,1/2+y,z
1/2-x,1/2+y,-z
1/2-x,1/2-y,-z
1/2+x,1/2-y,z
loop_
_atom_site_type_symbol
_atom_site_label
_atom_site_fract_x
_atom_site_fract_y
_atom_site_fract_z
Si Si1 0.073182 0.202787 0.283780
Si Si2 0.521246 0.377288 0.834538
Si Si3 0.287815 0.934802 0.792389
Si Si4 0.354823 0.070661 0.423423
Si Si5 0.905494 0.666390 0.830688
O O1 0.025158 0.273312 0.318119
O O2 0.000000 0.179585 0.500000
O O3 0.021212 0.167513 0.224937
O O4 0.253302 0.193412 0.080483
O O5 0.686525 0.404426 0.605700
O O6 0.500000 0.349516 0.000000
O O7 0.392401 0.429256 0.994453
O O8 0.353866 0.932116 0.574072
O O9 0.343486 0.878289 0.801847
O O10 0.327775 0.000000 0.801817
O O11 0.479106 0.122769 0.236742
O O12 0.377247 0.000000 0.351092
#
# Coordination Sequence:
#
# PCOD9173411 Si02
#       5
#     8   8   8   8   8
#     4  10  21  38  56  75 106 145 178 210 257 318
#     4   9  19  34  54  82 111 139 173 214 263 316
#     4   9  16  29  52  80 109 139 172 216 269 315
#     4  10  18  30  52  81 108 134 173 226 270 304
#     4  10  20  33  53  79 106 136 178 221 259 308
#
# _framework density 19.098416
#
# number of rings (size 3 to 8) (size 9 to 14) (size 15 to 20)
#    0.000    2.400    0.000    3.000    0.000    6.400 
#    0.000    1.000    0.000   22.800    0.000    0.000 
#    0.000    0.000    0.000    0.000    0.000    0.000 
#
# Total GULP energy -111346.767719 kJ/mol
# GULP energy per Si atom -5567.338386 kJ/mol
# Density = 1.905495 g / cm^3
# Si number density = 19.098416 Si / 1000 Ang^3
#
#
#
# Elastic Constant Matrix: (Units=GPa)
#
#
# Indices 1 2 3 4 5 6 
#
# 1 59.8017 26.9335 32.0456 0.0018 -8.5736 0.0014
# 2 26.9335 111.5502 27.0313 0.0022 -5.8884 0.0026
# 3 32.0456 27.0313 70.5112 0.0009 -19.7223 0.0028
# 4 0.0018 0.0022 0.0009 14.2183 -0.0009 -9.2000
# 5 -8.5736 -5.8884 -19.7223 -0.0009 39.0773 -0.0024
# 6 0.0014 0.0026 0.0028 -9.2000 -0.0024 6.2186
#
#
#
# Elastic Compliance Matrix: (Units=1/GPa)
#
#
# Indices 1 2 3 4 5 6 
#
# 1 0.023193 -0.003356 -0.009283 -0.000037 -0.000102 -0.000054
# 2 -0.003356 0.010376 -0.002586 -0.000063 -0.000478 -0.000096
# 3 -0.009283 -0.002586 0.021790 -0.000036 0.008571 -0.000056
# 4 -0.000037 -0.000063 -0.000036 1.646268 0.000149 2.435557
# 5 -0.000102 -0.000478 0.008571 0.000149 0.029822 0.000228
# 6 -0.000054 -0.000096 -0.000056 2.435557 0.000228 3.764072
#
#
# Mechanical properties :
#
#
# Convention : Reuss Voigt Hill
#
# Bulk Modulus (GPa) = 40.14599 45.98711 43.06655
# Shear Modulus (GPa) = 0.90346 22.29299 11.59823
#
# Velocity S-wave (km/s) = 0.68854 3.42024 2.46699
# Velocity P-wave (km/s) = 4.65815 6.30307 5.54198
#
# Compressibility (1/GPa) = 0.02490909
#
# Stress axis : x y z
#
# Youngs Moduli (GPa) = 43.11648 96.37282 45.89309
#
# Poissons Ratio (x) = 0.32341 0.42601
# Poissons Ratio (y) = 0.14469 0.11870
# Poissons Ratio (z) = 0.40024 0.24927
#
# Static dielectric constant tensor:
#      x y z
#    x 1.689960 0.000000 -0.049280 
#    y 0.000000 1.692170 0.000000 
#    z -0.049280 0.000000 1.716590 
# 
# From -- ./inp_files/48901.got.cif
#   From: 2010.05.17/outbox.cif.g08.bks.cpg/sg12_25_cif.got.tgz:48901.got - 2010.06.03 13:09:07.
