data_PCOD9173564
_publ_section_title
;
Structure prediction by ZEFSAII (Michael W. Deem and Ramdas Pophale) SiO2 
 PCOD9173564
Probable space group: C 2/M
;
_chemical_formula_sum "Si O2"
_cell_formula_units_Z 52
_cell_length_a 18.327232
_cell_length_b 21.944576
_cell_length_c 11.175090
_cell_angle_alpha 90.000000
_cell_angle_beta 142.302036
_cell_angle_gamma 90.000000
_cell_volume 2748.342147
_symmetry_space_group_name_H-M "C 2/M"
_symmetry_group_IT_number 12
_symmetry_cell_setting 'monoclinic'
loop_
_space_group_symop_operation_xyz
x,y,z
-x,y,-z
-x,-y,-z
x,-y,z
1/2+x,1/2+y,z
1/2-x,1/2+y,-z
1/2-x,1/2-y,-z
1/2+x,1/2-y,z
loop_
_atom_site_type_symbol
_atom_site_label
_atom_site_fract_x
_atom_site_fract_y
_atom_site_fract_z
Si Si1 0.362062 0.500000 0.617355
Si Si2 0.896408 0.500000 0.767838
Si Si3 0.576513 0.321585 0.942620
Si Si4 0.647070 0.813991 0.087645
Si Si5 0.834560 0.128379 0.716356
Si Si6 0.620752 0.634390 0.736096
Si Si7 0.404477 0.863950 0.711746
Si Si8 0.581175 0.500000 0.723250
O O1 0.244434 0.500000 0.377832
O O2 0.351256 0.561495 0.680622
O O3 0.485890 0.500000 0.707637
O O4 0.912388 0.437045 0.719425
O O5 0.000000 0.500000 0.000000
O O6 0.435860 0.329023 0.787460
O O7 0.599676 0.331319 0.833749
O O8 0.629087 0.258301 0.059343
O O9 0.637831 0.372031 0.107260
O O10 0.771727 0.835762 0.196826
O O11 0.631759 0.841695 0.201111
O O12 0.535912 0.838071 0.864103
O O13 0.703417 0.152861 0.515373
O O14 0.500000 0.635571 0.500000
O O15 0.649382 0.563910 0.806064
O O16 0.500000 0.500000 0.500000
#
# Coordination Sequence:
#
# PCOD9173564 Si02
#       8
#     4   4   8   8   8   8   8   4
#     4  10  20  36  58  95 119 150 200 241 309 355
#     4  10  18  30  58  84 121 145 182 240 294 343
#     4  11  23  39  57  86 117 159 201 239 295 359
#     4  11  23  37  58  85 119 155 206 240 291 361
#     4  10  21  37  62  86 123 152 195 250 295 358
#     4  11  24  40  61  87 118 153 196 254 303 350
#     4  10  21  36  58  90 115 155 195 246 300 346
#     4  10  22  35  61  91 116 149 195 241 305 355
#
# _framework density 18.920497000000001
#
# number of rings (size 3 to 8) (size 9 to 14) (size 15 to 20)
#    0.000    1.538    3.077    3.231    6.462    6.154 
#    0.000    0.769    0.000    0.000    0.000    4.308 
#    0.000    0.000    0.000    0.000    0.000    0.000 
#
# Total GULP energy -145058.548916 kJ/mol
# GULP energy per Si atom -5579.174958 kJ/mol
# Density = 1.887743 g / cm^3
# Si number density = 18.920497 Si / 1000 Ang^3
#
#
#
# Elastic Constant Matrix: (Units=GPa)
#
#
# Indices 1 2 3 4 5 6 
#
# 1 77.9421 25.7752 35.6548 0.0000 7.7706 0.0000
# 2 25.7752 97.2141 15.8365 0.0000 7.0356 0.0000
# 3 35.6548 15.8365 121.2818 0.0000 15.5405 0.0000
# 4 0.0000 0.0000 0.0000 2.8059 0.0000 17.7667
# 5 7.7706 7.0356 15.5405 0.0000 31.6253 0.0000
# 6 0.0000 0.0000 0.0000 17.7667 0.0000 9.3590
#
#
#
# Elastic Compliance Matrix: (Units=1/GPa)
#
#
# Indices 1 2 3 4 5 6 
#
# 1 0.015968 -0.003485 -0.004094 0.000000 -0.001137 0.000000
# 2 -0.003485 0.011365 -0.000262 0.000000 -0.001543 0.000000
# 3 -0.004094 -0.000262 0.009975 0.000000 -0.003837 0.000000
# 4 0.000000 0.000000 0.000000 -0.032340 0.000000 0.061393
# 5 -0.001137 -0.001543 -0.003837 0.000000 0.034129 0.000000
# 6 0.000000 0.000000 0.000000 0.061393 0.000000 -0.009696
#
#
# Mechanical properties :
#
#
# Convention : Reuss Voigt Hill
#
# Bulk Modulus (GPa) = 46.23755 50.10790 48.17272
# Shear Modulus (GPa) = 95.61979 23.36948 59.49463
#
# Velocity S-wave (km/s) = 7.11670 3.51827 5.61363
# Velocity P-wave (km/s) = 9.59274 6.56088 8.21784
#
# Compressibility (1/GPa) = 0.02162744
#
# Stress axis : x y z
#
# Youngs Moduli (GPa) = 62.62352 87.99064 100.25419
#
# Poissons Ratio (x) = 0.30662 0.41042
# Poissons Ratio (y) = 0.21822 0.02624
# Poissons Ratio (z) = 0.25637 0.02303
#
# Static dielectric constant tensor:
#      x y z
#    x 1.618590 0.000000 0.001860 
#    y 0.000000 1.683950 0.000000 
#    z 0.001860 0.000000 1.675490 
# 
# From -- ./inp_files/159662.got.cif
#   From: 2010.05.17/outbox.cif.g08.bks.cpg/sg12_80_cif.got.tgz:159662.got - 2010.06.03 13:09:07.
