data_PCOD9173458
_publ_section_title
;
Structure prediction by ZEFSAII (Michael W. Deem and Ramdas Pophale) SiO2 
 PCOD9173458
Probable space group: C 2/M
;
_chemical_formula_sum "Si O2"
_cell_formula_units_Z 64
_cell_length_a 14.284809
_cell_length_b 14.336624
_cell_length_c 22.731773
_cell_angle_alpha 90.000000
_cell_angle_beta 49.948882
_cell_angle_gamma 90.000000
_cell_volume 3563.552747
_symmetry_space_group_name_H-M "C 2/M"
_symmetry_group_IT_number 12
_symmetry_cell_setting 'monoclinic'
loop_
_space_group_symop_operation_xyz
x,y,z
-x,y,-z
-x,-y,-z
x,-y,z
1/2+x,1/2+y,z
1/2-x,1/2+y,-z
1/2-x,1/2-y,-z
1/2+x,1/2-y,z
loop_
_atom_site_type_symbol
_atom_site_label
_atom_site_fract_x
_atom_site_fract_y
_atom_site_fract_z
Si Si1 0.796792 0.109860 0.596988
Si Si2 0.910678 0.109738 0.675679
Si Si3 0.532762 0.891468 0.644207
Si Si4 0.242348 0.110235 0.145226
Si Si5 0.923757 0.774868 0.089007
Si Si6 0.819310 0.388514 0.823334
Si Si7 0.640169 0.740735 0.091260
Si Si8 0.609391 0.269063 0.542259
O O1 0.825570 0.130431 0.653305
O O2 0.656005 0.123138 0.633724
O O3 0.879763 0.176343 0.523231
O O4 0.825820 0.000000 0.574719
O O5 0.838924 0.130453 0.764196
O O6 0.037034 0.163838 0.616187
O O7 0.936245 0.000000 0.664339
O O8 0.416980 0.869672 0.732055
O O9 0.542124 0.828505 0.582107
O O10 0.528883 0.000000 0.630254
O O11 0.362675 0.173799 0.102197
O O12 0.169673 0.150527 0.118906
O O13 0.265955 0.000000 0.132153
O O14 0.812616 0.847337 0.141071
O O15 0.014582 0.769231 0.106995
O O16 0.000000 0.800937 0.000000
O O17 0.816563 0.500000 0.834852
O O18 0.857269 0.329418 0.865784
O O19 0.750000 0.750000 0.000000
O O20 0.750000 0.250000 0.500000
#
# Coordination Sequence:
#
# PCOD9173458 Si02
#       8
#     8   8   8   8   8   8   8   8
#     4   9  18  32  55  86 112 140 182 235 285 338
#     4  10  20  36  56  83 116 142 183 237 285 342
#     4   9  19  36  54  80 115 146 189 237 277 332
#     4  10  23  40  61  88 118 156 192 239 302 351
#     4  11  22  41  58  87 122 152 192 248 293 346
#     4  10  22  39  61  85 115 161 203 237 289 352
#     4  11  22  41  58  86 123 150 192 250 297 340
#     4  10  18  30  53  81 109 149 184 221 283 338
#
# _framework density 17.959605
#
# number of rings (size 3 to 8) (size 9 to 14) (size 15 to 20)
#    0.000    2.000    2.500    2.250    1.750    3.500 
#    0.000    0.000    0.000    1.500    0.000    0.000 
#    0.000    0.000    0.000    0.000    0.000    0.000 
#
# Total GULP energy -178440.584074 kJ/mol
# GULP energy per Si atom -5576.268252 kJ/mol
# Density = 1.791873 g / cm^3
# Si number density = 17.959605 Si / 1000 Ang^3
#
#
#
# Elastic Constant Matrix: (Units=GPa)
#
#
# Indices 1 2 3 4 5 6 
#
# 1 107.9533 30.2356 41.0157 0.0000 -3.9367 0.0000
# 2 30.2356 83.6847 62.4344 0.0000 1.6964 0.0000
# 3 41.0157 62.4344 120.5957 0.0000 -7.2939 0.0000
# 4 0.0000 0.0000 0.0000 22.0087 0.0000 17.4563
# 5 -3.9367 1.6964 -7.2939 0.0000 27.8983 0.0000
# 6 0.0000 0.0000 0.0000 17.4563 0.0000 -1.1883
#
#
#
# Elastic Compliance Matrix: (Units=1/GPa)
#
#
# Indices 1 2 3 4 5 6 
#
# 1 0.010845 -0.002004 -0.002592 0.000000 0.000975 0.000000
# 2 -0.002004 0.020263 -0.010059 0.000000 -0.004145 0.000000
# 3 -0.002592 -0.010059 0.014628 0.000000 0.004070 0.000000
# 4 0.000000 0.000000 0.000000 0.003591 0.000000 0.052758
# 5 0.000975 -0.004145 0.004070 0.000000 0.037298 0.000000
# 6 0.000000 0.000000 0.000000 0.052758 0.000000 -0.066516
#
#
# Mechanical properties :
#
#
# Convention : Reuss Voigt Hill
#
# Bulk Modulus (GPa) = 60.88531 64.40057 62.64294
# Shear Modulus (GPa) = 91.08280 21.64693 56.36487
#
# Velocity S-wave (km/s) = 7.12920 3.47553 5.60824
# Velocity P-wave (km/s) = 10.08673 7.21402 8.76882
#
# Compressibility (1/GPa) = 0.01642432
#
# Stress axis : x y z
#
# Youngs Moduli (GPa) = 92.20902 49.35149 68.36324
#
# Poissons Ratio (x) = 0.09892 0.17718
# Poissons Ratio (y) = 0.18483 0.68769
# Poissons Ratio (z) = 0.23899 0.49644
#
# Static dielectric constant tensor:
#      x y z
#    x 1.609830 0.000000 -0.002500 
#    y 0.000000 1.630600 0.000000 
#    z -0.002500 0.000000 1.611060 
# 
# From -- ./inp_files/340143.got.cif
#   From: 2010.05.17/outbox.cif.g08.bks.cpg/sg12_171_cif.got.tgz:340143.got - 2010.06.03 13:09:07.
