data_PCOD9173814
_publ_section_title
;
Structure prediction by ZEFSAII (Michael W. Deem and Ramdas Pophale) SiO2 
 PCOD9173814
Probable space group: C 2/M
;
_chemical_formula_sum "Si O2"
_cell_formula_units_Z 48
_cell_length_a 23.979591
_cell_length_b 8.309295
_cell_length_c 13.694009
_cell_angle_alpha 90.000000
_cell_angle_beta 88.748442
_cell_angle_gamma 90.000000
_cell_volume 2727.928214
_symmetry_space_group_name_H-M "C 2/M"
_symmetry_group_IT_number 12
_symmetry_cell_setting 'monoclinic'
loop_
_space_group_symop_operation_xyz
x,y,z
-x,y,-z
-x,-y,-z
x,-y,z
1/2+x,1/2+y,z
1/2-x,1/2+y,-z
1/2-x,1/2-y,-z
1/2+x,1/2-y,z
loop_
_atom_site_type_symbol
_atom_site_label
_atom_site_fract_x
_atom_site_fract_y
_atom_site_fract_z
Si Si1 0.733424 0.183094 0.397578
Si Si2 0.668943 0.191663 0.729877
Si Si3 0.433560 0.805173 0.399435
Si Si4 0.938321 0.694133 0.619868
Si Si5 0.343815 0.683221 0.752986
Si Si6 0.244078 0.809769 0.890104
O O1 0.787855 0.500000 0.598414
O O2 0.750000 0.250000 0.500000
O O3 0.788707 0.197357 0.331596
O O4 0.689954 0.298356 0.346786
O O5 0.608738 0.234621 0.686875
O O6 0.691452 0.223911 0.838297
O O7 0.677640 0.000000 0.709815
O O8 0.497071 0.752696 0.377903
O O9 0.417333 0.754057 0.511312
O O10 0.434694 0.000000 0.403256
O O11 0.936625 0.500000 0.620348
O O12 0.903283 0.750736 0.715042
O O13 0.348397 0.500000 0.784763
O O14 0.302210 0.771825 0.830113
O O15 0.234983 0.000000 0.887417
O O16 0.250000 0.750000 0.000000
#
# Coordination Sequence:
#
# PCOD9173814 Si02
#       6
#     8   8   8   8   8   8
#     4  11  20  30  44  67  98 133 166 204 249 298
#     4  10  18  31  50  75 102 132 167 206 248 301
#     4   8  16  29  50  75 104 141 179 208 240 287
#     4   9  16  31  51  74 104 143 180 209 239 284
#     4  11  21  33  49  74 102 132 167 207 251 302
#     4  11  22  38  57  77  98 127 163 210 264 314
#
# _framework density 17.595772
#
# number of rings (size 3 to 8) (size 9 to 14) (size 15 to 20)
#    0.000    2.000    0.000    9.000    0.000    1.333 
#    0.000    4.167    0.000    1.000    0.000    7.000 
#    0.000    0.000    0.000    0.000    0.000    0.000 
#
# Total GULP energy -133629.651337 kJ/mol
# GULP energy per Si atom -5567.902139 kJ/mol
# Density = 1.755572 g / cm^3
# Si number density = 17.595772 Si / 1000 Ang^3
#
#
#
# Elastic Constant Matrix: (Units=GPa)
#
#
# Indices 1 2 3 4 5 6 
#
# 1 90.5544 10.4110 39.8045 0.0000 3.3185 0.0000
# 2 10.4110 56.4179 6.7319 0.0000 0.0371 0.0000
# 3 39.8045 6.7319 100.7663 0.0000 8.4304 0.0000
# 4 0.0000 0.0000 0.0000 23.0213 0.0000 -2.9294
# 5 3.3185 0.0371 8.4304 0.0000 24.1989 0.0000
# 6 0.0000 0.0000 0.0000 -2.9294 0.0000 21.5079
#
#
#
# Elastic Compliance Matrix: (Units=1/GPa)
#
#
# Indices 1 2 3 4 5 6 
#
# 1 0.013558 -0.001878 -0.005227 0.000000 -0.000035 0.000000
# 2 -0.001878 0.018131 -0.000503 0.000000 0.000405 0.000000
# 3 -0.005227 -0.000503 0.012322 0.000000 -0.003575 0.000000
# 4 0.000000 0.000000 0.000000 0.044204 0.000000 0.006021
# 5 -0.000035 0.000405 -0.003575 0.000000 0.042574 0.000000
# 6 0.000000 0.000000 0.000000 0.006021 0.000000 0.047315
#
#
# Mechanical properties :
#
#
# Convention : Reuss Voigt Hill
#
# Bulk Modulus (GPa) = 34.73015 40.18150 37.45583
# Shear Modulus (GPa) = 24.64041 26.46501 25.55271
#
# Velocity S-wave (km/s) = 3.74620 3.88242 3.81492
# Velocity P-wave (km/s) = 6.20424 6.55615 6.38262
#
# Compressibility (1/GPa) = 0.02879342
#
# Stress axis : x y z
#
# Youngs Moduli (GPa) = 73.75711 55.15341 81.15890
#
# Poissons Ratio (x) = 0.10359 0.42424
# Poissons Ratio (y) = 0.13853 0.04085
# Poissons Ratio (z) = 0.38554 0.02776
#
# Static dielectric constant tensor:
#      x y z
#    x 1.651080 0.000000 -0.002880 
#    y 0.000000 1.606900 0.000000 
#    z -0.002880 0.000000 1.571250 
# 
# From -- ./inp_files/172449.got.cif
#   From: 2010.05.17/outbox.cif.g08.bks.cpg/sg12_87_cif.got.tgz:172449.got - 2010.06.03 13:09:07.
