data_PCOD9173676
_publ_section_title
;
Structure prediction by ZEFSAII (Michael W. Deem and Ramdas Pophale) SiO2 
 PCOD9173676
Probable space group: C 2/M
;
_chemical_formula_sum "Si O2"
_cell_formula_units_Z 64
_cell_length_a 29.102095
_cell_length_b 8.129800
_cell_length_c 21.465415
_cell_angle_alpha 90.000000
_cell_angle_beta 45.417772
_cell_angle_gamma 90.000000
_cell_volume 3617.196366
_symmetry_space_group_name_H-M "C 2/M"
_symmetry_group_IT_number 12
_symmetry_cell_setting 'monoclinic'
loop_
_space_group_symop_operation_xyz
x,y,z
-x,y,-z
-x,-y,-z
x,-y,z
1/2+x,1/2+y,z
1/2-x,1/2+y,-z
1/2-x,1/2-y,-z
1/2+x,1/2-y,z
loop_
_atom_site_type_symbol
_atom_site_label
_atom_site_fract_x
_atom_site_fract_y
_atom_site_fract_z
Si Si1 0.688300 0.696532 0.243036
Si Si2 0.053723 0.694794 0.898959
Si Si3 0.681225 0.303883 0.844844
Si Si4 0.000488 0.195018 0.820356
Si Si5 0.042199 0.302018 0.402408
Si Si6 0.321838 0.691908 0.884306
Si Si7 0.353075 0.299037 0.985020
Si Si8 0.034087 0.306032 0.271900
O O1 0.692079 0.500000 0.235230
O O2 0.744148 0.758881 0.235610
O O3 0.616225 0.743339 0.331676
O O4 0.699589 0.767510 0.161518
O O5 0.044584 0.500000 0.904753
O O6 0.125391 0.733415 0.854687
O O7 0.042452 0.762300 0.840457
O O8 0.000000 0.760795 0.000000
O O9 0.674318 0.500000 0.850953
O O10 0.667613 0.239858 0.927833
O O11 0.927595 0.250210 0.906609
O O12 0.013612 0.271896 0.740085
O O13 0.000080 0.000000 0.813022
O O14 0.043884 0.500000 0.405193
O O15 0.013123 0.261662 0.361830
O O16 0.000000 0.237933 0.500000
O O17 0.304112 0.500000 0.902293
O O18 0.313032 0.761985 0.962827
O O19 0.400237 0.704825 0.803049
O O20 0.349983 0.500000 0.987048
O O21 0.050802 0.500000 0.255577
#
# Coordination Sequence:
#
# PCOD9173676 Si02
#       8
#     8   8   8   8   8   8   8   8
#     4  10  20  33  48  70 101 131 164 207 251 294
#     4  11  22  34  49  71  97 126 171 224 263 291
#     4  11  21  33  48  66  94 133 175 210 250 299
#     4  10  18  31  49  68  96 132 170 209 251 297
#     4   9  18  34  56  80 105 133 164 198 242 302
#     4   8  15  29  45  62  90 129 166 200 241 290
#     4   8  15  27  44  64  87 123 169 206 238 282
#     4   9  16  27  46  74 102 126 159 203 247 289
#
# _framework density 17.693261
#
# number of rings (size 3 to 8) (size 9 to 14) (size 15 to 20)
#    0.000    2.500    1.250    2.625    0.000    2.250 
#    0.000    0.625    0.000    0.000    0.000    0.875 
#    0.000    0.000    0.000    0.000    0.000    0.000 
#
# Total GULP energy -178354.428062 kJ/mol
# GULP energy per Si atom -5573.575877 kJ/mol
# Density = 1.765299 g / cm^3
# Si number density = 17.693261 Si / 1000 Ang^3
#
#
#
# Elastic Constant Matrix: (Units=GPa)
#
#
# Indices 1 2 3 4 5 6 
#
# 1 134.5072 4.3659 39.5611 0.0259 13.5626 -0.0326
# 2 4.3659 30.7228 11.6683 0.0281 7.3312 -0.0780
# 3 39.5611 11.6683 67.9173 0.0136 14.3592 -0.0761
# 4 0.0259 0.0281 0.0136 14.7970 0.0037 -1.6989
# 5 13.5626 7.3312 14.3592 0.0037 17.9356 -0.0023
# 6 -0.0326 -0.0780 -0.0761 -1.6989 -0.0023 24.6723
#
#
#
# Elastic Compliance Matrix: (Units=1/GPa)
#
#
# Indices 1 2 3 4 5 6 
#
# 1 0.009173 0.001396 -0.004810 -0.000013 -0.003656 0.000000
# 2 0.001396 0.037072 -0.004520 -0.000054 -0.012590 0.000100
# 3 -0.004810 -0.004520 0.020635 0.000006 -0.011036 0.000042
# 4 -0.000013 -0.000054 0.000006 0.068120 0.000014 0.004691
# 5 -0.003656 -0.012590 -0.011036 0.000014 0.072501 -0.000071
# 6 0.000000 0.000100 0.000042 0.004691 -0.000071 0.040855
#
#
# Mechanical properties :
#
#
# Convention : Reuss Voigt Hill
#
# Bulk Modulus (GPa) = 19.60344 38.25978 28.93161
# Shear Modulus (GPa) = 17.77919 23.31778 20.54848
#
# Velocity S-wave (km/s) = 3.17339 3.63421 3.41159
# Velocity P-wave (km/s) = 4.95286 6.26745 5.64853
#
# Compressibility (1/GPa) = 0.05101145
#
# Stress axis : x y z
#
# Youngs Moduli (GPa) = 109.02139 26.97448 48.46077
#
# Poissons Ratio (x) = -0.03765 0.23308
# Poissons Ratio (y) = -0.15215 0.21905
# Poissons Ratio (z) = 0.52436 0.12193
#
# Static dielectric constant tensor:
#      x y z
#    x 1.650030 -0.000020 0.016300 
#    y -0.000020 1.614480 0.000010 
#    z 0.016300 0.000010 1.628550 
# 
# From -- ./inp_files/326821.got.cif
#   From: 2010.05.17/outbox.cif.g08.bks.cpg/sg12_164_cif.got.tgz:326821.got - 2010.06.03 13:09:07.
