data_PCOD9173449
_publ_section_title
;
Structure prediction by ZEFSAII (Michael W. Deem and Ramdas Pophale) SiO2 
 PCOD9173449
Probable space group: C 2/M
;
_chemical_formula_sum "Si O2"
_cell_formula_units_Z 56
_cell_length_a 13.342645
_cell_length_b 12.741939
_cell_length_c 15.132232
_cell_angle_alpha 90.000000
_cell_angle_beta 76.023642
_cell_angle_gamma 90.000000
_cell_volume 2496.486394
_symmetry_space_group_name_H-M "C 2/M"
_symmetry_group_IT_number 12
_symmetry_cell_setting 'monoclinic'
loop_
_space_group_symop_operation_xyz
x,y,z
-x,y,-z
-x,-y,-z
x,-y,z
1/2+x,1/2+y,z
1/2-x,1/2+y,-z
1/2-x,1/2-y,-z
1/2+x,1/2-y,z
loop_
_atom_site_type_symbol
_atom_site_label
_atom_site_fract_x
_atom_site_fract_y
_atom_site_fract_z
Si Si1 0.818239 0.381886 0.048354
Si Si2 0.526443 0.377342 0.255089
Si Si3 0.215249 0.618535 0.549841
Si Si4 0.917342 0.821401 0.946952
Si Si5 0.260586 0.182526 0.251068
Si Si6 0.003751 0.716955 0.594016
Si Si7 0.275621 0.875268 0.649113
O O1 0.852767 0.500000 0.025013
O O2 0.696917 0.372880 0.043283
O O3 0.823551 0.356681 0.152745
O O4 0.885071 0.296150 0.982281
O O5 0.498084 0.500000 0.266556
O O6 0.522957 0.332819 0.157689
O O7 0.646721 0.361007 0.253876
O O8 0.471798 0.300766 0.335805
O O9 0.252549 0.500000 0.537859
O O10 0.228994 0.648401 0.649245
O O11 0.092315 0.631261 0.565871
O O12 0.254854 0.661152 0.445221
O O13 0.000000 0.863868 0.000000
O O14 0.272920 0.308278 0.260664
O O15 0.000000 0.774371 0.500000
O O16 0.895569 0.659444 0.632814
O O17 0.262996 0.000000 0.659187
#
# Coordination Sequence:
#
# PCOD9173449 Si02
#       7
#     8   8   8   8   8   8   8
#     4  10  22  41  62  89 121 152 194 250 299 351
#     4  10  21  38  57  79 110 148 188 230 283 343
#     4  10  18  30  53  79 107 147 186 228 282 333
#     4  10  22  40  64  88 117 157 195 245 296 358
#     4  10  19  34  55  79 109 145 185 232 282 341
#     4   9  19  34  53  80 113 144 184 233 275 331
#     4   9  18  33  51  76 112 148 185 229 278 333
#
# _framework density 22.431526999999999
#
# number of rings (size 3 to 8) (size 9 to 14) (size 15 to 20)
#    0.000    2.286    0.000    3.429    2.000    3.429 
#    0.000   13.571    0.000    0.000    0.000    0.000 
#    0.000    0.000    0.000    0.000    0.000    0.000 
#
# Total GULP energy -156041.695287 kJ/mol
# GULP energy per Si atom -5572.917689 kJ/mol
# Density = 2.238047 g / cm^3
# Si number density = 22.431527 Si / 1000 Ang^3
#
#
#
# Elastic Constant Matrix: (Units=GPa)
#
#
# Indices 1 2 3 4 5 6 
#
# 1 63.9092 -4.1080 30.0902 0.0000 7.7091 0.0000
# 2 -4.1080 105.3159 42.0295 0.0000 -4.0021 0.0000
# 3 30.0902 42.0295 110.9731 0.0000 30.9901 0.0000
# 4 0.0000 0.0000 0.0000 27.3490 0.0000 2.8240
# 5 7.7091 -4.0021 30.9901 0.0000 27.3590 0.0000
# 6 0.0000 0.0000 0.0000 2.8240 0.0000 1.3740
#
#
#
# Elastic Compliance Matrix: (Units=1/GPa)
#
#
# Indices 1 2 3 4 5 6 
#
# 1 0.019111 0.004037 -0.007858 0.000000 0.004106 0.000000
# 2 0.004037 0.013984 -0.009719 0.000000 0.011917 0.000000
# 3 -0.007858 -0.009719 0.021357 0.000000 -0.023399 0.000000
# 4 0.000000 0.000000 0.000000 0.046414 0.000000 -0.095392
# 5 0.004106 0.011917 -0.023399 0.000000 0.063642 0.000000
# 6 0.000000 0.000000 0.000000 -0.095392 0.000000 0.923836
#
#
# Mechanical properties :
#
#
# Convention : Reuss Voigt Hill
#
# Bulk Modulus (GPa) = 36.53123 46.24685 41.38904
# Shear Modulus (GPa) = 4.44623 25.36216 14.90420
#
# Velocity S-wave (km/s) = 1.40941 3.36616 2.58045
# Velocity P-wave (km/s) = 4.35541 5.98078 5.23160
#
# Compressibility (1/GPa) = 0.02737384
#
# Stress axis : x y z
#
# Youngs Moduli (GPa) = 52.32579 71.50931 46.82278
#
# Poissons Ratio (x) = -0.28871 0.36792
# Poissons Ratio (y) = -0.21126 0.45507
# Poissons Ratio (z) = 0.41116 0.69499
#
# Static dielectric constant tensor:
#      x y z
#    x 1.860160 0.000000 0.026630 
#    y 0.000000 1.846920 0.000000 
#    z 0.026630 0.000000 1.903430 
# 
# From -- ./inp_files/213392.got.cif
#   From: 2010.05.17/outbox.cif.g08.bks.cpg/sg12_107_cif.got.tgz:213392.got - 2010.06.03 13:09:07.
