data_PCOD9173244
_publ_section_title
;
Structure prediction by ZEFSAII (Michael W. Deem and Ramdas Pophale) SiO2 
 PCOD9173244
Probable space group: C 2/M
;
_chemical_formula_sum "Si O2"
_cell_formula_units_Z 64
_cell_length_a 20.961482
_cell_length_b 8.175779
_cell_length_c 24.091949
_cell_angle_alpha 90.000000
_cell_angle_beta 123.170520
_cell_angle_gamma 90.000000
_cell_volume 3455.989033
_symmetry_space_group_name_H-M "C 2/M"
_symmetry_group_IT_number 12
_symmetry_cell_setting 'monoclinic'
loop_
_space_group_symop_operation_xyz
x,y,z
-x,y,-z
-x,-y,-z
x,-y,z
1/2+x,1/2+y,z
1/2-x,1/2+y,-z
1/2-x,1/2-y,-z
1/2+x,1/2-y,z
loop_
_atom_site_type_symbol
_atom_site_label
_atom_site_fract_x
_atom_site_fract_y
_atom_site_fract_z
Si Si1 0.722311 0.695940 0.175475
Si Si2 0.227167 0.807600 0.579825
Si Si3 0.032676 0.194084 0.672670
Si Si4 0.136553 0.306223 0.431623
Si Si5 0.677639 0.193819 0.676116
Si Si6 0.132369 0.801828 0.823254
Si Si7 0.413059 0.299330 0.962567
Si Si8 0.837650 0.802753 0.041182
O O1 0.716046 0.500000 0.176929
O O2 0.756885 0.756783 0.250196
O O3 0.786982 0.737490 0.161047
O O4 0.641921 0.756652 0.113596
O O5 0.166038 0.777280 0.501914
O O6 0.307650 0.749106 0.591788
O O7 0.201245 0.725721 0.624413
O O8 0.233358 0.000000 0.593806
O O9 0.097581 0.229288 0.657525
O O10 0.069015 0.251866 0.748576
O O11 0.951693 0.273590 0.621513
O O12 0.021047 0.000000 0.670294
O O13 0.149528 0.500000 0.444166
O O14 0.669630 0.000000 0.680980
O O15 0.123384 0.749080 0.882586
O O16 0.134478 0.000000 0.822498
O O17 0.412401 0.500000 0.961769
O O18 0.500000 0.246402 0.000000
O O19 0.377544 0.244721 0.004110
O O20 0.839919 0.000000 0.041516
O O21 0.750000 0.750000 0.000000
#
# Coordination Sequence:
#
# PCOD9173244 Si02
#       8
#     8   8   8   8   8   8   8   8
#     4   9  17  31  51  75 100 136 174 212 260 307
#     4  10  21  38  59  81 108 142 177 212 261 318
#     4  10  20  35  54  79 111 143 176 219 270 316
#     4  10  21  38  59  82 109 140 175 217 262 310
#     4  10  20  34  54  81 109 139 181 223 262 313
#     4   9  18  31  49  76 103 133 171 215 263 308
#     4   9  17  30  48  72 102 134 171 215 260 305
#     4  10  18  30  51  75  98 132 175 217 259 306
#
# _framework density 18.518575999999999
#
# number of rings (size 3 to 8) (size 9 to 14) (size 15 to 20)
#    0.000    2.375    1.250    1.500    0.000    3.000 
#    2.250    2.500    0.000    1.500    0.000    0.000 
#    0.000    0.000    0.000    0.000    0.000    0.000 
#
# Total GULP energy -178471.101949 kJ/mol
# GULP energy per Si atom -5577.221936 kJ/mol
# Density = 1.847643 g / cm^3
# Si number density = 18.518576 Si / 1000 Ang^3
#
#
#
# Elastic Constant Matrix: (Units=GPa)
#
#
# Indices 1 2 3 4 5 6 
#
# 1 103.4373 -7.8575 68.3551 0.0000 6.6514 0.0000
# 2 -7.8575 5.5340 -8.5413 0.0000 -0.7256 0.0000
# 3 68.3551 -8.5413 98.4544 0.0000 10.1833 0.0000
# 4 0.0000 0.0000 0.0000 12.4184 0.0000 1.3248
# 5 6.6514 -0.7256 10.1833 0.0000 34.4705 0.0000
# 6 0.0000 0.0000 0.0000 1.3248 0.0000 21.6487
#
#
#
# Elastic Compliance Matrix: (Units=1/GPa)
#
#
# Indices 1 2 3 4 5 6 
#
# 1 0.018116 0.007279 -0.011966 0.000000 0.000193 0.000000
# 2 0.007279 0.211593 0.013397 0.000000 -0.000908 0.000000
# 3 -0.011966 0.013397 0.019969 0.000000 -0.003308 0.000000
# 4 0.000000 0.000000 0.000000 0.081055 0.000000 -0.004960
# 5 0.000193 -0.000908 -0.003308 0.000000 0.029931 0.000000
# 6 0.000000 0.000000 0.000000 -0.004960 0.000000 0.046496
#
#
# Mechanical properties :
#
#
# Convention : Reuss Voigt Hill
#
# Bulk Modulus (GPa) = 3.74395 34.59314 19.16854
# Shear Modulus (GPa) = 10.44336 24.07214 17.25775
#
# Velocity S-wave (km/s) = 2.37732 3.60931 3.05604
# Velocity P-wave (km/s) = 3.09219 6.00752 4.77765
#
# Compressibility (1/GPa) = 0.26709788
#
# Stress axis : x y z
#
# Youngs Moduli (GPa) = 55.20078 4.72605 50.07750
#
# Poissons Ratio (x) = -0.03440 0.59922
# Poissons Ratio (y) = -0.40180 -0.67088
# Poissons Ratio (z) = 0.66052 -0.06331
#
# Static dielectric constant tensor:
#      x y z
#    x 1.606960 0.000000 -0.005910 
#    y 0.000000 1.644870 0.000000 
#    z -0.005910 0.000000 1.650640 
# 
# From -- ./inp_files/346293.got.cif
#   From: 2010.05.17/outbox.cif.g08.bks.cpg/sg12_174_cif.got.tgz:346293.got - 2010.06.03 13:09:07.
