data_PCOD9173113
_publ_section_title
;
Structure prediction by ZEFSAII (Michael W. Deem and Ramdas Pophale) SiO2 
 PCOD9173113
Probable space group: C 2/M
;
_chemical_formula_sum "Si O2"
_cell_formula_units_Z 48
_cell_length_a 20.949261
_cell_length_b 7.699043
_cell_length_c 20.109765
_cell_angle_alpha 90.000000
_cell_angle_beta 130.503768
_cell_angle_gamma 90.000000
_cell_volume 2466.229956
_symmetry_space_group_name_H-M "C 2/M"
_symmetry_group_IT_number 12
_symmetry_cell_setting 'monoclinic'
loop_
_space_group_symop_operation_xyz
x,y,z
-x,y,-z
-x,-y,-z
x,-y,z
1/2+x,1/2+y,z
1/2-x,1/2+y,-z
1/2-x,1/2-y,-z
1/2+x,1/2-y,z
loop_
_atom_site_type_symbol
_atom_site_label
_atom_site_fract_x
_atom_site_fract_y
_atom_site_fract_z
Si Si1 0.652524 0.706569 0.426097
Si Si2 0.722092 0.790805 0.055647
Si Si3 0.510208 0.286775 0.431098
Si Si4 0.118040 0.798050 0.763225
Si Si5 0.967769 0.712470 0.049655
Si Si6 0.476907 0.795548 0.771016
O O1 0.644812 0.500000 0.419577
O O2 0.750000 0.750000 0.500000
O O3 0.594290 0.768695 0.448418
O O4 0.608376 0.770272 0.328295
O O5 0.793902 0.721126 0.153622
O O6 0.720735 0.000000 0.061071
O O7 0.750000 0.750000 0.000000
O O8 0.628067 0.729547 0.004886
O O9 0.500000 0.230806 0.500000
O O10 0.510350 0.500000 0.430961
O O11 0.432065 0.224562 0.333419
O O12 0.051914 0.789702 0.779385
O O13 0.133384 0.000000 0.758121
O O14 0.969056 0.500000 0.049064
O O15 0.020394 0.764942 0.150779
O O16 0.000000 0.772530 0.000000
O O17 0.496078 0.000000 0.784291
#
# Coordination Sequence:
#
# PCOD9173113 Si02
#       6
#     8   8   8   8   8   8
#     4  10  20  35  55  78 103 132 169 209 249 299
#     4  10  18  30  50  74  98 129 168 209 250 294
#     4   8  15  30  50  74 100 125 160 207 251 292
#     4   9  17  29  49  75  99 129 165 207 254 299
#     4   9  18  32  48  73 105 133 168 214 255 293
#     4  10  18  31  53  76  99 133 170 207 255 301
#
# _framework density 19.462904999999999
#
# number of rings (size 3 to 8) (size 9 to 14) (size 15 to 20)
#    0.000    2.667    1.667    2.000    0.000    0.000 
#    3.000    0.000    0.000   17.000    0.000    0.000 
#    0.000    0.000    0.000    0.000    0.000    0.000 
#
# Total GULP energy -133811.499941 kJ/mol
# GULP energy per Si atom -5575.479164 kJ/mol
# Density = 1.941861 g / cm^3
# Si number density = 19.462905 Si / 1000 Ang^3
#
#
#
# Elastic Constant Matrix: (Units=GPa)
#
#
# Indices 1 2 3 4 5 6 
#
# 1 132.6794 -1.4409 112.5654 0.0000 -11.1937 0.0000
# 2 -1.4409 33.8228 0.3937 0.0000 -1.6434 0.0000
# 3 112.5654 0.3937 196.6325 0.0000 -10.7835 0.0000
# 4 0.0000 0.0000 0.0000 14.9605 0.0000 -2.7467
# 5 -11.1937 -1.6434 -10.7835 0.0000 38.3781 0.0000
# 6 0.0000 0.0000 0.0000 -2.7467 0.0000 14.0061
#
#
#
# Elastic Compliance Matrix: (Units=1/GPa)
#
#
# Indices 1 2 3 4 5 6 
#
# 1 0.014822 0.000826 -0.008377 0.000000 0.002005 0.000000
# 2 0.000826 0.029674 -0.000457 0.000000 0.001383 0.000000
# 3 -0.008377 -0.000457 0.009899 0.000000 0.000319 0.000000
# 4 0.000000 0.000000 0.000000 0.069339 0.000000 0.013598
# 5 0.002005 0.001383 0.000319 0.000000 0.026790 0.000000
# 6 0.000000 0.000000 0.000000 0.013598 0.000000 0.074064
#
#
# Mechanical properties :
#
#
# Convention : Reuss Voigt Hill
#
# Bulk Modulus (GPa) = 26.05461 65.13013 45.59237
# Shear Modulus (GPa) = 19.73194 30.24337 24.98765
#
# Velocity S-wave (km/s) = 3.18751 3.94623 3.58699
# Velocity P-wave (km/s) = 5.19258 7.36885 6.37428
#
# Compressibility (1/GPa) = 0.03838092
#
# Stress axis : x y z
#
# Youngs Moduli (GPa) = 67.46756 33.70001 101.01584
#
# Poissons Ratio (x) = -0.02785 0.84619
# Poissons Ratio (y) = -0.05575 0.04612
# Poissons Ratio (z) = 0.56516 0.01539
#
# Static dielectric constant tensor:
#      x y z
#    x 1.691420 0.000000 0.058500 
#    y 0.000000 1.745070 0.000000 
#    z 0.058500 0.000000 1.771070 
# 
# From -- ./inp_files/280547.got.cif
#   From: 2010.05.17/outbox.cif.g08.bks.cpg/sg12_141_cif.got.tgz:280547.got - 2010.06.03 13:09:07.
