data_PCOD9173697
_publ_section_title
;
Structure prediction by ZEFSAII (Michael W. Deem and Ramdas Pophale) SiO2 
 PCOD9173697
Probable space group: C 2/M
;
_chemical_formula_sum "Si O2"
_cell_formula_units_Z 56
_cell_length_a 29.665473
_cell_length_b 8.357289
_cell_length_c 19.934133
_cell_angle_alpha 90.000000
_cell_angle_beta 41.870355
_cell_angle_gamma 90.000000
_cell_volume 3298.610729
_symmetry_space_group_name_H-M "C 2/M"
_symmetry_group_IT_number 12
_symmetry_cell_setting 'monoclinic'
loop_
_space_group_symop_operation_xyz
x,y,z
-x,y,-z
-x,-y,-z
x,-y,z
1/2+x,1/2+y,z
1/2-x,1/2+y,-z
1/2-x,1/2-y,-z
1/2+x,1/2-y,z
loop_
_atom_site_type_symbol
_atom_site_label
_atom_site_fract_x
_atom_site_fract_y
_atom_site_fract_z
Si Si1 0.196485 0.806323 0.004151
Si Si2 0.108523 0.695214 0.384149
Si Si3 0.391202 0.192994 0.116589
Si Si4 0.956836 0.190624 0.800868
Si Si5 0.007605 0.307074 0.883768
Si Si6 0.997594 0.307020 0.611020
Si Si7 0.260202 0.307132 0.192904
O O1 0.218337 0.751869 0.905494
O O2 0.196130 0.000000 0.004356
O O3 0.250000 0.750000 0.000000
O O4 0.120595 0.749295 0.104986
O O5 0.109249 0.500000 0.383666
O O6 0.065163 0.743165 0.366832
O O7 0.185334 0.751082 0.294455
O O8 0.065440 0.745475 0.496922
O O9 0.426573 0.244263 0.146867
O O10 0.317563 0.256155 0.181424
O O11 0.389722 0.000000 0.117869
O O12 0.442565 0.243983 0.000152
O O13 0.999181 0.245536 0.818345
O O14 0.987813 0.247155 0.696650
O O15 0.954023 0.000000 0.804062
O O16 0.007459 0.500000 0.882818
O O17 0.997799 0.500000 0.611799
O O18 0.258272 0.500000 0.193131
#
# Coordination Sequence:
#
# PCOD9173697 Si02
#       7
#     8   8   8   8   8   8   8
#     4  10  21  32  44  68 101 132 160 191 235 289
#     4   8  16  31  53  75  94 125 174 209 233 283
#     4   9  18  32  50  73  97 125 165 203 238 289
#     4  11  21  32  47  74 104 128 159 201 247 293
#     4   9  18  33  51  70  96 130 166 200 235 289
#     4   9  17  33  54  72  93 131 173 206 237 280
#     4  10  18  31  49  72 101 129 157 199 248 291
#
# _framework density 16.976842999999999
#
# number of rings (size 3 to 8) (size 9 to 14) (size 15 to 20)
#    0.000    2.571    1.429    3.000    0.000    3.429 
#    0.000    4.286    0.000    0.857    0.000    0.000 
#    0.000    0.000    0.000    0.000    0.000    0.000 
#
# Total GULP energy -156145.196946 kJ/mol
# GULP energy per Si atom -5576.614177 kJ/mol
# Density = 1.693820 g / cm^3
# Si number density = 16.976843 Si / 1000 Ang^3
#
#
#
# Elastic Constant Matrix: (Units=GPa)
#
#
# Indices 1 2 3 4 5 6 
#
# 1 155.6498 16.5862 100.9204 0.0087 8.9198 0.0021
# 2 16.5862 6.7265 19.8250 -0.0014 1.9626 -0.0060
# 3 100.9204 19.8250 133.9560 -0.0061 9.9467 0.0084
# 4 0.0087 -0.0014 -0.0061 14.1402 0.0011 -2.6412
# 5 8.9198 1.9626 9.9467 0.0011 25.1140 -0.0085
# 6 0.0021 -0.0060 0.0084 -2.6412 -0.0085 24.5653
#
#
#
# Elastic Compliance Matrix: (Units=1/GPa)
#
#
# Indices 1 2 3 4 5 6 
#
# 1 0.012684 -0.005438 -0.008704 -0.000012 -0.000633 -0.000001
# 2 -0.005438 0.266698 -0.034999 0.000030 -0.005049 0.000079
# 3 -0.008704 -0.034999 0.019338 0.000008 -0.001833 -0.000014
# 4 -0.000012 0.000030 0.000008 0.072170 -0.000002 0.007760
# 5 -0.000633 -0.005049 -0.001833 -0.000002 0.041164 0.000013
# 6 -0.000001 0.000079 -0.000014 0.007760 0.000013 0.041542
#
#
# Mechanical properties :
#
#
# Convention : Reuss Voigt Hill
#
# Bulk Modulus (GPa) = 4.98904 63.44394 34.21649
# Shear Modulus (GPa) = 8.08158 23.36396 15.72277
#
# Velocity S-wave (km/s) = 2.18419 3.71378 3.04654
# Velocity P-wave (km/s) = 3.05058 7.47272 5.70734
#
# Compressibility (1/GPa) = 0.20043951
#
# Stress axis : x y z
#
# Youngs Moduli (GPa) = 78.83927 3.74955 51.71032
#
# Poissons Ratio (x) = 0.02039 0.45010
# Poissons Ratio (y) = 0.42872 1.80979
# Poissons Ratio (z) = 0.68623 0.13123
#
# Static dielectric constant tensor:
#      x y z
#    x 1.561080 0.000000 -0.008840 
#    y 0.000000 1.590570 0.000000 
#    z -0.008840 0.000000 1.569330 
# 
# From -- ./inp_files/288167.got.cif
#   From: 2010.05.17/outbox.cif.g08.bks.cpg/sg12_145_cif.got.tgz:288167.got - 2010.06.03 13:09:07.
