data_PCOD9173699
_publ_section_title
;
Structure prediction by ZEFSAII (Michael W. Deem and Ramdas Pophale) SiO2 
 PCOD9173699
Probable space group: C 2/M
;
_chemical_formula_sum "Si O2"
_cell_formula_units_Z 64
_cell_length_a 25.246416
_cell_length_b 8.663184
_cell_length_c 24.511834
_cell_angle_alpha 90.000000
_cell_angle_beta 46.500243
_cell_angle_gamma 90.000000
_cell_volume 3888.812772
_symmetry_space_group_name_H-M "C 2/M"
_symmetry_group_IT_number 12
_symmetry_cell_setting 'monoclinic'
loop_
_space_group_symop_operation_xyz
x,y,z
-x,y,-z
-x,-y,-z
x,-y,z
1/2+x,1/2+y,z
1/2-x,1/2+y,-z
1/2-x,1/2-y,-z
1/2+x,1/2-y,z
loop_
_atom_site_type_symbol
_atom_site_label
_atom_site_fract_x
_atom_site_fract_y
_atom_site_fract_z
Si Si1 0.142626 0.315121 0.312891
Si Si2 0.691035 0.314433 0.998560
Si Si3 0.209388 0.814892 0.158404
Si Si4 0.582289 0.312831 0.163283
Si Si5 0.568578 0.685468 0.678805
Si Si6 0.474281 0.815132 0.408442
Si Si7 0.647958 0.685050 0.428840
Si Si8 0.774549 0.684734 0.424109
O O1 0.147176 0.500000 0.311620
O O2 0.194092 0.250828 0.228803
O O3 0.159561 0.245547 0.359804
O O4 0.058851 0.272809 0.357237
O O5 0.695214 0.500000 0.993707
O O6 0.717297 0.246012 0.922687
O O7 0.750000 0.250000 0.000000
O O8 0.614454 0.269095 0.081277
O O9 0.141001 0.764636 0.168015
O O10 0.210235 0.000000 0.158630
O O11 0.581652 0.500000 0.165159
O O12 0.501687 0.260610 0.236605
O O13 0.571691 0.500000 0.677358
O O14 0.555281 0.739774 0.626150
O O15 0.644926 0.752422 0.645024
O O16 0.424851 0.757248 0.493319
O O17 0.468885 0.000000 0.408001
O O18 0.641363 0.500000 0.433533
O O19 0.715108 0.728850 0.420799
O O20 0.776431 0.500000 0.426197
O O21 0.750000 0.750000 0.500000
#
# Coordination Sequence:
#
# PCOD9173699 Si02
#       8
#     8   8   8   8   8   8   8   8
#     4  11  23  36  52  77 106 137 173 216 259 306
#     4   9  16  28  45  70 102 137 172 208 249 303
#     4  10  18  31  49  72 104 140 172 207 251 308
#     4   8  16  29  47  72 103 135 169 207 249 302
#     4  11  20  33  54  78 103 138 175 211 258 308
#     4  11  22  35  52  76 105 135 171 215 259 305
#     4  11  24  39  55  73  98 137 178 216 260 311
#     4  11  23  38  55  76 100 132 174 220 265 307
#
# _framework density 16.457464999999999
#
# number of rings (size 3 to 8) (size 9 to 14) (size 15 to 20)
#    0.000    1.750    2.500    3.750    0.000    4.500 
#    0.000    1.875    0.000    0.000    0.000    0.875 
#    0.000    7.000    0.000    0.000    0.000    0.000 
#
# Total GULP energy -178593.748281 kJ/mol
# GULP energy per Si atom -5581.054634 kJ/mol
# Density = 1.642001 g / cm^3
# Si number density = 16.457465 Si / 1000 Ang^3
#
#
#
# Elastic Constant Matrix: (Units=GPa)
#
#
# Indices 1 2 3 4 5 6 
#
# 1 43.9786 20.2380 32.4796 0.0003 9.0782 0.0000
# 2 20.2380 41.3841 25.0077 0.0005 5.5418 0.0046
# 3 32.4796 25.0077 153.2337 0.0002 4.7285 -0.0002
# 4 0.0003 0.0005 0.0002 28.0966 0.0000 1.2300
# 5 9.0782 5.5418 4.7285 0.0000 20.2542 -0.0003
# 6 0.0000 0.0046 -0.0002 1.2300 -0.0003 21.8128
#
#
#
# Elastic Compliance Matrix: (Units=1/GPa)
#
#
# Indices 1 2 3 4 5 6 
#
# 1 0.034290 -0.012344 -0.004919 0.000000 -0.010843 0.000002
# 2 -0.012344 0.032090 -0.002539 0.000000 -0.002655 -0.000007
# 3 -0.004919 -0.002539 0.007951 0.000000 0.001043 0.000001
# 4 0.000000 0.000000 0.000000 0.035680 0.000000 -0.002012
# 5 -0.010843 -0.002655 0.001043 0.000000 0.054716 0.000001
# 6 0.000002 -0.000007 0.000001 -0.002012 0.000001 0.045958
#
#
# Mechanical properties :
#
#
# Convention : Reuss Voigt Hill
#
# Bulk Modulus (GPa) = 28.79599 43.78299 36.28949
# Shear Modulus (GPa) = 19.09390 24.75745 21.92568
#
# Velocity S-wave (km/s) = 3.40986 3.88278 3.65398
# Velocity P-wave (km/s) = 5.74788 6.83833 6.31668
#
# Compressibility (1/GPa) = 0.03472705
#
# Stress axis : x y z
#
# Youngs Moduli (GPa) = 29.16296 31.16221 125.77465
#
# Poissons Ratio (x) = 0.38468 0.61868
# Poissons Ratio (y) = 0.36000 0.31930
# Poissons Ratio (z) = 0.14345 0.07911
#
# Static dielectric constant tensor:
#      x y z
#    x 1.534470 0.000000 -0.006780 
#    y 0.000000 1.552390 0.000000 
#    z -0.006780 0.000000 1.576050 
# 
# From -- ./inp_files/320128.got.cif
#   From: 2010.05.17/outbox.cif.g08.bks.cpg/sg12_161_cif.got.tgz:320128.got - 2010.06.03 13:09:07.
