data_PCOD9173671
_publ_section_title
;
Structure prediction by ZEFSAII (Michael W. Deem and Ramdas Pophale) SiO2 
 PCOD9173671
Probable space group: C 2/M
;
_chemical_formula_sum "Si O2"
_cell_formula_units_Z 56
_cell_length_a 28.120806
_cell_length_b 7.323048
_cell_length_c 11.537896
_cell_angle_alpha 90.000000
_cell_angle_beta 89.192710
_cell_angle_gamma 90.000000
_cell_volume 2375.763220
_symmetry_space_group_name_H-M "C 2/M"
_symmetry_group_IT_number 12
_symmetry_cell_setting 'monoclinic'
loop_
_space_group_symop_operation_xyz
x,y,z
-x,y,-z
-x,-y,-z
x,-y,z
1/2+x,1/2+y,z
1/2-x,1/2+y,-z
1/2-x,1/2-y,-z
1/2+x,1/2-y,z
loop_
_atom_site_type_symbol
_atom_site_label
_atom_site_fract_x
_atom_site_fract_y
_atom_site_fract_z
Si Si1 0.124568 0.722778 0.555963
Si Si2 0.775790 0.719780 0.340871
Si Si3 0.023562 0.722334 0.122767
Si Si4 0.478954 0.222498 0.373414
Si Si5 0.206901 0.716914 0.915044
Si Si6 0.366968 0.776982 0.905759
Si Si7 0.830473 0.285767 0.667121
O O1 0.124168 0.500000 0.558465
O O2 0.174677 0.783128 0.607034
O O3 0.076466 0.778575 0.619833
O O4 0.129446 0.782725 0.422304
O O5 0.776532 0.500000 0.346613
O O6 0.778940 0.789542 0.209480
O O7 0.722601 0.768536 0.382644
O O8 0.020908 0.500000 0.124134
O O9 0.078777 0.775898 0.113390
O O10 0.001997 0.780682 0.249107
O O11 0.000000 0.778814 0.000000
O O12 0.500000 0.277404 0.500000
O O13 0.481912 0.000000 0.373004
O O14 0.201100 0.500000 0.899462
O O15 0.250000 0.750000 0.000000
O O16 0.158924 0.785730 0.976766
O O17 0.336411 0.712451 0.795952
O O18 0.365950 0.000000 0.909634
O O19 0.839330 0.500000 0.676842
#
# Coordination Sequence:
#
# PCOD9173671 Si02
#       7
#     8   8   8   8   8   8   8
#     4   9  18  29  44  65  92 125 155 189 237 280
#     4  10  20  31  45  68  98 125 155 194 234 275
#     4   9  17  26  40  63  91 122 154 190 235 284
#     4   9  16  27  42  61  88 122 158 191 228 283
#     4  10  19  31  47  67  95 127 157 191 230 276
#     4   9  17  28  43  63  90 124 156 185 227 278
#     4  10  18  31  49  67  93 128 159 188 227 281
#
# _framework density 23.571372
#
# number of rings (size 3 to 8) (size 9 to 14) (size 15 to 20)
#    0.000    2.571    1.429    1.286    2.000    3.429 
#    0.000    0.000    0.000    0.000    0.000    0.000 
#    0.000   14.857    0.000    0.000    0.000    0.000 
#
# Total GULP energy -156242.975299 kJ/mol
# GULP energy per Si atom -5580.106261 kJ/mol
# Density = 2.351772 g / cm^3
# Si number density = 23.571372 Si / 1000 Ang^3
#
#
#
# Elastic Constant Matrix: (Units=GPa)
#
#
# Indices 1 2 3 4 5 6 
#
# 1 153.2013 -12.6602 73.5971 0.0000 -32.8739 0.0000
# 2 -12.6602 90.7004 -2.1453 0.0000 -3.8937 0.0000
# 3 73.5971 -2.1453 122.1380 0.0000 -22.3942 0.0000
# 4 0.0000 0.0000 0.0000 -11.2859 0.0000 5.9367
# 5 -32.8739 -3.8937 -22.3942 0.0000 50.5587 0.0000
# 6 0.0000 0.0000 0.0000 5.9367 0.0000 4.5362
#
#
#
# Elastic Compliance Matrix: (Units=1/GPa)
#
#
# Indices 1 2 3 4 5 6 
#
# 1 0.010116 0.001474 -0.005271 0.000000 0.004356 0.000000
# 2 0.001474 0.011293 -0.000386 0.000000 0.001657 0.000000
# 3 -0.005271 -0.000386 0.011671 0.000000 0.001712 0.000000
# 4 0.000000 0.000000 0.000000 -0.052479 0.000000 0.068680
# 5 0.004356 0.001657 0.001712 0.000000 0.023498 0.000000
# 6 0.000000 0.000000 0.000000 0.068680 0.000000 0.130563
#
#
# Mechanical properties :
#
#
# Convention : Reuss Voigt Hill
#
# Bulk Modulus (GPa) = 40.46224 53.73589 47.09906
# Shear Modulus (GPa) = 33.05422 29.24503 31.14962
#
# Velocity S-wave (km/s) = 3.74880 3.52618 3.63919
# Velocity P-wave (km/s) = 5.99509 6.27895 6.13866
#
# Compressibility (1/GPa) = 0.02471440
#
# Stress axis : x y z
#
# Youngs Moduli (GPa) = 98.85110 88.54950 85.68346
#
# Poissons Ratio (x) = -0.13056 0.45165
# Poissons Ratio (y) = -0.14575 0.03309
# Poissons Ratio (z) = 0.52105 0.03420
#
# Static dielectric constant tensor:
#      x y z
#    x 1.837540 0.000000 0.011610 
#    y 0.000000 1.974530 0.000000 
#    z 0.011610 0.000000 1.907450 
# 
# From -- ./inp_files/173932.got.cif
#   From: 2010.05.17/outbox.cif.g08.bks.cpg/sg12_87_cif.got.tgz:173932.got - 2010.06.03 13:09:07.
