data_PCOD9173268
_publ_section_title
;
Structure prediction by ZEFSAII (Michael W. Deem and Ramdas Pophale) SiO2 
 PCOD9173268
Probable space group: C 2/M
;
_chemical_formula_sum "Si O2"
_cell_formula_units_Z 64
_cell_length_a 25.938038
_cell_length_b 7.468609
_cell_length_c 14.805420
_cell_angle_alpha 90.000000
_cell_angle_beta 88.829395
_cell_angle_gamma 90.000000
_cell_volume 2867.523128
_symmetry_space_group_name_H-M "C 2/M"
_symmetry_group_IT_number 12
_symmetry_cell_setting 'monoclinic'
loop_
_space_group_symop_operation_xyz
x,y,z
-x,y,-z
-x,-y,-z
x,-y,z
1/2+x,1/2+y,z
1/2-x,1/2+y,-z
1/2-x,1/2-y,-z
1/2+x,1/2-y,z
loop_
_atom_site_type_symbol
_atom_site_label
_atom_site_fract_x
_atom_site_fract_y
_atom_site_fract_z
Si Si1 0.093965 0.709521 0.226618
Si Si2 0.665934 0.715740 0.508008
Si Si3 0.198430 0.288162 0.312312
Si Si4 0.054135 0.710457 0.036983
Si Si5 0.016252 0.214139 0.722387
Si Si6 0.400022 0.716455 0.147149
Si Si7 0.445348 0.716748 0.468831
Si Si8 0.310616 0.280524 0.287631
O O1 0.104415 0.500000 0.211241
O O2 0.145218 0.786036 0.271935
O O3 0.075630 0.787053 0.130458
O O4 0.041902 0.721756 0.287595
O O5 0.665951 0.500000 0.511344
O O6 0.699907 0.766301 0.420964
O O7 0.607827 0.780718 0.487995
O O8 0.678197 0.776535 0.609203
O O9 0.198053 0.500000 0.296652
O O10 0.252192 0.220870 0.269704
O O11 0.044710 0.500000 0.053604
O O12 0.096551 0.728679 0.956689
O O13 0.000000 0.787314 0.000000
O O14 0.046310 0.280333 0.809050
O O15 0.053331 0.254980 0.637527
O O16 0.012411 0.000000 0.726577
O O17 0.400112 0.500000 0.150121
O O18 0.352598 0.776613 0.211791
O O19 0.500000 0.786101 0.500000
O O20 0.446065 0.500000 0.480769
O O21 0.312339 0.500000 0.288228
#
# Coordination Sequence:
#
# PCOD9173268 Si02
#       8
#     8   8   8   8   8   8   8   8
#     4  10  21  36  52  73 104 140 172 206 256 313
#     4  10  18  32  54  77 103 135 174 213 249 298
#     4  10  21  36  53  74 104 140 175 211 253 300
#     4  10  20  35  54  75 103 138 171 205 255 314
#     4  10  18  30  51  77 102 130 167 211 256 303
#     4  10  19  33  55  81 103 127 168 216 258 300
#     4   9  16  26  43  70 102 133 162 198 248 299
#     4   9  18  35  56  77 104 138 173 210 253 302
#
# _framework density 22.318915000000001
#
# number of rings (size 3 to 8) (size 9 to 14) (size 15 to 20)
#    0.000    2.250    2.500    1.125    0.000    2.250 
#    0.000    2.500    0.000    2.250    0.000    0.000 
#    0.000    0.000    0.000    0.000    0.000    0.000 
#
# Total GULP energy -178606.992648 kJ/mol
# GULP energy per Si atom -5581.468520 kJ/mol
# Density = 2.226812 g / cm^3
# Si number density = 22.318915 Si / 1000 Ang^3
#
#
#
# Elastic Constant Matrix: (Units=GPa)
#
#
# Indices 1 2 3 4 5 6 
#
# 1 136.8535 1.1287 44.6132 0.0000 -18.3706 0.0000
# 2 1.1287 62.7050 1.6256 0.0000 5.0061 0.0000
# 3 44.6132 1.6256 75.5126 0.0000 -15.2897 0.0000
# 4 0.0000 0.0000 0.0000 5.6681 0.0000 -9.6700
# 5 -18.3706 5.0061 -15.2897 0.0000 28.5700 0.0000
# 6 0.0000 0.0000 0.0000 -9.6700 0.0000 3.8392
#
#
#
# Elastic Compliance Matrix: (Units=1/GPa)
#
#
# Indices 1 2 3 4 5 6 
#
# 1 0.009346 -0.000322 -0.004807 0.000000 0.003493 0.000000
# 2 -0.000322 0.016257 -0.000873 0.000000 -0.003523 0.000000
# 3 -0.004807 -0.000873 0.017391 0.000000 0.006369 0.000000
# 4 0.000000 0.000000 0.000000 -0.053511 0.000000 -0.134779
# 5 0.003493 -0.003523 0.006369 0.000000 0.041274 0.000000
# 6 0.000000 0.000000 0.000000 -0.134779 0.000000 -0.079001
#
#
# Mechanical properties :
#
#
# Convention : Reuss Voigt Hill
#
# Bulk Modulus (GPa) = 32.26912 41.08958 36.67935
# Shear Modulus (GPa) = -192.98891 22.79570 -85.09661
#
# Velocity S-wave (km/s) = -9.30895 3.19934 -6.18145
# Velocity P-wave (km/s) = 10.05248 5.66550 5.87173
#
# Compressibility (1/GPa) = 0.03098938
#
# Stress axis : x y z
#
# Youngs Moduli (GPa) = 106.99999 61.51050 57.49967
#
# Poissons Ratio (x) = 0.01984 0.27642
# Poissons Ratio (y) = 0.03450 0.05019
# Poissons Ratio (z) = 0.51438 0.05369
#
# Static dielectric constant tensor:
#      x y z
#    x 1.847290 0.000000 0.028530 
#    y 0.000000 1.855460 0.000000 
#    z 0.028530 0.000000 1.829540 
# 
# From -- ./inp_files/243938.got.cif
#   From: 2010.05.17/outbox.cif.g08.bks.cpg/sg12_122_cif.got.tgz:243938.got - 2010.06.03 13:09:07.
