data_PCOD9173888
_publ_section_title
;
Structure prediction by ZEFSAII (Michael W. Deem and Ramdas Pophale) SiO2 
 PCOD9173888
Probable space group: C 2/M
;
_chemical_formula_sum "Si O2"
_cell_formula_units_Z 64
_cell_length_a 22.522380
_cell_length_b 7.532946
_cell_length_c 19.683588
_cell_angle_alpha 90.000000
_cell_angle_beta 50.596110
_cell_angle_gamma 90.000000
_cell_volume 2580.411462
_symmetry_space_group_name_H-M "C 2/M"
_symmetry_group_IT_number 12
_symmetry_cell_setting 'monoclinic'
loop_
_space_group_symop_operation_xyz
x,y,z
-x,y,-z
-x,-y,-z
x,-y,z
1/2+x,1/2+y,z
1/2-x,1/2+y,-z
1/2-x,1/2-y,-z
1/2+x,1/2-y,z
loop_
_atom_site_type_symbol
_atom_site_label
_atom_site_fract_x
_atom_site_fract_y
_atom_site_fract_z
Si Si1 0.817130 0.294422 0.053427
Si Si2 0.961290 0.208681 0.869941
Si Si3 0.215861 0.788039 0.596785
Si Si4 0.254329 0.795658 0.702922
Si Si5 0.410010 0.704596 0.121930
Si Si6 0.511997 0.716620 0.412927
Si Si7 0.448239 0.283279 0.323051
Si Si8 0.834951 0.802310 0.774355
O O1 0.802821 0.500000 0.051704
O O2 0.871918 0.279251 0.080761
O O3 0.731531 0.216012 0.129676
O O4 0.872380 0.227352 0.953836
O O5 0.017291 0.282072 0.889754
O O6 0.984029 0.273534 0.778131
O O7 0.979665 0.000000 0.856740
O O8 0.250000 0.750000 0.500000
O O9 0.269981 0.720571 0.617637
O O10 0.129364 0.719892 0.655820
O O11 0.212478 0.000000 0.610510
O O12 0.162076 0.795786 0.774954
O O13 0.286183 0.683501 0.740532
O O14 0.280363 0.000000 0.693609
O O15 0.427202 0.500000 0.091720
O O16 0.500000 0.777193 0.500000
O O17 0.516916 0.500000 0.413336
O O18 0.449689 0.769085 0.401243
O O19 0.587842 0.776584 0.314955
O O20 0.448322 0.500000 0.324677
O O21 0.855344 0.000000 0.786159
#
# Coordination Sequence:
#
# PCOD9173888 Si02
#       8
#     8   8   8   8   8   8   8   8
#     4  10  20  31  45  72 109 140 166 205 259 310
#     4  10  18  31  51  73  99 135 177 215 253 299
#     4  10  20  33  51  77 107 137 168 209 263 316
#     4   9  17  31  50  73 103 137 169 206 255 308
#     4   9  16  29  48  70  98 135 176 210 242 294
#     4   9  18  33  56  82 101 127 173 224 264 300
#     4   9  18  34  54  77 105 135 175 224 261 297
#     4   9  19  34  52  77 106 134 171 216 260 303
#
# _framework density 24.802244999999999
#
# number of rings (size 3 to 8) (size 9 to 14) (size 15 to 20)
#    0.000    2.625    1.250    0.750    1.750    3.000 
#    0.000    1.250    0.000    1.875    0.000    0.000 
#    0.000    0.000    0.000    0.000    0.000    0.000 
#
# Total GULP energy -178286.060963 kJ/mol
# GULP energy per Si atom -5571.439405 kJ/mol
# Density = 2.474579 g / cm^3
# Si number density = 24.802245 Si / 1000 Ang^3
#
#
#
# Elastic Constant Matrix: (Units=GPa)
#
#
# Indices 1 2 3 4 5 6 
#
# 1 41.7635 -2.1106 9.8779 -0.0027 1.7882 -0.0002
# 2 -2.1106 60.4683 -8.7158 0.0169 -0.2070 0.0029
# 3 9.8779 -8.7158 106.7428 -0.0084 4.4397 -0.0040
# 4 -0.0027 0.0169 -0.0084 18.2282 -0.0091 4.4242
# 5 1.7882 -0.2070 4.4397 -0.0091 25.6922 -0.0037
# 6 -0.0002 0.0029 -0.0040 4.4242 -0.0037 4.0067
#
#
#
# Elastic Compliance Matrix: (Units=1/GPa)
#
#
# Indices 1 2 3 4 5 6 
#
# 1 0.024542 0.000539 -0.002172 0.000003 -0.001329 -0.000006
# 2 0.000539 0.016747 0.001323 -0.000017 -0.000131 0.000008
# 3 -0.002172 0.001323 0.009741 0.000001 -0.001521 0.000007
# 4 0.000003 -0.000017 0.000001 0.074946 0.000014 -0.082755
# 5 -0.001329 -0.000131 -0.001521 0.000014 0.039277 0.000019
# 6 -0.000006 0.000008 0.000007 -0.082755 0.000019 0.340959
#
#
# Mechanical properties :
#
#
# Convention : Reuss Voigt Hill
#
# Bulk Modulus (GPa) = 19.83745 23.00863 21.42304
# Shear Modulus (GPa) = 9.54866 23.58030 16.56448
#
# Velocity S-wave (km/s) = 1.96425 3.08674 2.58711
# Velocity P-wave (km/s) = 3.62767 4.69051 4.19291
#
# Compressibility (1/GPa) = 0.05040970
#
# Stress axis : x y z
#
# Youngs Moduli (GPa) = 40.74625 59.71342 102.66313
#
# Poissons Ratio (x) = -0.03219 0.22297
# Poissons Ratio (y) = -0.02196 -0.13582
# Poissons Ratio (z) = 0.08849 -0.07900
#
# Static dielectric constant tensor:
#      x y z
#    x 2.057740 0.000000 -0.026180 
#    y 0.000000 1.978660 0.000000 
#    z -0.026180 0.000000 2.048770 
# 
# From -- ./inp_files/324088.got.cif
#   From: 2010.05.17/outbox.cif.g08.bks.cpg/sg12_163_cif.got.tgz:324088.got - 2010.06.03 13:09:07.
