data_PCOD9173100
_publ_section_title
;
Structure prediction by ZEFSAII (Michael W. Deem and Ramdas Pophale) SiO2 
 PCOD9173100
Probable space group: C 2/M
;
_chemical_formula_sum "Si O2"
_cell_formula_units_Z 60
_cell_length_a 23.069314
_cell_length_b 9.462355
_cell_length_c 22.760067
_cell_angle_alpha 90.000000
_cell_angle_beta 43.163392
_cell_angle_gamma 90.000000
_cell_volume 3398.717856
_symmetry_space_group_name_H-M "C 2/M"
_symmetry_group_IT_number 12
_symmetry_cell_setting 'monoclinic'
loop_
_space_group_symop_operation_xyz
x,y,z
-x,y,-z
-x,-y,-z
x,-y,z
1/2+x,1/2+y,z
1/2-x,1/2+y,-z
1/2-x,1/2-y,-z
1/2+x,1/2-y,z
loop_
_atom_site_type_symbol
_atom_site_label
_atom_site_fract_x
_atom_site_fract_y
_atom_site_fract_z
Si Si1 0.000000 0.288862 0.000000
Si Si2 0.531810 0.669434 0.227574
Si Si3 0.194354 0.341823 0.859171
Si Si4 0.225787 0.832435 0.426458
Si Si5 0.270330 0.333252 0.925589
Si Si6 0.116394 0.667473 0.602154
Si Si7 0.479402 0.660306 0.140789
Si Si8 0.277164 0.664329 0.275472
O O1 0.906942 0.355416 0.074259
O O2 0.007802 0.210789 0.056344
O O3 0.511007 0.500000 0.246258
O O4 0.631358 0.685369 0.164577
O O5 0.470212 0.756351 0.315331
O O6 0.514275 0.727842 0.174427
O O7 0.231216 0.500000 0.825203
O O8 0.215013 0.291610 0.909766
O O9 0.228833 0.237098 0.783843
O O10 0.158554 0.749729 0.516517
O O11 0.315755 0.818325 0.394429
O O12 0.232705 0.757018 0.358438
O O13 0.207633 0.000000 0.435407
O O14 0.255976 0.500000 0.947082
O O15 0.250000 0.250000 0.000000
O O16 0.106419 0.500000 0.597997
O O17 0.508579 0.500000 0.123365
O O18 0.377552 0.666012 0.216748
O O19 0.250399 0.500000 0.295085
#
# Coordination Sequence:
#
# PCOD9173100 Si02
#       8
#     4   8   8   8   8   8   8   8
#     4  10  18  30  50  74 101 138 173 220 267 320
#     4  10  19  34  53  75 105 144 182 224 271 319
#     4  10  21  36  51  75 106 140 180 223 273 325
#     4  10  19  32  52  80 114 147 175 214 267 323
#     4  10  22  38  57  78 106 144 187 231 273 320
#     4  10  20  32  51  81 112 145 179 218 264 320
#     4   9  17  28  46  72 102 132 171 216 264 315
#     4  10  19  32  52  77 106 141 176 217 264 319
#
# _framework density 17.653715999999999
#
# number of rings (size 3 to 8) (size 9 to 14) (size 15 to 20)
#    0.000    2.133    1.333    2.400    0.000    2.667 
#    0.000    0.667    0.000    0.800    0.000    5.600 
#    0.000    0.000    0.000    0.000    0.000    0.000 
#
# Total GULP energy -167134.718581 kJ/mol
# GULP energy per Si atom -5571.157286 kJ/mol
# Density = 1.761354 g / cm^3
# Si number density = 17.653716 Si / 1000 Ang^3
#
#
#
# Elastic Constant Matrix: (Units=GPa)
#
#
# Indices 1 2 3 4 5 6 
#
# 1 82.1989 41.4781 37.6336 0.0000 18.4478 0.0000
# 2 41.4781 113.7977 75.7749 0.0001 19.5590 0.0000
# 3 37.6336 75.7749 117.5882 0.0000 21.6390 0.0000
# 4 0.0000 0.0001 0.0000 48.1486 0.0000 5.6259
# 5 18.4478 19.5590 21.6390 0.0000 27.0913 0.0000
# 6 0.0000 0.0000 0.0000 5.6259 0.0000 20.7995
#
#
#
# Elastic Compliance Matrix: (Units=1/GPa)
#
#
# Indices 1 2 3 4 5 6 
#
# 1 0.016357 -0.003710 -0.001509 0.000000 -0.007254 0.000000
# 2 -0.003710 0.016564 -0.009086 0.000000 -0.002175 0.000000
# 3 -0.001509 -0.009086 0.015763 0.000000 -0.005003 0.000000
# 4 0.000000 0.000000 0.000000 0.021447 0.000000 -0.005801
# 5 -0.007254 -0.002175 -0.005003 0.000000 0.047418 0.000000
# 6 0.000000 0.000000 0.000000 -0.005801 0.000000 0.049647
#
#
# Mechanical properties :
#
#
# Convention : Reuss Voigt Hill
#
# Bulk Modulus (GPa) = 49.81911 69.26200 59.54055
# Shear Modulus (GPa) = 24.69158 29.78776 27.23967
#
# Velocity S-wave (km/s) = 3.74393 4.11218 3.93236
# Velocity P-wave (km/s) = 6.85352 7.86546 7.37686
#
# Compressibility (1/GPa) = 0.02007262
#
# Stress axis : x y z
#
# Youngs Moduli (GPa) = 61.13688 60.37196 63.43859
#
# Poissons Ratio (x) = 0.22399 0.09574
# Poissons Ratio (y) = 0.22683 0.57643
# Poissons Ratio (z) = 0.09226 0.54856
#
# Static dielectric constant tensor:
#      x y z
#    x 1.592200 0.000000 0.009070 
#    y 0.000000 1.613490 0.000000 
#    z 0.009070 0.000000 1.601380 
# 
# From -- ./inp_files/348831.got.cif
#   From: 2010.05.17/outbox.cif.g08.bks.cpg/sg12_175_cif.got.tgz:348831.got - 2010.06.03 13:09:07.
