data_PCOD9173546
_publ_section_title
;
Structure prediction by ZEFSAII (Michael W. Deem and Ramdas Pophale) SiO2 
 PCOD9173546
Probable space group: C 2/M
;
_chemical_formula_sum "Si O2"
_cell_formula_units_Z 64
_cell_length_a 23.653277
_cell_length_b 19.247798
_cell_length_c 14.550478
_cell_angle_alpha 90.000000
_cell_angle_beta 29.885902
_cell_angle_gamma 90.000000
_cell_volume 3300.792487
_symmetry_space_group_name_H-M "C 2/M"
_symmetry_group_IT_number 12
_symmetry_cell_setting 'monoclinic'
loop_
_space_group_symop_operation_xyz
x,y,z
-x,y,-z
-x,-y,-z
x,-y,z
1/2+x,1/2+y,z
1/2-x,1/2+y,-z
1/2-x,1/2-y,-z
1/2+x,1/2-y,z
loop_
_atom_site_type_symbol
_atom_site_label
_atom_site_fract_x
_atom_site_fract_y
_atom_site_fract_z
Si Si1 0.736604 0.416496 0.750858
Si Si2 0.462632 0.920214 0.920374
Si Si3 0.864653 0.422905 0.864767
Si Si4 0.215813 0.416106 0.518565
Si Si5 0.624985 0.580665 0.097114
Si Si6 0.952240 0.679866 0.466948
Si Si7 0.449540 0.336750 0.467463
Si Si8 0.756083 0.415960 0.317843
O O1 0.757667 0.500000 0.725836
O O2 0.720549 0.397000 0.665747
O O3 0.847028 0.372089 0.619797
O O4 0.646728 0.402484 0.958815
O O5 0.372069 0.922943 0.964311
O O6 0.583182 0.891677 0.712989
O O7 0.490392 0.000000 0.905851
O O8 0.384771 0.892069 0.112418
O O9 0.909343 0.500000 0.773112
O O10 0.947199 0.360617 0.724059
O O11 0.744586 0.414867 0.983889
O O12 0.212426 0.500000 0.520225
O O13 0.270410 0.396954 0.538908
O O14 0.587193 0.500000 0.155911
O O15 0.538401 0.629705 0.271467
O O16 0.925480 0.757258 0.471577
O O17 0.000000 0.691274 0.500000
O O18 0.500000 0.340960 0.500000
O O19 0.334871 0.380557 0.619404
O O20 0.752344 0.500000 0.315059
#
# Coordination Sequence:
#
# PCOD9173546 Si02
#       8
#     8   8   8   8   8   8   8   8
#     4  10  19  35  59  87 114 141 183 237 288 333
#     4   9  16  28  52  86 115 137 172 227 285 332
#     4  10  18  30  55  87 111 140 183 229 284 336
#     4   9  17  31  56  88 114 137 178 240 292 326
#     4  10  21  36  58  84 112 150 193 235 275 328
#     4  11  21  35  53  82 117 149 181 224 289 339
#     4  11  25  41  53  78 115 156 195 227 273 337
#     4  10  20  36  57  80 111 151 192 231 273 329
#
# _framework density 19.389282999999999
#
# number of rings (size 3 to 8) (size 9 to 14) (size 15 to 20)
#    0.000    2.000    2.500    1.875    0.000    4.500 
#    2.250    1.250    0.000    3.000    0.000    0.000 
#    0.000    0.000    0.000    0.000    0.000    0.000 
#
# Total GULP energy -178177.976638 kJ/mol
# GULP energy per Si atom -5568.061770 kJ/mol
# Density = 1.934515 g / cm^3
# Si number density = 19.389283 Si / 1000 Ang^3
#
#
#
# Elastic Constant Matrix: (Units=GPa)
#
#
# Indices 1 2 3 4 5 6 
#
# 1 68.0893 11.6757 19.2386 -0.0001 11.4907 0.0000
# 2 11.6757 56.9359 39.9953 -0.0001 2.5627 0.0000
# 3 19.2386 39.9953 84.0724 -0.0002 20.1608 0.0001
# 4 -0.0001 -0.0001 -0.0002 20.1665 0.0001 3.6809
# 5 11.4907 2.5627 20.1608 0.0001 29.9155 0.0000
# 6 0.0000 0.0000 0.0001 3.6809 0.0000 19.5897
#
#
#
# Elastic Compliance Matrix: (Units=1/GPa)
#
#
# Indices 1 2 3 4 5 6 
#
# 1 0.016327 -0.002022 -0.001565 0.000000 -0.005043 0.000000
# 2 -0.002022 0.028075 -0.014913 0.000000 0.008422 0.000000
# 3 -0.001565 -0.014913 0.022539 0.000000 -0.013311 0.000000
# 4 0.000000 0.000000 0.000000 0.051348 0.000000 -0.009648
# 5 -0.005043 0.008422 -0.013311 0.000000 0.043614 0.000000
# 6 0.000000 0.000000 0.000000 -0.009648 0.000000 0.052860
#
#
# Mechanical properties :
#
#
# Convention : Reuss Voigt Hill
#
# Bulk Modulus (GPa) = 33.39841 38.99077 36.19459
# Shear Modulus (GPa) = 19.10278 23.14687 21.12483
#
# Velocity S-wave (km/s) = 3.14223 3.45889 3.30435
# Velocity P-wave (km/s) = 5.51611 6.00874 5.76768
#
# Compressibility (1/GPa) = 0.02994155
#
# Stress axis : x y z
#
# Youngs Moduli (GPa) = 61.24997 35.61913 44.36753
#
# Poissons Ratio (x) = 0.07201 0.06943
# Poissons Ratio (y) = 0.12383 0.66164
# Poissons Ratio (z) = 0.09585 0.53118
#
# Static dielectric constant tensor:
#      x y z
#    x 1.711240 0.000000 0.013270 
#    y 0.000000 1.663050 0.000000 
#    z 0.013270 0.000000 1.683540 
# 
# From -- ./inp_files/241462.got.cif
#   From: 2010.05.17/outbox.cif.g08.bks.cpg/sg12_121_cif.got.tgz:241462.got - 2010.06.03 13:09:07.
