data_PCOD9173549
_publ_section_title
;
Structure prediction by ZEFSAII (Michael W. Deem and Ramdas Pophale) SiO2 
 PCOD9173549
Probable space group: C 2/M
;
_chemical_formula_sum "Si O2"
_cell_formula_units_Z 48
_cell_length_a 20.291233
_cell_length_b 21.302701
_cell_length_c 9.279210
_cell_angle_alpha 90.000000
_cell_angle_beta 42.440022
_cell_angle_gamma 90.000000
_cell_volume 2706.704225
_symmetry_space_group_name_H-M "C 2/M"
_symmetry_group_IT_number 12
_symmetry_cell_setting 'monoclinic'
loop_
_space_group_symop_operation_xyz
x,y,z
-x,y,-z
-x,-y,-z
x,-y,z
1/2+x,1/2+y,z
1/2-x,1/2+y,-z
1/2-x,1/2-y,-z
1/2+x,1/2-y,z
loop_
_atom_site_type_symbol
_atom_site_label
_atom_site_fract_x
_atom_site_fract_y
_atom_site_fract_z
Si Si1 0.982076 0.810547 0.360015
Si Si2 0.524856 0.068350 0.787614
Si Si3 0.439264 0.196668 0.946971
Si Si4 0.944699 0.928069 0.935590
Si Si5 0.730376 0.306413 0.419126
Si Si6 0.257448 0.571022 0.410226
O O1 0.869102 0.796828 0.506058
O O2 0.000000 0.809889 0.500000
O O3 0.041219 0.756300 0.182543
O O4 0.015187 0.876671 0.237965
O O5 0.475590 0.132164 0.815194
O O6 0.641005 0.073286 0.574558
O O7 0.491871 0.000000 0.784798
O O8 0.500000 0.067754 0.000000
O O9 0.500000 0.204596 0.000000
O O10 0.326415 0.190296 0.167519
O O11 0.961152 0.000000 0.862289
O O12 0.829554 0.920173 0.158289
O O13 0.000000 0.919724 0.000000
O O14 0.750000 0.250000 0.500000
O O15 0.720191 0.372497 0.518276
O O16 0.278984 0.500000 0.430644
#
# Coordination Sequence:
#
# PCOD9173549 Si02
#       6
#     8   8   8   8   8   8
#     4  12  26  40  56  84 122 158 193 242 298 346
#     4   9  16  29  53  90 119 137 177 241 295 334
#     4  11  20  36  60  86 111 152 194 241 285 344
#     4  10  20  36  60  86 112 151 200 243 283 340
#     4  12  21  35  60  85 111 151 198 240 285 344
#     4  10  18  30  55  90 117 141 187 242 289 337
#
# _framework density 17.733744000000002
#
# number of rings (size 3 to 8) (size 9 to 14) (size 15 to 20)
#    0.000    1.333    6.667    1.500    0.000    1.000 
#    0.000    0.000    0.000    0.500    0.000    0.000 
#    0.000    0.000    0.000    0.000    0.000    0.000 
#
# Total GULP energy -133869.348561 kJ/mol
# GULP energy per Si atom -5577.889523 kJ/mol
# Density = 1.769338 g / cm^3
# Si number density = 17.733744 Si / 1000 Ang^3
#
#
#
# Elastic Constant Matrix: (Units=GPa)
#
#
# Indices 1 2 3 4 5 6 
#
# 1 72.0119 52.1091 50.7077 0.0000 -3.4156 0.0000
# 2 52.1091 140.5620 46.9474 0.0000 14.0226 0.0000
# 3 50.7077 46.9474 91.7383 0.0000 -18.4301 0.0000
# 4 0.0000 0.0000 0.0000 28.3448 0.0000 -13.3478
# 5 -3.4156 14.0226 -18.4301 0.0000 28.7599 0.0000
# 6 0.0000 0.0000 0.0000 -13.3478 0.0000 5.4667
#
#
#
# Elastic Compliance Matrix: (Units=1/GPa)
#
#
# Indices 1 2 3 4 5 6 
#
# 1 0.026316 -0.005515 -0.012115 0.000000 -0.001950 0.000000
# 2 -0.005515 0.011728 -0.004860 0.000000 -0.009488 0.000000
# 3 -0.012115 -0.004860 0.023267 0.000000 0.015841 0.000000
# 4 0.000000 0.000000 0.000000 -0.235524 0.000000 -0.575069
# 5 -0.001950 -0.009488 0.015841 0.000000 0.049316 0.000000
# 6 0.000000 0.000000 0.000000 -0.575069 0.000000 -1.221195
#
#
# Mechanical properties :
#
#
# Convention : Reuss Voigt Hill
#
# Bulk Modulus (GPa) = 61.23375 67.09342 64.16359
# Shear Modulus (GPa) = -3.85901 22.81747 9.47923
#
# Velocity S-wave (km/s) = -1.47676 3.59091 2.31450
# Velocity P-wave (km/s) = 5.62998 7.42353 6.58807
#
# Compressibility (1/GPa) = 0.01633086
#
# Stress axis : x y z
#
# Youngs Moduli (GPa) = 37.99988 85.26267 42.97980
#
# Poissons Ratio (x) = 0.47021 0.52072
# Poissons Ratio (y) = 0.20956 0.20888
# Poissons Ratio (z) = 0.46038 0.41437
#
# Static dielectric constant tensor:
#      x y z
#    x 1.589060 0.000000 -0.031370 
#    y 0.000000 1.636970 0.000000 
#    z -0.031370 0.000000 1.609950 
# 
# From -- ./inp_files/77686.got.cif
#   From: 2010.05.17/outbox.cif.g08.bks.cpg/sg12_39_cif.got.tgz:77686.got - 2010.06.03 13:09:07.
