data_PCOD9173617
_publ_section_title
;
Structure prediction by ZEFSAII (Michael W. Deem and Ramdas Pophale) SiO2 
 PCOD9173617
Probable space group: C 2/M
;
_chemical_formula_sum "Si O2"
_cell_formula_units_Z 48
_cell_length_a 12.454884
_cell_length_b 13.980375
_cell_length_c 25.100516
_cell_angle_alpha 90.000000
_cell_angle_beta 31.535782
_cell_angle_gamma 90.000000
_cell_volume 2285.959567
_symmetry_space_group_name_H-M "C 2/M"
_symmetry_group_IT_number 12
_symmetry_cell_setting 'monoclinic'
loop_
_space_group_symop_operation_xyz
x,y,z
-x,y,-z
-x,-y,-z
x,-y,z
1/2+x,1/2+y,z
1/2-x,1/2+y,-z
1/2-x,1/2-y,-z
1/2+x,1/2-y,z
loop_
_atom_site_type_symbol
_atom_site_label
_atom_site_fract_x
_atom_site_fract_y
_atom_site_fract_z
Si Si1 0.736913 0.882910 0.886135
Si Si2 0.753989 0.113004 0.760406
Si Si3 0.143986 0.382628 0.204182
Si Si4 0.720447 0.836826 0.054840
Si Si5 0.448171 0.395319 0.159297
Si Si6 0.170033 0.883562 0.386680
O O1 0.797326 0.852313 0.801445
O O2 0.917962 0.851280 0.849650
O O3 0.732864 0.000000 0.891243
O O4 0.500000 0.854709 0.000000
O O5 0.508632 0.124489 0.857174
O O6 0.854216 0.152094 0.663987
O O7 0.799794 0.000000 0.742199
O O8 0.165523 0.500000 0.190785
O O9 0.242155 0.335696 0.109566
O O10 0.254065 0.349916 0.212174
O O11 0.902202 0.361443 0.306136
O O12 0.750000 0.750000 0.000000
O O13 0.893626 0.903631 0.956691
O O14 0.383315 0.500000 0.205813
O O15 0.000000 0.848865 0.500000
O O16 0.157272 0.000000 0.390515
#
# Coordination Sequence:
#
# PCOD9173617 Si02
#       6
#     8   8   8   8   8   8
#     4   9  15  25  44  64  86 124 167 194 219 278
#     4   9  16  29  47  67  94 128 165 196 234 288
#     4   9  18  32  50  70  97 130 165 199 242 293
#     4  11  20  29  41  67 100 131 158 194 238 283
#     4  10  18  31  48  65  92 133 169 195 234 290
#     4   8  14  26  48  75  96 116 153 209 255 284
#
# _framework density 20.997748000000001
#
# number of rings (size 3 to 8) (size 9 to 14) (size 15 to 20)
#    0.000    2.667    1.667    3.000    0.000    1.333 
#    6.000    0.000    0.000    1.000    0.000   11.667 
#    0.000    0.000    0.000    0.000    0.000   26.667 
#
# Total GULP energy -133740.765527 kJ/mol
# GULP energy per Si atom -5572.531897 kJ/mol
# Density = 2.094996 g / cm^3
# Si number density = 20.997748 Si / 1000 Ang^3
#
#
#
# Elastic Constant Matrix: (Units=GPa)
#
#
# Indices 1 2 3 4 5 6 
#
# 1 225.4494 17.1134 77.6239 -0.0009 19.2140 0.0000
# 2 17.1134 62.3713 9.9288 -0.0017 -1.1539 0.0003
# 3 77.6239 9.9288 123.5655 -0.0022 24.5260 0.0010
# 4 -0.0009 -0.0017 -0.0022 4.6120 0.0018 7.4643
# 5 19.2140 -1.1539 24.5260 0.0018 24.7795 -0.0003
# 6 0.0000 0.0003 0.0010 7.4643 -0.0003 13.4439
#
#
#
# Elastic Compliance Matrix: (Units=1/GPa)
#
#
# Indices 1 2 3 4 5 6 
#
# 1 0.005754 -0.001081 -0.003276 -0.000007 -0.001270 0.000004
# 2 -0.001081 0.016574 -0.001210 0.000047 0.002808 -0.000026
# 3 -0.003276 -0.001210 0.012140 0.000099 -0.009532 -0.000056
# 4 -0.000007 0.000047 0.000099 2.138049 -0.000254 -1.187080
# 5 -0.001270 0.002808 -0.009532 -0.000254 0.050906 0.000143
# 6 0.000004 -0.000026 -0.000056 -1.187080 0.000143 0.733469
#
#
# Mechanical properties :
#
#
# Convention : Reuss Voigt Hill
#
# Bulk Modulus (GPa) = 42.85463 68.96871 55.91167
# Shear Modulus (GPa) = 1.68022 29.01510 15.34766
#
# Velocity S-wave (km/s) = 0.89550 3.72132 2.70648
# Velocity P-wave (km/s) = 4.63926 7.16808 6.03755
#
# Compressibility (1/GPa) = 0.02333470
#
# Stress axis : x y z
#
# Youngs Moduli (GPa) = 173.80305 60.33503 82.37353
#
# Poissons Ratio (x) = 0.06521 0.26982
# Poissons Ratio (y) = 0.18783 0.09968
# Poissons Ratio (z) = 0.56931 0.07301
#
# Static dielectric constant tensor:
#      x y z
#    x 1.810300 0.000000 0.005320 
#    y 0.000000 1.784330 0.000000 
#    z 0.005320 0.000000 1.698050 
# 
# From -- ./inp_files/336396.got.cif
#   From: 2010.05.17/outbox.cif.g08.bks.cpg/sg12_169_cif.got.tgz:336396.got - 2010.06.03 13:09:07.
