data_PCOD9173783
_publ_section_title
;
Structure prediction by ZEFSAII (Michael W. Deem and Ramdas Pophale) SiO2 
 PCOD9173783
Probable space group: C 2/M
;
_chemical_formula_sum "Si O2"
_cell_formula_units_Z 48
_cell_length_a 10.046585
_cell_length_b 17.477854
_cell_length_c 17.897821
_cell_angle_alpha 90.000000
_cell_angle_beta 39.869931
_cell_angle_gamma 90.000000
_cell_volume 2014.635846
_symmetry_space_group_name_H-M "C 2/M"
_symmetry_group_IT_number 12
_symmetry_cell_setting 'monoclinic'
loop_
_space_group_symop_operation_xyz
x,y,z
-x,y,-z
-x,-y,-z
x,-y,z
1/2+x,1/2+y,z
1/2-x,1/2+y,-z
1/2-x,1/2-y,-z
1/2+x,1/2-y,z
loop_
_atom_site_type_symbol
_atom_site_label
_atom_site_fract_x
_atom_site_fract_y
_atom_site_fract_z
Si Si1 0.513121 0.255450 0.630311
Si Si2 0.621362 0.413063 0.251943
Si Si3 0.175855 0.384629 0.367073
Si Si4 0.386759 0.201323 0.843505
Si Si5 0.849488 0.919767 0.142274
Si Si6 0.232127 0.367366 0.963194
O O1 0.750000 0.250000 0.500000
O O2 0.402290 0.338957 0.683701
O O3 0.375804 0.202561 0.634781
O O4 0.517780 0.220803 0.712797
O O5 0.641813 0.500000 0.273746
O O6 0.394371 0.403933 0.310550
O O7 0.784036 0.404401 0.112454
O O8 0.189087 0.420665 0.279966
O O9 0.000000 0.409448 0.500000
O O10 0.203713 0.153147 0.883597
O O11 0.315465 0.283235 0.904288
O O12 0.431965 0.150802 0.898938
O O13 0.076358 0.911184 0.080255
O O14 0.818914 0.000000 0.115004
#
# Coordination Sequence:
#
# PCOD9173783 Si02
#       6
#     8   8   8   8   8   8
#     4  10  19  34  48  74 106 141 172 211 255 310
#     4  10  20  33  54  81 105 132 171 220 264 301
#     4  10  18  31  50  73 101 140 172 208 250 312
#     4   9  19  31  47  71 101 137 167 203 253 310
#     4  10  20  31  49  79 106 129 165 217 265 299
#     4   9  17  32  49  70 101 132 169 204 251 311
#
# _framework density 23.825645999999999
#
# number of rings (size 3 to 8) (size 9 to 14) (size 15 to 20)
#    0.000    2.333    1.667    2.500    0.000    3.333 
#    0.000    0.000    0.000    0.500    0.000   29.167 
#    0.000  158.667    0.000    0.000    0.000    0.000 
#
# Total GULP energy -133640.825650 kJ/mol
# GULP energy per Si atom -5568.367735 kJ/mol
# Density = 2.377142 g / cm^3
# Si number density = 23.825646 Si / 1000 Ang^3
#
#
#
# Elastic Constant Matrix: (Units=GPa)
#
#
# Indices 1 2 3 4 5 6 
#
# 1 51.4809 20.0049 11.6871 0.0044 3.7211 0.0168
# 2 20.0049 167.4321 31.6206 0.0070 -4.3458 0.0283
# 3 11.6871 31.6206 226.7962 0.0497 8.0228 0.1306
# 4 0.0044 0.0070 0.0497 18.4801 -0.0089 34.9600
# 5 3.7211 -4.3458 8.0228 -0.0089 25.4144 -0.0378
# 6 0.0168 0.0283 0.1306 34.9600 -0.0378 131.8530
#
#
#
# Elastic Compliance Matrix: (Units=1/GPa)
#
#
# Indices 1 2 3 4 5 6 
#
# 1 0.020751 -0.002448 -0.000613 0.000001 -0.003264 -0.000003
# 2 -0.002448 0.006468 -0.000837 0.000002 0.001729 0.000000
# 3 -0.000613 -0.000837 0.004611 -0.000007 -0.001509 -0.000003
# 4 0.000001 0.000002 -0.000007 0.108570 -0.000002 -0.028787
# 5 -0.003264 0.001729 -0.001509 -0.000002 0.040598 0.000014
# 6 -0.000003 0.000000 -0.000003 -0.028787 0.000014 0.015217
#
#
# Mechanical properties :
#
#
# Convention : Reuss Voigt Hill
#
# Bulk Modulus (GPa) = 41.60676 63.59273 52.59974
# Shear Modulus (GPa) = 23.58261 60.64261 42.11261
#
# Velocity S-wave (km/s) = 3.14952 5.05054 4.20876
# Velocity P-wave (km/s) = 5.54318 7.79483 6.76337
#
# Compressibility (1/GPa) = 0.02403456
#
# Stress axis : x y z
#
# Youngs Moduli (GPa) = 48.19037 154.60733 216.87946
#
# Poissons Ratio (x) = 0.37854 0.13284
# Poissons Ratio (y) = 0.11799 0.18148
# Poissons Ratio (z) = 0.02952 0.12937
#
# Static dielectric constant tensor:
#      x y z
#    x 1.965300 -0.000020 -0.024100 
#    y -0.000020 1.864750 0.000010 
#    z -0.024100 0.000010 1.994630 
# 
# From -- ./inp_files/310521.got.cif
#   From: 2010.05.17/outbox.cif.g08.bks.cpg/sg12_156_cif.got.tgz:310521.got - 2010.06.03 13:09:07.
