data_PCOD9173872
_publ_section_title
;
Structure prediction by ZEFSAII (Michael W. Deem and Ramdas Pophale) SiO2 
 PCOD9173872
Probable space group: C 2/M
;
_chemical_formula_sum "Si O2"
_cell_formula_units_Z 56
_cell_length_a 19.877161
_cell_length_b 8.665764
_cell_length_c 21.616629
_cell_angle_alpha 90.000000
_cell_angle_beta 126.722967
_cell_angle_gamma 90.000000
_cell_volume 2984.504421
_symmetry_space_group_name_H-M "C 2/M"
_symmetry_group_IT_number 12
_symmetry_cell_setting 'monoclinic'
loop_
_space_group_symop_operation_xyz
x,y,z
-x,y,-z
-x,-y,-z
x,-y,z
1/2+x,1/2+y,z
1/2-x,1/2+y,-z
1/2-x,1/2-y,-z
1/2+x,1/2-y,z
loop_
_atom_site_type_symbol
_atom_site_label
_atom_site_fract_x
_atom_site_fract_y
_atom_site_fract_z
Si Si1 0.338757 0.314014 0.072811
Si Si2 0.584387 0.313189 0.010229
Si Si3 0.863721 0.319958 0.446899
Si Si4 0.620345 0.318302 0.673378
Si Si5 0.561776 0.678623 0.387945
Si Si6 0.237880 0.186812 0.844412
Si Si7 0.288722 0.181695 0.584975
O O1 0.338969 0.500000 0.071739
O O2 0.331122 0.268599 0.140720
O O3 0.250000 0.250000 0.000000
O O4 0.406564 0.265346 0.057770
O O5 0.584695 0.500000 0.012210
O O6 0.670812 0.254876 0.089495
O O7 0.500000 0.261319 0.000000
O O8 0.870904 0.500000 0.464482
O O9 0.895736 0.277549 0.397140
O O10 0.909934 0.228513 0.527278
O O11 0.766476 0.266520 0.394367
O O12 0.628932 0.500000 0.661202
O O13 0.537465 0.305315 0.669604
O O14 0.700234 0.268505 0.757346
O O15 0.584817 0.500000 0.392156
O O16 0.614098 0.777110 0.367637
O O17 0.244261 0.000000 0.848979
O O18 0.250000 0.250000 0.500000
O O19 0.275845 0.000000 0.581069
#
# Coordination Sequence:
#
# PCOD9173872 Si02
#       7
#     8   8   8   8   8   8   8
#     4   8  14  27  48  70  93 123 156 189 227 278
#     4   9  17  30  50  77 105 130 160 200 244 289
#     4  11  21  33  51  74  99 130 172 216 259 308
#     4  10  21  35  50  70 100 135 169 212 262 306
#     4  10  19  33  52  73  99 132 172 214 258 307
#     4   9  18  33  51  71  97 131 168 202 242 294
#     4  10  18  31  51  72  96 124 160 207 255 302
#
# _framework density 18.763586
#
# number of rings (size 3 to 8) (size 9 to 14) (size 15 to 20)
#    0.000    2.429    0.000    5.143    0.000    3.714 
#    0.000    1.429    0.000    3.429    0.000    0.000 
#    0.000    0.000    0.000    0.000    0.000    0.000 
#
# Total GULP energy -155913.733551 kJ/mol
# GULP energy per Si atom -5568.347627 kJ/mol
# Density = 1.872088 g / cm^3
# Si number density = 18.763586 Si / 1000 Ang^3
#
#
#
# Elastic Constant Matrix: (Units=GPa)
#
#
# Indices 1 2 3 4 5 6 
#
# 1 99.3689 4.2449 6.7373 0.0000 8.3909 0.0000
# 2 4.2449 31.6984 -1.3132 0.0000 4.8557 0.0000
# 3 6.7373 -1.3132 43.3595 0.0000 6.4905 0.0000
# 4 0.0000 0.0000 0.0000 13.7806 0.0000 1.0045
# 5 8.3909 4.8557 6.4905 0.0000 13.5993 0.0000
# 6 0.0000 0.0000 0.0000 1.0045 0.0000 25.4752
#
#
#
# Elastic Compliance Matrix: (Units=1/GPa)
#
#
# Indices 1 2 3 4 5 6 
#
# 1 0.010646 -0.000537 -0.000771 0.000000 -0.006009 0.000000
# 2 -0.000537 0.033768 0.003082 0.000000 -0.013197 0.000000
# 3 -0.000771 0.003082 0.025168 0.000000 -0.012636 0.000000
# 4 0.000000 0.000000 0.000000 0.072775 0.000000 -0.002870
# 5 -0.006009 -0.013197 -0.012636 0.000000 0.087983 0.000000
# 6 0.000000 0.000000 0.000000 -0.002870 0.000000 0.039367
#
#
# Mechanical properties :
#
#
# Convention : Reuss Voigt Hill
#
# Bulk Modulus (GPa) = 13.67442 21.52942 17.60192
# Shear Modulus (GPa) = 17.20952 21.55489 19.38221
#
# Velocity S-wave (km/s) = 3.03178 3.39302 3.21747
# Velocity P-wave (km/s) = 4.42257 5.18160 4.81706
#
# Compressibility (1/GPa) = 0.07312925
#
# Stress axis : x y z
#
# Youngs Moduli (GPa) = 93.93068 29.61344 39.73349
#
# Poissons Ratio (x) = 0.01591 0.03063
# Poissons Ratio (y) = 0.05045 -0.12244
# Poissons Ratio (z) = 0.07242 -0.09126
#
# Static dielectric constant tensor:
#      x y z
#    x 1.797480 0.000000 -0.037320 
#    y 0.000000 1.640210 0.000000 
#    z -0.037320 0.000000 1.680400 
# 
# From -- ./inp_files/345630.got.cif
#   From: 2010.05.17/outbox.cif.g08.bks.cpg/sg12_173_cif.got.tgz:345630.got - 2010.06.03 13:09:07.
