data_PCOD9173201
_publ_section_title
;
Structure prediction by ZEFSAII (Michael W. Deem and Ramdas Pophale) SiO2 
 PCOD9173201
Probable space group: C 2/M
;
_chemical_formula_sum "Si O2"
_cell_formula_units_Z 56
_cell_length_a 22.437250
_cell_length_b 21.410031
_cell_length_c 10.352533
_cell_angle_alpha 90.000000
_cell_angle_beta 49.160632
_cell_angle_gamma 90.000000
_cell_volume 3762.433520
_symmetry_space_group_name_H-M "C 2/M"
_symmetry_group_IT_number 12
_symmetry_cell_setting 'monoclinic'
loop_
_space_group_symop_operation_xyz
x,y,z
-x,y,-z
-x,-y,-z
x,-y,z
1/2+x,1/2+y,z
1/2-x,1/2+y,-z
1/2-x,1/2-y,-z
1/2+x,1/2-y,z
loop_
_atom_site_type_symbol
_atom_site_label
_atom_site_fract_x
_atom_site_fract_y
_atom_site_fract_z
Si Si1 0.539222 0.000000 0.085366
Si Si2 0.193851 0.186539 0.936285
Si Si3 0.458049 0.750900 0.922709
Si Si4 0.709605 0.682770 0.210112
Si Si5 0.936090 0.244988 0.477799
Si Si6 0.366907 0.123418 0.972754
Si Si7 0.931949 0.500000 0.487246
Si Si8 0.351661 0.127009 0.681547
O O1 0.472448 0.000000 0.290548
O O2 0.500000 0.000000 0.000000
O O3 0.592458 0.939053 0.035288
O O4 0.241304 0.252293 0.865019
O O5 0.258416 0.138136 0.792529
O O6 0.111366 0.199273 0.984932
O O7 0.178989 0.172170 0.107984
O O8 0.520299 0.740948 0.719804
O O9 0.500000 0.751844 0.000000
O O10 0.416391 0.817294 0.952204
O O11 0.635575 0.696152 0.405482
O O12 0.776235 0.631894 0.146368
O O13 0.899364 0.314079 0.555628
O O14 0.000000 0.234600 0.500000
O O15 0.365502 0.126496 0.817630
O O16 0.882285 0.562651 0.580190
O O17 0.000000 0.500000 0.500000
#
# Coordination Sequence:
#
# PCOD9173201 Si02
#       8
#     4   8   8   8   8   8   4   8
#     4  12  24  34  46  70 102 129 149 182 230 275
#     4   8  15  29  44  66  93 119 148 189 238 266
#     4  11  20  29  44  70 100 123 148 190 236 278
#     4   8  15  27  48  67  85 118 160 191 221 271
#     4  11  16  28  48  71  90 119 158 191 230 267
#     4  10  18  33  47  67  96 126 155 186 230 271
#     4  12  20  32  50  76  92 116 167 190 213 265
#     4  10  18  30  51  70  91 120 158 201 219 261
#
# _framework density 14.883984
#
# number of rings (size 3 to 8) (size 9 to 14) (size 15 to 20)
#    0.000    2.000    4.286    3.429    0.000    0.000 
#    0.000    7.857    0.000    0.000    0.000    2.000 
#    0.000    0.000    0.000    0.000    0.000    0.000 
#
# Total GULP energy -156031.465979 kJ/mol
# GULP energy per Si atom -5572.552356 kJ/mol
# Density = 1.485011 g / cm^3
# Si number density = 14.883984 Si / 1000 Ang^3
#
#
#
# Elastic Constant Matrix: (Units=GPa)
#
#
# Indices 1 2 3 4 5 6 
#
# 1 106.5151 48.2781 76.7447 0.0000 -6.1290 0.0000
# 2 48.2781 74.5764 47.0360 0.0000 -14.6118 0.0000
# 3 76.7447 47.0360 116.0455 0.0000 -9.5134 0.0000
# 4 0.0000 0.0000 0.0000 22.9258 0.0000 -13.5202
# 5 -6.1290 -14.6118 -9.5134 0.0000 24.9585 0.0000
# 6 0.0000 0.0000 0.0000 -13.5202 0.0000 16.3028
#
#
#
# Elastic Compliance Matrix: (Units=1/GPa)
#
#
# Indices 1 2 3 4 5 6 
#
# 1 0.020041 -0.006813 -0.010752 0.000000 -0.003165 0.000000
# 2 -0.006813 0.022029 -0.003616 0.000000 0.009845 0.000000
# 3 -0.010752 -0.003616 0.017346 0.000000 0.001854 0.000000
# 4 0.000000 0.000000 0.000000 0.085373 0.000000 0.070801
# 5 -0.003165 0.009845 0.001854 0.000000 0.045760 0.000000
# 6 0.000000 0.000000 0.000000 0.070801 0.000000 0.120056
#
#
# Mechanical properties :
#
#
# Convention : Reuss Voigt Hill
#
# Bulk Modulus (GPa) = 58.63739 71.25053 64.94396
# Shear Modulus (GPa) = 13.94112 21.17595 17.55853
#
# Velocity S-wave (km/s) = 3.06380 3.77601 3.43839
# Velocity P-wave (km/s) = 7.21094 8.18447 7.71308
#
# Compressibility (1/GPa) = 0.01705397
#
# Stress axis : x y z
#
# Youngs Moduli (GPa) = 49.89832 45.39419 57.65126
#
# Poissons Ratio (x) = 0.30925 0.61985
# Poissons Ratio (y) = 0.33994 0.20849
# Poissons Ratio (z) = 0.53650 0.16417
#
# Static dielectric constant tensor:
#      x y z
#    x 1.490210 0.000000 -0.020470 
#    y 0.000000 1.488710 0.000000 
#    z -0.020470 0.000000 1.499140 
# 
# From -- ./inp_files/90349.got.cif
#   From: 2010.05.17/outbox.cif.g08.bks.cpg/sg12_46_cif.got.tgz:90349.got - 2010.06.03 13:09:07.
