data_PCOD9173777
_publ_section_title
;
Structure prediction by ZEFSAII (Michael W. Deem and Ramdas Pophale) SiO2 
 PCOD9173777
Probable space group: C 2/M
;
_chemical_formula_sum "Si O2"
_cell_formula_units_Z 56
_cell_length_a 27.974236
_cell_length_b 8.828249
_cell_length_c 17.881196
_cell_angle_alpha 90.000000
_cell_angle_beta 125.844499
_cell_angle_gamma 90.000000
_cell_volume 3579.653045
_symmetry_space_group_name_H-M "C 2/M"
_symmetry_group_IT_number 12
_symmetry_cell_setting 'monoclinic'
loop_
_space_group_symop_operation_xyz
x,y,z
-x,y,-z
-x,-y,-z
x,-y,z
1/2+x,1/2+y,z
1/2-x,1/2+y,-z
1/2-x,1/2-y,-z
1/2+x,1/2-y,z
loop_
_atom_site_type_symbol
_atom_site_label
_atom_site_fract_x
_atom_site_fract_y
_atom_site_fract_z
Si Si1 0.713386 0.818097 0.034492
Si Si2 0.269196 0.182322 0.402326
Si Si3 0.401129 0.819677 0.885125
Si Si4 0.957866 0.181070 0.791151
Si Si5 0.842319 0.182083 0.597797
Si Si6 0.226352 0.818610 0.206073
Si Si7 0.423149 0.179713 0.076738
O O1 0.643912 0.774880 0.965132
O O2 0.715998 0.000000 0.036848
O O3 0.750000 0.750000 0.000000
O O4 0.736942 0.757477 0.135712
O O5 0.207654 0.228152 0.386927
O O6 0.321138 0.249626 0.500102
O O7 0.267193 0.227280 0.313574
O O8 0.271671 0.000000 0.407464
O O9 0.439132 0.757819 0.851973
O O10 0.339115 0.732615 0.829716
O O11 0.391417 0.000000 0.868485
O O12 0.428659 0.794889 0.992320
O O13 0.907024 0.226596 0.685620
O O14 0.024019 0.234032 0.834412
O O15 0.955808 0.000000 0.797228
O O16 0.840605 0.000000 0.591524
O O17 0.228346 0.000000 0.200082
O O18 0.428950 0.000000 0.095190
#
# Coordination Sequence:
#
# PCOD9173777 Si02
#       7
#     8   8   8   8   8   8   8
#     4  10  21  37  55  76  99 123 156 196 242 290
#     4   9  17  30  45  65  93 127 165 201 237 277
#     4  10  19  30  44  64  94 130 165 198 233 278
#     4  11  20  30  44  66  95 129 165 199 236 279
#     4   9  18  30  42  63  95 128 166 204 233 272
#     4  10  18  31  50  72  99 126 160 202 241 285
#     4   9  20  34  46  66  94 123 158 196 233 284
#
# _framework density 15.643974999999999
#
# number of rings (size 3 to 8) (size 9 to 14) (size 15 to 20)
#    0.000    2.286    1.429    3.000    0.000    7.429 
#    0.000    0.000    0.000    0.000    0.000    1.000 
#    0.000    8.000    0.000    0.000    0.000    0.000 
#
# Total GULP energy -156111.088212 kJ/mol
# GULP energy per Si atom -5575.396008 kJ/mol
# Density = 1.560837 g / cm^3
# Si number density = 15.643975 Si / 1000 Ang^3
#
#
#
# Elastic Constant Matrix: (Units=GPa)
#
#
# Indices 1 2 3 4 5 6 
#
# 1 72.9756 29.8897 72.6539 0.0000 -2.5976 0.0000
# 2 29.8897 33.8538 41.9204 0.0000 2.9147 0.0000
# 3 72.6539 41.9204 122.3805 0.0000 7.7064 0.0000
# 4 0.0000 0.0000 0.0000 27.6708 0.0000 0.6667
# 5 -2.5976 2.9147 7.7064 0.0000 20.5406 0.0000
# 6 0.0000 0.0000 0.0000 0.6667 0.0000 22.4200
#
#
#
# Elastic Compliance Matrix: (Units=1/GPa)
#
#
# Indices 1 2 3 4 5 6 
#
# 1 0.038546 -0.010088 -0.020305 0.000000 0.013924 0.000000
# 2 -0.010088 0.053947 -0.012216 0.000000 -0.004348 0.000000
# 3 -0.020305 -0.012216 0.025055 0.000000 -0.010234 0.000000
# 4 0.000000 0.000000 0.000000 0.036165 0.000000 -0.001075
# 5 0.013924 -0.004348 -0.010234 0.000000 0.054901 0.000000
# 6 0.000000 0.000000 0.000000 -0.001075 0.000000 0.044635
#
#
# Mechanical properties :
#
#
# Convention : Reuss Voigt Hill
#
# Bulk Modulus (GPa) = 30.93183 57.57087 44.25135
# Shear Modulus (GPa) = 14.31657 19.77601 17.04629
#
# Velocity S-wave (km/s) = 3.02843 3.55932 3.30455
# Velocity P-wave (km/s) = 5.66072 7.33295 6.55042
#
# Compressibility (1/GPa) = 0.03232916
#
# Stress axis : x y z
#
# Youngs Moduli (GPa) = 25.94274 18.53665 39.91253
#
# Poissons Ratio (x) = 0.18700 0.81043
# Poissons Ratio (y) = 0.26172 0.48758
# Poissons Ratio (z) = 0.52677 0.22645
#
# Static dielectric constant tensor:
#      x y z
#    x 1.503900 0.000000 0.012810 
#    y 0.000000 1.522040 0.000000 
#    z 0.012810 0.000000 1.535540 
# 
# From -- ./inp_files/244307.got.cif
#   From: 2010.05.17/outbox.cif.g08.bks.cpg/sg12_123_cif.got.tgz:244307.got - 2010.06.03 13:09:07.
