data_PCOD9173767
_publ_section_title
;
Structure prediction by ZEFSAII (Michael W. Deem and Ramdas Pophale) SiO2 
 PCOD9173767
Probable space group: C 2/M
;
_chemical_formula_sum "Si O2"
_cell_formula_units_Z 48
_cell_length_a 14.092228
_cell_length_b 15.681155
_cell_length_c 9.383304
_cell_angle_alpha 90.000000
_cell_angle_beta 100.261984
_cell_angle_gamma 90.000000
_cell_volume 2040.375593
_symmetry_space_group_name_H-M "C 2/M"
_symmetry_group_IT_number 12
_symmetry_cell_setting 'monoclinic'
loop_
_space_group_symop_operation_xyz
x,y,z
-x,y,-z
-x,-y,-z
x,-y,z
1/2+x,1/2+y,z
1/2-x,1/2+y,-z
1/2-x,1/2-y,-z
1/2+x,1/2-y,z
loop_
_atom_site_type_symbol
_atom_site_label
_atom_site_fract_x
_atom_site_fract_y
_atom_site_fract_z
Si Si1 0.040108 0.825988 0.356367
Si Si2 0.177938 0.594795 0.083199
Si Si3 0.212799 0.095277 0.500073
Si Si4 0.629404 0.905846 0.753034
Si Si5 0.584356 0.871711 0.363007
Si Si6 0.167199 0.790605 0.762317
O O1 0.136305 0.880905 0.356379
O O2 0.075611 0.729232 0.379702
O O3 0.000000 0.855904 0.500000
O O4 0.943705 0.818462 0.236018
O O5 0.222721 0.500000 0.102996
O O6 0.117736 0.606862 0.211404
O O7 0.259447 0.667482 0.107315
O O8 0.117113 0.598104 0.923122
O O9 0.328458 0.097692 0.512139
O O10 0.195778 0.163869 0.620743
O O11 0.189371 0.000000 0.543047
O O12 0.523526 0.905753 0.655035
O O13 0.673722 0.810882 0.743230
O O14 0.677152 0.000000 0.743921
#
# Coordination Sequence:
#
# PCOD9173767 Si02
#       6
#     8   8   8   8   8   8
#     4   9  19  32  49  71  98 129 159 198 244 288
#     4  10  19  31  51  75  97 127 165 202 239 283
#     4  10  19  32  53  76  97 126 164 203 240 284
#     4  10  19  31  49  74 101 129 162 198 240 288
#     4  10  18  31  50  71  99 129 159 201 243 283
#     4   9  18  31  48  72 100 127 157 198 243 283
#
# _framework density 23.525079000000002
#
# number of rings (size 3 to 8) (size 9 to 14) (size 15 to 20)
#    0.000    2.333    0.000    4.500    0.000    5.000 
#    0.000    0.000    0.000   68.000    0.000    0.000 
#    0.000   46.667    0.000    0.000    0.000    0.000 
#
# Total GULP energy -133906.846727 kJ/mol
# GULP energy per Si atom -5579.451947 kJ/mol
# Density = 2.347154 g / cm^3
# Si number density = 23.525079 Si / 1000 Ang^3
#
#
#
# Elastic Constant Matrix: (Units=GPa)
#
#
# Indices 1 2 3 4 5 6 
#
# 1 132.2327 66.0280 26.5339 0.0000 27.8742 0.0000
# 2 66.0280 178.7358 26.6196 0.0000 6.5106 0.0000
# 3 26.5339 26.6196 72.8400 0.0000 17.5296 0.0000
# 4 0.0000 0.0000 0.0000 33.5699 0.0000 3.3411
# 5 27.8742 6.5106 17.5296 0.0000 32.7026 0.0000
# 6 0.0000 0.0000 0.0000 3.3411 0.0000 11.6247
#
#
#
# Elastic Compliance Matrix: (Units=1/GPa)
#
#
# Indices 1 2 3 4 5 6 
#
# 1 0.011411 -0.003798 -0.000700 0.000000 -0.008595 0.000000
# 2 -0.003798 0.007181 -0.001924 0.000000 0.002839 0.000000
# 3 -0.000700 -0.001924 0.016591 0.000000 -0.007914 0.000000
# 4 0.000000 0.000000 0.000000 0.030666 0.000000 -0.008814
# 5 -0.008595 0.002839 -0.007914 0.000000 0.041581 0.000000
# 6 0.000000 0.000000 0.000000 -0.008814 0.000000 0.088557
#
#
# Mechanical properties :
#
#
# Convention : Reuss Voigt Hill
#
# Bulk Modulus (GPa) = 44.76529 69.13017 56.94773
# Shear Modulus (GPa) = 23.11831 33.22125 28.16978
#
# Velocity S-wave (km/s) = 3.13822 3.76195 3.46415
# Velocity P-wave (km/s) = 5.67462 6.95120 6.34510
#
# Compressibility (1/GPa) = 0.02233873
#
# Stress axis : x y z
#
# Youngs Moduli (GPa) = 87.63276 139.25494 60.27204
#
# Poissons Ratio (x) = 0.52891 0.04221
# Poissons Ratio (y) = 0.33284 0.11596
# Poissons Ratio (z) = 0.06138 0.26793
#
# Static dielectric constant tensor:
#      x y z
#    x 1.999670 0.000000 -0.021170 
#    y 0.000000 1.853250 0.000000 
#    z -0.021170 0.000000 1.945600 
# 
# From -- ./inp_files/143089.got.cif
#   From: 2010.05.17/outbox.cif.g08.bks.cpg/sg12_72_cif.got.tgz:143089.got - 2010.06.03 13:09:07.
