data_PCOD9173531
_publ_section_title
;
Structure prediction by ZEFSAII (Michael W. Deem and Ramdas Pophale) SiO2 
 PCOD9173531
Probable space group: C 2/M
;
_chemical_formula_sum "Si O2"
_cell_formula_units_Z 64
_cell_length_a 24.717388
_cell_length_b 13.694622
_cell_length_c 11.493063
_cell_angle_alpha 90.000000
_cell_angle_beta 44.493848
_cell_angle_gamma 90.000000
_cell_volume 2726.482751
_symmetry_space_group_name_H-M "C 2/M"
_symmetry_group_IT_number 12
_symmetry_cell_setting 'monoclinic'
loop_
_space_group_symop_operation_xyz
x,y,z
-x,y,-z
-x,-y,-z
x,-y,z
1/2+x,1/2+y,z
1/2-x,1/2+y,-z
1/2-x,1/2-y,-z
1/2+x,1/2-y,z
loop_
_atom_site_type_symbol
_atom_site_label
_atom_site_fract_x
_atom_site_fract_y
_atom_site_fract_z
Si Si1 0.515867 0.678451 0.848816
Si Si2 0.171731 0.607291 0.409272
Si Si3 0.829461 0.817721 0.530829
Si Si4 0.670985 0.890439 0.824458
Si Si5 0.616083 0.727804 0.091410
Si Si6 0.906722 0.116990 0.652473
Si Si7 0.449104 0.104418 0.205669
Si Si8 0.582272 0.105727 0.312950
O O1 0.602161 0.665774 0.667632
O O2 0.444895 0.653878 0.874530
O O3 0.504747 0.796210 0.869630
O O4 0.500000 0.637272 0.000000
O O5 0.210153 0.500000 0.361945
O O6 0.204194 0.706852 0.412876
O O7 0.094185 0.601783 0.605212
O O8 0.146732 0.621698 0.313889
O O9 0.755180 0.884033 0.636863
O O10 0.870369 0.839513 0.591020
O O11 0.612096 0.887211 0.805759
O O12 0.665450 0.000000 0.886289
O O13 0.662181 0.796038 0.926106
O O14 0.641771 0.661380 0.163282
O O15 0.576987 0.813020 0.225527
O O16 0.000000 0.139891 0.500000
O O17 0.900246 0.000000 0.663231
O O18 0.490100 0.000000 0.134586
O O19 0.500000 0.103367 0.500000
O O20 0.597520 0.000000 0.237711
#
# Coordination Sequence:
#
# PCOD9173531 Si02
#       8
#     8   8   8   8   8   8   8   8
#     4  11  22  38  64  99 126 170 219 272 331 394
#     4   9  18  33  56  87 122 163 211 259 317 378
#     4  11  22  42  68  91 130 177 225 271 328 401
#     4  11  25  42  64  97 135 180 223 267 329 400
#     4  12  22  40  63  95 131 169 222 273 329 387
#     4  11  23  42  70  97 126 172 226 280 328 389
#     4   9  19  36  57  90 133 172 215 263 321 392
#     4  10  18  30  54  88 125 161 202 262 325 380
#
# _framework density 23.473465000000001
#
# number of rings (size 3 to 8) (size 9 to 14) (size 15 to 20)
#    0.000    1.500    3.750    2.625    0.000    4.750 
#    0.000    0.625    0.000    3.375    0.000    0.000 
#    0.000    0.000    0.000    0.000    0.000    0.000 
#
# Total GULP energy -178315.995925 kJ/mol
# GULP energy per Si atom -5572.374873 kJ/mol
# Density = 2.342004 g / cm^3
# Si number density = 23.473465 Si / 1000 Ang^3
#
#
#
# Elastic Constant Matrix: (Units=GPa)
#
#
# Indices 1 2 3 4 5 6 
#
# 1 27.4260 1.1127 37.5228 0.0000 16.4967 0.0000
# 2 1.1127 78.0110 24.9804 0.0000 -0.7188 0.0000
# 3 37.5228 24.9804 124.4828 0.0000 15.1760 0.0000
# 4 0.0000 0.0000 0.0000 -27.6528 0.0000 -43.1203
# 5 16.4967 -0.7188 15.1760 0.0000 34.3846 0.0000
# 6 0.0000 0.0000 0.0000 -43.1203 0.0000 -15.1209
#
#
#
# Elastic Compliance Matrix: (Units=1/GPa)
#
#
# Indices 1 2 3 4 5 6 
#
# 1 0.087743 0.006092 -0.023837 0.000000 -0.031448 0.000000
# 2 0.006092 0.014204 -0.004615 0.000000 -0.000589 0.000000
# 3 -0.023837 -0.004615 0.015602 0.000000 0.004454 0.000000
# 4 0.000000 0.000000 0.000000 0.010492 0.000000 -0.029919
# 5 -0.031448 -0.000589 0.004454 0.000000 0.042193 0.000000
# 6 0.000000 0.000000 0.000000 -0.029919 0.000000 0.019187
#
#
# Mechanical properties :
#
#
# Convention : Reuss Voigt Hill
#
# Bulk Modulus (GPa) = 13.73082 39.68351 26.70717
# Shear Modulus (GPa) = 19.34859 9.40910 14.37884
#
# Velocity S-wave (km/s) = 2.87413 2.00427 2.47767
# Velocity P-wave (km/s) = 4.10809 4.72213 4.42577
#
# Compressibility (1/GPa) = 0.07282885
#
# Stress axis : x y z
#
# Youngs Moduli (GPa) = 11.39688 70.40201 64.09639
#
# Poissons Ratio (x) = -0.42887 1.52786
# Poissons Ratio (y) = -0.06943 0.29579
# Poissons Ratio (z) = 0.27167 0.32489
#
# Static dielectric constant tensor:
#      x y z
#    x 1.971510 0.000000 0.008720 
#    y 0.000000 1.931090 0.000000 
#    z 0.008720 0.000000 1.899040 
# 
# From -- ./inp_files/183755.got.cif
#   From: 2010.05.17/outbox.cif.g08.bks.cpg/sg12_92_cif.got.tgz:183755.got - 2010.06.03 13:09:07.
