data_PCOD9174872
_publ_section_title
;
Structure prediction by ZEFSAII (Michael W. Deem and Ramdas Pophale) SiO2 
 PCOD9174872
Probable space group: C 2/M
;
_chemical_formula_sum "Si O2"
_cell_formula_units_Z 64
_cell_length_a 12.850901
_cell_length_b 17.280249
_cell_length_c 14.314136
_cell_angle_alpha 90.000000
_cell_angle_beta 101.998355
_cell_angle_gamma 90.000000
_cell_volume 3109.250819
_symmetry_space_group_name_H-M "C 2/M"
_symmetry_group_IT_number 12
_symmetry_cell_setting 'monoclinic'
loop_
_space_group_symop_operation_xyz
x,y,z
-x,y,-z
-x,-y,-z
x,-y,z
1/2+x,1/2+y,z
1/2-x,1/2+y,-z
1/2-x,1/2-y,-z
1/2+x,1/2-y,z
loop_
_atom_site_type_symbol
_atom_site_label
_atom_site_fract_x
_atom_site_fract_y
_atom_site_fract_z
Si Si1 0.398269 0.316514 0.188579
Si Si2 0.672412 0.911027 0.570670
Si Si3 0.965296 0.914186 0.895745
Si Si4 0.937575 0.694533 0.815276
Si Si5 0.788546 0.583642 0.139642
Si Si6 0.947325 0.412861 0.637750
Si Si7 0.808150 0.407950 0.925663
Si Si8 0.772738 0.713659 0.280983
O O1 0.491362 0.378877 0.192061
O O2 0.457482 0.245331 0.147006
O O3 0.297475 0.358284 0.121245
O O4 0.356597 0.284217 0.280324
O O5 0.558461 0.910158 0.602514
O O6 0.644218 0.898739 0.456758
O O7 0.733749 0.837552 0.626508
O O8 0.715132 0.000000 0.590949
O O9 0.839378 0.919111 0.878246
O O10 0.013637 0.000000 0.908662
O O11 0.000000 0.874200 0.000000
O O12 0.946553 0.646711 0.721351
O O13 0.902746 0.634750 0.888650
O O14 0.838772 0.752789 0.776733
O O15 0.831284 0.500000 0.178431
O O16 0.814259 0.650867 0.214540
O O17 0.820490 0.596290 0.039224
O O18 0.932219 0.500000 0.670956
O O19 0.798607 0.500000 0.900253
#
# Coordination Sequence:
#
# PCOD9174872 Si02
#       8
#     8   8   8   8   8   8   8   8
#     4  11  21  34  51  78 112 141 180 232 274 320
#     4   9  18  35  59  82 103 135 179 222 268 328
#     4  10  18  32  54  73  97 144 196 228 257 308
#     4  11  22  35  55  84 114 140 180 230 282 328
#     4  10  20  35  52  74 107 146 188 227 262 314
#     4   9  18  36  61  80 101 139 180 217 267 335
#     4  10  22  39  56  76 110 157 197 223 262 329
#     4  11  22  34  53  82 114 140 173 229 286 321
#
# _framework density 20.583736999999999
#
# number of rings (size 3 to 8) (size 9 to 14) (size 15 to 20)
#    0.000    1.875    3.750    1.875    0.000    3.500 
#    0.000    0.000    0.000    1.500    0.000    0.000 
#    0.000    8.000    0.000    0.000    0.000    0.000 
#
# Total GULP energy -178282.375177 kJ/mol
# GULP energy per Si atom -5571.324224 kJ/mol
# Density = 2.053689 g / cm^3
# Si number density = 20.583737 Si / 1000 Ang^3
#
#
#
# Elastic Constant Matrix: (Units=GPa)
#
#
# Indices 1 2 3 4 5 6 
#
# 1 50.2645 18.1431 1.2565 0.0000 -1.4289 0.0000
# 2 18.1431 104.7452 34.9619 0.0000 2.5209 0.0000
# 3 1.2565 34.9619 49.2806 0.0000 0.7467 0.0000
# 4 0.0000 0.0000 0.0000 28.4635 0.0000 -0.3156
# 5 -1.4289 2.5209 0.7467 0.0000 20.2438 0.0000
# 6 0.0000 0.0000 0.0000 -0.3156 0.0000 11.8200
#
#
#
# Elastic Compliance Matrix: (Units=1/GPa)
#
#
# Indices 1 2 3 4 5 6 
#
# 1 0.021582 -0.004707 0.002759 0.000000 0.002008 0.000000
# 2 -0.004707 0.013567 -0.009479 0.000000 -0.001672 0.000000
# 3 0.002759 -0.009479 0.026941 0.000000 0.000381 0.000000
# 4 0.000000 0.000000 0.000000 0.035143 0.000000 0.000938
# 5 0.002008 -0.001672 0.000381 0.000000 0.049734 0.000000
# 6 0.000000 0.000000 0.000000 0.000938 0.000000 0.084627
#
#
# Mechanical properties :
#
#
# Convention : Reuss Voigt Hill
#
# Bulk Modulus (GPa) = 25.48820 34.77924 30.13372
# Shear Modulus (GPa) = 18.68968 22.10073 20.39520
#
# Velocity S-wave (km/s) = 3.01654 3.28029 3.15118
# Velocity P-wave (km/s) = 4.95402 5.59287 5.28311
#
# Compressibility (1/GPa) = 0.03923384
#
# Stress axis : x y z
#
# Youngs Moduli (GPa) = 46.33482 73.71017 37.11819
#
# Poissons Ratio (x) = 0.34699 -0.10241
# Poissons Ratio (y) = 0.21812 0.35186
# Poissons Ratio (z) = -0.12784 0.69873
#
# Static dielectric constant tensor:
#      x y z
#    x 1.780420 0.000000 0.024910 
#    y 0.000000 1.835380 0.000000 
#    z 0.024910 0.000000 1.738120 
# 
# From -- ./inp_files/215926.got.cif
#   From: 2010.05.17/outbox.cif.g08.bks.cpg/sg12_108_cif.got.tgz:215926.got - 2010.06.03 13:09:07.
