data_PCOD9174176
_publ_section_title
;
Structure prediction by ZEFSAII (Michael W. Deem and Ramdas Pophale) SiO2 
 PCOD9174176
Probable space group: C 2/M
;
_chemical_formula_sum "Si O2"
_cell_formula_units_Z 56
_cell_length_a 27.337838
_cell_length_b 9.265870
_cell_length_c 25.236931
_cell_angle_alpha 90.000000
_cell_angle_beta 23.447540
_cell_angle_gamma 90.000000
_cell_volume 2543.729549
_symmetry_space_group_name_H-M "C 2/M"
_symmetry_group_IT_number 12
_symmetry_cell_setting 'monoclinic'
loop_
_space_group_symop_operation_xyz
x,y,z
-x,y,-z
-x,-y,-z
x,-y,z
1/2+x,1/2+y,z
1/2-x,1/2+y,-z
1/2-x,1/2-y,-z
1/2+x,1/2-y,z
loop_
_atom_site_type_symbol
_atom_site_label
_atom_site_fract_x
_atom_site_fract_y
_atom_site_fract_z
Si Si1 0.819313 0.659560 0.837990
Si Si2 0.877321 0.825512 0.052187
Si Si3 0.439360 0.827360 0.197167
Si Si4 0.489826 0.826912 0.756906
Si Si5 0.194141 0.165694 0.305984
Si Si6 0.675977 0.340710 0.504047
Si Si7 0.988171 0.231123 0.427399
O O1 0.777375 0.500000 0.894908
O O2 0.711733 0.720307 0.908579
O O3 0.876338 0.730320 0.833910
O O4 0.934272 0.651717 0.682435
O O5 0.813862 0.745826 0.164745
O O6 0.876382 0.000000 0.058876
O O7 0.007506 0.762829 0.904388
O O8 0.514157 0.796134 0.177146
O O9 0.300389 0.790391 0.352087
O O10 0.445909 0.000000 0.180064
O O11 0.614133 0.761317 0.608783
O O12 0.492856 0.000000 0.747405
O O13 0.123091 0.258315 0.421296
O O14 0.092864 0.157859 0.359329
O O15 0.217224 0.000000 0.300991
O O16 0.700307 0.500000 0.502420
O O17 0.576178 0.352026 0.556348
#
# Coordination Sequence:
#
# PCOD9174176 Si02
#       7
#     8   8   8   8   8   8   8
#     4   8  16  31  50  74 102 127 156 200 247 287
#     4  10  21  35  50  70  97 130 167 203 240 285
#     4  10  21  35  50  69  98 135 167 197 236 283
#     4   9  18  33  52  74  99 127 160 198 243 290
#     4  10  18  31  53  77 100 125 156 198 247 293
#     4  10  19  32  51  76 102 126 159 200 239 284
#     4   9  17  30  52  79 101 124 157 198 244 292
#
# _framework density 22.01492
#
# number of rings (size 3 to 8) (size 9 to 14) (size 15 to 20)
#    0.000    2.571    0.000    2.571    0.000    2.286 
#    0.000    4.286    0.000    3.429    0.000    0.000 
#    0.000    0.000    0.000    0.000    0.000    0.000 
#
# Total GULP energy -155925.151303 kJ/mol
# GULP energy per Si atom -5568.755404 kJ/mol
# Density = 2.196481 g / cm^3
# Si number density = 22.014920 Si / 1000 Ang^3
#
#
#
# Elastic Constant Matrix: (Units=GPa)
#
#
# Indices 1 2 3 4 5 6 
#
# 1 60.9020 4.8691 -2.2794 -0.0053 3.1560 0.0031
# 2 4.8691 33.1535 41.9397 -0.0037 8.3889 0.0038
# 3 -2.2794 41.9397 138.2906 -0.0046 22.2800 0.0050
# 4 -0.0053 -0.0037 -0.0046 19.3171 0.0042 -0.5012
# 5 3.1560 8.3889 22.2800 0.0042 15.0995 -0.0038
# 6 0.0031 0.0038 0.0050 -0.5012 -0.0038 4.8146
#
#
#
# Elastic Compliance Matrix: (Units=1/GPa)
#
#
# Indices 1 2 3 4 5 6 
#
# 1 0.017089 -0.004281 0.002325 0.000005 -0.004624 -0.000013
# 2 -0.004281 0.050570 -0.014463 0.000006 -0.005860 -0.000026
# 3 0.002325 -0.014463 0.013695 0.000003 -0.012658 -0.000014
# 4 0.000005 0.000006 0.000003 0.051908 -0.000022 0.005404
# 5 -0.004624 -0.005860 -0.012658 -0.000022 0.089128 0.000088
# 6 -0.000013 -0.000026 -0.000014 0.005404 0.000088 0.208263
#
#
# Mechanical properties :
#
#
# Convention : Reuss Voigt Hill
#
# Bulk Modulus (GPa) = 20.61169 35.71166 28.16168
# Shear Modulus (GPa) = 10.42401 20.36736 15.39569
#
# Velocity S-wave (km/s) = 2.17836 3.04495 2.64735
# Velocity P-wave (km/s) = 3.96358 5.34968 4.70792
#
# Compressibility (1/GPa) = 0.04851616
#
# Stress axis : x y z
#
# Youngs Moduli (GPa) = 58.51828 19.77459 73.01896
#
# Poissons Ratio (x) = 0.08465 -0.16976
# Poissons Ratio (y) = 0.25050 1.05607
# Poissons Ratio (z) = -0.13604 0.28600
#
# Static dielectric constant tensor:
#      x y z
#    x 1.896370 0.000000 -0.022680 
#    y 0.000000 1.778760 0.000000 
#    z -0.022680 0.000000 1.802720 
# 
# From -- ./inp_files/173844.got.cif
#   From: 2010.05.17/outbox.cif.g08.bks.cpg/sg12_87_cif.got.tgz:173844.got - 2010.06.03 13:09:07.
