data_PCOD9174791
_publ_section_title
;
Structure prediction by ZEFSAII (Michael W. Deem and Ramdas Pophale) SiO2 
 PCOD9174791
Probable space group: C 2/M
;
_chemical_formula_sum "Si O2"
_cell_formula_units_Z 64
_cell_length_a 28.867835
_cell_length_b 13.380001
_cell_length_c 17.478179
_cell_angle_alpha 90.000000
_cell_angle_beta 32.666386
_cell_angle_gamma 90.000000
_cell_volume 3643.815722
_symmetry_space_group_name_H-M "C 2/M"
_symmetry_group_IT_number 12
_symmetry_cell_setting 'monoclinic'
loop_
_space_group_symop_operation_xyz
x,y,z
-x,y,-z
-x,-y,-z
x,-y,z
1/2+x,1/2+y,z
1/2-x,1/2+y,-z
1/2-x,1/2-y,-z
1/2+x,1/2-y,z
loop_
_atom_site_type_symbol
_atom_site_label
_atom_site_fract_x
_atom_site_fract_y
_atom_site_fract_z
Si Si1 0.585919 0.884161 0.217914
Si Si2 0.055210 0.192952 0.348107
Si Si3 0.753021 0.119673 0.895313
Si Si4 0.045272 0.884634 0.657165
Si Si5 0.643403 0.119746 0.897779
Si Si6 0.733018 0.316213 0.405055
Si Si7 0.702172 0.114947 0.524663
Si Si8 0.989035 0.689915 0.202285
O O1 0.551532 0.809211 0.329258
O O2 0.530667 0.866720 0.217558
O O3 0.583246 0.000000 0.242838
O O4 0.683082 0.855618 0.057965
O O5 0.154154 0.166004 0.223499
O O6 0.000000 0.171571 0.500000
O O7 0.016471 0.134199 0.329292
O O8 0.708413 0.146479 0.876801
O O9 0.762324 0.000000 0.883011
O O10 0.142528 0.855225 0.498236
O O11 0.020705 0.804807 0.757164
O O12 0.041859 0.000000 0.685387
O O13 0.688936 0.152115 0.756823
O O14 0.630843 0.000000 0.916306
O O15 0.553723 0.172117 0.042755
O O16 0.729237 0.197188 0.424375
O O17 0.743331 0.365228 0.474510
O O18 0.604182 0.143512 0.681602
O O19 0.708515 0.000000 0.492094
#
# Coordination Sequence:
#
# PCOD9174791 Si02
#       8
#     8   8   8   8   8   8   8   8
#     4   9  18  34  51  66  93 130 161 193 240 291
#     4  11  21  30  47  74  98 122 160 205 239 282
#     4   9  18  32  50  69  92 126 160 194 240 288
#     4  10  20  35  51  69  99 133 162 197 243 293
#     4  10  18  32  53  75 101 127 158 205 250 283
#     4  10  21  33  51  77 100 130 165 197 241 292
#     4  10  19  34  53  73 101 132 164 199 237 288
#     4   9  19  33  52  76  96 124 165 202 243 292
#
# _framework density 17.564005000000002
#
# number of rings (size 3 to 8) (size 9 to 14) (size 15 to 20)
#    0.000    2.250    0.000    4.500    0.000    2.750 
#    0.000    1.875    0.000    2.250    0.000    5.250 
#    0.000    0.000    0.000    0.000    0.000    0.000 
#
# Total GULP energy -178546.513856 kJ/mol
# GULP energy per Si atom -5579.578558 kJ/mol
# Density = 1.752403 g / cm^3
# Si number density = 17.564005 Si / 1000 Ang^3
#
#
#
# Elastic Constant Matrix: (Units=GPa)
#
#
# Indices 1 2 3 4 5 6 
#
# 1 23.1038 6.5890 -0.4274 0.0000 -8.7702 0.0000
# 2 6.5890 110.1618 22.8887 0.0000 3.1367 0.0000
# 3 -0.4274 22.8887 59.2731 0.0000 -0.6541 0.0000
# 4 0.0000 0.0000 0.0000 8.8930 0.0000 -2.0662
# 5 -8.7702 3.1367 -0.6541 0.0000 21.4658 0.0000
# 6 0.0000 0.0000 0.0000 -2.0662 0.0000 13.4013
#
#
#
# Elastic Compliance Matrix: (Units=1/GPa)
#
#
# Indices 1 2 3 4 5 6 
#
# 1 0.053036 -0.004283 0.002283 0.000000 0.022364 0.000000
# 2 -0.004283 0.010268 -0.004033 0.000000 -0.003373 0.000000
# 3 0.002283 -0.004033 0.018468 0.000000 0.002085 0.000000
# 4 0.000000 0.000000 0.000000 0.116626 0.000000 0.017981
# 5 0.022364 -0.003373 0.002085 0.000000 0.056280 0.000000
# 6 0.000000 0.000000 0.000000 0.017981 0.000000 0.077392
#
#
# Mechanical properties :
#
#
# Convention : Reuss Voigt Hill
#
# Bulk Modulus (GPa) = 14.34601 27.84881 21.09741
# Shear Modulus (GPa) = 13.61019 19.65123 16.63071
#
# Velocity S-wave (km/s) = 2.78671 3.34853 3.08045
# Velocity P-wave (km/s) = 4.30580 5.55340 4.96891
#
# Compressibility (1/GPa) = 0.06970581
#
# Stress axis : x y z
#
# Youngs Moduli (GPa) = 18.85495 97.39199 54.14787
#
# Poissons Ratio (x) = 0.41717 -0.12364
# Poissons Ratio (y) = 0.08076 0.21838
# Poissons Ratio (z) = -0.04305 0.39279
#
# Static dielectric constant tensor:
#      x y z
#    x 1.599440 0.000000 -0.014250 
#    y 0.000000 1.593620 0.000000 
#    z -0.014250 0.000000 1.593200 
# 
# From -- ./inp_files/283335.got.cif
#   From: 2010.05.17/outbox.cif.g08.bks.cpg/sg12_142_cif.got.tgz:283335.got - 2010.06.03 13:09:07.
