data_PCOD9174465
_publ_section_title
;
Structure prediction by ZEFSAII (Michael W. Deem and Ramdas Pophale) SiO2 
 PCOD9174465
Probable space group: C 2/M
;
_chemical_formula_sum "Si O2"
_cell_formula_units_Z 56
_cell_length_a 17.573880
_cell_length_b 13.959206
_cell_length_c 9.314577
_cell_angle_alpha 90.000000
_cell_angle_beta 80.414282
_cell_angle_gamma 90.000000
_cell_volume 2253.123388
_symmetry_space_group_name_H-M "C 2/M"
_symmetry_group_IT_number 12
_symmetry_cell_setting 'monoclinic'
loop_
_space_group_symop_operation_xyz
x,y,z
-x,y,-z
-x,-y,-z
x,-y,z
1/2+x,1/2+y,z
1/2-x,1/2+y,-z
1/2-x,1/2-y,-z
1/2+x,1/2-y,z
loop_
_atom_site_type_symbol
_atom_site_label
_atom_site_fract_x
_atom_site_fract_y
_atom_site_fract_z
Si Si1 0.915567 0.395640 0.097113
Si Si2 0.831102 0.892300 0.697900
Si Si3 0.489759 0.848549 0.663820
Si Si4 0.595571 0.694625 0.596189
Si Si5 0.689430 0.891140 0.536227
Si Si6 0.659054 0.796505 0.124920
Si Si7 0.798202 0.108804 0.220223
O O1 0.879505 0.500000 0.084238
O O2 0.942529 0.385108 0.252317
O O3 0.867312 0.316252 0.029264
O O4 0.000000 0.394310 0.000000
O O5 0.884945 0.876760 0.539310
O O6 0.744170 0.882808 0.659601
O O7 0.844245 0.809748 0.809938
O O8 0.841137 0.000000 0.749213
O O9 0.500000 0.887934 0.500000
O O10 0.489910 0.735592 0.354502
O O11 0.405596 0.857366 0.760966
O O12 0.643212 0.791372 0.537470
O O13 0.625210 0.656150 0.739311
O O14 0.745558 0.889986 0.380852
O O15 0.657187 0.000000 0.543264
O O16 0.744022 0.837746 0.124366
O O17 0.812035 0.000000 0.170907
#
# Coordination Sequence:
#
# PCOD9174465 Si02
#       7
#     8   8   8   8   8   8   8
#     4   9  21  39  59  84 120 161 195 235 291 364
#     4  10  18  31  56  84 114 152 199 240 285 346
#     4  11  22  36  59  88 121 156 191 243 303 350
#     4  11  18  34  51  86 125 149 189 251 304 342
#     4   9  16  27  48  80 114 149 189 235 285 343
#     4  11  19  38  60  86 117 157 202 241 291 353
#     4  10  18  31  57  83 114 159 202 239 287 357
#
# _framework density 24.854386000000002
#
# number of rings (size 3 to 8) (size 9 to 14) (size 15 to 20)
#    0.000    1.857    4.286    2.571    0.000    1.429 
#    0.000    2.857    0.000    5.571    0.000    0.000 
#    0.000    0.000    0.000    0.000    0.000    0.000 
#
# Total GULP energy -156505.422420 kJ/mol
# GULP energy per Si atom -5589.479372 kJ/mol
# Density = 2.479782 g / cm^3
# Si number density = 24.854386 Si / 1000 Ang^3
#
#
#
# Elastic Constant Matrix: (Units=GPa)
#
#
# Indices 1 2 3 4 5 6 
#
# 1 57.4338 10.4879 16.8126 0.0000 14.7951 0.0000
# 2 10.4879 120.8167 45.4100 0.0000 25.9054 0.0000
# 3 16.8126 45.4100 143.9054 0.0000 28.3034 0.0000
# 4 0.0000 0.0000 0.0000 25.8859 0.0000 4.3716
# 5 14.7951 25.9054 28.3034 0.0000 44.4341 0.0000
# 6 0.0000 0.0000 0.0000 4.3716 0.0000 27.6171
#
#
#
# Elastic Compliance Matrix: (Units=1/GPa)
#
#
# Indices 1 2 3 4 5 6 
#
# 1 0.019204 -0.000032 -0.001120 0.000000 -0.005662 0.000000
# 2 -0.000032 0.010093 -0.002316 0.000000 -0.004399 0.000000
# 3 -0.001120 -0.002316 0.008542 0.000000 -0.003718 0.000000
# 4 0.000000 0.000000 0.000000 0.039692 0.000000 -0.006283
# 5 -0.005662 -0.004399 -0.003718 0.000000 0.029323 0.000000
# 6 0.000000 0.000000 0.000000 -0.006283 0.000000 0.037204
#
#
# Mechanical properties :
#
#
# Convention : Reuss Voigt Hill
#
# Bulk Modulus (GPa) = 32.35943 51.95299 42.15621
# Shear Modulus (GPa) = 30.99907 36.21713 33.60810
#
# Velocity S-wave (km/s) = 3.53544 3.82143 3.68122
# Velocity P-wave (km/s) = 5.45102 6.35763 5.92170
#
# Compressibility (1/GPa) = 0.03090289
#
# Stress axis : x y z
#
# Youngs Moduli (GPa) = 52.07356 99.07392 117.06943
#
# Poissons Ratio (x) = 0.00318 0.13110
# Poissons Ratio (y) = 0.00167 0.27116
# Poissons Ratio (z) = 0.05831 0.22947
#
# Static dielectric constant tensor:
#      x y z
#    x 2.070580 0.000000 -0.041650 
#    y 0.000000 1.964660 0.000000 
#    z -0.041650 0.000000 2.095780 
# 
# From -- ./inp_files/104111.got.cif
#   From: 2010.05.17/outbox.cif.g08.bks.cpg/sg12_53_cif.got.tgz:104111.got - 2010.06.03 13:09:07.
