data_PCOD9174986
_publ_section_title
;
Structure prediction by ZEFSAII (Michael W. Deem and Ramdas Pophale) SiO2 
 PCOD9174986
Probable space group: C 2/M
;
_chemical_formula_sum "Si O2"
_cell_formula_units_Z 58
_cell_length_a 34.680040
_cell_length_b 7.413759
_cell_length_c 12.006077
_cell_angle_alpha 90.000000
_cell_angle_beta 112.980963
_cell_angle_gamma 90.000000
_cell_volume 2841.884894
_symmetry_space_group_name_H-M "C 2/M"
_symmetry_group_IT_number 12
_symmetry_cell_setting 'monoclinic'
loop_
_space_group_symop_operation_xyz
x,y,z
-x,y,-z
-x,-y,-z
x,-y,z
1/2+x,1/2+y,z
1/2-x,1/2+y,-z
1/2-x,1/2-y,-z
1/2+x,1/2-y,z
loop_
_atom_site_type_symbol
_atom_site_label
_atom_site_fract_x
_atom_site_fract_y
_atom_site_fract_z
Si Si1 0.046961 0.217978 0.549609
Si Si2 0.891088 0.290893 0.581793
Si Si3 0.617566 0.717860 0.783690
Si Si4 0.000000 0.500000 0.000000
Si Si5 0.073742 0.791821 0.140765
Si Si6 0.180268 0.707754 0.656170
Si Si7 0.241033 0.216850 0.121827
Si Si8 0.647075 0.280603 0.057538
O O1 0.074138 0.281256 0.476063
O O2 0.071844 0.268221 0.689052
O O3 0.000000 0.284766 0.500000
O O4 0.046291 0.000000 0.542269
O O5 0.883189 0.500000 0.598914
O O6 0.910641 0.206566 0.713794
O O7 0.848334 0.214895 0.476479
O O8 0.563733 0.500000 0.096921
O O9 0.650014 0.789812 0.729738
O O10 0.627748 0.777729 0.918128
O O11 0.035000 0.658709 0.074900
O O12 0.378788 0.500000 0.215537
O O13 0.114634 0.729409 0.116552
O O14 0.188760 0.500000 0.634917
O O15 0.222975 0.787943 0.754274
O O16 0.195248 0.280820 0.108718
O O17 0.241703 0.000000 0.131781
O O18 0.250000 0.250000 0.000000
O O19 0.648688 0.500000 0.061022
#
# Coordination Sequence:
#
# PCOD9174986 Si02
#       8
#     8   8   8   2   8   8   8   8
#     4   9  18  31  52  81 109 146 196 249 313 383
#     4  10  20  38  58  82 120 161 210 260 313 380
#     4   9  16  30  50  76 113 151 194 243 300 371
#     4  12  26  48  68  98 118 160 222 264 320 392
#     4  11  24  45  69  93 125 168 211 266 325 377
#     4   9  18  31  53  84 119 162 202 250 311 366
#     4  10  18  32  54  87 125 166 210 255 313 379
#     4   9  19  35  57  85 123 163 205 260 319 379
#
# _framework density 20.408989999999999
#
# number of rings (size 3 to 8) (size 9 to 14) (size 15 to 20)
#    0.000    2.345    2.069    0.621    0.000    1.931 
#    2.483    3.448    0.000    0.000    0.000    0.000 
#    0.000    0.000    0.000    0.000    0.000    0.000 
#
# Total GULP energy -161435.948570 kJ/mol
# GULP energy per Si atom -5566.756847 kJ/mol
# Density = 2.036254 g / cm^3
# Si number density = 20.408990 Si / 1000 Ang^3
#
#
#
# Elastic Constant Matrix: (Units=GPa)
#
#
# Indices 1 2 3 4 5 6 
#
# 1 158.0019 28.4527 90.5664 0.0000 44.4693 0.0000
# 2 28.4527 95.8852 15.5505 0.0000 11.7516 0.0000
# 3 90.5664 15.5505 107.8803 0.0000 27.1066 0.0000
# 4 0.0000 0.0000 0.0000 23.7186 0.0000 0.8439
# 5 44.4693 11.7516 27.1066 0.0000 30.5612 0.0000
# 6 0.0000 0.0000 0.0000 0.8439 0.0000 8.7660
#
#
#
# Elastic Compliance Matrix: (Units=1/GPa)
#
#
# Indices 1 2 3 4 5 6 
#
# 1 0.016293 -0.001472 -0.009845 0.000000 -0.014409 0.000000
# 2 -0.001472 0.011116 0.000218 0.000000 -0.002326 0.000000
# 3 -0.009845 0.000218 0.017918 0.000000 -0.001651 0.000000
# 4 0.000000 0.000000 0.000000 0.042306 0.000000 -0.004073
# 5 -0.014409 -0.002326 -0.001651 0.000000 0.056046 0.000000
# 6 0.000000 0.000000 0.000000 -0.004073 0.000000 0.114469
#
#
# Mechanical properties :
#
#
# Convention : Reuss Voigt Hill
#
# Bulk Modulus (GPa) = 43.23832 70.10075 56.66954
# Shear Modulus (GPa) = 17.35776 27.75568 22.55672
#
# Velocity S-wave (km/s) = 2.91949 3.69178 3.32811
# Velocity P-wave (km/s) = 5.70933 7.25223 6.52654
#
# Compressibility (1/GPa) = 0.02312763
#
# Stress axis : x y z
#
# Youngs Moduli (GPa) = 61.37664 89.96341 55.80957
#
# Poissons Ratio (x) = 0.13243 0.54946
# Poissons Ratio (y) = 0.09035 -0.01216
# Poissons Ratio (z) = 0.60427 -0.01960
#
# Static dielectric constant tensor:
#      x y z
#    x 1.728850 0.000000 0.035930 
#    y 0.000000 1.850480 0.000000 
#    z 0.035930 0.000000 1.707750 
# 
# From -- ./inp_files/109999.got.cif
#   From: 2010.05.17/outbox.cif.g08.bks.cpg/sg12_55_cif.got.tgz:109999.got - 2010.06.03 13:09:07.
