data_PCOD9174704
_publ_section_title
;
Structure prediction by ZEFSAII (Michael W. Deem and Ramdas Pophale) SiO2 
 PCOD9174704
Probable space group: C 2/M
;
_chemical_formula_sum "Si O2"
_cell_formula_units_Z 56
_cell_length_a 19.815749
_cell_length_b 8.874699
_cell_length_c 22.390572
_cell_angle_alpha 90.000000
_cell_angle_beta 124.605107
_cell_angle_gamma 90.000000
_cell_volume 3240.965415
_symmetry_space_group_name_H-M "C 2/M"
_symmetry_group_IT_number 12
_symmetry_cell_setting 'monoclinic'
loop_
_space_group_symop_operation_xyz
x,y,z
-x,y,-z
-x,-y,-z
x,-y,z
1/2+x,1/2+y,z
1/2-x,1/2+y,-z
1/2-x,1/2-y,-z
1/2+x,1/2-y,z
loop_
_atom_site_type_symbol
_atom_site_label
_atom_site_fract_x
_atom_site_fract_y
_atom_site_fract_z
Si Si1 0.193308 0.819499 0.921053
Si Si2 0.343856 0.181711 0.762870
Si Si3 0.538909 0.818876 0.690006
Si Si4 0.711975 0.681614 0.793584
Si Si5 0.757225 0.680683 0.596388
Si Si6 0.490766 0.680530 0.195044
Si Si7 0.623042 0.180866 0.453170
O O1 0.218067 0.772849 0.866075
O O2 0.096981 0.780502 0.878401
O O3 0.200083 0.000000 0.927386
O O4 0.250000 0.750000 0.000000
O O5 0.290980 0.221177 0.794369
O O6 0.291397 0.226364 0.677878
O O7 0.431803 0.258983 0.802147
O O8 0.354300 0.000000 0.766196
O O9 0.629369 0.753969 0.725636
O O10 0.509840 0.755563 0.739650
O O11 0.470436 0.774249 0.606945
O O12 0.541076 0.000000 0.694083
O O13 0.702127 0.500000 0.786972
O O14 0.750859 0.500000 0.592549
O O15 0.670754 0.749090 0.532831
O O16 0.823698 0.723951 0.578931
O O17 0.494314 0.500000 0.203642
O O18 0.625893 0.000000 0.459454
#
# Coordination Sequence:
#
# PCOD9174704 Si02
#       7
#     8   8   8   8   8   8   8
#     4   9  19  36  56  80 104 131 166 205 248 300
#     4  10  19  35  54  75 105 138 172 213 257 304
#     4  10  18  32  52  74 101 135 178 218 256 305
#     4   9  20  36  54  77 106 135 169 212 256 303
#     4   9  17  29  46  70  98 131 171 212 257 303
#     4  10  20  33  53  80 106 132 171 213 250 300
#     4   9  17  29  45  70  99 129 172 218 256 299
#
# _framework density 17.278801999999999
#
# number of rings (size 3 to 8) (size 9 to 14) (size 15 to 20)
#    0.000    2.571    1.429    1.714    0.000    5.143 
#    0.000    1.429    0.000    8.571    0.000    0.000 
#    0.000    0.000    0.000    0.000    0.000    0.000 
#
# Total GULP energy -156121.759950 kJ/mol
# GULP energy per Si atom -5575.777141 kJ/mol
# Density = 1.723947 g / cm^3
# Si number density = 17.278802 Si / 1000 Ang^3
#
#
#
# Elastic Constant Matrix: (Units=GPa)
#
#
# Indices 1 2 3 4 5 6 
#
# 1 122.5832 35.1759 62.1009 0.0000 15.0325 0.0000
# 2 35.1759 20.4131 32.4425 0.0000 7.1029 0.0000
# 3 62.1009 32.4425 136.4515 0.0000 19.6790 0.0000
# 4 0.0000 0.0000 0.0000 30.5509 0.0000 6.8675
# 5 15.0325 7.1029 19.6790 0.0000 17.8330 0.0000
# 6 0.0000 0.0000 0.0000 6.8675 0.0000 24.7324
#
#
#
# Elastic Compliance Matrix: (Units=1/GPa)
#
#
# Indices 1 2 3 4 5 6 
#
# 1 0.016343 -0.025798 -0.000950 0.000000 -0.002452 0.000000
# 2 -0.025798 0.121974 -0.015923 0.000000 -0.009264 0.000000
# 3 -0.000950 -0.015923 0.012507 0.000000 -0.006659 0.000000
# 4 0.000000 0.000000 0.000000 0.034911 0.000000 -0.009694
# 5 -0.002452 -0.009264 -0.006659 0.000000 0.069181 0.000000
# 6 0.000000 0.000000 0.000000 -0.009694 0.000000 0.043125
#
#
# Mechanical properties :
#
#
# Convention : Reuss Voigt Hill
#
# Bulk Modulus (GPa) = 15.27177 59.87627 37.57402
# Shear Modulus (GPa) = 12.33923 24.60514 18.47219
#
# Velocity S-wave (km/s) = 2.67521 3.77770 3.27321
# Velocity P-wave (km/s) = 4.28952 7.33186 6.00650
#
# Compressibility (1/GPa) = 0.06548032
#
# Stress axis : x y z
#
# Youngs Moduli (GPa) = 61.18855 8.19847 79.95305
#
# Poissons Ratio (x) = 0.21151 0.07599
# Poissons Ratio (y) = 1.57857 1.27310
# Poissons Ratio (z) = 0.05816 0.13055
#
# Static dielectric constant tensor:
#      x y z
#    x 1.587190 0.000000 0.006750 
#    y 0.000000 1.597020 0.000000 
#    z 0.006750 0.000000 1.574660 
# 
# From -- ./inp_files/280417.got.cif
#   From: 2010.05.17/outbox.cif.g08.bks.cpg/sg12_141_cif.got.tgz:280417.got - 2010.06.03 13:09:07.
