data_PCOD9174437
_publ_section_title
;
Structure prediction by ZEFSAII (Michael W. Deem and Ramdas Pophale) SiO2 
 PCOD9174437
Probable space group: C 2/M
;
_chemical_formula_sum "Si O2"
_cell_formula_units_Z 56
_cell_length_a 9.018033
_cell_length_b 16.599364
_cell_length_c 20.924298
_cell_angle_alpha 90.000000
_cell_angle_beta 132.718833
_cell_angle_gamma 90.000000
_cell_volume 2301.225971
_symmetry_space_group_name_H-M "C 2/M"
_symmetry_group_IT_number 12
_symmetry_cell_setting 'monoclinic'
loop_
_space_group_symop_operation_xyz
x,y,z
-x,y,-z
-x,-y,-z
x,-y,z
1/2+x,1/2+y,z
1/2-x,1/2+y,-z
1/2-x,1/2-y,-z
1/2+x,1/2-y,z
loop_
_atom_site_type_symbol
_atom_site_label
_atom_site_fract_x
_atom_site_fract_y
_atom_site_fract_z
Si Si1 0.438618 0.087580 0.407118
Si Si2 0.328760 0.853103 0.839485
Si Si3 0.251349 0.346824 0.990684
Si Si4 0.013371 0.719017 0.767242
Si Si5 0.673798 0.594893 0.134310
Si Si6 0.065642 0.234101 0.592294
Si Si7 0.513931 0.414623 0.338593
O O1 0.500000 0.084701 0.500000
O O2 0.506538 0.176694 0.406149
O O3 0.195724 0.089893 0.341134
O O4 0.499304 0.000000 0.396202
O O5 0.523434 0.877388 0.936886
O O6 0.166690 0.792487 0.821159
O O7 0.430177 0.802422 0.812188
O O8 0.193147 0.915509 0.761623
O O9 0.295809 0.376151 0.930660
O O10 0.250000 0.250000 0.000000
O O11 0.443534 0.382952 0.084280
O O12 0.152113 0.646397 0.780383
O O13 0.809252 0.733354 0.668782
O O14 0.705047 0.500000 0.148658
O O15 0.989956 0.161070 0.614876
O O16 0.000000 0.223378 0.500000
O O17 0.537389 0.500000 0.380739
#
# Coordination Sequence:
#
# PCOD9174437 Si02
#       7
#     8   8   8   8   8   8   8
#     4   9  18  34  55  78 107 146 192 239 294 360
#     4  10  20  35  57  85 117 154 196 242 296 354
#     4  10  18  31  55  86 114 146 191 236 288 347
#     4  10  20  37  57  86 118 155 199 245 303 360
#     4  10  21  36  58  88 119 154 201 250 295 358
#     4  10  21  35  57  86 114 152 199 254 304 350
#     4  10  21  37  57  83 115 152 199 250 299 359
#
# _framework density 24.334854
#
# number of rings (size 3 to 8) (size 9 to 14) (size 15 to 20)
#    0.000    2.143    2.857    0.857    0.000    8.286 
#    0.000    0.000    0.000    5.143    0.000    9.000 
#    0.000    0.000    0.000    0.000    0.000    0.000 
#
# Total GULP energy -156269.665015 kJ/mol
# GULP energy per Si atom -5581.059465 kJ/mol
# Density = 2.427947 g / cm^3
# Si number density = 24.334854 Si / 1000 Ang^3
#
#
#
# Elastic Constant Matrix: (Units=GPa)
#
#
# Indices 1 2 3 4 5 6 
#
# 1 57.4089 14.6088 24.8503 0.0000 5.4764 0.0000
# 2 14.6088 202.2604 -0.1747 0.0000 -12.3400 0.0000
# 3 24.8503 -0.1747 112.3613 0.0000 20.3087 0.0000
# 4 0.0000 0.0000 0.0000 18.9153 0.0000 -1.5391
# 5 5.4764 -12.3400 20.3087 0.0000 33.5215 0.0000
# 6 0.0000 0.0000 0.0000 -1.5391 0.0000 27.9432
#
#
#
# Elastic Compliance Matrix: (Units=1/GPa)
#
#
# Indices 1 2 3 4 5 6 
#
# 1 0.019712 -0.001505 -0.004132 0.000000 -0.001271 0.000000
# 2 -0.001505 0.005186 -0.000055 0.000000 0.002188 0.000000
# 3 -0.004132 -0.000055 0.010887 0.000000 -0.005941 0.000000
# 4 0.000000 0.000000 0.000000 0.053105 0.000000 0.002925
# 5 -0.001271 0.002188 -0.005941 0.000000 0.034444 0.000000
# 6 0.000000 0.000000 0.000000 0.002925 0.000000 0.035948
#
#
# Mechanical properties :
#
#
# Convention : Reuss Voigt Hill
#
# Bulk Modulus (GPa) = 40.97983 50.06659 45.52321
# Shear Modulus (GPa) = 27.96417 38.25908 33.11163
#
# Velocity S-wave (km/s) = 3.39358 3.96939 3.69272
# Velocity P-wave (km/s) = 5.67729 6.45188 6.07694
#
# Compressibility (1/GPa) = 0.02440225
#
# Stress axis : x y z
#
# Youngs Moduli (GPa) = 50.73123 192.81714 91.84854
#
# Poissons Ratio (x) = 0.29016 0.37953
# Poissons Ratio (y) = 0.07634 0.00502
# Poissons Ratio (z) = 0.20963 0.01053
#
# Static dielectric constant tensor:
#      x y z
#    x 1.945020 0.000000 0.006600 
#    y 0.000000 1.972870 0.000000 
#    z 0.006600 0.000000 2.159540 
# 
# From -- ./inp_files/373988.got.cif
#   From: 2010.05.17/outbox.cif.g08.bks.cpg/sg12_187_cif.got.tgz:373988.got - 2010.06.03 13:09:07.
