data_PCOD9174339
_publ_section_title
;
Structure prediction by ZEFSAII (Michael W. Deem and Ramdas Pophale) SiO2 
 PCOD9174339
Probable space group: C 2/M
;
_chemical_formula_sum "Si O2"
_cell_formula_units_Z 56
_cell_length_a 18.042063
_cell_length_b 28.849901
_cell_length_c 8.296327
_cell_angle_alpha 90.000000
_cell_angle_beta 145.277278
_cell_angle_gamma 90.000000
_cell_volume 2459.747753
_symmetry_space_group_name_H-M "C 2/M"
_symmetry_group_IT_number 12
_symmetry_cell_setting 'monoclinic'
loop_
_space_group_symop_operation_xyz
x,y,z
-x,y,-z
-x,-y,-z
x,-y,z
1/2+x,1/2+y,z
1/2-x,1/2+y,-z
1/2-x,1/2-y,-z
1/2+x,1/2-y,z
loop_
_atom_site_type_symbol
_atom_site_label
_atom_site_fract_x
_atom_site_fract_y
_atom_site_fract_z
Si Si1 0.590196 0.637770 0.002502
Si Si2 0.708562 0.050922 0.944585
Si Si3 0.463983 0.078504 0.669906
Si Si4 0.277153 0.445947 0.595767
Si Si5 0.587055 0.831991 0.993206
Si Si6 0.142409 0.235647 0.173180
Si Si7 0.154488 0.889512 0.584110
O O1 0.483518 0.635031 0.672880
O O2 0.500000 0.640258 0.000000
O O3 0.664930 0.589964 0.168756
O O4 0.672527 0.685218 0.151449
O O5 0.599864 0.052059 0.892642
O O6 0.624192 0.063243 0.638134
O O7 0.765633 0.000000 0.030156
O O8 0.809787 0.089369 0.180032
O O9 0.376756 0.065462 0.667381
O O10 0.504546 0.132606 0.735817
O O11 0.299256 0.500000 0.668297
O O12 0.339801 0.431004 0.537916
O O13 0.500000 0.830902 0.000000
O O14 0.620984 0.778842 0.013610
O O15 0.728238 0.855998 0.263455
O O16 0.250000 0.250000 0.500000
O O17 0.000000 0.231546 0.000000
#
# Coordination Sequence:
#
# PCOD9174339 Si02
#       7
#     8   8   8   8   8   8   8
#     4   9  20  34  50  77 115 144 184 224 274 329
#     4  10  20  35  55  75 108 151 187 221 273 333
#     4  10  20  34  52  81 111 139 182 230 274 331
#     4  11  20  32  53  79 112 142 178 229 278 318
#     4  10  18  31  54  82 108 136 177 229 287 325
#     4  10  19  31  54  82 115 147 180 228 284 336
#     4  10  20  35  51  79 111 143 183 227 271 331
#
# _framework density 22.766563000000001
#
# number of rings (size 3 to 8) (size 9 to 14) (size 15 to 20)
#    0.000    2.000    1.429    4.714    2.000    3.143 
#    0.000    2.857    0.000    2.571    7.429    0.000 
#    0.000    0.000    0.000    0.000    0.000    0.000 
#
# Total GULP energy -156172.877738 kJ/mol
# GULP energy per Si atom -5577.602776 kJ/mol
# Density = 2.271475 g / cm^3
# Si number density = 22.766563 Si / 1000 Ang^3
#
#
#
# Elastic Constant Matrix: (Units=GPa)
#
#
# Indices 1 2 3 4 5 6 
#
# 1 41.9579 0.2914 -1.1436 0.0000 10.4716 0.0000
# 2 0.2914 200.6622 43.3022 0.0000 10.2664 0.0000
# 3 -1.1436 43.3022 99.9298 0.0000 10.3636 0.0000
# 4 0.0000 0.0000 0.0000 17.6823 0.0000 -1.3203
# 5 10.4716 10.2664 10.3636 0.0000 23.1266 0.0000
# 6 0.0000 0.0000 0.0000 -1.3203 0.0000 8.6481
#
#
#
# Elastic Compliance Matrix: (Units=1/GPa)
#
#
# Indices 1 2 3 4 5 6 
#
# 1 0.027147 0.000299 0.001541 0.000000 -0.013115 0.000000
# 2 0.000299 0.005547 -0.002235 0.000000 -0.001596 0.000000
# 3 0.001541 -0.002235 0.011497 0.000000 -0.004858 0.000000
# 4 0.000000 0.000000 0.000000 0.057206 0.000000 0.008733
# 5 -0.013115 -0.001596 -0.004858 0.000000 0.052064 0.000000
# 6 0.000000 0.000000 0.000000 0.008733 0.000000 0.116965
#
#
# Mechanical properties :
#
#
# Convention : Reuss Voigt Hill
#
# Bulk Modulus (GPa) = 23.04069 47.49444 35.26756
# Shear Modulus (GPa) = 17.50200 29.89807 23.70003
#
# Velocity S-wave (km/s) = 2.77566 3.62780 3.22996
# Velocity P-wave (km/s) = 4.51827 6.20119 5.42538
#
# Compressibility (1/GPa) = 0.04340148
#
# Stress axis : x y z
#
# Youngs Moduli (GPa) = 36.83709 180.27842 86.98066
#
# Poissons Ratio (x) = -0.05390 -0.13406
# Poissons Ratio (y) = -0.01101 0.19437
# Poissons Ratio (z) = -0.05678 0.40286
#
# Static dielectric constant tensor:
#      x y z
#    x 1.836280 0.000000 -0.118860 
#    y 0.000000 1.922140 0.000000 
#    z -0.118860 0.000000 1.751600 
# 
# From -- ./inp_files/91606.got.cif
#   From: 2010.05.17/outbox.cif.g08.bks.cpg/sg12_46_cif.got.tgz:91606.got - 2010.06.03 13:09:07.
