data_PCOD9174988
_publ_section_title
;
Structure prediction by ZEFSAII (Michael W. Deem and Ramdas Pophale) SiO2 
 PCOD9174988
Probable space group: C 2/M
;
_chemical_formula_sum "Si O2"
_cell_formula_units_Z 48
_cell_length_a 30.165606
_cell_length_b 22.809394
_cell_length_c 12.193723
_cell_angle_alpha 90.000000
_cell_angle_beta 16.652195
_cell_angle_gamma 90.000000
_cell_volume 2404.249857
_symmetry_space_group_name_H-M "C 2/M"
_symmetry_group_IT_number 12
_symmetry_cell_setting 'monoclinic'
loop_
_space_group_symop_operation_xyz
x,y,z
-x,y,-z
-x,-y,-z
x,-y,z
1/2+x,1/2+y,z
1/2-x,1/2+y,-z
1/2-x,1/2-y,-z
1/2+x,1/2-y,z
loop_
_atom_site_type_symbol
_atom_site_label
_atom_site_fract_x
_atom_site_fract_y
_atom_site_fract_z
Si Si1 0.470502 0.298313 0.949304
Si Si2 0.443086 0.197438 0.743118
Si Si3 0.770538 0.707553 0.638813
Si Si4 0.414530 0.000000 0.533564
Si Si5 0.836083 0.876009 0.676225
Si Si6 0.779436 0.374723 0.813102
Si Si7 0.256869 0.000000 0.148109
O O1 0.559408 0.235504 0.748808
O O2 0.555253 0.332927 0.649601
O O3 0.500000 0.324991 0.000000
O O4 0.291622 0.301943 0.336828
O O5 0.500000 0.231545 0.500000
O O6 0.585891 0.169675 0.466767
O O7 0.340426 0.239843 0.057877
O O8 0.336653 0.145447 0.947852
O O9 0.736428 0.652402 0.798031
O O10 0.349002 0.060005 0.637726
O O11 0.343604 0.000000 0.824594
O O12 0.601003 0.000000 0.102629
O O13 0.839137 0.874413 0.801927
O O14 0.845848 0.941849 0.609006
#
# Coordination Sequence:
#
# PCOD9174988 Si02
#       7
#     8   8   8   4   8   8   4
#     4  11  24  40  55  79 109 150 194 233 281 335
#     4   9  17  28  49  83 113 139 173 216 277 338
#     4  11  22  36  58  80 114 147 180 235 285 343
#     4   9  16  28  53  86 123 146 182 227 274 347
#     4   9  19  31  55  82 112 144 185 229 276 335
#     4  10  18  32  54  89 116 144 179 231 286 329
#     4   9  14  30  54  82 112 152 186 226 279 328
#
# _framework density 19.964646999999999
#
# number of rings (size 3 to 8) (size 9 to 14) (size 15 to 20)
#    0.000    2.167    3.333    0.500    2.333    2.000 
#    0.000    1.250    0.000    3.000    0.000    1.750 
#    0.000    0.000    0.000    0.000    0.000    0.000 
#
# Total GULP energy -133738.911447 kJ/mol
# GULP energy per Si atom -5572.454644 kJ/mol
# Density = 1.991921 g / cm^3
# Si number density = 19.964647 Si / 1000 Ang^3
#
#
#
# Elastic Constant Matrix: (Units=GPa)
#
#
# Indices 1 2 3 4 5 6 
#
# 1 120.0389 42.6350 29.2381 -0.0036 -22.2135 0.0015
# 2 42.6350 96.7976 10.6375 -0.0010 -0.7841 -0.0003
# 3 29.2381 10.6375 41.1289 -0.0070 -3.4990 -0.0079
# 4 -0.0036 -0.0010 -0.0070 10.5607 -0.0016 0.7765
# 5 -22.2135 -0.7841 -3.4990 -0.0016 28.6739 0.0018
# 6 0.0015 -0.0003 -0.0079 0.7765 0.0018 3.8826
#
#
#
# Elastic Compliance Matrix: (Units=1/GPa)
#
#
# Indices 1 2 3 4 5 6 
#
# 1 0.013812 -0.005163 -0.007665 0.000003 0.009624 -0.000026
# 2 -0.005163 0.012563 0.000111 -0.000001 -0.003643 0.000005
# 3 -0.007665 0.000111 0.029536 0.000012 -0.002331 0.000062
# 4 0.000003 -0.000001 0.000012 0.096104 0.000010 -0.019220
# 5 0.009624 -0.003643 -0.002331 0.000010 0.041947 -0.000030
# 6 -0.000026 0.000005 0.000062 -0.019220 -0.000030 0.261403
#
#
# Mechanical properties :
#
#
# Convention : Reuss Voigt Hill
#
# Bulk Modulus (GPa) = 32.81119 46.99851 39.90485
# Shear Modulus (GPa) = 10.18416 20.32042 15.25229
#
# Velocity S-wave (km/s) = 2.26101 3.19379 2.76699
# Velocity P-wave (km/s) = 4.82561 6.09855 5.49904
#
# Compressibility (1/GPa) = 0.03047741
#
# Stress axis : x y z
#
# Youngs Moduli (GPa) = 72.39822 79.59648 33.85739
#
# Poissons Ratio (x) = 0.41100 0.25952
# Poissons Ratio (y) = 0.37383 -0.00377
# Poissons Ratio (z) = 0.55493 -0.00887
#
# Static dielectric constant tensor:
#      x y z
#    x 1.767830 0.000000 -0.018670 
#    y 0.000000 1.705160 0.000010 
#    z -0.018670 0.000010 1.769240 
# 
# From -- ./inp_files/185025.got.cif
#   From: 2010.05.17/outbox.cif.g08.bks.cpg/sg12_93_cif.got.tgz:185025.got - 2010.06.03 13:09:07.
