data_PCOD9174519
_publ_section_title
;
Structure prediction by ZEFSAII (Michael W. Deem and Ramdas Pophale) SiO2 
 PCOD9174519
Probable space group: C 2/M
;
_chemical_formula_sum "Si O2"
_cell_formula_units_Z 46
_cell_length_a 9.952857
_cell_length_b 23.138199
_cell_length_c 15.361249
_cell_angle_alpha 90.000000
_cell_angle_beta 141.227222
_cell_angle_gamma 90.000000
_cell_volume 2215.338618
_symmetry_space_group_name_H-M "C 2/M"
_symmetry_group_IT_number 12
_symmetry_cell_setting 'monoclinic'
loop_
_space_group_symop_operation_xyz
x,y,z
-x,y,-z
-x,-y,-z
x,-y,z
1/2+x,1/2+y,z
1/2-x,1/2+y,-z
1/2-x,1/2-y,-z
1/2+x,1/2-y,z
loop_
_atom_site_type_symbol
_atom_site_label
_atom_site_fract_x
_atom_site_fract_y
_atom_site_fract_z
Si Si1 0.631897 0.405713 0.795925
Si Si2 0.500000 0.824740 0.500000
Si Si3 0.678793 0.233945 0.366916
Si Si4 0.591760 0.000000 0.401564
Si Si5 0.741087 0.382170 0.526114
Si Si6 0.000000 0.500000 0.000000
Si Si7 0.330091 0.500000 0.710682
Si Si8 0.739773 0.222537 0.089132
O O1 0.486269 0.390741 0.637426
O O2 0.475878 0.442746 0.781072
O O3 0.704210 0.345272 0.873951
O O4 0.829582 0.448881 0.881059
O O5 0.308494 0.780768 0.375704
O O6 0.405729 0.863081 0.530727
O O7 0.750000 0.250000 0.500000
O O8 0.747774 0.167625 0.395826
O O9 0.428342 0.244007 0.234060
O O10 0.672242 0.057340 0.395538
O O11 0.709394 0.000000 0.555942
O O12 0.341903 0.000000 0.299422
O O13 0.500000 0.231067 0.000000
O O14 0.750000 0.250000 0.000000
#
# Coordination Sequence:
#
# PCOD9174519 Si02
#       8
#     8   4   8   4   8   2   4   8
#     4  10  18  35  54  88 121 164 209 264 313 388
#     4  10  18  31  58  87 118 156 212 266 320 372
#     4  10  22  37  61  88 123 171 210 265 323 391
#     4   9  16  26  50  85 111 144 188 272 312 362
#     4  10  19  33  57  85 119 152 213 259 321 379
#     4  10  20  34  60  84 134 166 216 270 330 364
#     4   8  16  26  50  81 110 146 198 256 312 348
#     4  12  27  41  62  96 136 171 216 269 333 399
#
# _framework density 20.764320000000001
#
# number of rings (size 3 to 8) (size 9 to 14) (size 15 to 20)
#    0.000    1.913    4.348    2.609    4.870    0.000 
#    0.000    0.000    0.000    2.609    0.000    4.261 
#    0.000    0.000    0.000    0.000    0.000    0.000 
#
# Total GULP energy -128076.116510 kJ/mol
# GULP energy per Si atom -5568.526805 kJ/mol
# Density = 2.071706 g / cm^3
# Si number density = 20.764320 Si / 1000 Ang^3
#
#
#
# Elastic Constant Matrix: (Units=GPa)
#
#
# Indices 1 2 3 4 5 6 
#
# 1 61.5512 31.9515 43.4216 0.0001 21.2993 0.0001
# 2 31.9515 178.0615 57.4600 0.0000 16.0986 0.0000
# 3 43.4216 57.4600 134.6938 0.0004 35.8649 0.0004
# 4 0.0001 0.0000 0.0004 31.5087 0.0002 13.3994
# 5 21.2993 16.0986 35.8649 0.0002 29.8752 0.0001
# 6 0.0001 0.0000 0.0004 13.3994 0.0001 20.1639
#
#
#
# Elastic Compliance Matrix: (Units=1/GPa)
#
#
# Indices 1 2 3 4 5 6 
#
# 1 0.023935 -0.002034 -0.003816 0.000000 -0.011387 0.000000
# 2 -0.002034 0.006687 -0.002386 0.000000 0.000712 0.000000
# 3 -0.003816 -0.002386 0.012649 0.000000 -0.011178 0.000000
# 4 0.000000 0.000000 0.000000 0.044239 0.000000 -0.029398
# 5 -0.011387 0.000712 -0.011178 0.000000 0.054626 0.000000
# 6 0.000000 0.000000 0.000000 -0.029398 0.000000 0.069129
#
#
# Mechanical properties :
#
#
# Convention : Reuss Voigt Hill
#
# Bulk Modulus (GPa) = 37.31707 71.10808 54.21257
# Shear Modulus (GPa) = 21.12637 32.40780 26.76708
#
# Velocity S-wave (km/s) = 3.19319 3.95491 3.59429
# Velocity P-wave (km/s) = 5.62192 7.42797 6.58714
#
# Compressibility (1/GPa) = 0.02679739
#
# Stress axis : x y z
#
# Youngs Moduli (GPa) = 41.77981 149.54988 79.05780
#
# Poissons Ratio (x) = 0.30417 0.30172
# Poissons Ratio (y) = 0.08498 0.18866
# Poissons Ratio (z) = 0.15945 0.35688
#
# Static dielectric constant tensor:
#      x y z
#    x 1.788110 0.000000 0.022960 
#    y 0.000000 1.824130 0.000000 
#    z 0.022960 0.000000 1.726260 
# 
# From -- ./inp_files/265747.got.cif
#   From: 2010.05.17/outbox.cif.g08.bks.cpg/sg12_133_cif.got.tgz:265747.got - 2010.06.03 13:09:07.
