data_PCOD9174652
_publ_section_title
;
Structure prediction by ZEFSAII (Michael W. Deem and Ramdas Pophale) SiO2 
 PCOD9174652
Probable space group: C 2/M
;
_chemical_formula_sum "Si O2"
_cell_formula_units_Z 64
_cell_length_a 19.985580
_cell_length_b 25.734303
_cell_length_c 11.490029
_cell_angle_alpha 90.000000
_cell_angle_beta 43.314780
_cell_angle_gamma 90.000000
_cell_volume 4053.948688
_symmetry_space_group_name_H-M "C 2/M"
_symmetry_group_IT_number 12
_symmetry_cell_setting 'monoclinic'
loop_
_space_group_symop_operation_xyz
x,y,z
-x,y,-z
-x,-y,-z
x,-y,z
1/2+x,1/2+y,z
1/2-x,1/2+y,-z
1/2-x,1/2-y,-z
1/2+x,1/2-y,z
loop_
_atom_site_type_symbol
_atom_site_label
_atom_site_fract_x
_atom_site_fract_y
_atom_site_fract_z
Si Si1 0.084484 0.439637 0.633111
Si Si2 0.398545 0.145654 0.558669
Si Si3 0.885725 0.238528 0.914134
Si Si4 0.893288 0.257264 0.399757
Si Si5 0.851633 0.440446 0.961292
Si Si6 0.719571 0.163730 0.067503
Si Si7 0.306492 0.222266 0.255184
Si Si8 0.383823 0.107473 0.160446
O O1 0.106683 0.500000 0.603485
O O2 0.120373 0.409768 0.474717
O O3 0.127552 0.414579 0.695806
O O4 0.966359 0.433709 0.783928
O O5 0.500000 0.145960 0.500000
O O6 0.404911 0.186484 0.445191
O O7 0.315767 0.159514 0.755090
O O8 0.850651 0.293493 0.903634
O O9 0.999931 0.232561 0.744923
O O10 0.824488 0.191565 0.934956
O O11 0.854767 0.245526 0.088584
O O12 0.809630 0.230051 0.583220
O O13 0.853489 0.261933 0.319069
O O14 0.823246 0.500000 0.968049
O O15 0.850247 0.431734 0.102252
O O16 0.794028 0.392734 0.974164
O O17 0.331078 0.161918 0.207177
O O18 0.500000 0.116460 0.000000
#
# Coordination Sequence:
#
# PCOD9174652 Si02
#       8
#     8   8   8   8   8   8   8   8
#     4  10  20  31  48  72 100 138 173 208 257 311
#     4  12  20  33  48  69 108 141 167 207 251 304
#     4  11  21  36  53  75 108 138 174 210 254 313
#     4  11  22  35  51  79 104 137 171 215 254 308
#     4  10  19  32  50  74 102 134 176 215 254 307
#     4  11  22  33  50  74 104 142 173 204 253 311
#     4  11  21  33  56  77 102 136 175 210 262 306
#     4  10  18  32  51  73 103 135 169 216 259 303
#
# _framework density 15.787077
#
# number of rings (size 3 to 8) (size 9 to 14) (size 15 to 20)
#    0.000    1.250    6.250    1.500    0.000    2.250 
#    0.000    0.000    0.000    0.000    0.000    2.625 
#    0.000    2.000    0.000    0.000    0.000    0.000 
#
# Total GULP energy -178474.311896 kJ/mol
# GULP energy per Si atom -5577.322247 kJ/mol
# Density = 1.575114 g / cm^3
# Si number density = 15.787077 Si / 1000 Ang^3
#
#
#
# Elastic Constant Matrix: (Units=GPa)
#
#
# Indices 1 2 3 4 5 6 
#
# 1 60.6053 34.5383 31.0235 0.0000 -2.1474 0.0000
# 2 34.5383 86.2520 17.7523 0.0000 1.2233 0.0000
# 3 31.0235 17.7523 61.4406 0.0000 -6.2461 0.0000
# 4 0.0000 0.0000 0.0000 15.9244 0.0000 1.9828
# 5 -2.1474 1.2233 -6.2461 0.0000 24.4575 0.0000
# 6 0.0000 0.0000 0.0000 1.9828 0.0000 22.0776
#
#
#
# Elastic Compliance Matrix: (Units=1/GPa)
#
#
# Indices 1 2 3 4 5 6 
#
# 1 0.027117 -0.008546 -0.011229 0.000000 -0.000059 0.000000
# 2 -0.008546 0.015079 -0.000200 0.000000 -0.001556 0.000000
# 3 -0.011229 -0.000200 0.022488 0.000000 0.004767 0.000000
# 4 0.000000 0.000000 0.000000 0.063507 0.000000 -0.005704
# 5 -0.000059 -0.001556 0.004767 0.000000 0.042177 0.000000
# 6 0.000000 0.000000 0.000000 -0.005704 0.000000 0.045807
#
#
# Mechanical properties :
#
#
# Convention : Reuss Voigt Hill
#
# Bulk Modulus (GPa) = 40.42998 41.65847 41.04422
# Shear Modulus (GPa) = 18.91290 20.82415 19.86852
#
# Velocity S-wave (km/s) = 3.46497 3.63583 3.55143
# Velocity P-wave (km/s) = 6.45547 6.63857 6.54766
#
# Compressibility (1/GPa) = 0.02473412
#
# Stress axis : x y z
#
# Youngs Moduli (GPa) = 36.87780 66.31565 44.46816
#
# Poissons Ratio (x) = 0.56677 0.49932
# Poissons Ratio (y) = 0.31518 0.00888
# Poissons Ratio (z) = 0.41409 0.01324
#
# Static dielectric constant tensor:
#      x y z
#    x 1.538220 0.000000 0.020770 
#    y 0.000000 1.522270 0.000000 
#    z 0.020770 0.000000 1.537440 
# 
# From -- ./inp_files/170163.got.cif
#   From: 2010.05.17/outbox.cif.g08.bks.cpg/sg12_86_cif.got.tgz:170163.got - 2010.06.03 13:09:07.
