data_PCOD9174162
_publ_section_title
;
Structure prediction by ZEFSAII (Michael W. Deem and Ramdas Pophale) SiO2 
 PCOD9174162
Probable space group: C 2/M
;
_chemical_formula_sum "Si O2"
_cell_formula_units_Z 64
_cell_length_a 16.619425
_cell_length_b 7.367329
_cell_length_c 24.545722
_cell_angle_alpha 90.000000
_cell_angle_beta 69.334856
_cell_angle_gamma 90.000000
_cell_volume 2812.026571
_symmetry_space_group_name_H-M "C 2/M"
_symmetry_group_IT_number 12
_symmetry_cell_setting 'monoclinic'
loop_
_space_group_symop_operation_xyz
x,y,z
-x,y,-z
-x,-y,-z
x,-y,z
1/2+x,1/2+y,z
1/2-x,1/2+y,-z
1/2-x,1/2-y,-z
1/2+x,1/2-y,z
loop_
_atom_site_type_symbol
_atom_site_label
_atom_site_fract_x
_atom_site_fract_y
_atom_site_fract_z
Si Si1 0.722245 0.282181 0.363040
Si Si2 0.971468 0.279651 0.876295
Si Si3 0.157866 0.279694 0.875719
Si Si4 0.478436 0.215441 0.564960
Si Si5 0.655691 0.216210 0.999795
Si Si6 0.602078 0.777392 0.633158
Si Si7 0.291431 0.280727 0.754771
Si Si8 0.475280 0.788792 0.754484
O O1 0.727176 0.500000 0.361512
O O2 0.623065 0.238847 0.399410
O O3 0.798143 0.220623 0.385600
O O4 0.740847 0.219959 0.296652
O O5 0.961421 0.500000 0.878740
O O6 0.910824 0.212047 0.939408
O O7 0.954482 0.212565 0.819207
O O8 0.069185 0.236774 0.867286
O O9 0.164587 0.500000 0.876658
O O10 0.235925 0.215391 0.819409
O O11 0.152950 0.212750 0.938836
O O12 0.500000 0.289297 0.500000
O O13 0.543405 0.284467 0.596366
O O14 0.493752 0.000000 0.559947
O O15 0.639745 0.000000 0.999461
O O16 0.750000 0.250000 0.000000
O O17 0.553363 0.716308 0.699924
O O18 0.600227 0.000000 0.632818
O O19 0.288083 0.500000 0.755935
O O20 0.389735 0.224990 0.739120
O O21 0.496388 0.000000 0.758726
#
# Coordination Sequence:
#
# PCOD9174162 Si02
#       8
#     8   8   8   8   8   8   8   8
#     4  10  20  35  56  80 107 140 180 221 257 307
#     4   9  17  29  48  73  94 123 173 215 245 298
#     4   9  17  30  48  70  97 129 166 210 256 300
#     4  10  21  38  58  81 111 143 175 214 262 316
#     4  10  19  31  48  69  95 127 163 208 256 304
#     4   9  18  34  55  78 106 142 178 212 260 315
#     4  10  19  31  50  76 103 131 168 214 260 303
#     4  10  18  31  53  75 100 135 172 212 257 309
#
# _framework density 22.759387
#
# number of rings (size 3 to 8) (size 9 to 14) (size 15 to 20)
#    0.000    2.375    1.250    1.875    0.000    5.250 
#    0.000    1.250    0.000    5.250    0.000    0.000 
#    0.000    0.000    0.000    0.000    0.000    0.000 
#
# Total GULP energy -178710.163491 kJ/mol
# GULP energy per Si atom -5584.692609 kJ/mol
# Density = 2.270759 g / cm^3
# Si number density = 22.759387 Si / 1000 Ang^3
#
#
#
# Elastic Constant Matrix: (Units=GPa)
#
#
# Indices 1 2 3 4 5 6 
#
# 1 131.9705 -12.1775 62.8087 -0.0001 15.2343 0.0000
# 2 -12.1775 81.2263 7.3748 -0.0035 4.7401 -0.0011
# 3 62.8087 7.3748 149.1818 -0.0006 16.7485 -0.0002
# 4 -0.0001 -0.0035 -0.0006 254.5685 -0.0025 73.7288
# 5 15.2343 4.7401 16.7485 -0.0025 20.5344 -0.0008
# 6 0.0000 -0.0011 -0.0002 73.7288 -0.0008 41.0123
#
#
#
# Elastic Compliance Matrix: (Units=1/GPa)
#
#
# Indices 1 2 3 4 5 6 
#
# 1 0.010170 0.002160 -0.003837 0.000000 -0.004914 0.000000
# 2 0.002160 0.012952 -0.001138 0.000000 -0.003664 0.000000
# 3 -0.003837 -0.001138 0.008835 0.000000 -0.004097 0.000000
# 4 0.000000 0.000000 0.000000 0.008195 0.000000 -0.014732
# 5 -0.004914 -0.003664 -0.004097 0.000000 0.056532 0.000000
# 6 0.000000 0.000000 0.000000 -0.014732 0.000000 0.050868
#
#
# Mechanical properties :
#
#
# Convention : Reuss Voigt Hill
#
# Bulk Modulus (GPa) = 37.98451 53.15451 45.56951
# Shear Modulus (GPa) = 30.87222 83.51455 57.19338
#
# Velocity S-wave (km/s) = 3.68701 6.06417 5.01838
# Velocity P-wave (km/s) = 5.90349 8.51105 7.32425
#
# Compressibility (1/GPa) = 0.02632652
#
# Stress axis : x y z
#
# Youngs Moduli (GPa) = 98.32719 77.20667 113.18817
#
# Poissons Ratio (x) = -0.16676 0.43429
# Poissons Ratio (y) = -0.21237 0.12884
# Poissons Ratio (z) = 0.37727 0.08789
#
# Static dielectric constant tensor:
#      x y z
#    x 1.798160 0.000000 0.015040 
#    y 0.000000 1.872170 0.000000 
#    z 0.015040 0.000000 1.862010 
# 
# From -- ./inp_files/309883.got.cif
#   From: 2010.05.17/outbox.cif.g08.bks.cpg/sg12_155_cif.got.tgz:309883.got - 2010.06.03 13:09:07.
