data_PCOD9174022
_publ_section_title
;
Structure prediction by ZEFSAII (Michael W. Deem and Ramdas Pophale) SiO2 
 PCOD9174022
Probable space group: C 2/M
;
_chemical_formula_sum "Si O2"
_cell_formula_units_Z 48
_cell_length_a 18.085398
_cell_length_b 8.768833
_cell_length_c 18.388245
_cell_angle_alpha 90.000000
_cell_angle_beta 127.868938
_cell_angle_gamma 90.000000
_cell_volume 2302.059914
_symmetry_space_group_name_H-M "C 2/M"
_symmetry_group_IT_number 12
_symmetry_cell_setting 'monoclinic'
loop_
_space_group_symop_operation_xyz
x,y,z
-x,y,-z
-x,-y,-z
x,-y,z
1/2+x,1/2+y,z
1/2-x,1/2+y,-z
1/2-x,1/2-y,-z
1/2+x,1/2-y,z
loop_
_atom_site_type_symbol
_atom_site_label
_atom_site_fract_x
_atom_site_fract_y
_atom_site_fract_z
Si Si1 0.575651 0.328607 0.748777
Si Si2 0.250362 0.317999 0.580600
Si Si3 0.933680 0.320697 0.766467
Si Si4 0.827562 0.816214 0.331286
Si Si5 0.360157 0.318867 0.856751
Si Si6 0.280070 0.828766 0.943668
O O1 0.534673 0.500000 0.729400
O O2 0.522193 0.216576 0.769981
O O3 0.585606 0.283639 0.670118
O O4 0.682232 0.338431 0.840847
O O5 0.242468 0.500000 0.574938
O O6 0.250000 0.250000 0.500000
O O7 0.348526 0.265494 0.675118
O O8 0.171798 0.245430 0.586396
O O9 0.914749 0.500000 0.757868
O O10 0.937469 0.255999 0.850760
O O11 0.737272 0.734272 0.240441
O O12 0.814200 0.000000 0.322793
O O13 0.368481 0.500000 0.860513
O O14 0.351217 0.259559 0.933713
O O15 0.314942 0.000000 0.978303
O O16 0.250000 0.750000 0.000000
#
# Coordination Sequence:
#
# PCOD9174022 Si02
#       6
#     8   8   8   8   8   8
#     4   9  19  35  54  77 106 138 170 210 259 308
#     4  11  21  35  55  78 106 137 173 214 258 308
#     4  11  21  34  54  79 106 136 174 216 256 304
#     4   9  17  32  53  76 103 135 173 212 254 307
#     4  10  18  31  52  75 102 137 175 211 253 307
#     4  10  20  35  55  79 107 137 173 215 260 309
#
# _framework density 20.850891000000001
#
# number of rings (size 3 to 8) (size 9 to 14) (size 15 to 20)
#    0.000    2.000    0.000    8.500    0.000    4.000 
#    0.000    1.667    0.000   10.000    0.000    0.000 
#    0.000    0.000    0.000    0.000    0.000    0.000 
#
# Total GULP energy -133922.182186 kJ/mol
# GULP energy per Si atom -5580.090924 kJ/mol
# Density = 2.080343 g / cm^3
# Si number density = 20.850891 Si / 1000 Ang^3
#
#
#
# Elastic Constant Matrix: (Units=GPa)
#
#
# Indices 1 2 3 4 5 6 
#
# 1 130.0726 65.9825 38.8933 0.0000 -56.6615 0.0000
# 2 65.9825 158.7742 28.5878 0.0000 -39.7706 0.0000
# 3 38.8933 28.5878 58.4596 0.0000 -41.5737 0.0000
# 4 0.0000 0.0000 0.0000 23.9723 0.0000 -11.3134
# 5 -56.6615 -39.7706 -41.5737 0.0000 49.1162 0.0000
# 6 0.0000 0.0000 0.0000 -11.3134 0.0000 37.5412
#
#
#
# Elastic Compliance Matrix: (Units=1/GPa)
#
#
# Indices 1 2 3 4 5 6 
#
# 1 0.017078 -0.002467 0.006116 0.000000 0.022881 0.000000
# 2 -0.002467 0.008327 0.000855 0.000000 0.004620 0.000000
# 3 0.006116 0.000855 0.045543 0.000000 0.046297 0.000000
# 4 0.000000 0.000000 0.000000 0.048631 0.000000 0.014656
# 5 0.022881 0.004620 0.046297 0.000000 0.089684 0.000000
# 6 0.000000 0.000000 0.000000 0.014656 0.000000 0.031054
#
#
# Mechanical properties :
#
#
# Convention : Reuss Voigt Hill
#
# Bulk Modulus (GPa) = 12.50693 68.24817 40.37755
# Shear Modulus (GPa) = 19.38277 36.38214 27.88246
#
# Velocity S-wave (km/s) = 3.05222 4.18170 3.66078
# Velocity P-wave (km/s) = 4.29334 7.49120 6.10536
#
# Compressibility (1/GPa) = 0.07995570
#
# Stress axis : x y z
#
# Youngs Moduli (GPa) = 58.55539 120.09396 21.95724
#
# Poissons Ratio (x) = 0.29628 -0.13429
# Poissons Ratio (y) = 0.14446 -0.01877
# Poissons Ratio (z) = -0.35813 -0.10267
#
# Static dielectric constant tensor:
#      x y z
#    x 1.809080 0.000000 -0.020760 
#    y 0.000000 1.703970 0.000000 
#    z -0.020760 0.000000 1.804650 
# 
# From -- ./inp_files/273716.got.cif
#   From: 2010.05.17/outbox.cif.g08.bks.cpg/sg12_137_cif.got.tgz:273716.got - 2010.06.03 13:09:07.
