data_PCOD9174535
_publ_section_title
;
Structure prediction by ZEFSAII (Michael W. Deem and Ramdas Pophale) SiO2 
 PCOD9174535
Probable space group: C 2/M
;
_chemical_formula_sum "Si O2"
_cell_formula_units_Z 58
_cell_length_a 20.279380
_cell_length_b 23.764646
_cell_length_c 20.044575
_cell_angle_alpha 90.000000
_cell_angle_beta 160.026617
_cell_angle_gamma 90.000000
_cell_volume 3299.740946
_symmetry_space_group_name_H-M "C 2/M"
_symmetry_group_IT_number 12
_symmetry_cell_setting 'monoclinic'
loop_
_space_group_symop_operation_xyz
x,y,z
-x,y,-z
-x,-y,-z
x,-y,z
1/2+x,1/2+y,z
1/2-x,1/2+y,-z
1/2-x,1/2-y,-z
1/2+x,1/2-y,z
loop_
_atom_site_type_symbol
_atom_site_label
_atom_site_fract_x
_atom_site_fract_y
_atom_site_fract_z
Si Si1 0.356222 0.140227 0.584789
Si Si2 0.000000 0.500000 0.500000
Si Si3 0.428100 0.330929 0.189489
Si Si4 0.228601 0.404154 0.639619
Si Si5 0.674105 0.438769 0.079185
Si Si6 0.774483 0.825495 0.794507
Si Si7 0.178181 0.564251 0.932219
Si Si8 0.690760 0.778175 0.851054
O O1 0.300287 0.106204 0.465301
O O2 0.474347 0.096808 0.743359
O O3 0.508443 0.188082 0.707953
O O4 0.155909 0.166335 0.418919
O O5 0.910789 0.450789 0.464686
O O6 0.325585 0.285332 0.139122
O O7 0.337297 0.392776 0.111936
O O8 0.372655 0.309058 0.061302
O O9 0.200929 0.343948 0.651565
O O10 0.445302 0.427876 0.856760
O O11 0.713166 0.500000 0.149861
O O12 0.743800 0.385651 0.185994
O O13 0.767559 0.438783 0.095227
O O14 0.695556 0.783666 0.775731
O O15 0.000000 0.811684 0.000000
O O16 0.178290 0.500000 0.956927
#
# Coordination Sequence:
#
# PCOD9174535 Si02
#       8
#     8   2   8   8   8   8   8   8
#     4  11  20  34  49  72  92 134 168 212 246 293
#     4  12  24  24  34  68  84 140 174 204 220 284
#     4  10  19  35  55  69  93 126 166 212 260 290
#     4  11  22  29  43  61 101 131 175 204 248 276
#     4  10  18  32  44  60  92 134 168 207 239 279
#     4  10  19  32  46  65  94 131 166 208 244 280
#     4  10  21  33  51  74  99 124 165 209 251 292
#     4  10  20  35  50  72  93 124 173 213 246 297
#
# _framework density 17.577138000000001
#
# number of rings (size 3 to 8) (size 9 to 14) (size 15 to 20)
#    0.000    1.655    4.828    2.069    1.931    1.379 
#    0.000    0.000    0.000    0.000    0.000    0.000 
#    0.000    0.552    0.000    3.724    0.000    0.000 
#
# Total GULP energy -161670.759023 kJ/mol
# GULP energy per Si atom -5574.853759 kJ/mol
# Density = 1.753713 g / cm^3
# Si number density = 17.577138 Si / 1000 Ang^3
#
#
#
# Elastic Constant Matrix: (Units=GPa)
#
#
# Indices 1 2 3 4 5 6 
#
# 1 26.0173 14.8339 5.6570 0.0047 4.2795 0.0022
# 2 14.8339 80.5289 9.4505 0.0039 8.3234 0.0028
# 3 5.6570 9.4505 60.9900 0.0203 20.5020 0.0112
# 4 0.0047 0.0039 0.0203 22.8090 0.0084 -4.1424
# 5 4.2795 8.3234 20.5020 0.0084 15.7688 0.0038
# 6 0.0022 0.0028 0.0112 -4.1424 0.0038 20.4668
#
#
#
# Elastic Compliance Matrix: (Units=1/GPa)
#
#
# Indices 1 2 3 4 5 6 
#
# 1 0.043906 -0.007259 -0.000409 -0.000005 -0.007553 -0.000003
# 2 -0.007259 0.014344 0.000593 0.000001 -0.006372 0.000000
# 3 -0.000409 0.000593 0.029150 -0.000014 -0.038102 -0.000012
# 4 -0.000005 0.000001 -0.000014 0.045515 -0.000007 0.009212
# 5 -0.007553 -0.006372 -0.038102 -0.000007 0.118369 -0.000001
# 6 -0.000003 0.000000 -0.000012 0.009212 -0.000001 0.050724
#
#
# Mechanical properties :
#
#
# Convention : Reuss Voigt Hill
#
# Bulk Modulus (GPa) = 13.65192 25.26878 19.46035
# Shear Modulus (GPa) = 14.68101 20.98191 17.83146
#
# Velocity S-wave (km/s) = 2.89318 3.45875 3.18853
# Velocity P-wave (km/s) = 4.35251 5.50979 4.96498
#
# Compressibility (1/GPa) = 0.07324975
#
# Stress axis : x y z
#
# Youngs Moduli (GPa) = 22.77592 69.71500 34.30486
#
# Poissons Ratio (x) = 0.50607 0.01402
# Poissons Ratio (y) = 0.16533 -0.02033
# Poissons Ratio (z) = 0.00931 -0.04131
#
# Static dielectric constant tensor:
#      x y z
#    x 1.610060 0.000000 -0.004460 
#    y 0.000000 1.628940 0.000000 
#    z -0.004460 0.000000 1.647830 
# 
# From -- ./inp_files/323127.got.cif
#   From: 2010.05.17/outbox.cif.g08.bks.cpg/sg12_162_cif.got.tgz:323127.got - 2010.06.03 13:09:07.
