data_PCOD9174937
_publ_section_title
;
Structure prediction by ZEFSAII (Michael W. Deem and Ramdas Pophale) SiO2 
 PCOD9174937
Probable space group: C 2/M
;
_chemical_formula_sum "Si O2"
_cell_formula_units_Z 56
_cell_length_a 20.193329
_cell_length_b 8.181102
_cell_length_c 21.028129
_cell_angle_alpha 90.000000
_cell_angle_beta 50.858719
_cell_angle_gamma 90.000000
_cell_volume 2694.347302
_symmetry_space_group_name_H-M "C 2/M"
_symmetry_group_IT_number 12
_symmetry_cell_setting 'monoclinic'
loop_
_space_group_symop_operation_xyz
x,y,z
-x,y,-z
-x,-y,-z
x,-y,z
1/2+x,1/2+y,z
1/2-x,1/2+y,-z
1/2-x,1/2-y,-z
1/2+x,1/2-y,z
loop_
_atom_site_type_symbol
_atom_site_label
_atom_site_fract_x
_atom_site_fract_y
_atom_site_fract_z
Si Si1 0.439253 0.306766 0.411684
Si Si2 0.789624 0.697599 0.909640
Si Si3 0.741926 0.696628 0.803975
Si Si4 0.396247 0.808876 0.620862
Si Si5 0.366727 0.692862 0.249170
Si Si6 0.784785 0.811681 0.575721
Si Si7 0.481802 0.809004 0.766503
O O1 0.438428 0.500000 0.424644
O O2 0.507115 0.224748 0.418236
O O3 0.342041 0.247588 0.482351
O O4 0.475058 0.276701 0.319974
O O5 0.789904 0.500000 0.907935
O O6 0.738355 0.757070 0.878166
O O7 0.887754 0.752221 0.841281
O O8 0.750000 0.750000 0.000000
O O9 0.731039 0.500000 0.811897
O O10 0.836870 0.724514 0.718509
O O11 0.676660 0.756295 0.789654
O O12 0.354651 0.702326 0.590588
O O13 0.385087 0.000000 0.610751
O O14 0.383679 0.500000 0.233171
O O15 0.296424 0.717119 0.347673
O O16 0.452561 0.783885 0.215855
O O17 0.759757 0.000000 0.581153
O O18 0.474548 0.000000 0.754174
#
# Coordination Sequence:
#
# PCOD9174937 Si02
#       7
#     8   8   8   8   8   8   8
#     4  11  22  34  52  80 116 154 199 247 290 340
#     4  10  21  40  64  91 117 145 184 233 290 349
#     4   8  16  35  59  83 113 149 188 231 280 337
#     4  10  18  32  54  80 113 154 198 242 290 343
#     4  10  21  38  61  85 114 155 200 239 284 344
#     4  10  21  35  51  79 117 156 198 246 290 334
#     4  11  23  40  61  84 117 154 189 239 297 349
#
# _framework density 20.784254000000001
#
# number of rings (size 3 to 8) (size 9 to 14) (size 15 to 20)
#    0.000    2.000    1.429    3.429    0.000    5.714 
#    0.000    2.143    0.000    4.286    0.000    0.000 
#    0.000    0.000    0.000    0.000    0.000    0.000 
#
# Total GULP energy -156381.190738 kJ/mol
# GULP energy per Si atom -5585.042526 kJ/mol
# Density = 2.073695 g / cm^3
# Si number density = 20.784254 Si / 1000 Ang^3
#
#
#
# Elastic Constant Matrix: (Units=GPa)
#
#
# Indices 1 2 3 4 5 6 
#
# 1 82.7362 -3.9277 38.0852 -0.0001 -2.5967 0.0001
# 2 -3.9277 32.9385 7.3151 -0.0002 2.2330 0.0003
# 3 38.0852 7.3151 115.9847 -0.0001 17.2767 0.0001
# 4 -0.0001 -0.0002 -0.0001 27.7710 0.0001 1.3618
# 5 -2.5967 2.2330 17.2767 0.0001 17.6521 -0.0001
# 6 0.0001 0.0003 0.0001 1.3618 -0.0001 26.6696
#
#
#
# Elastic Compliance Matrix: (Units=1/GPa)
#
#
# Indices 1 2 3 4 5 6 
#
# 1 0.015458 0.002722 -0.006480 0.000000 0.008271 0.000000
# 2 0.002722 0.031352 -0.002739 0.000000 -0.000885 0.000000
# 3 -0.006480 -0.002739 0.012892 0.000000 -0.013225 0.000000
# 4 0.000000 0.000000 0.000000 0.036099 0.000000 -0.001843
# 5 0.008271 -0.000885 -0.013225 0.000000 0.070923 0.000000
# 6 0.000000 0.000000 0.000000 -0.001843 0.000000 0.037590
#
#
# Mechanical properties :
#
#
# Convention : Reuss Voigt Hill
#
# Bulk Modulus (GPa) = 21.40957 34.95606 28.18282
# Shear Modulus (GPa) = 21.47043 27.09766 24.28405
#
# Velocity S-wave (km/s) = 3.21754 3.61468 3.42188
# Velocity P-wave (km/s) = 4.91189 5.85459 5.40384
#
# Compressibility (1/GPa) = 0.04670808
#
# Stress axis : x y z
#
# Youngs Moduli (GPa) = 64.69099 31.89544 77.56659
#
# Poissons Ratio (x) = -0.08681 0.50260
# Poissons Ratio (y) = -0.17606 0.21247
# Poissons Ratio (z) = 0.41917 0.08737
#
# Static dielectric constant tensor:
#      x y z
#    x 1.768590 0.000000 0.024850 
#    y 0.000000 1.717660 0.000000 
#    z 0.024850 0.000000 1.758510 
# 
# From -- ./inp_files/319634.got.cif
#   From: 2010.05.17/outbox.cif.g08.bks.cpg/sg12_160_cif.got.tgz:319634.got - 2010.06.03 13:09:07.
