data_PCOD9174594
_publ_section_title
;
Structure prediction by ZEFSAII (Michael W. Deem and Ramdas Pophale) SiO2 
 PCOD9174594
Probable space group: C 2/M
;
_chemical_formula_sum "Si O2"
_cell_formula_units_Z 48
_cell_length_a 19.335567
_cell_length_b 29.379802
_cell_length_c 5.008928
_cell_angle_alpha 90.000000
_cell_angle_beta 73.839426
_cell_angle_gamma 90.000000
_cell_volume 2733.010810
_symmetry_space_group_name_H-M "C 2/M"
_symmetry_group_IT_number 12
_symmetry_cell_setting 'monoclinic'
loop_
_space_group_symop_operation_xyz
x,y,z
-x,y,-z
-x,-y,-z
x,-y,z
1/2+x,1/2+y,z
1/2-x,1/2+y,-z
1/2-x,1/2-y,-z
1/2+x,1/2-y,z
loop_
_atom_site_type_symbol
_atom_site_label
_atom_site_fract_x
_atom_site_fract_y
_atom_site_fract_z
Si Si1 0.282635 0.000000 0.760811
Si Si2 0.843708 0.766193 0.672963
Si Si3 0.273990 0.691759 0.252738
Si Si4 0.880381 0.500000 0.154726
Si Si5 0.500000 0.170334 0.000000
Si Si6 0.217982 0.597926 0.119200
Si Si7 0.000000 0.733832 0.500000
Si Si8 0.380928 0.097707 0.276242
O O1 0.310133 0.000000 0.427125
O O2 0.246834 0.951691 0.867883
O O3 0.352843 0.000000 0.880933
O O4 0.802969 0.717957 0.670189
O O5 0.805717 0.801496 0.512423
O O6 0.927772 0.762092 0.524499
O O7 0.825269 0.781118 0.992734
O O8 0.264595 0.640809 0.158554
O O9 0.915825 0.548131 0.183707
O O10 0.481606 0.202120 0.770916
O O11 0.565530 0.138154 0.844641
O O12 0.148940 0.599005 0.392303
O O13 0.186952 0.601176 0.853854
#
# Coordination Sequence:
#
# PCOD9174594 Si02
#       8
#     4   8   8   4   4   8   4   8
#     4   8  16  28  46  69  92 123 150 190 246 286
#     4  10  21  34  50  71  96 126 160 199 244 286
#     4  10  19  33  52  73  95 124 161 199 238 287
#     4   8  16  29  42  60  92 124 158 199 236 270
#     4  12  22  31  48  66  88 128 170 201 236 276
#     4  10  18  32  50  69  97 123 156 199 243 287
#     4  12  24  38  50  69 100 127 160 206 248 290
#     4  10  19  30  45  67  92 127 164 198 238 278
#
# _framework density 17.563047999999998
#
# number of rings (size 3 to 8) (size 9 to 14) (size 15 to 20)
#    0.000    2.000    0.000    5.000    0.000    3.000 
#    0.000    0.000    0.000    7.000    0.000    0.000 
#    0.000    4.000    0.000    0.000    0.000    0.000 
#
# Total GULP energy -133939.121719 kJ/mol
# GULP energy per Si atom -5580.796738 kJ/mol
# Density = 1.752307 g / cm^3
# Si number density = 17.563048 Si / 1000 Ang^3
#
#
#
# Elastic Constant Matrix: (Units=GPa)
#
#
# Indices 1 2 3 4 5 6 
#
# 1 41.1466 15.7246 1.0237 0.0000 -11.1610 0.0000
# 2 15.7246 75.0310 -23.7418 0.0000 -4.7925 0.0000
# 3 1.0237 -23.7418 45.1530 0.0000 8.4016 0.0000
# 4 0.0000 0.0000 0.0000 20.5312 0.0000 -0.6370
# 5 -11.1610 -4.7925 8.4016 0.0000 23.7963 0.0000
# 6 0.0000 0.0000 0.0000 -0.6370 0.0000 78.2613
#
#
#
# Elastic Compliance Matrix: (Units=1/GPa)
#
#
# Indices 1 2 3 4 5 6 
#
# 1 0.032054 -0.008237 -0.008077 0.000000 0.016227 0.000000
# 2 -0.008237 0.018106 0.010433 0.000000 -0.003900 0.000000
# 3 -0.008077 0.010433 0.030108 0.000000 -0.012317 0.000000
# 4 0.000000 0.000000 0.000000 0.048719 0.000000 0.000397
# 5 0.016227 -0.003900 -0.012317 0.000000 0.053197 0.000000
# 6 0.000000 0.000000 0.000000 0.000397 0.000000 0.012781
#
#
# Mechanical properties :
#
#
# Convention : Reuss Voigt Hill
#
# Bulk Modulus (GPa) = 14.59745 16.37148 15.48447
# Shear Modulus (GPa) = 21.78064 35.73937 28.76001
#
# Velocity S-wave (km/s) = 3.52538 4.51590 4.05103
# Velocity P-wave (km/s) = 4.99005 6.04425 5.54227
#
# Compressibility (1/GPa) = 0.06850509
#
# Stress axis : x y z
#
# Youngs Moduli (GPa) = 31.19767 55.22974 33.21422
#
# Poissons Ratio (x) = 0.45493 0.26827
# Poissons Ratio (y) = 0.25697 -0.34652
# Poissons Ratio (z) = 0.25199 -0.57620
#
# Static dielectric constant tensor:
#      x y z
#    x 1.572920 0.000000 0.005150 
#    y 0.000000 1.644380 0.000000 
#    z 0.005150 0.000000 1.588780 
# 
# From -- ./inp_files/12436.got.cif
#   From: 2010.05.17/outbox.cif.g08.bks.cpg/sg12_7_cif.got.tgz:12436.got - 2010.06.03 13:09:07.
