data_PCOD9174344
_publ_section_title
;
Structure prediction by ZEFSAII (Michael W. Deem and Ramdas Pophale) SiO2 
 PCOD9174344
Probable space group: C 2/M
;
_chemical_formula_sum "Si O2"
_cell_formula_units_Z 64
_cell_length_a 15.692691
_cell_length_b 18.583399
_cell_length_c 24.429681
_cell_angle_alpha 90.000000
_cell_angle_beta 151.865129
_cell_angle_gamma 90.000000
_cell_volume 3359.440038
_symmetry_space_group_name_H-M "C 2/M"
_symmetry_group_IT_number 12
_symmetry_cell_setting 'monoclinic'
loop_
_space_group_symop_operation_xyz
x,y,z
-x,y,-z
-x,-y,-z
x,-y,z
1/2+x,1/2+y,z
1/2-x,1/2+y,-z
1/2-x,1/2-y,-z
1/2+x,1/2-y,z
loop_
_atom_site_type_symbol
_atom_site_label
_atom_site_fract_x
_atom_site_fract_y
_atom_site_fract_z
Si Si1 0.157432 0.075460 0.545874
Si Si2 0.936112 0.078818 0.308717
Si Si3 0.299563 0.726639 0.772800
Si Si4 0.448659 0.582808 0.906890
Si Si5 0.834728 0.581561 0.068301
Si Si6 0.963725 0.364684 0.915819
Si Si7 0.419272 0.197853 0.731803
Si Si8 0.448438 0.269644 0.636306
O O1 0.261883 0.146326 0.620814
O O2 0.000000 0.070530 0.500000
O O3 0.057834 0.078282 0.431866
O O4 0.266130 0.000000 0.609253
O O5 0.727013 0.095515 0.204808
O O6 0.020703 0.147786 0.327647
O O7 0.946132 0.000000 0.288072
O O8 0.328973 0.646214 0.812426
O O9 0.430382 0.781868 0.879905
O O10 0.348233 0.744835 0.736905
O O11 0.096935 0.751343 0.674028
O O12 0.376006 0.500000 0.863842
O O13 0.500000 0.596965 0.000000
O O14 0.630928 0.584217 0.973926
O O15 0.900631 0.500000 0.115546
O O16 0.876079 0.600700 0.028716
O O17 0.943556 0.643286 0.161533
O O18 0.000000 0.370836 0.000000
O O19 0.496322 0.228797 0.719303
O O20 0.250000 0.250000 0.500000
#
# Coordination Sequence:
#
# PCOD9174344 Si02
#       8
#     8   8   8   8   8   8   8   8
#     4  10  18  31  54  82 113 146 181 233 296 349
#     4  10  21  37  55  83 119 149 187 237 293 350
#     4  10  23  39  57  87 118 152 195 242 292 350
#     4  10  21  39  60  81 115 158 202 250 290 330
#     4  10  21  36  57  89 118 148 196 239 287 353
#     4  10  21  36  59  87 122 157 186 232 294 360
#     4  11  22  35  60  85 116 154 190 241 294 348
#     4  11  22  39  60  85 115 150 196 239 289 352
#
# _framework density 19.050794
#
# number of rings (size 3 to 8) (size 9 to 14) (size 15 to 20)
#    0.000    1.750    1.250    4.125    0.000    7.000 
#    0.000    3.125    0.000    0.000    0.000    1.750 
#    0.000    0.000    0.000    0.000    0.000    0.000 
#
# Total GULP energy -178313.094759 kJ/mol
# GULP energy per Si atom -5572.284211 kJ/mol
# Density = 1.900743 g / cm^3
# Si number density = 19.050794 Si / 1000 Ang^3
#
#
#
# Elastic Constant Matrix: (Units=GPa)
#
#
# Indices 1 2 3 4 5 6 
#
# 1 63.4631 9.2743 12.5622 0.0004 -2.5174 0.0002
# 2 9.2743 114.7687 14.9498 0.0031 -0.6347 0.0006
# 3 12.5622 14.9498 34.3580 0.0058 -0.8545 0.0010
# 4 0.0004 0.0031 0.0058 25.1825 0.0004 1.8086
# 5 -2.5174 -0.6347 -0.8545 0.0004 23.8839 -0.0001
# 6 0.0002 0.0006 0.0010 1.8086 -0.0001 30.3183
#
#
#
# Elastic Compliance Matrix: (Units=1/GPa)
#
#
# Indices 1 2 3 4 5 6 
#
# 1 0.017084 -0.000597 -0.005947 0.000001 0.001572 0.000000
# 2 -0.000597 0.009258 -0.003809 0.000000 0.000047 0.000000
# 3 -0.005947 -0.003809 0.032948 -0.000007 0.000451 -0.000001
# 4 0.000001 0.000000 -0.000007 0.039881 -0.000001 -0.002379
# 5 0.001572 0.000047 0.000451 -0.000001 0.042052 0.000000
# 6 0.000000 0.000000 -0.000001 -0.002379 0.000000 0.033125
#
#
# Mechanical properties :
#
#
# Convention : Reuss Voigt Hill
#
# Bulk Modulus (GPa) = 25.91778 31.79580 28.85679
# Shear Modulus (GPa) = 24.04808 27.59716 25.82262
#
# Velocity S-wave (km/s) = 3.55676 3.81019 3.68565
# Velocity P-wave (km/s) = 5.52282 6.00691 5.76994
#
# Compressibility (1/GPa) = 0.03858355
#
# Stress axis : x y z
#
# Youngs Moduli (GPa) = 58.53400 108.01679 30.35052
#
# Poissons Ratio (x) = 0.06450 0.18051
# Poissons Ratio (y) = 0.03495 0.11560
# Poissons Ratio (z) = 0.34813 0.41141
#
# Static dielectric constant tensor:
#      x y z
#    x 1.684410 0.000000 -0.008850 
#    y 0.000000 1.913300 0.000000 
#    z -0.008850 0.000000 1.662490 
# 
# From -- ./inp_files/340865.got.cif
#   From: 2010.05.17/outbox.cif.g08.bks.cpg/sg12_171_cif.got.tgz:340865.got - 2010.06.03 13:09:07.
