data_PCOD9174157
_publ_section_title
;
Structure prediction by ZEFSAII (Michael W. Deem and Ramdas Pophale) SiO2 
 PCOD9174157
Probable space group: C 2/M
;
_chemical_formula_sum "Si O2"
_cell_formula_units_Z 64
_cell_length_a 20.715477
_cell_length_b 7.386662
_cell_length_c 21.922831
_cell_angle_alpha 90.000000
_cell_angle_beta 115.846418
_cell_angle_gamma 90.000000
_cell_volume 3019.018977
_symmetry_space_group_name_H-M "C 2/M"
_symmetry_group_IT_number 12
_symmetry_cell_setting 'monoclinic'
loop_
_space_group_symop_operation_xyz
x,y,z
-x,y,-z
-x,-y,-z
x,-y,z
1/2+x,1/2+y,z
1/2-x,1/2+y,-z
1/2-x,1/2-y,-z
1/2+x,1/2-y,z
loop_
_atom_site_type_symbol
_atom_site_label
_atom_site_fract_x
_atom_site_fract_y
_atom_site_fract_z
Si Si1 0.144090 0.721549 0.292387
Si Si2 0.328801 0.783944 0.558425
Si Si3 0.765923 0.720652 0.912523
Si Si4 0.982160 0.721459 0.196353
Si Si5 0.084847 0.717832 0.703861
Si Si6 0.027433 0.278698 0.445373
Si Si7 0.750460 0.712514 0.768844
Si Si8 0.369350 0.210053 0.057620
O O1 0.145337 0.500000 0.294482
O O2 0.160486 0.783320 0.367974
O O3 0.064504 0.774562 0.238373
O O4 0.202384 0.784964 0.267256
O O5 0.250000 0.750000 0.500000
O O6 0.392990 0.718489 0.541159
O O7 0.337549 0.000000 0.565204
O O8 0.765034 0.500000 0.913014
O O9 0.766444 0.785027 0.843201
O O10 0.693653 0.779684 0.917476
O O11 0.832744 0.784590 0.981358
O O12 0.980496 0.500000 0.194774
O O13 0.939039 0.780237 0.238968
O O14 0.940116 0.785918 0.119017
O O15 0.081847 0.500000 0.703681
O O16 0.165945 0.769283 0.722634
O O17 0.028145 0.778338 0.629915
O O18 0.027533 0.500000 0.446432
O O19 0.000000 0.218776 0.500000
O O20 0.767687 0.500000 0.779374
O O21 0.384398 0.000000 0.050748
#
# Coordination Sequence:
#
# PCOD9174157 Si02
#       8
#     8   8   8   8   8   8   8   8
#     4   9  18  33  50  68  97 133 161 188 234 293
#     4  10  20  35  53  72  97 128 160 193 237 290
#     4   9  17  28  42  68 101 126 151 191 243 287
#     4   9  15  28  50  72  89 120 166 201 228 272
#     4  10  18  31  53  74  93 122 166 207 234 270
#     4   9  18  32  51  75  98 121 156 204 245 276
#     4  10  20  32  47  70 102 133 157 190 241 292
#     4   9  16  27  47  71  93 120 159 201 236 275
#
# _framework density 21.198938999999999
#
# number of rings (size 3 to 8) (size 9 to 14) (size 15 to 20)
#    0.000    2.625    2.500    0.000    1.750    0.000 
#    0.000    1.250    0.000    6.750    0.000    0.000 
#    0.000    5.000    0.000    0.000    0.000    0.000 
#
# Total GULP energy -178651.507520 kJ/mol
# GULP energy per Si atom -5582.859610 kJ/mol
# Density = 2.115069 g / cm^3
# Si number density = 21.198939 Si / 1000 Ang^3
#
#
#
# Elastic Constant Matrix: (Units=GPa)
#
#
# Indices 1 2 3 4 5 6 
#
# 1 166.4311 -7.7288 89.8753 0.0000 11.2034 0.0000
# 2 -7.7288 71.5462 -2.4866 0.0000 -4.0775 0.0000
# 3 89.8753 -2.4866 163.4904 0.0000 25.0614 0.0000
# 4 0.0000 0.0000 0.0000 -1.6896 0.0000 0.2570
# 5 11.2034 -4.0775 25.0614 0.0000 33.7328 0.0000
# 6 0.0000 0.0000 0.0000 0.2570 0.0000 3.3000
#
#
#
# Elastic Compliance Matrix: (Units=1/GPa)
#
#
# Indices 1 2 3 4 5 6 
#
# 1 0.008608 0.000809 -0.004849 0.000000 0.000841 0.000000
# 2 0.000809 0.014150 -0.000509 0.000000 0.001820 0.000000
# 3 -0.004849 -0.000509 0.009634 0.000000 -0.005609 0.000000
# 4 0.000000 0.000000 0.000000 -0.584938 0.000000 0.045556
# 5 0.000841 0.001820 -0.005609 0.000000 0.033752 0.000000
# 6 0.000000 0.000000 0.000000 0.045556 0.000000 0.299479
#
#
# Mechanical properties :
#
#
# Convention : Reuss Voigt Hill
#
# Bulk Modulus (GPa) = 42.92506 62.30974 52.61740
# Shear Modulus (GPa) = -24.69706 28.52250 1.91272
#
# Velocity S-wave (km/s) = -3.41693 3.67204 0.95091
# Velocity P-wave (km/s) = 2.17380 6.88732 5.10689
#
# Compressibility (1/GPa) = 0.02329641
#
# Stress axis : x y z
#
# Youngs Moduli (GPa) = 116.17445 70.66925 103.79948
#
# Poissons Ratio (x) = -0.05719 0.50328
# Poissons Ratio (y) = -0.09402 0.05279
# Poissons Ratio (z) = 0.56328 0.03594
#
# Static dielectric constant tensor:
#      x y z
#    x 1.718160 0.000000 -0.000200 
#    y 0.000000 1.809650 0.000000 
#    z -0.000200 0.000000 1.754380 
# 
# From -- ./inp_files/315334.got.cif
#   From: 2010.05.17/outbox.cif.g08.bks.cpg/sg12_158_cif.got.tgz:315334.got - 2010.06.03 13:09:07.
