data_PCOD9174708
_publ_section_title
;
Structure prediction by ZEFSAII (Michael W. Deem and Ramdas Pophale) SiO2 
 PCOD9174708
Probable space group: C 2/M
;
_chemical_formula_sum "Si O2"
_cell_formula_units_Z 56
_cell_length_a 29.422856
_cell_length_b 8.753517
_cell_length_c 19.813669
_cell_angle_alpha 90.000000
_cell_angle_beta 41.587247
_cell_angle_gamma 90.000000
_cell_volume 3387.218579
_symmetry_space_group_name_H-M "C 2/M"
_symmetry_group_IT_number 12
_symmetry_cell_setting 'monoclinic'
loop_
_space_group_symop_operation_xyz
x,y,z
-x,y,-z
-x,-y,-z
x,-y,z
1/2+x,1/2+y,z
1/2-x,1/2+y,-z
1/2-x,1/2-y,-z
1/2+x,1/2-y,z
loop_
_atom_site_type_symbol
_atom_site_label
_atom_site_fract_x
_atom_site_fract_y
_atom_site_fract_z
Si Si1 0.859682 0.682754 0.882670
Si Si2 0.555194 0.685944 0.494085
Si Si3 0.253007 0.317382 0.102929
Si Si4 0.711439 0.315693 0.291037
Si Si5 0.638995 0.182179 0.616774
Si Si6 0.246065 0.316269 0.608569
Si Si7 0.990544 0.183073 0.305095
O O1 0.863734 0.500000 0.881155
O O2 0.813221 0.725534 0.869179
O O3 0.934703 0.752420 0.793130
O O4 0.818077 0.744547 0.993240
O O5 0.500000 0.737338 0.500000
O O6 0.554903 0.500000 0.494503
O O7 0.632190 0.732305 0.389644
O O8 0.533698 0.734357 0.593064
O O9 0.259204 0.500000 0.094803
O O10 0.242097 0.258312 0.190331
O O11 0.712534 0.500000 0.282529
O O12 0.750944 0.275866 0.316213
O O13 0.691469 0.238243 0.500558
O O14 0.676922 0.222228 0.644892
O O15 0.566501 0.259374 0.683767
O O16 0.631892 0.000000 0.621304
O O17 0.256185 0.500000 0.592257
O O18 0.992562 0.000000 0.302616
#
# Coordination Sequence:
#
# PCOD9174708 Si02
#       7
#     8   8   8   8   8   8   8
#     4  10  21  37  55  76 103 137 177 216 255 305
#     4   9  17  28  45  71 102 136 170 203 246 303
#     4  10  21  36  54  78 105 135 174 217 260 304
#     4  10  18  32  52  74 104 139 176 212 253 307
#     4  10  19  31  50  75 105 137 174 217 260 306
#     4   9  18  33  51  73 102 140 179 213 254 310
#     4  11  20  33  53  76 105 138 174 214 259 310
#
# _framework density 16.532738999999999
#
# number of rings (size 3 to 8) (size 9 to 14) (size 15 to 20)
#    0.000    2.143    1.429    2.571    0.000    4.000 
#    0.000    0.000    0.000    3.857    0.000    6.000 
#    0.000    0.000    0.000    0.000    0.000    0.000 
#
# Total GULP energy -156262.678873 kJ/mol
# GULP energy per Si atom -5580.809960 kJ/mol
# Density = 1.649511 g / cm^3
# Si number density = 16.532739 Si / 1000 Ang^3
#
#
#
# Elastic Constant Matrix: (Units=GPa)
#
#
# Indices 1 2 3 4 5 6 
#
# 1 120.1347 38.6775 73.4175 0.0002 11.1965 -0.0044
# 2 38.6775 34.3089 36.4774 0.0007 2.0161 -0.0017
# 3 73.4175 36.4774 110.5960 -0.0002 11.1084 -0.0024
# 4 0.0002 0.0007 -0.0002 28.1455 0.0003 -0.5473
# 5 11.1965 2.0161 11.1084 0.0003 24.4153 0.0009
# 6 -0.0044 -0.0017 -0.0024 -0.5473 0.0009 23.4203
#
#
#
# Elastic Compliance Matrix: (Units=1/GPa)
#
#
# Indices 1 2 3 4 5 6 
#
# 1 0.016400 -0.010903 -0.006943 0.000000 -0.003461 0.000002
# 2 -0.010903 0.052372 -0.010588 -0.000001 0.005492 0.000000
# 3 -0.006943 -0.010588 0.017537 0.000000 -0.003921 0.000000
# 4 0.000000 -0.000001 0.000000 0.035546 -0.000001 0.000831
# 5 -0.003461 0.005492 -0.003921 -0.000001 0.043876 -0.000002
# 6 0.000002 0.000000 0.000000 0.000831 -0.000002 0.042717
#
#
# Mechanical properties :
#
#
# Convention : Reuss Voigt Hill
#
# Bulk Modulus (GPa) = 33.96542 62.46495 48.21519
# Shear Modulus (GPa) = 18.17331 22.96069 20.56700
#
# Velocity S-wave (km/s) = 3.31906 3.73071 3.53089
# Velocity P-wave (km/s) = 5.93946 7.51147 6.77124
#
# Compressibility (1/GPa) = 0.02944171
#
# Stress axis : x y z
#
# Youngs Moduli (GPa) = 60.97604 19.09415 57.02258
#
# Poissons Ratio (x) = 0.20818 0.39592
# Poissons Ratio (y) = 0.66480 0.60374
# Poissons Ratio (z) = 0.42337 0.20216
#
# Static dielectric constant tensor:
#      x y z
#    x 1.564870 0.000000 0.006030 
#    y 0.000000 1.554760 0.000000 
#    z 0.006030 0.000000 1.517520 
# 
# From -- ./inp_files/288250.got.cif
#   From: 2010.05.17/outbox.cif.g08.bks.cpg/sg12_145_cif.got.tgz:288250.got - 2010.06.03 13:09:07.
