data_PCOD9174225
_publ_section_title
;
Structure prediction by ZEFSAII (Michael W. Deem and Ramdas Pophale) SiO2 
 PCOD9174225
Probable space group: C 2/M
;
_chemical_formula_sum "Si O2"
_cell_formula_units_Z 56
_cell_length_a 29.292018
_cell_length_b 8.232368
_cell_length_c 22.041738
_cell_angle_alpha 90.000000
_cell_angle_beta 148.367111
_cell_angle_gamma 90.000000
_cell_volume 2787.689962
_symmetry_space_group_name_H-M "C 2/M"
_symmetry_group_IT_number 12
_symmetry_cell_setting 'monoclinic'
loop_
_space_group_symop_operation_xyz
x,y,z
-x,y,-z
-x,-y,-z
x,-y,z
1/2+x,1/2+y,z
1/2-x,1/2+y,-z
1/2-x,1/2-y,-z
1/2+x,1/2-y,z
loop_
_atom_site_type_symbol
_atom_site_label
_atom_site_fract_x
_atom_site_fract_y
_atom_site_fract_z
Si Si1 0.576885 0.810427 0.136225
Si Si2 0.482179 0.197155 0.247633
Si Si3 0.751132 0.806373 0.185098
Si Si4 0.435637 0.197399 0.063223
Si Si5 0.682547 0.802649 0.476522
Si Si6 0.236365 0.686644 0.670983
Si Si7 0.317391 0.805266 0.129290
O O1 0.527567 0.749624 0.140087
O O2 0.659623 0.706850 0.213490
O O3 0.604679 0.000000 0.173413
O O4 0.500000 0.807399 0.000000
O O5 0.432656 0.240519 0.129716
O O6 0.582004 0.251744 0.355328
O O7 0.415888 0.251768 0.224779
O O8 0.486769 0.000000 0.255973
O O9 0.791607 0.758594 0.295672
O O10 0.792932 0.749261 0.169376
O O11 0.747868 0.000000 0.179811
O O12 0.650734 0.744969 0.068152
O O13 0.437299 0.000000 0.059528
O O14 0.750000 0.750000 0.500000
O O15 0.707649 0.744687 0.572990
O O16 0.684512 0.000000 0.478064
O O17 0.209421 0.500000 0.641034
O O18 0.316395 0.000000 0.126486
O O19 0.250000 0.750000 0.000000
#
# Coordination Sequence:
#
# PCOD9174225 Si02
#       7
#     8   8   8   8   8   8   8
#     4  10  18  31  53  79 108 149 194 228 276 351
#     4   9  18  35  59  83 112 153 197 237 282 345
#     4  11  21  37  58  83 115 153 194 236 289 352
#     4   9  16  29  52  81 108 141 190 233 273 338
#     4  10  22  41  64  87 115 154 199 242 284 343
#     4  11  23  37  54  84 120 151 190 244 299 345
#     4  11  21  36  60  90 121 154 194 243 296 349
#
# _framework density 20.088317
#
# number of rings (size 3 to 8) (size 9 to 14) (size 15 to 20)
#    0.000    1.857    2.857    2.143    0.000    2.571 
#    0.000    2.143    0.000    4.286    0.000    0.000 
#    0.000    0.000    0.000    0.000    0.000    0.000 
#
# Total GULP energy -156068.021007 kJ/mol
# GULP energy per Si atom -5573.857893 kJ/mol
# Density = 2.004259 g / cm^3
# Si number density = 20.088317 Si / 1000 Ang^3
#
#
#
# Elastic Constant Matrix: (Units=GPa)
#
#
# Indices 1 2 3 4 5 6 
#
# 1 165.1827 18.7057 56.3559 0.0000 -15.6495 0.0000
# 2 18.7057 24.7573 11.9538 0.0000 -5.0686 0.0000
# 3 56.3559 11.9538 93.6835 0.0000 -9.6877 0.0000
# 4 0.0000 0.0000 0.0000 16.8383 0.0000 -3.9187
# 5 -15.6495 -5.0686 -9.6877 0.0000 30.7380 0.0000
# 6 0.0000 0.0000 0.0000 -3.9187 0.0000 30.3884
#
#
#
# Elastic Compliance Matrix: (Units=1/GPa)
#
#
# Indices 1 2 3 4 5 6 
#
# 1 0.008103 -0.003652 -0.004180 0.000000 0.002206 0.000000
# 2 -0.003652 0.045625 -0.003141 0.000000 0.004674 0.000000
# 3 -0.004180 -0.003141 0.013765 0.000000 0.001692 0.000000
# 4 0.000000 0.000000 0.000000 0.061226 0.000000 0.007895
# 5 0.002206 0.004674 0.001692 0.000000 0.034960 0.000000
# 6 0.000000 0.000000 0.000000 0.007895 0.000000 0.033925
#
#
# Mechanical properties :
#
#
# Convention : Reuss Voigt Hill
#
# Bulk Modulus (GPa) = 21.95618 50.85048 36.40333
# Shear Modulus (GPa) = 21.30085 28.70017 25.00051
#
# Velocity S-wave (km/s) = 3.25985 3.78391 3.53162
# Velocity P-wave (km/s) = 5.01222 6.66777 5.89837
#
# Compressibility (1/GPa) = 0.04554525
#
# Stress axis : x y z
#
# Youngs Moduli (GPa) = 123.41769 21.91766 72.65027
#
# Poissons Ratio (x) = 0.08005 0.30368
# Poissons Ratio (y) = 0.45074 0.22822
# Poissons Ratio (z) = 0.51589 0.06885
#
# Static dielectric constant tensor:
#      x y z
#    x 1.769130 0.000000 -0.020950 
#    y 0.000000 1.716820 0.000000 
#    z -0.020950 0.000000 1.726560 
# 
# From -- ./inp_files/329710.got.cif
#   From: 2010.05.17/outbox.cif.g08.bks.cpg/sg12_165_cif.got.tgz:329710.got - 2010.06.03 13:09:07.
