data_PCOD9174565
_publ_section_title
;
Structure prediction by ZEFSAII (Michael W. Deem and Ramdas Pophale) SiO2 
 PCOD9174565
Probable space group: C 2/M
;
_chemical_formula_sum "Si O2"
_cell_formula_units_Z 64
_cell_length_a 18.404169
_cell_length_b 14.301771
_cell_length_c 15.532386
_cell_angle_alpha 90.000000
_cell_angle_beta 98.595228
_cell_angle_gamma 90.000000
_cell_volume 4042.397116
_symmetry_space_group_name_H-M "C 2/M"
_symmetry_group_IT_number 12
_symmetry_cell_setting 'monoclinic'
loop_
_space_group_symop_operation_xyz
x,y,z
-x,y,-z
-x,-y,-z
x,-y,z
1/2+x,1/2+y,z
1/2-x,1/2+y,-z
1/2-x,1/2-y,-z
1/2+x,1/2-y,z
loop_
_atom_site_type_symbol
_atom_site_label
_atom_site_fract_x
_atom_site_fract_y
_atom_site_fract_z
Si Si1 0.105500 0.112494 0.577103
Si Si2 0.413282 0.393009 0.959264
Si Si3 0.873403 0.394206 0.822001
Si Si4 0.204943 0.110849 0.752200
Si Si5 0.558545 0.387180 0.386373
Si Si6 0.946770 0.792422 0.793606
Si Si7 0.385795 0.284635 0.121777
Si Si8 0.418098 0.890951 0.019999
O O1 0.169016 0.139001 0.654667
O O2 0.105755 0.144207 0.477878
O O3 0.026143 0.135748 0.603992
O O4 0.106800 0.000000 0.572049
O O5 0.390129 0.500000 0.947216
O O6 0.406750 0.339954 0.868022
O O7 0.500000 0.391513 0.000000
O O8 0.374595 0.342091 0.031506
O O9 0.900244 0.500000 0.812012
O O10 0.792553 0.383627 0.768958
O O11 0.927134 0.316510 0.794113
O O12 0.869648 0.382679 0.925034
O O13 0.171907 0.178532 0.819147
O O14 0.185389 0.000000 0.765449
O O15 0.563416 0.500000 0.377826
O O16 0.576307 0.338486 0.299940
O O17 0.033590 0.807143 0.824810
O O18 0.390657 0.177583 0.089765
O O19 0.421810 0.000000 0.045936
O O20 0.500000 0.862287 0.000000
#
# Coordination Sequence:
#
# PCOD9174565 Si02
#       8
#     8   8   8   8   8   8   8   8
#     4   8  15  29  47  73 101 124 151 192 241 292
#     4   9  17  26  39  65 100 125 148 186 239 289
#     4  10  21  35  49  68  97 132 167 204 238 277
#     4  10  20  33  50  72 102 130 155 195 248 295
#     4   9  16  27  49  76 100 122 153 195 242 290
#     4  11  18  29  47  73  95 127 163 199 236 282
#     4  11  18  29  49  71  91 126 165 203 239 276
#     4  10  18  32  49  66  92 126 168 210 235 265
#
# _framework density 15.832189
#
# number of rings (size 3 to 8) (size 9 to 14) (size 15 to 20)
#    0.000    2.250    3.750    1.875    0.000    1.500 
#    0.000    0.625    0.000    0.750    0.000    2.625 
#    0.000    0.000    0.000    0.000    0.000    0.000 
#
# Total GULP energy -178261.351797 kJ/mol
# GULP energy per Si atom -5570.667244 kJ/mol
# Density = 1.579615 g / cm^3
# Si number density = 15.832189 Si / 1000 Ang^3
#
#
#
# Elastic Constant Matrix: (Units=GPa)
#
#
# Indices 1 2 3 4 5 6 
#
# 1 17.3662 6.8593 16.3613 0.0000 7.0852 0.0000
# 2 6.8593 71.9990 30.4383 0.0000 -8.1248 0.0000
# 3 16.3613 30.4383 121.6051 0.0000 3.5195 0.0000
# 4 0.0000 0.0000 0.0000 10.9740 0.0000 -0.3210
# 5 7.0852 -8.1248 3.5195 0.0000 19.8683 0.0000
# 6 0.0000 0.0000 0.0000 -0.3210 0.0000 13.0184
#
#
#
# Elastic Compliance Matrix: (Units=1/GPa)
#
#
# Indices 1 2 3 4 5 6 
#
# 1 0.080647 -0.007728 -0.008033 0.000000 -0.030497 0.000000
# 2 -0.007728 0.017331 -0.003601 0.000000 0.010481 0.000000
# 3 -0.008033 -0.003601 0.010218 0.000000 -0.000418 0.000000
# 4 0.000000 0.000000 0.000000 0.091191 0.000000 0.002248
# 5 -0.030497 0.010481 -0.000418 0.000000 0.065567 0.000000
# 6 0.000000 0.000000 0.000000 0.002248 0.000000 0.076870
#
#
# Mechanical properties :
#
#
# Convention : Reuss Voigt Hill
#
# Bulk Modulus (GPa) = 14.39502 35.36533 24.88018
# Shear Modulus (GPa) = 12.38529 19.25957 15.82243
#
# Velocity S-wave (km/s) = 2.79997 3.49159 3.16473
# Velocity P-wave (km/s) = 4.42325 6.21619 5.39473
#
# Compressibility (1/GPa) = 0.06946846
#
# Stress axis : x y z
#
# Youngs Moduli (GPa) = 12.39978 57.70119 97.86881
#
# Poissons Ratio (x) = 0.44593 0.78623
# Poissons Ratio (y) = 0.09583 0.35247
# Poissons Ratio (z) = 0.09961 0.20781
#
# Static dielectric constant tensor:
#      x y z
#    x 1.527090 0.000000 0.025110 
#    y 0.000000 1.540420 0.000000 
#    z 0.025110 0.000000 1.539270 
# 
# From -- ./inp_files/224753.got.cif
#   From: 2010.05.17/outbox.cif.g08.bks.cpg/sg12_113_cif.got.tgz:224753.got - 2010.06.03 13:09:07.
