data_PCOD9174061
_publ_section_title
;
Structure prediction by ZEFSAII (Michael W. Deem and Ramdas Pophale) SiO2 
 PCOD9174061
Probable space group: C 2/M
;
_chemical_formula_sum "Si O2"
_cell_formula_units_Z 56
_cell_length_a 21.012984
_cell_length_b 8.943834
_cell_length_c 31.033220
_cell_angle_alpha 90.000000
_cell_angle_beta 33.658299
_cell_angle_gamma 90.000000
_cell_volume 3232.475193
_symmetry_space_group_name_H-M "C 2/M"
_symmetry_group_IT_number 12
_symmetry_cell_setting 'monoclinic'
loop_
_space_group_symop_operation_xyz
x,y,z
-x,y,-z
-x,-y,-z
x,-y,z
1/2+x,1/2+y,z
1/2-x,1/2+y,-z
1/2-x,1/2-y,-z
1/2+x,1/2-y,z
loop_
_atom_site_type_symbol
_atom_site_label
_atom_site_fract_x
_atom_site_fract_y
_atom_site_fract_z
Si Si1 0.727792 0.821117 0.654759
Si Si2 0.864661 0.177436 0.666833
Si Si3 0.707807 0.678585 0.826047
Si Si4 0.930208 0.327883 0.493971
Si Si5 0.523830 0.818354 0.180372
Si Si6 0.475318 0.179856 0.920533
Si Si7 0.760774 0.819857 0.090961
O O1 0.784200 0.793644 0.670137
O O2 0.807665 0.742872 0.574458
O O3 0.596249 0.768930 0.730958
O O4 0.731603 0.000000 0.645870
O O5 0.808147 0.260056 0.738906
O O6 0.990687 0.236861 0.583613
O O7 0.865920 0.000000 0.673076
O O8 0.698444 0.500000 0.826587
O O9 0.589570 0.754288 0.877638
O O10 0.730881 0.712633 0.863046
O O11 0.920169 0.500000 0.486398
O O12 0.000000 0.323370 0.500000
O O13 0.527870 0.774555 0.127955
O O14 0.638362 0.771425 0.140542
O O15 0.521104 0.000000 0.182623
O O16 0.478598 0.000000 0.920713
O O17 0.364125 0.241795 0.007505
O O18 0.770966 0.000000 0.079808
#
# Coordination Sequence:
#
# PCOD9174061 Si02
#       7
#     8   8   8   8   8   8   8
#     4   9  16  30  51  75 102 134 171 211 257 307
#     4  10  18  31  52  77 104 136 174 214 258 306
#     4  11  22  35  53  77 107 140 174 214 263 313
#     4   9  17  28  45  75 110 137 165 208 259 308
#     4   9  18  35  56  77 104 137 176 216 260 311
#     4  11  21  36  57  79 102 134 177 223 263 306
#     4  10  22  38  54  75 105 141 175 214 264 315
#
# _framework density 17.324185
#
# number of rings (size 3 to 8) (size 9 to 14) (size 15 to 20)
#    0.000    2.143    1.429    2.571    0.000    5.143 
#    0.000    1.429    0.000    0.857    0.000    0.000 
#    0.000    0.000    0.000    0.000    0.000    0.000 
#
# Total GULP energy -156263.188220 kJ/mol
# GULP energy per Si atom -5580.828151 kJ/mol
# Density = 1.728475 g / cm^3
# Si number density = 17.324185 Si / 1000 Ang^3
#
#
#
# Elastic Constant Matrix: (Units=GPa)
#
#
# Indices 1 2 3 4 5 6 
#
# 1 108.2730 45.3631 78.2355 -0.0005 -10.6165 0.0019
# 2 45.3631 40.8066 56.1650 -0.0042 -7.7933 0.0011
# 3 78.2355 56.1650 189.5301 0.0001 -16.4314 0.0005
# 4 -0.0005 -0.0042 0.0001 34.8553 0.0002 2.9759
# 5 -10.6165 -7.7933 -16.4314 0.0002 -2.8137 -0.0008
# 6 0.0019 0.0011 0.0005 2.9759 -0.0008 15.1164
#
#
#
# Elastic Compliance Matrix: (Units=1/GPa)
#
#
# Indices 1 2 3 4 5 6 
#
# 1 0.017886 -0.016960 -0.002746 -0.000002 -0.004479 -0.000001
# 2 -0.016960 0.054278 -0.011000 0.000007 -0.022106 -0.000004
# 3 -0.002746 -0.011000 0.008769 -0.000001 -0.010383 0.000001
# 4 -0.000002 0.000007 -0.000001 0.029181 -0.000001 -0.005745
# 5 -0.004479 -0.022106 -0.010383 -0.000001 -0.216647 -0.000008
# 6 -0.000001 -0.000004 0.000001 -0.005745 -0.000008 0.067284
#
#
# Mechanical properties :
#
#
# Convention : Reuss Voigt Hill
#
# Bulk Modulus (GPa) = 51.22429 77.57074 64.39752
# Shear Modulus (GPa) = 174.39373 20.02135 97.20754
#
# Velocity S-wave (km/s) = 10.04407 3.40323 7.49885
# Velocity P-wave (km/s) = 12.81185 7.76633 10.59385
#
# Compressibility (1/GPa) = 0.01952199
#
# Stress axis : x y z
#
# Youngs Moduli (GPa) = 55.90838 18.42357 114.03400
#
# Poissons Ratio (x) = 0.31246 0.31310
# Poissons Ratio (y) = 0.94820 1.25442
# Poissons Ratio (z) = 0.15351 0.20267
#
# Static dielectric constant tensor:
#      x y z
#    x 1.567800 0.000000 -0.006840 
#    y 0.000000 1.581250 0.000000 
#    z -0.006840 0.000000 1.575710 
# 
# From -- ./inp_files/320232.got.cif
#   From: 2010.05.17/outbox.cif.g08.bks.cpg/sg12_161_cif.got.tgz:320232.got - 2010.06.03 13:09:07.
