data_PCOD9174661
_publ_section_title
;
Structure prediction by ZEFSAII (Michael W. Deem and Ramdas Pophale) SiO2 
 PCOD9174661
Probable space group: C 2/M
;
_chemical_formula_sum "Si O2"
_cell_formula_units_Z 56
_cell_length_a 7.590822
_cell_length_b 26.021209
_cell_length_c 22.041406
_cell_angle_alpha 90.000000
_cell_angle_beta 46.466425
_cell_angle_gamma 90.000000
_cell_volume 3156.284424
_symmetry_space_group_name_H-M "C 2/M"
_symmetry_group_IT_number 12
_symmetry_cell_setting 'monoclinic'
loop_
_space_group_symop_operation_xyz
x,y,z
-x,y,-z
-x,-y,-z
x,-y,z
1/2+x,1/2+y,z
1/2-x,1/2+y,-z
1/2-x,1/2-y,-z
1/2+x,1/2-y,z
loop_
_atom_site_type_symbol
_atom_site_label
_atom_site_fract_x
_atom_site_fract_y
_atom_site_fract_z
Si Si1 0.289601 0.689821 0.500000
Si Si2 0.102012 0.809284 0.846903
Si Si3 0.815555 0.615064 0.092223
Si Si4 0.866062 0.862948 0.671575
Si Si5 0.510369 0.190716 0.846904
Si Si6 0.966356 0.060485 0.266823
Si Si7 0.447635 0.137052 0.671575
O O1 0.500000 0.684847 0.500000
O O2 0.250000 0.750000 0.500000
O O3 0.398946 0.662618 0.414907
O O4 0.058574 0.662618 0.585092
O O5 0.265883 0.818287 0.867057
O O6 0.271505 0.823104 0.748629
O O7 0.876557 0.847587 0.895648
O O8 0.025748 0.750000 0.862125
O O9 0.663361 0.574986 0.168321
O O10 0.959157 0.652413 0.104351
O O11 0.000000 0.591985 0.000000
O O12 0.733976 0.823105 0.748630
O O13 0.666754 0.875062 0.666622
O O14 0.941153 0.911681 0.693891
O O15 0.716720 0.088319 0.306109
O O16 0.940043 0.000000 0.279979
#
# Coordination Sequence:
#
# PCOD9174661 Si02
#       7
#     8   8   8   8   8   8   8
#     4  10  20  32  52  85 117 152 178 212 259 306
#     4  10  18  32  51  75 108 150 178 207 259 323
#     4  10  22  37  53  79 108 132 174 228 271 329
#     4   9  20  35  53  79 113 141 182 224 261 313
#     4  10  18  32  51  75 108 150 178 207 259 323
#     4  10  22  40  62  78  97 141 186 228 280 317
#     4   9  20  35  53  79 113 141 182 224 261 313
#
# _framework density 17.742381000000002
#
# number of rings (size 3 to 8) (size 9 to 14) (size 15 to 20)
#    0.000    2.286    1.429    0.857    2.000    2.000 
#    0.000    1.429    0.000    2.571    0.000    8.000 
#    0.000    0.000    0.000    0.000    0.000    0.000 
#
# Total GULP energy -156269.447104 kJ/mol
# GULP energy per Si atom -5581.051682 kJ/mol
# Density = 1.770200 g / cm^3
# Si number density = 17.742381 Si / 1000 Ang^3
#
#
#
# Elastic Constant Matrix: (Units=GPa)
#
#
# Indices 1 2 3 4 5 6 
#
# 1 77.5133 23.2987 28.9980 0.0000 51.8810 0.0000
# 2 23.2987 100.7274 33.0879 0.0000 -0.0858 0.0000
# 3 28.9980 33.0879 114.9615 0.0000 -52.1332 0.0000
# 4 0.0000 0.0000 0.0000 3.9236 0.0000 -0.1579
# 5 51.8810 -0.0858 -52.1332 0.0000 2348.5543 0.0000
# 6 0.0000 0.0000 0.0000 -0.1579 0.0000 18.0192
#
#
#
# Elastic Compliance Matrix: (Units=1/GPa)
#
#
# Indices 1 2 3 4 5 6 
#
# 1 0.015138 -0.002415 -0.003308 0.000000 -0.000408 0.000000
# 2 -0.002415 0.011361 -0.002663 0.000000 -0.000005 0.000000
# 3 -0.003308 -0.002663 0.010438 0.000000 0.000305 0.000000
# 4 0.000000 0.000000 0.000000 0.254958 0.000000 0.002234
# 5 -0.000408 -0.000005 0.000305 0.000000 0.000442 0.000000
# 6 0.000000 0.000000 0.000000 0.002234 0.000000 0.055516
#
#
# Mechanical properties :
#
#
# Convention : Reuss Voigt Hill
#
# Bulk Modulus (GPa) = 49.59431 51.55237 50.57334
# Shear Modulus (GPa) = 13.46451 487.95392 250.70922
#
# Velocity S-wave (km/s) = 2.75778 16.60177 11.90009
# Velocity P-wave (km/s) = 6.17686 19.91509 14.74389
#
# Compressibility (1/GPa) = 0.02016360
#
# Stress axis : x y z
#
# Youngs Moduli (GPa) = 66.06091 88.01872 95.80638
#
# Poissons Ratio (x) = 0.21257 0.31695
# Poissons Ratio (y) = 0.15954 0.25515
# Poissons Ratio (z) = 0.21854 0.23441
#
# Static dielectric constant tensor:
#      x y z
#    x 1.613110 0.000000 0.000180 
#    y 0.000000 1.540530 0.000000 
#    z 0.000180 0.000000 1.629090 
# 
# From -- ./inp_files/259005.got.cif
#   From: 2010.05.17/outbox.cif.g08.bks.cpg/sg12_130_cif.got.tgz:259005.got - 2010.06.03 13:09:07.
