data_PCOD9174759
_publ_section_title
;
Structure prediction by ZEFSAII (Michael W. Deem and Ramdas Pophale) SiO2 
 PCOD9174759
Probable space group: C 2/M
;
_chemical_formula_sum "Si O2"
_cell_formula_units_Z 56
_cell_length_a 7.246958
_cell_length_b 17.816483
_cell_length_c 21.639793
_cell_angle_alpha 90.000000
_cell_angle_beta 59.537018
_cell_angle_gamma 90.000000
_cell_volume 2408.332086
_symmetry_space_group_name_H-M "C 2/M"
_symmetry_group_IT_number 12
_symmetry_cell_setting 'monoclinic'
loop_
_space_group_symop_operation_xyz
x,y,z
-x,y,-z
-x,-y,-z
x,-y,z
1/2+x,1/2+y,z
1/2-x,1/2+y,-z
1/2-x,1/2-y,-z
1/2+x,1/2-y,z
loop_
_atom_site_type_symbol
_atom_site_label
_atom_site_fract_x
_atom_site_fract_y
_atom_site_fract_z
Si Si1 0.695698 0.831309 0.038440
Si Si2 0.091505 0.414134 0.628875
Si Si3 0.753899 0.414039 0.523055
Si Si4 0.760825 0.651513 0.770110
Si Si5 0.363790 0.177443 0.195872
Si Si6 0.501994 0.586380 0.914143
Si Si7 0.442320 0.585520 0.677077
O O1 0.463577 0.830222 0.110360
O O2 0.850973 0.858261 0.068520
O O3 0.750000 0.750000 0.000000
O O4 0.762286 0.889980 0.973816
O O5 0.036966 0.500000 0.620418
O O6 0.229366 0.380811 0.548620
O O7 0.248366 0.417940 0.660481
O O8 0.874460 0.374296 0.687799
O O9 0.666805 0.500000 0.532531
O O10 0.626822 0.379845 0.602186
O O11 0.000000 0.417356 0.500000
O O12 0.675626 0.735655 0.783367
O O13 0.577735 0.600475 0.831737
O O14 0.953463 0.650151 0.787779
O O15 0.148845 0.133270 0.250686
O O16 0.542923 0.500000 0.922909
O O17 0.495189 0.500000 0.687060
#
# Coordination Sequence:
#
# PCOD9174759 Si02
#       7
#     8   8   8   8   8   8   8
#     4  10  18  32  52  80 111 146 179 230 289 334
#     4   9  17  31  53  77 104 137 179 230 276 321
#     4   9  17  30  51  79 108 140 176 221 281 341
#     4  10  20  35  53  80 110 144 185 232 283 336
#     4  10  21  34  53  78 109 146 182 225 281 346
#     4  10  20  34  57  86 111 144 201 247 274 332
#     4   9  18  33  53  77 105 138 184 231 273 328
#
# _framework density 23.252607000000001
#
# number of rings (size 3 to 8) (size 9 to 14) (size 15 to 20)
#    0.000    2.429    1.429    1.714    0.000    6.857 
#    0.000    0.714    0.000    0.857    0.000    9.000 
#    0.000    0.000    0.000    0.000    0.000    0.000 
#
# Total GULP energy -156179.734374 kJ/mol
# GULP energy per Si atom -5577.847656 kJ/mol
# Density = 2.319968 g / cm^3
# Si number density = 23.252607 Si / 1000 Ang^3
#
#
#
# Elastic Constant Matrix: (Units=GPa)
#
#
# Indices 1 2 3 4 5 6 
#
# 1 41.7389 9.4704 36.2039 0.0000 8.7792 0.0000
# 2 9.4704 84.9210 74.5286 0.0000 -8.0970 0.0000
# 3 36.2039 74.5286 258.5446 0.0000 -39.0700 0.0000
# 4 0.0000 0.0000 0.0000 42.2048 0.0000 -11.3933
# 5 8.7792 -8.0970 -39.0700 0.0000 41.5850 0.0000
# 6 0.0000 0.0000 0.0000 -11.3933 0.0000 30.3155
#
#
#
# Elastic Compliance Matrix: (Units=1/GPa)
#
#
# Indices 1 2 3 4 5 6 
#
# 1 0.032363 0.001143 -0.006830 0.000000 -0.013026 0.000000
# 2 0.001143 0.015874 -0.005018 0.000000 -0.001865 0.000000
# 3 -0.006830 -0.005018 0.007390 0.000000 0.007408 0.000000
# 4 0.000000 0.000000 0.000000 0.026369 0.000000 0.009910
# 5 -0.013026 -0.001865 0.007408 0.000000 0.033394 0.000000
# 6 0.000000 0.000000 0.000000 0.009910 0.000000 0.036711
#
#
# Mechanical properties :
#
#
# Convention : Reuss Voigt Hill
#
# Bulk Modulus (GPa) = 29.22446 69.51225 49.36836
# Shear Modulus (GPa) = 27.03921 40.48785 33.76353
#
# Velocity S-wave (km/s) = 3.41375 4.17732 3.81469
# Velocity P-wave (km/s) = 5.30413 7.29561 6.37808
#
# Compressibility (1/GPa) = 0.03421791
#
# Stress axis : x y z
#
# Youngs Moduli (GPa) = 30.89936 62.99585 135.31770
#
# Poissons Ratio (x) = -0.07199 0.92418
# Poissons Ratio (y) = -0.03531 0.67898
# Poissons Ratio (z) = 0.21103 0.31609
#
# Static dielectric constant tensor:
#      x y z
#    x 1.968330 0.000000 0.008450 
#    y 0.000000 1.799320 0.000000 
#    z 0.008450 0.000000 1.985250 
# 
# From -- ./inp_files/333298.got.cif
#   From: 2010.05.17/outbox.cif.g08.bks.cpg/sg12_167_cif.got.tgz:333298.got - 2010.06.03 13:09:07.
