data_PCOD9174915
_publ_section_title
;
Structure prediction by ZEFSAII (Michael W. Deem and Ramdas Pophale) SiO2 
 PCOD9174915
Probable space group: C 2/M
;
_chemical_formula_sum "Si O2"
_cell_formula_units_Z 56
_cell_length_a 19.676446
_cell_length_b 8.966791
_cell_length_c 21.934782
_cell_angle_alpha 90.000000
_cell_angle_beta 56.014881
_cell_angle_gamma 90.000000
_cell_volume 3208.982154
_symmetry_space_group_name_H-M "C 2/M"
_symmetry_group_IT_number 12
_symmetry_cell_setting 'monoclinic'
loop_
_space_group_symop_operation_xyz
x,y,z
-x,y,-z
-x,-y,-z
x,-y,z
1/2+x,1/2+y,z
1/2-x,1/2+y,-z
1/2-x,1/2-y,-z
1/2+x,1/2-y,z
loop_
_atom_site_type_symbol
_atom_site_label
_atom_site_fract_x
_atom_site_fract_y
_atom_site_fract_z
Si Si1 0.459405 0.821029 0.687117
Si Si2 0.375538 0.176396 0.457296
Si Si3 0.308638 0.321765 0.921071
Si Si4 0.241047 0.324823 0.602142
Si Si5 0.832247 0.822406 0.241529
Si Si6 0.212068 0.821525 0.209798
Si Si7 0.989405 0.820831 0.803142
O O1 0.530744 0.781459 0.603417
O O2 0.370986 0.748421 0.720641
O O3 0.488116 0.761740 0.738907
O O4 0.452715 0.000000 0.692026
O O5 0.327469 0.268909 0.532134
O O6 0.324728 0.196850 0.419634
O O7 0.371717 0.000000 0.473870
O O8 0.301912 0.500000 0.929148
O O9 0.286289 0.279966 0.862616
O O10 0.404805 0.282078 0.879537
O O11 0.250000 0.250000 0.000000
O O12 0.243355 0.500000 0.615747
O O13 0.212649 0.232109 0.674551
O O14 0.789376 0.741011 0.206960
O O15 0.928159 0.785751 0.201952
O O16 0.823990 0.000000 0.239334
O O17 0.207524 0.000000 0.216224
O O18 0.987946 0.000000 0.792136
#
# Coordination Sequence:
#
# PCOD9174915 Si02
#       7
#     8   8   8   8   8   8   8
#     4  10  18  32  54  79 105 137 183 227 265 314
#     4   9  18  31  48  75 106 138 180 226 268 314
#     4   9  19  37  59  83 108 137 172 213 258 311
#     4  10  19  31  49  75 107 142 178 223 273 316
#     4  11  21  35  55  79 108 143 181 221 268 317
#     4  10  22  38  55  78 111 143 175 217 267 319
#     4   9  19  34  54  80 109 140 177 218 261 312
#
# _framework density 17.451015999999999
#
# number of rings (size 3 to 8) (size 9 to 14) (size 15 to 20)
#    0.000    2.286    1.429    2.571    0.000    5.143 
#    0.000    1.429    0.000    8.571    0.000    0.000 
#    0.000    0.000    0.000    0.000    0.000    0.000 
#
# Total GULP energy -156235.666120 kJ/mol
# GULP energy per Si atom -5579.845219 kJ/mol
# Density = 1.741130 g / cm^3
# Si number density = 17.451016 Si / 1000 Ang^3
#
#
#
# Elastic Constant Matrix: (Units=GPa)
#
#
# Indices 1 2 3 4 5 6 
#
# 1 112.4902 43.2341 51.1985 0.0000 -15.5923 0.0003
# 2 43.2341 40.2900 33.8241 0.0001 -7.8877 0.0006
# 3 51.1985 33.8241 104.0412 0.0000 -27.6360 0.0000
# 4 0.0000 0.0001 0.0000 31.6732 0.0000 -0.2950
# 5 -15.5923 -7.8877 -27.6360 0.0000 17.7342 0.0000
# 6 0.0003 0.0006 0.0000 -0.2950 0.0000 28.2697
#
#
#
# Elastic Compliance Matrix: (Units=1/GPa)
#
#
# Indices 1 2 3 4 5 6 
#
# 1 0.016052 -0.014743 -0.001875 0.000000 0.004633 0.000000
# 2 -0.014743 0.047814 -0.010380 0.000000 -0.007873 -0.000001
# 3 -0.001875 -0.010380 0.020893 0.000000 0.026293 0.000000
# 4 0.000000 0.000000 0.000000 0.031576 0.000000 0.000329
# 5 0.004633 -0.007873 0.026293 0.000000 0.097934 0.000000
# 6 0.000000 -0.000001 0.000000 0.000329 0.000000 0.035377
#
#
# Mechanical properties :
#
#
# Convention : Reuss Voigt Hill
#
# Bulk Modulus (GPa) = 32.50872 57.03720 44.77296
# Shear Modulus (GPa) = 15.92878 24.10641 20.01759
#
# Velocity S-wave (km/s) = 3.02449 3.72072 3.39052
# Velocity P-wave (km/s) = 5.55569 7.15636 6.40621
#
# Compressibility (1/GPa) = 0.03076098
#
# Stress axis : x y z
#
# Youngs Moduli (GPa) = 62.29827 20.91431 47.86255
#
# Poissons Ratio (x) = 0.30835 0.08975
# Poissons Ratio (y) = 0.91849 0.49684
# Poissons Ratio (z) = 0.11682 0.21710
#
# Static dielectric constant tensor:
#      x y z
#    x 1.602040 0.000000 -0.011500 
#    y 0.000000 1.581720 0.000000 
#    z -0.011500 0.000000 1.570170 
# 
# From -- ./inp_files/281626.got.cif
#   From: 2010.05.17/outbox.cif.g08.bks.cpg/sg12_141_cif.got.tgz:281626.got - 2010.06.03 13:09:07.
