data_PCOD9174171
_publ_section_title
;
Structure prediction by ZEFSAII (Michael W. Deem and Ramdas Pophale) SiO2 
 PCOD9174171
Probable space group: C 2/M
;
_chemical_formula_sum "Si O2"
_cell_formula_units_Z 56
_cell_length_a 19.430142
_cell_length_b 8.103923
_cell_length_c 25.615731
_cell_angle_alpha 90.000000
_cell_angle_beta 41.598610
_cell_angle_gamma 90.000000
_cell_volume 2677.848374
_symmetry_space_group_name_H-M "C 2/M"
_symmetry_group_IT_number 12
_symmetry_cell_setting 'monoclinic'
loop_
_space_group_symop_operation_xyz
x,y,z
-x,y,-z
-x,-y,-z
x,-y,z
1/2+x,1/2+y,z
1/2-x,1/2+y,-z
1/2-x,1/2-y,-z
1/2+x,1/2-y,z
loop_
_atom_site_type_symbol
_atom_site_label
_atom_site_fract_x
_atom_site_fract_y
_atom_site_fract_z
Si Si1 0.290092 0.700447 0.759943
Si Si2 0.732845 0.305660 0.682216
Si Si3 0.414940 0.201400 0.507558
Si Si4 0.051400 0.298631 0.917303
Si Si5 0.367582 0.803076 0.422862
Si Si6 0.504099 0.809718 0.832264
Si Si7 0.542323 0.693754 0.252169
O O1 0.296359 0.500000 0.751302
O O2 0.299616 0.778337 0.697071
O O3 0.173242 0.741662 0.844896
O O4 0.373341 0.763183 0.754863
O O5 0.708110 0.500000 0.691087
O O6 0.802635 0.251977 0.594017
O O7 0.626616 0.208424 0.749939
O O8 0.500000 0.261777 0.500000
O O9 0.428046 0.255763 0.440788
O O10 0.417822 0.000000 0.506320
O O11 0.045501 0.500000 0.919801
O O12 0.996453 0.237243 0.895117
O O13 0.000000 0.240976 0.000000
O O14 0.250000 0.750000 0.500000
O O15 0.428205 0.737333 0.338475
O O16 0.370382 0.000000 0.418853
O O17 0.446278 0.740177 0.814705
O O18 0.475735 0.000000 0.851703
O O19 0.553829 0.500000 0.248590
#
# Coordination Sequence:
#
# PCOD9174171 Si02
#       7
#     8   8   8   8   8   8   8
#     4   9  19  34  53  78 107 141 178 218 266 317
#     4  10  18  31  53  76 100 133 173 217 266 318
#     4   9  18  31  47  69  95 125 165 212 258 302
#     4   8  15  32  58  83 105 133 172 215 261 319
#     4  11  22  36  54  75 103 140 181 225 274 322
#     4  10  20  34  54  78 103 135 175 215 261 319
#     4  11  22  36  52  74 108 144 181 224 268 314
#
# _framework density 20.912312
#
# number of rings (size 3 to 8) (size 9 to 14) (size 15 to 20)
#    0.000    2.286    0.000    4.286    0.000    3.429 
#    0.000    2.857    0.000   15.857    0.000    0.000 
#    0.000    0.000    0.000    0.000    0.000    0.000 
#
# Total GULP energy -156298.901896 kJ/mol
# GULP energy per Si atom -5582.103639 kJ/mol
# Density = 2.086471 g / cm^3
# Si number density = 20.912312 Si / 1000 Ang^3
#
#
#
# Elastic Constant Matrix: (Units=GPa)
#
#
# Indices 1 2 3 4 5 6 
#
# 1 94.8055 -0.2642 14.5863 -0.0002 25.9908 0.0003
# 2 -0.2642 17.0455 -1.0691 -0.0003 5.4262 0.0000
# 3 14.5863 -1.0691 87.0756 -0.0001 33.6015 0.0001
# 4 -0.0002 -0.0003 -0.0001 13.7704 0.0001 5.0070
# 5 25.9908 5.4262 33.6015 0.0001 32.9411 -0.0001
# 6 0.0003 0.0000 0.0001 5.0070 -0.0001 22.5834
#
#
#
# Elastic Compliance Matrix: (Units=1/GPa)
#
#
# Indices 1 2 3 4 5 6 
#
# 1 0.014445 0.005690 0.003974 0.000001 -0.016389 0.000000
# 2 0.005690 0.067492 0.009727 0.000002 -0.025529 -0.000001
# 3 0.003974 0.009727 0.021053 0.000001 -0.026213 0.000000
# 4 0.000001 0.000002 0.000001 0.078987 -0.000002 -0.017512
# 5 -0.016389 -0.025529 -0.026213 -0.000002 0.074232 0.000001
# 6 0.000000 -0.000001 0.000000 -0.017512 0.000001 0.048163
#
#
# Mechanical properties :
#
#
# Convention : Reuss Voigt Hill
#
# Bulk Modulus (GPa) = 7.05355 25.04808 16.05081
# Shear Modulus (GPa) = 15.98222 26.23721 21.10972
#
# Velocity S-wave (km/s) = 2.76751 3.54592 3.18061
# Velocity P-wave (km/s) = 3.68678 5.36362 4.60221
#
# Compressibility (1/GPa) = 0.14177258
#
# Stress axis : x y z
#
# Youngs Moduli (GPa) = 69.22704 14.81668 47.49818
#
# Poissons Ratio (x) = -0.08431 -0.18877
# Poissons Ratio (y) = -0.39392 -0.46200
# Poissons Ratio (z) = -0.27513 -0.14412
#
# Static dielectric constant tensor:
#      x y z
#    x 1.815770 0.000000 0.018610 
#    y 0.000000 1.721220 0.000000 
#    z 0.018610 0.000000 1.717480 
# 
# From -- ./inp_files/342260.got.cif
#   From: 2010.05.17/outbox.cif.g08.bks.cpg/sg12_172_cif.got.tgz:342260.got - 2010.06.03 13:09:07.
