data_PCOD9174235
_publ_section_title
;
Structure prediction by ZEFSAII (Michael W. Deem and Ramdas Pophale) SiO2 
 PCOD9174235
Probable space group: C 2/M
;
_chemical_formula_sum "Si O2"
_cell_formula_units_Z 48
_cell_length_a 23.943909
_cell_length_b 7.698972
_cell_length_c 22.263577
_cell_angle_alpha 90.000000
_cell_angle_beta 31.049345
_cell_angle_gamma 90.000000
_cell_volume 2116.820112
_symmetry_space_group_name_H-M "C 2/M"
_symmetry_group_IT_number 12
_symmetry_cell_setting 'monoclinic'
loop_
_space_group_symop_operation_xyz
x,y,z
-x,y,-z
-x,-y,-z
x,-y,z
1/2+x,1/2+y,z
1/2-x,1/2+y,-z
1/2-x,1/2-y,-z
1/2+x,1/2-y,z
loop_
_atom_site_type_symbol
_atom_site_label
_atom_site_fract_x
_atom_site_fract_y
_atom_site_fract_z
Si Si1 0.272677 0.292841 0.048493
Si Si2 0.211732 0.290621 0.739650
Si Si3 0.155706 0.204012 0.273299
Si Si4 0.577393 0.712926 0.529431
Si Si5 0.376309 0.708395 0.381157
Si Si6 0.485920 0.706960 0.158550
O O1 0.269843 0.500000 0.057018
O O2 0.186957 0.221667 0.175104
O O3 0.250000 0.250000 0.000000
O O4 0.391819 0.225697 0.957827
O O5 0.207880 0.500000 0.742326
O O6 0.250150 0.227055 0.769812
O O7 0.310632 0.233634 0.604916
O O8 0.096168 0.235014 0.820566
O O9 0.035119 0.273652 0.395934
O O10 0.148754 0.000000 0.293883
O O11 0.577961 0.500000 0.527554
O O12 0.575388 0.770597 0.600480
O O13 0.388153 0.500000 0.369457
O O14 0.250000 0.750000 0.500000
O O15 0.430401 0.777593 0.270671
O O16 0.495837 0.500000 0.156694
#
# Coordination Sequence:
#
# PCOD9174235 Si02
#       6
#     8   8   8   8   8   8
#     4  11  24  43  64  85 112 150 193 237 289 344
#     4  10  20  35  59  88 116 153 197 237 280 339
#     4  10  21  38  60  86 117 153 195 239 284 337
#     4   9  17  33  57  84 116 152 190 235 287 339
#     4  10  18  31  53  80 109 141 180 228 282 335
#     4  10  22  38  57  83 118 154 187 236 294 342
#
# _framework density 22.675522000000001
#
# number of rings (size 3 to 8) (size 9 to 14) (size 15 to 20)
#    0.000    2.000    1.667    2.000    0.000    7.333 
#    0.000    6.667    0.000    2.000    0.000    0.000 
#    0.000    0.000    0.000    0.000    0.000    0.000 
#
# Total GULP energy -134066.579458 kJ/mol
# GULP energy per Si atom -5586.107477 kJ/mol
# Density = 2.262391 g / cm^3
# Si number density = 22.675522 Si / 1000 Ang^3
#
#
#
# Elastic Constant Matrix: (Units=GPa)
#
#
# Indices 1 2 3 4 5 6 
#
# 1 124.7656 -10.1324 26.4119 0.0111 -19.4238 -0.0058
# 2 -10.1324 35.1233 -11.9682 0.0084 -5.1697 -0.0044
# 3 26.4119 -11.9682 73.7975 0.0152 -31.5547 -0.0096
# 4 0.0111 0.0084 0.0152 17.0006 -0.0090 -3.4085
# 5 -19.4238 -5.1697 -31.5547 -0.0090 37.6009 0.0040
# 6 -0.0058 -0.0044 -0.0096 -3.4085 0.0040 19.2281
#
#
#
# Elastic Compliance Matrix: (Units=1/GPa)
#
#
# Indices 1 2 3 4 5 6 
#
# 1 0.009128 0.002954 -0.000933 -0.000004 0.004339 0.000001
# 2 0.002954 0.035687 0.011667 -0.000020 0.016224 0.000008
# 3 -0.000933 0.011667 0.025354 -0.000014 0.022400 0.000008
# 4 -0.000004 -0.000020 -0.000014 0.060989 -0.000003 0.010811
# 5 0.004339 0.016224 0.022400 -0.000003 0.049865 0.000005
# 6 0.000001 0.000008 0.000008 0.010811 0.000005 0.053924
#
#
# Mechanical properties :
#
#
# Convention : Reuss Voigt Hill
#
# Bulk Modulus (GPa) = 10.25147 26.92320 18.58733
# Shear Modulus (GPa) = 20.82599 30.05759 25.44179
#
# Velocity S-wave (km/s) = 3.03386 3.64476 3.35325
# Velocity P-wave (km/s) = 4.09916 5.44164 4.81739
#
# Compressibility (1/GPa) = 0.09754700
#
# Stress axis : x y z
#
# Youngs Moduli (GPa) = 109.55516 28.02143 39.44105
#
# Poissons Ratio (x) = -0.08278 0.03678
# Poissons Ratio (y) = -0.32363 -0.46017
# Poissons Ratio (z) = 0.10216 -0.32694
#
# Static dielectric constant tensor:
#      x y z
#    x 1.870200 0.000000 0.005370 
#    y 0.000000 1.856710 0.000000 
#    z 0.005370 0.000000 1.834840 
# 
# From -- ./inp_files/172949.got.cif
#   From: 2010.05.17/outbox.cif.g08.bks.cpg/sg12_87_cif.got.tgz:172949.got - 2010.06.03 13:09:07.
