data_PCOD9174603
_publ_section_title
;
Structure prediction by ZEFSAII (Michael W. Deem and Ramdas Pophale) SiO2 
 PCOD9174603
Probable space group: C 2/M
;
_chemical_formula_sum "Si O2"
_cell_formula_units_Z 56
_cell_length_a 14.605331
_cell_length_b 17.582120
_cell_length_c 14.356538
_cell_angle_alpha 90.000000
_cell_angle_beta 55.934597
_cell_angle_gamma 90.000000
_cell_volume 3054.019355
_symmetry_space_group_name_H-M "C 2/M"
_symmetry_group_IT_number 12
_symmetry_cell_setting 'monoclinic'
loop_
_space_group_symop_operation_xyz
x,y,z
-x,y,-z
-x,-y,-z
x,-y,z
1/2+x,1/2+y,z
1/2-x,1/2+y,-z
1/2-x,1/2-y,-z
1/2+x,1/2-y,z
loop_
_atom_site_type_symbol
_atom_site_label
_atom_site_fract_x
_atom_site_fract_y
_atom_site_fract_z
Si Si1 0.165878 0.317962 0.256369
Si Si2 0.400496 0.309418 0.327890
Si Si3 0.682889 0.086553 0.769164
Si Si4 0.109014 0.749438 0.878440
Si Si5 0.567215 0.142717 0.651556
Si Si6 0.580462 0.657309 0.366567
Si Si7 0.803252 0.587273 0.582629
O O1 0.280577 0.290984 0.145673
O O2 0.127879 0.243683 0.337590
O O3 0.184213 0.384507 0.319487
O O4 0.062085 0.342857 0.253300
O O5 0.408388 0.285951 0.214647
O O6 0.384994 0.227882 0.385310
O O7 0.508173 0.346891 0.313293
O O8 0.296807 0.363347 0.401786
O O9 0.634171 0.159038 0.853659
O O10 0.629531 0.098300 0.697342
O O11 0.814353 0.102389 0.689898
O O12 0.661353 0.000000 0.813576
O O13 0.000000 0.761432 0.000000
O O14 0.589130 0.102479 0.541306
O O15 0.500000 0.646793 0.500000
O O16 0.774160 0.500000 0.595452
#
# Coordination Sequence:
#
# PCOD9174603 Si02
#       7
#     8   8   8   8   8   8   8
#     4   9  19  33  50  75  99 129 175 215 250 302
#     4   9  19  34  52  76 101 135 182 217 242 290
#     4  10  21  33  48  77 110 136 168 208 252 306
#     4   9  19  38  60  75  93 128 175 226 266 295
#     4  10  18  32  50  72 106 142 170 200 244 306
#     4  10  18  32  53  75 106 144 174 202 240 295
#     4  11  20  29  48  78 110 138 163 202 259 313
#
# _framework density 18.336492
#
# number of rings (size 3 to 8) (size 9 to 14) (size 15 to 20)
#    0.000    2.286    0.000    4.714    0.000    2.857 
#    0.000   11.429    0.000    6.857    0.000    0.000 
#    0.000    0.000    0.000    0.000    0.000    0.000 
#
# Total GULP energy -156091.928400 kJ/mol
# GULP energy per Si atom -5574.711729 kJ/mol
# Density = 1.829476 g / cm^3
# Si number density = 18.336492 Si / 1000 Ang^3
#
#
#
# Elastic Constant Matrix: (Units=GPa)
#
#
# Indices 1 2 3 4 5 6 
#
# 1 104.4092 42.6007 23.8179 0.0000 -24.7516 0.0000
# 2 42.6007 73.6002 24.2117 0.0000 -14.1258 0.0000
# 3 23.8179 24.2117 70.4861 0.0000 -31.1102 0.0000
# 4 0.0000 0.0000 0.0000 7.4309 0.0000 -0.7850
# 5 -24.7516 -14.1258 -31.1102 0.0000 23.2752 0.0000
# 6 0.0000 0.0000 0.0000 -0.7850 0.0000 -3.0374
#
#
#
# Elastic Compliance Matrix: (Units=1/GPa)
#
#
# Indices 1 2 3 4 5 6 
#
# 1 0.016201 -0.007409 0.006560 0.000000 0.021501 0.000000
# 2 -0.007409 0.019002 -0.005880 0.000000 -0.004205 0.000000
# 3 0.006560 -0.005880 0.037785 0.000000 0.053912 0.000000
# 4 0.000000 0.000000 0.000000 0.130997 0.000000 -0.033854
# 5 0.021501 -0.004205 0.053912 0.000000 0.135337 0.000000
# 6 0.000000 0.000000 0.000000 -0.033854 0.000000 -0.320481
#
#
# Mechanical properties :
#
#
# Convention : Reuss Voigt Hill
#
# Bulk Modulus (GPa) = 16.79782 47.75070 32.27426
# Shear Modulus (GPa) = 95.89126 16.05810 55.97468
#
# Velocity S-wave (km/s) = 7.23940 2.96251 5.53106
# Velocity P-wave (km/s) = 8.89152 6.14816 7.64392
#
# Compressibility (1/GPa) = 0.05953152
#
# Stress axis : x y z
#
# Youngs Moduli (GPa) = 61.72371 52.62485 26.46538
#
# Poissons Ratio (x) = 0.38989 -0.17362
# Poissons Ratio (y) = 0.45731 0.15561
# Poissons Ratio (z) = -0.40492 0.30943
#
# Static dielectric constant tensor:
#      x y z
#    x 1.687670 0.000000 -0.014240 
#    y 0.000000 1.620140 0.000000 
#    z -0.014240 0.000000 1.607620 
# 
# From -- ./inp_files/145483.got.cif
#   From: 2010.05.17/outbox.cif.g08.bks.cpg/sg12_73_cif.got.tgz:145483.got - 2010.06.03 13:09:07.
