data_PCOD9174252
_publ_section_title
;
Structure prediction by ZEFSAII (Michael W. Deem and Ramdas Pophale) SiO2 
 PCOD9174252
Probable space group: C 2/M
;
_chemical_formula_sum "Si O2"
_cell_formula_units_Z 56
_cell_length_a 12.380683
_cell_length_b 21.442354
_cell_length_c 9.904697
_cell_angle_alpha 90.000000
_cell_angle_beta 84.281223
_cell_angle_gamma 90.000000
_cell_volume 2616.323037
_symmetry_space_group_name_H-M "C 2/M"
_symmetry_group_IT_number 12
_symmetry_cell_setting 'monoclinic'
loop_
_space_group_symop_operation_xyz
x,y,z
-x,y,-z
-x,-y,-z
x,-y,z
1/2+x,1/2+y,z
1/2-x,1/2+y,-z
1/2-x,1/2-y,-z
1/2+x,1/2-y,z
loop_
_atom_site_type_symbol
_atom_site_label
_atom_site_fract_x
_atom_site_fract_y
_atom_site_fract_z
Si Si1 0.385868 0.645481 0.748546
Si Si2 0.342836 0.568245 0.501402
Si Si3 0.838793 0.302997 0.265051
Si Si4 0.872476 0.370248 0.527832
Si Si5 0.247434 0.671585 0.186975
Si Si6 0.921053 0.071802 0.181206
Si Si7 0.548353 0.231598 0.129007
O O1 0.389742 0.619511 0.596169
O O2 0.257191 0.655080 0.785292
O O3 0.457875 0.600416 0.833571
O O4 0.433422 0.714583 0.763415
O O5 0.369930 0.500000 0.553532
O O6 0.212774 0.576798 0.507744
O O7 0.387780 0.573211 0.344746
O O8 0.847440 0.315171 0.423786
O O9 0.812267 0.231052 0.236554
O O10 0.956754 0.315834 0.189604
O O11 0.830616 0.351906 0.681591
O O12 0.000000 0.385061 0.500000
O O13 0.331241 0.618634 0.131283
O O14 0.163009 0.698686 0.089135
O O15 0.915880 0.000000 0.136871
O O16 0.500000 0.261197 0.000000
#
# Coordination Sequence:
#
# PCOD9174252 Si02
#       7
#     8   8   8   8   8   8   8
#     4  10  20  34  55  82 111 146 183 232 277 329
#     4   9  19  33  53  83 116 153 186 220 272 341
#     4  10  20  36  53  85 113 145 180 233 287 344
#     4  10  18  31  53  81 119 145 181 226 285 342
#     4  10  20  35  55  85 114 149 184 229 283 337
#     4  10  19  35  59  87 119 151 186 222 273 344
#     4  11  23  39  59  82 109 151 193 239 285 330
#
# _framework density 21.404084000000001
#
# number of rings (size 3 to 8) (size 9 to 14) (size 15 to 20)
#    0.000    2.000    2.857    1.286    0.000    4.857 
#    5.143    0.000    0.000    2.143    0.000    0.000 
#    0.000    0.000    0.000    0.000    0.000    0.000 
#
# Total GULP energy -156264.291556 kJ/mol
# GULP energy per Si atom -5580.867556 kJ/mol
# Density = 2.135537 g / cm^3
# Si number density = 21.404084 Si / 1000 Ang^3
#
#
#
# Elastic Constant Matrix: (Units=GPa)
#
#
# Indices 1 2 3 4 5 6 
#
# 1 173.8040 53.8892 24.9381 0.0000 3.5797 0.0000
# 2 53.8892 102.0720 17.4566 0.0000 6.5810 0.0000
# 3 24.9381 17.4566 60.9964 0.0000 -6.4379 0.0000
# 4 0.0000 0.0000 0.0000 -0.2833 0.0000 5.5935
# 5 3.5797 6.5810 -6.4379 0.0000 30.7671 0.0000
# 6 0.0000 0.0000 0.0000 5.5935 0.0000 25.6052
#
#
#
# Elastic Compliance Matrix: (Units=1/GPa)
#
#
# Indices 1 2 3 4 5 6 
#
# 1 0.007096 -0.003372 -0.001991 0.000000 -0.000521 0.000000
# 2 -0.003372 0.012160 -0.002387 0.000000 -0.002708 0.000000
# 3 -0.001991 -0.002387 0.018376 0.000000 0.004587 0.000000
# 4 0.000000 0.000000 0.000000 -0.664354 0.000000 0.145129
# 5 -0.000521 -0.002708 0.004587 0.000000 0.034102 0.000000
# 6 0.000000 0.000000 0.000000 0.145129 0.000000 0.007351
#
#
# Mechanical properties :
#
#
# Convention : Reuss Voigt Hill
#
# Bulk Modulus (GPa) = 45.18559 58.82669 52.00614
# Shear Modulus (GPa) = -8.89059 27.25703 9.18322
#
# Velocity S-wave (km/s) = -2.04027 3.57241 2.07358
# Velocity P-wave (km/s) = 3.95048 6.67531 5.48480
#
# Compressibility (1/GPa) = 0.02213095
#
# Stress axis : x y z
#
# Youngs Moduli (GPa) = 140.93401 82.23573 54.41947
#
# Poissons Ratio (x) = 0.27730 0.10834
# Poissons Ratio (y) = 0.47523 0.12992
# Poissons Ratio (z) = 0.28059 0.19632
#
# Static dielectric constant tensor:
#      x y z
#    x 1.819940 0.000000 0.003070 
#    y 0.000000 1.755750 0.000000 
#    z 0.003070 0.000000 1.817080 
# 
# From -- ./inp_files/133148.got.cif
#   From: 2010.05.17/outbox.cif.g08.bks.cpg/sg12_67_cif.got.tgz:133148.got - 2010.06.03 13:09:07.
