data_PCOD9174869
_publ_section_title
;
Structure prediction by ZEFSAII (Michael W. Deem and Ramdas Pophale) SiO2 
 PCOD9174869
Probable space group: C 2/M
;
_chemical_formula_sum "Si O2"
_cell_formula_units_Z 48
_cell_length_a 27.571058
_cell_length_b 8.787726
_cell_length_c 12.328042
_cell_angle_alpha 90.000000
_cell_angle_beta 74.479929
_cell_angle_gamma 90.000000
_cell_volume 2878.010282
_symmetry_space_group_name_H-M "C 2/M"
_symmetry_group_IT_number 12
_symmetry_cell_setting 'monoclinic'
loop_
_space_group_symop_operation_xyz
x,y,z
-x,y,-z
-x,-y,-z
x,-y,z
1/2+x,1/2+y,z
1/2-x,1/2+y,-z
1/2-x,1/2-y,-z
1/2+x,1/2-y,z
loop_
_atom_site_type_symbol
_atom_site_label
_atom_site_fract_x
_atom_site_fract_y
_atom_site_fract_z
Si Si1 0.570021 0.178461 0.228953
Si Si2 0.469257 0.323584 0.368965
Si Si3 0.382908 0.321837 0.238075
Si Si4 0.694374 0.684963 0.539920
Si Si5 0.943236 0.815488 0.998980
Si Si6 0.114103 0.817622 0.406126
O O1 0.515854 0.218667 0.313580
O O2 0.570221 0.259311 0.112371
O O3 0.610065 0.240959 0.292012
O O4 0.575767 0.000000 0.211241
O O5 0.486559 0.500000 0.368044
O O6 0.429884 0.317556 0.293099
O O7 0.436547 0.283976 0.494043
O O8 0.371618 0.500000 0.225219
O O9 0.335742 0.259790 0.334486
O O10 0.403357 0.257971 0.112761
O O11 0.695227 0.500000 0.542148
O O12 0.750000 0.750000 0.500000
O O13 0.660541 0.728037 0.455505
O O14 0.943136 0.000000 0.000027
O O15 0.000000 0.768742 0.000000
O O16 0.115841 0.000000 0.392857
#
# Coordination Sequence:
#
# PCOD9174869 Si02
#       6
#     8   8   8   8   8   8
#     4  12  23  30  42  70 109 139 162 202 253 297
#     4   9  16  31  51  69  93 131 176 209 235 284
#     4   8  15  30  52  76  97 125 169 210 239 284
#     4   9  18  34  57  81 101 122 157 208 260 302
#     4  10  18  32  54  71  93 136 182 208 231 283
#     4   9  19  34  52  71  95 131 174 209 239 293
#
# _framework density 16.678187999999999
#
# number of rings (size 3 to 8) (size 9 to 14) (size 15 to 20)
#    0.000    2.500    1.667    4.000    0.000    3.667 
#    0.000    3.333    0.000    1.000    0.000    0.000 
#    0.000    0.000    0.000    0.000    0.000    0.000 
#
# Total GULP energy -133782.786102 kJ/mol
# GULP energy per Si atom -5574.282754 kJ/mol
# Density = 1.664023 g / cm^3
# Si number density = 16.678188 Si / 1000 Ang^3
#
#
#
# Elastic Constant Matrix: (Units=GPa)
#
#
# Indices 1 2 3 4 5 6 
#
# 1 88.4776 20.4033 64.6391 0.0000 -10.4136 0.0000
# 2 20.4033 15.1243 31.7196 0.0000 -1.8681 0.0000
# 3 64.6391 31.7196 143.3172 0.0000 11.0993 0.0000
# 4 0.0000 0.0000 0.0000 9.4089 0.0000 -4.8509
# 5 -10.4136 -1.8681 11.0993 0.0000 17.0882 0.0000
# 6 0.0000 0.0000 0.0000 -4.8509 0.0000 21.6336
#
#
#
# Elastic Compliance Matrix: (Units=1/GPa)
#
#
# Indices 1 2 3 4 5 6 
#
# 1 0.022673 -0.006484 -0.010326 0.000000 0.019815 0.000000
# 2 -0.006484 0.145707 -0.031854 0.000000 0.032667 0.000000
# 3 -0.010326 -0.031854 0.020472 0.000000 -0.023072 0.000000
# 4 0.000000 0.000000 0.000000 0.120175 0.000000 0.026947
# 5 0.019815 0.032667 -0.023072 0.000000 0.089153 0.000000
# 6 0.000000 0.000000 0.000000 0.026947 0.000000 0.052267
#
#
# Mechanical properties :
#
#
# Convention : Reuss Voigt Hill
#
# Bulk Modulus (GPa) = 10.92606 53.38258 32.15432
# Shear Modulus (GPa) = 8.64630 18.30329 13.47479
#
# Velocity S-wave (km/s) = 2.27935 3.31635 2.84549
# Velocity P-wave (km/s) = 3.67323 6.83675 5.48789
#
# Compressibility (1/GPa) = 0.09152432
#
# Stress axis : x y z
#
# Youngs Moduli (GPa) = 44.10441 6.86308 48.84839
#
# Poissons Ratio (x) = 0.04450 0.50439
# Poissons Ratio (y) = 0.28599 1.55601
# Poissons Ratio (z) = 0.45541 0.21862
#
# Static dielectric constant tensor:
#      x y z
#    x 1.552130 0.000000 0.002750 
#    y 0.000000 1.557480 0.000000 
#    z 0.002750 0.000000 1.588270 
# 
# From -- ./inp_files/179199.got.cif
#   From: 2010.05.17/outbox.cif.g08.bks.cpg/sg12_90_cif.got.tgz:179199.got - 2010.06.03 13:09:07.
