data_PCOD9174577
_publ_section_title
;
Structure prediction by ZEFSAII (Michael W. Deem and Ramdas Pophale) SiO2 
 PCOD9174577
Probable space group: C 2/M
;
_chemical_formula_sum "Si O2"
_cell_formula_units_Z 56
_cell_length_a 15.696914
_cell_length_b 21.723112
_cell_length_c 15.540822
_cell_angle_alpha 90.000000
_cell_angle_beta 36.625109
_cell_angle_gamma 90.000000
_cell_volume 3161.378900
_symmetry_space_group_name_H-M "C 2/M"
_symmetry_group_IT_number 12
_symmetry_cell_setting 'monoclinic'
loop_
_space_group_symop_operation_xyz
x,y,z
-x,y,-z
-x,-y,-z
x,-y,z
1/2+x,1/2+y,z
1/2-x,1/2+y,-z
1/2-x,1/2-y,-z
1/2+x,1/2-y,z
loop_
_atom_site_type_symbol
_atom_site_label
_atom_site_fract_x
_atom_site_fract_y
_atom_site_fract_z
Si Si1 0.557559 0.000000 0.808303
Si Si2 0.584647 0.305021 0.636482
Si Si3 0.557119 0.886749 0.199293
Si Si4 0.196342 0.121338 0.125280
Si Si5 0.170021 0.273747 0.866522
Si Si6 0.831359 0.300185 0.320044
Si Si7 0.937506 0.306665 0.647141
Si Si8 0.226455 0.500000 0.841534
O O1 0.537586 0.941973 0.761945
O O2 0.687469 0.000000 0.771520
O O3 0.421039 0.000000 0.983521
O O4 0.461535 0.352217 0.759963
O O5 0.715390 0.331360 0.475614
O O6 0.652786 0.270571 0.663033
O O7 0.518929 0.250465 0.628939
O O8 0.485414 0.828269 0.211265
O O9 0.547686 0.867973 0.306699
O O10 0.716262 0.894654 0.032328
O O11 0.283060 0.177293 0.099963
O O12 0.197939 0.062303 0.186996
O O13 0.210590 0.305756 0.743626
O O14 0.271641 0.214266 0.787336
O O15 0.000000 0.261992 0.000000
O O16 0.000000 0.311940 0.500000
#
# Coordination Sequence:
#
# PCOD9174577 Si02
#       8
#     4   8   8   8   8   8   8   4
#     4   9  18  34  52  79  99 134 171 214 253 298
#     4   9  20  32  49  71 108 139 167 198 260 309
#     4  10  20  33  53  73 102 131 173 213 252 301
#     4  10  20  32  50  78 102 136 170 214 250 301
#     4  11  20  29  50  77 103 128 169 207 254 305
#     4  10  18  32  49  74 103 140 163 205 255 309
#     4  10  20  34  48  73 103 133 164 208 259 306
#     4   9  18  32  55  75 106 133 173 209 253 297
#
# _framework density 17.713789999999999
#
# number of rings (size 3 to 8) (size 9 to 14) (size 15 to 20)
#    0.000    2.143    2.857    0.857    4.000    1.714 
#    0.000    1.071    0.000    1.714    0.000    0.500 
#    0.000    0.000    0.000    0.000    0.000    0.000 
#
# Total GULP energy -155869.242014 kJ/mol
# GULP energy per Si atom -5566.758643 kJ/mol
# Density = 1.767347 g / cm^3
# Si number density = 17.713790 Si / 1000 Ang^3
#
#
#
# Elastic Constant Matrix: (Units=GPa)
#
#
# Indices 1 2 3 4 5 6 
#
# 1 36.1814 17.5435 16.4701 -0.0007 3.3564 0.0008
# 2 17.5435 55.1058 30.7589 -0.0013 7.3541 0.0008
# 3 16.4701 30.7589 73.3292 0.0004 -4.5760 0.0001
# 4 -0.0007 -0.0013 0.0004 4.3734 -0.0001 4.3882
# 5 3.3564 7.3541 -4.5760 -0.0001 36.5342 0.0000
# 6 0.0008 0.0008 0.0001 4.3882 0.0000 15.8258
#
#
#
# Elastic Compliance Matrix: (Units=1/GPa)
#
#
# Indices 1 2 3 4 5 6 
#
# 1 0.033693 -0.008047 -0.004318 0.000006 -0.002016 -0.000003
# 2 -0.008047 0.027028 -0.009901 0.000012 -0.005941 -0.000004
# 3 -0.004318 -0.009901 0.019058 -0.000008 0.004777 0.000003
# 4 0.000006 0.000012 -0.000008 0.316788 -0.000003 -0.087839
# 5 -0.002016 -0.005941 0.004777 -0.000003 0.029351 0.000001
# 6 -0.000003 -0.000004 0.000003 -0.087839 0.000001 0.087544
#
#
# Mechanical properties :
#
#
# Convention : Reuss Voigt Hill
#
# Bulk Modulus (GPa) = 28.37079 32.68459 30.52769
# Shear Modulus (GPa) = 8.77589 18.00295 13.38942
#
# Velocity S-wave (km/s) = 2.22823 3.19144 2.75230
# Velocity P-wave (km/s) = 4.76141 5.66321 5.23178
#
# Compressibility (1/GPa) = 0.03524752
#
# Stress axis : x y z
#
# Youngs Moduli (GPa) = 29.67978 36.99872 52.47158
#
# Poissons Ratio (x) = 0.29774 0.22657
# Poissons Ratio (y) = 0.23884 0.51950
# Poissons Ratio (z) = 0.12815 0.36631
#
# Static dielectric constant tensor:
#      x y z
#    x 1.628630 0.000000 -0.002850 
#    y 0.000000 1.763150 0.000000 
#    z -0.002850 0.000000 1.626720 
# 
# From -- ./inp_files/218266.got.cif
#   From: 2010.05.17/outbox.cif.g08.bks.cpg/sg12_110_cif.got.tgz:218266.got - 2010.06.03 13:09:07.
