data_PCOD9174938
_publ_section_title
;
Structure prediction by ZEFSAII (Michael W. Deem and Ramdas Pophale) SiO2 
 PCOD9174938
Probable space group: C 2/M
;
_chemical_formula_sum "Si O2"
_cell_formula_units_Z 60
_cell_length_a 22.169517
_cell_length_b 13.203134
_cell_length_c 13.392398
_cell_angle_alpha 90.000000
_cell_angle_beta 50.021693
_cell_angle_gamma 90.000000
_cell_volume 3003.886344
_symmetry_space_group_name_H-M "C 2/M"
_symmetry_group_IT_number 12
_symmetry_cell_setting 'monoclinic'
loop_
_space_group_symop_operation_xyz
x,y,z
-x,y,-z
-x,-y,-z
x,-y,z
1/2+x,1/2+y,z
1/2-x,1/2+y,-z
1/2-x,1/2-y,-z
1/2+x,1/2-y,z
loop_
_atom_site_type_symbol
_atom_site_label
_atom_site_fract_x
_atom_site_fract_y
_atom_site_fract_z
Si Si1 0.990724 0.887233 0.166391
Si Si2 0.286518 0.619607 0.893440
Si Si3 0.364651 0.687665 0.440879
Si Si4 0.195778 0.614717 0.591350
Si Si5 0.000000 0.278912 0.000000
Si Si6 0.667672 0.178163 0.848896
Si Si7 0.322804 0.384305 0.067186
Si Si8 0.408046 0.377293 0.606521
O O1 0.944715 0.863939 0.316551
O O2 0.966088 0.797612 0.118966
O O3 0.085444 0.884135 0.065864
O O4 0.968372 0.000000 0.154727
O O5 0.299700 0.500000 0.894243
O O6 0.217192 0.631891 0.886981
O O7 0.275511 0.653558 0.019455
O O8 0.365030 0.657681 0.753372
O O9 0.288748 0.632582 0.473674
O O10 0.354143 0.803074 0.416830
O O11 0.364069 0.672621 0.559756
O O12 0.173559 0.500000 0.592713
O O13 0.186137 0.636042 0.720067
O O14 0.074135 0.338140 0.963531
O O15 0.684411 0.299049 0.840928
O O16 0.303023 0.500000 0.117008
O O17 0.500000 0.353380 0.500000
O O18 0.399720 0.500000 0.607741
#
# Coordination Sequence:
#
# PCOD9174938 Si02
#       8
#     8   8   8   8   4   8   8   8
#     4  10  18  32  54  80 114 142 171 224 286 343
#     4  10  19  34  55  80 112 148 185 234 281 330
#     4  11  21  36  58  85 112 147 185 230 285 341
#     4  11  23  39  57  82 113 148 191 234 279 336
#     4  10  21  34  49  80 110 144 193 224 275 322
#     4  11  20  37  56  79 112 151 189 232 275 327
#     4   9  20  35  56  85 115 145 184 233 288 339
#     4  10  19  32  56  90 119 144 180 229 288 344
#
# _framework density 19.974124
#
# number of rings (size 3 to 8) (size 9 to 14) (size 15 to 20)
#    0.000    1.733    2.667    3.000    0.000    2.667 
#    0.000    2.000    0.000    0.400    0.000    0.000 
#    0.000    0.000    0.000    0.000    0.000    0.000 
#
# Total GULP energy -167375.402784 kJ/mol
# GULP energy per Si atom -5579.180093 kJ/mol
# Density = 1.992866 g / cm^3
# Si number density = 19.974124 Si / 1000 Ang^3
#
#
#
# Elastic Constant Matrix: (Units=GPa)
#
#
# Indices 1 2 3 4 5 6 
#
# 1 65.0963 2.7986 -10.3048 0.0000 -6.2368 0.0000
# 2 2.7986 63.3599 5.9542 0.0000 -4.9687 0.0000
# 3 -10.3048 5.9542 29.0731 0.0000 -1.8179 0.0000
# 4 0.0000 0.0000 0.0000 16.4613 0.0000 8.9055
# 5 -6.2368 -4.9687 -1.8179 0.0000 25.9620 0.0000
# 6 0.0000 0.0000 0.0000 8.9055 0.0000 17.5587
#
#
#
# Elastic Compliance Matrix: (Units=1/GPa)
#
#
# Indices 1 2 3 4 5 6 
#
# 1 0.016838 -0.001012 0.006444 0.000000 0.004302 0.000000
# 2 -0.001012 0.016368 -0.003546 0.000000 0.002641 0.000000
# 3 0.006444 -0.003546 0.037625 0.000000 0.003504 0.000000
# 4 0.000000 0.000000 0.000000 0.083720 0.000000 -0.042461
# 5 0.004302 0.002641 0.003504 0.000000 0.040302 0.000000
# 6 0.000000 0.000000 0.000000 -0.042461 0.000000 0.078487
#
#
# Mechanical properties :
#
#
# Convention : Reuss Voigt Hill
#
# Bulk Modulus (GPa) = 13.40403 17.15838 15.28120
# Shear Modulus (GPa) = 16.98168 22.60184 19.79176
#
# Velocity S-wave (km/s) = 2.91895 3.36751 3.15122
# Velocity P-wave (km/s) = 4.25272 4.87125 4.57246
#
# Compressibility (1/GPa) = 0.07460444
#
# Stress axis : x y z
#
# Youngs Moduli (GPa) = 59.39048 61.09532 26.57777
#
# Poissons Ratio (x) = 0.06182 -0.17128
# Poissons Ratio (y) = 0.06010 0.09424
# Poissons Ratio (z) = -0.38273 0.21662
#
# Static dielectric constant tensor:
#      x y z
#    x 1.741370 0.000000 0.001500 
#    y 0.000000 1.716480 0.000000 
#    z 0.001500 0.000000 1.761830 
# 
# From -- ./inp_files/239967.got.cif
#   From: 2010.05.17/outbox.cif.g08.bks.cpg/sg12_120_cif.got.tgz:239967.got - 2010.06.03 13:09:07.
