data_PCOD9174217
_publ_section_title
;
Structure prediction by ZEFSAII (Michael W. Deem and Ramdas Pophale) SiO2 
 PCOD9174217
Probable space group: C 2/M
;
_chemical_formula_sum "Si O2"
_cell_formula_units_Z 56
_cell_length_a 15.668141
_cell_length_b 7.566580
_cell_length_c 29.243892
_cell_angle_alpha 90.000000
_cell_angle_beta 49.569764
_cell_angle_gamma 90.000000
_cell_volume 2639.057600
_symmetry_space_group_name_H-M "C 2/M"
_symmetry_group_IT_number 12
_symmetry_cell_setting 'monoclinic'
loop_
_space_group_symop_operation_xyz
x,y,z
-x,y,-z
-x,-y,-z
x,-y,z
1/2+x,1/2+y,z
1/2-x,1/2+y,-z
1/2-x,1/2-y,-z
1/2+x,1/2-y,z
loop_
_atom_site_type_symbol
_atom_site_label
_atom_site_fract_x
_atom_site_fract_y
_atom_site_fract_z
Si Si1 0.012651 0.291124 0.288129
Si Si2 0.688932 0.782670 0.152192
Si Si3 0.947074 0.716460 0.623470
Si Si4 0.157873 0.711493 0.493497
Si Si5 0.742319 0.286563 0.637145
Si Si6 0.137350 0.709738 0.067613
Si Si7 0.057299 0.791444 0.934120
O O1 0.034601 0.500000 0.284253
O O2 0.102903 0.220556 0.220823
O O3 0.023354 0.220071 0.336044
O O4 0.885960 0.268733 0.315163
O O5 0.651943 0.724090 0.114323
O O6 0.816758 0.723873 0.116827
O O7 0.686541 0.000000 0.153132
O O8 0.951919 0.500000 0.621837
O O9 0.823991 0.768775 0.649611
O O10 0.039571 0.776289 0.554379
O O11 0.146962 0.500000 0.492188
O O12 0.250000 0.750000 0.500000
O O13 0.202748 0.779073 0.429491
O O14 0.742753 0.500000 0.635652
O O15 0.127606 0.500000 0.073673
O O16 0.028633 0.773050 0.077785
O O17 0.250000 0.750000 0.000000
O O18 0.072043 0.000000 0.937443
O O19 0.000000 0.715866 0.000000
#
# Coordination Sequence:
#
# PCOD9174217 Si02
#       7
#     8   8   8   8   8   8   8
#     4  10  20  37  57  76 104 146 185 215 259 326
#     4   9  20  37  56  78 110 145 177 218 271 324
#     4   9  18  33  54  77 104 141 180 213 262 325
#     4  10  18  31  53  79 105 136 176 223 271 314
#     4  10  20  34  54  80 109 138 175 228 273 309
#     4  11  21  36  57  84 112 142 180 222 273 324
#     4  10  19  36  59  83 110 142 177 221 274 325
#
# _framework density 21.219695999999999
#
# number of rings (size 3 to 8) (size 9 to 14) (size 15 to 20)
#    0.000    2.143    2.857    0.857    0.000    3.143 
#    0.000    5.000    0.000    1.714    0.000    0.000 
#    0.000    0.000    0.000    0.000    0.000    0.000 
#
# Total GULP energy -156387.951523 kJ/mol
# GULP energy per Si atom -5585.283983 kJ/mol
# Density = 2.117140 g / cm^3
# Si number density = 21.219696 Si / 1000 Ang^3
#
#
#
# Elastic Constant Matrix: (Units=GPa)
#
#
# Indices 1 2 3 4 5 6 
#
# 1 133.4229 -15.7676 66.1243 0.0007 -35.5193 0.0010
# 2 -15.7676 43.2176 5.5981 0.0107 1.6847 0.0059
# 3 66.1243 5.5981 159.6962 0.0007 -35.2644 0.0012
# 4 0.0007 0.0107 0.0007 9.5490 0.0006 -4.1033
# 5 -35.5193 1.6847 -35.2644 0.0006 21.8824 0.0010
# 6 0.0010 0.0059 0.0012 -4.1033 0.0010 25.8341
#
#
#
# Elastic Compliance Matrix: (Units=1/GPa)
#
#
# Indices 1 2 3 4 5 6 
#
# 1 0.014176 0.004596 -0.001596 -0.000009 0.020085 -0.000004
# 2 0.004596 0.025066 -0.002423 -0.000033 0.001626 -0.000011
# 3 -0.001596 -0.002423 0.010055 0.000001 0.013801 0.000000
# 4 -0.000009 -0.000033 0.000001 0.112394 -0.000014 0.017852
# 5 0.020085 0.001626 0.013801 -0.000014 0.100415 -0.000008
# 6 -0.000004 -0.000011 0.000000 0.017852 -0.000008 0.041544
#
#
# Mechanical properties :
#
#
# Convention : Reuss Voigt Hill
#
# Bulk Modulus (GPa) = 19.82105 49.80515 34.81310
# Shear Modulus (GPa) = 15.65868 30.14523 22.90196
#
# Velocity S-wave (km/s) = 2.71944 3.77321 3.28880
# Velocity P-wave (km/s) = 4.38424 6.51958 5.55547
#
# Compressibility (1/GPa) = 0.05045142
#
# Stress axis : x y z
#
# Youngs Moduli (GPa) = 70.54331 39.89491 99.45351
#
# Poissons Ratio (x) = -0.18334 0.15869
# Poissons Ratio (y) = -0.32419 0.24093
# Poissons Ratio (z) = 0.11256 0.09665
#
# Static dielectric constant tensor:
#      x y z
#    x 1.726260 0.000000 0.010820 
#    y 0.000000 1.843330 0.000000 
#    z 0.010820 0.000000 1.745380 
# 
# From -- ./inp_files/374939.got.cif
#   From: 2010.05.17/outbox.cif.g08.bks.cpg/sg12_188_cif.got.tgz:374939.got - 2010.06.03 13:09:07.
