data_PCOD9174231
_publ_section_title
;
Structure prediction by ZEFSAII (Michael W. Deem and Ramdas Pophale) SiO2 
 PCOD9174231
Probable space group: C 2/M
;
_chemical_formula_sum "Si O2"
_cell_formula_units_Z 56
_cell_length_a 22.861569
_cell_length_b 9.899982
_cell_length_c 11.657374
_cell_angle_alpha 90.000000
_cell_angle_beta 94.972538
_cell_angle_gamma 90.000000
_cell_volume 2628.473211
_symmetry_space_group_name_H-M "C 2/M"
_symmetry_group_IT_number 12
_symmetry_cell_setting 'monoclinic'
loop_
_space_group_symop_operation_xyz
x,y,z
-x,y,-z
-x,-y,-z
x,-y,z
1/2+x,1/2+y,z
1/2-x,1/2+y,-z
1/2-x,1/2-y,-z
1/2+x,1/2-y,z
loop_
_atom_site_type_symbol
_atom_site_label
_atom_site_fract_x
_atom_site_fract_y
_atom_site_fract_z
Si Si1 0.772798 0.353184 0.096739
Si Si2 0.993899 0.835616 0.736310
Si Si3 0.188282 0.745451 0.247611
Si Si4 0.576882 0.847316 0.100284
Si Si5 0.285649 0.344823 0.420185
Si Si6 0.105853 0.159095 0.443085
Si Si7 0.095383 0.342291 0.831326
O O1 0.782654 0.500000 0.045694
O O2 0.721112 0.358023 0.180395
O O3 0.835186 0.314090 0.161718
O O4 0.750000 0.250000 0.000000
O O5 0.959002 0.767801 0.837927
O O6 0.956960 0.792608 0.616049
O O7 0.056437 0.762955 0.754261
O O8 0.996381 0.000000 0.744087
O O9 0.142771 0.665070 0.160917
O O10 0.244278 0.661400 0.302286
O O11 0.149387 0.806428 0.343942
O O12 0.554633 0.000000 0.121280
O O13 0.578265 0.829025 0.963787
O O14 0.285425 0.500000 0.459709
O O15 0.250000 0.250000 0.500000
O O16 0.353775 0.297542 0.441700
O O17 0.096413 0.000000 0.455664
O O18 0.085753 0.500000 0.796937
#
# Coordination Sequence:
#
# PCOD9174231 Si02
#       7
#     8   8   8   8   8   8   8
#     4  11  23  38  55  76 107 146 182 220 261 312
#     4  10  20  33  51  75 101 133 176 220 263 312
#     4  10  18  31  53  80 106 138 175 212 259 318
#     4  10  19  32  50  73 104 136 169 215 264 314
#     4   9  17  30  52  79 108 137 169 214 267 322
#     4   8  16  31  50  77 107 131 162 213 269 309
#     4  10  21  36  50  70 102 140 177 215 260 308
#
# _framework density 21.305143999999999
#
# number of rings (size 3 to 8) (size 9 to 14) (size 15 to 20)
#    0.000    2.286    1.429    1.714    0.000    4.571 
#    0.000    0.714    0.000    0.857    0.000    5.000 
#    0.000    0.000    0.000    0.000    0.000    0.000 
#
# Total GULP energy -155943.612833 kJ/mol
# GULP energy per Si atom -5569.414744 kJ/mol
# Density = 2.125665 g / cm^3
# Si number density = 21.305144 Si / 1000 Ang^3
#
#
#
# Elastic Constant Matrix: (Units=GPa)
#
#
# Indices 1 2 3 4 5 6 
#
# 1 108.9903 47.2601 47.8959 0.0000 33.6455 0.0000
# 2 47.2601 86.3640 27.8990 0.0000 22.9293 0.0000
# 3 47.8959 27.8990 69.9454 0.0000 44.4345 0.0000
# 4 0.0000 0.0000 0.0000 12.4340 0.0000 7.4200
# 5 33.6455 22.9293 44.4345 0.0000 51.5447 0.0000
# 6 0.0000 0.0000 0.0000 7.4200 0.0000 23.8352
#
#
#
# Elastic Compliance Matrix: (Units=1/GPa)
#
#
# Indices 1 2 3 4 5 6 
#
# 1 0.015247 -0.005648 -0.007652 0.000000 -0.000844 0.000000
# 2 -0.005648 0.015592 -0.000636 0.000000 -0.002702 0.000000
# 3 -0.007652 -0.000636 0.036337 0.000000 -0.026047 0.000000
# 4 0.000000 0.000000 0.000000 0.098775 0.000000 -0.030749
# 5 -0.000844 -0.002702 -0.026047 0.000000 0.043607 0.000000
# 6 0.000000 0.000000 0.000000 -0.030749 0.000000 0.051527
#
#
# Mechanical properties :
#
#
# Convention : Reuss Voigt Hill
#
# Bulk Modulus (GPa) = 25.44148 56.82331 41.13239
# Shear Modulus (GPa) = 16.55310 27.04575 21.79942
#
# Velocity S-wave (km/s) = 2.79041 3.56680 3.20222
# Velocity P-wave (km/s) = 4.72750 6.60998 5.74635
#
# Compressibility (1/GPa) = 0.03930589
#
# Stress axis : x y z
#
# Youngs Moduli (GPa) = 65.58573 64.13547 27.51992
#
# Poissons Ratio (x) = 0.36222 0.21058
# Poissons Ratio (y) = 0.37041 0.01749
# Poissons Ratio (z) = 0.50187 0.04076
#
# Static dielectric constant tensor:
#      x y z
#    x 1.824350 0.000000 0.036660 
#    y 0.000000 1.791030 0.000000 
#    z 0.036660 0.000000 1.840040 
# 
# From -- ./inp_files/237824.got.cif
#   From: 2010.05.17/outbox.cif.g08.bks.cpg/sg12_119_cif.got.tgz:237824.got - 2010.06.03 13:09:07.
