data_PCOD9174983
_publ_section_title
;
Structure prediction by ZEFSAII (Michael W. Deem and Ramdas Pophale) SiO2 
 PCOD9174983
Probable space group: C 2/M
;
_chemical_formula_sum "Si O2"
_cell_formula_units_Z 40
_cell_length_a 6.810053
_cell_length_b 13.781717
_cell_length_c 16.255271
_cell_angle_alpha 90.000000
_cell_angle_beta 113.666199
_cell_angle_gamma 90.000000
_cell_volume 1397.320027
_symmetry_space_group_name_H-M "C 2/M"
_symmetry_group_IT_number 12
_symmetry_cell_setting 'monoclinic'
loop_
_space_group_symop_operation_xyz
x,y,z
-x,y,-z
-x,-y,-z
x,-y,z
1/2+x,1/2+y,z
1/2-x,1/2+y,-z
1/2-x,1/2-y,-z
1/2+x,1/2-y,z
loop_
_atom_site_type_symbol
_atom_site_label
_atom_site_fract_x
_atom_site_fract_y
_atom_site_fract_z
Si Si1 0.034191 0.894215 0.613879
Si Si2 0.185615 0.626325 0.180293
Si Si3 0.229463 0.646113 0.787244
Si Si4 0.051236 0.667915 0.414405
Si Si5 0.150460 0.854960 0.949335
O O1 0.151284 0.904178 0.721195
O O2 0.070129 0.785671 0.405678
O O3 0.229965 0.879331 0.581716
O O4 0.928197 0.000000 0.582976
O O5 0.952104 0.609530 0.181389
O O6 0.240943 0.740485 0.189231
O O7 0.170126 0.603505 0.081661
O O8 0.135780 0.634060 0.680020
O O9 0.467946 0.616975 0.847713
O O10 0.000000 0.645010 0.500000
O O11 0.250000 0.750000 0.000000
O O12 0.000000 0.886052 0.000000
#
# Coordination Sequence:
#
# PCOD9174983 Si02
#       5
#     8   8   8   8   8
#     4  10  23  42  67 100 141 186 233 290 358 421
#     4  10  18  33  54  82 131 167 218 284 334 410
#     4  10  18  32  54  86 129 174 226 278 347 414
#     4  10  22  41  69  99 139 184 233 293 350 427
#     4  12  20  28  53  93 128 171 234 282 344 431
#
# _framework density 28.626225999999999
#
# number of rings (size 3 to 8) (size 9 to 14) (size 15 to 20)
#    0.000    1.600    4.000    0.600    2.800    0.800 
#    0.000    1.000    0.000    0.600    0.000   39.200 
#    0.000    0.000    0.000    0.000    0.000    0.000 
#
# Total GULP energy -111490.646704 kJ/mol
# GULP energy per Si atom -5574.532335 kJ/mol
# Density = 2.856107 g / cm^3
# Si number density = 28.626226 Si / 1000 Ang^3
#
#
#
# Elastic Constant Matrix: (Units=GPa)
#
#
# Indices 1 2 3 4 5 6 
#
# 1 92.9784 14.3959 91.9108 0.0000 3.9525 0.0000
# 2 14.3959 171.2357 30.7481 0.0000 -3.5566 0.0000
# 3 91.9108 30.7481 262.6904 0.0000 -42.1295 0.0000
# 4 0.0000 0.0000 0.0000 -53.5478 0.0000 -34.0747
# 5 3.9525 -3.5566 -42.1295 0.0000 72.3000 0.0000
# 6 0.0000 0.0000 0.0000 -34.0747 0.0000 -94.2223
#
#
#
# Elastic Compliance Matrix: (Units=1/GPa)
#
#
# Indices 1 2 3 4 5 6 
#
# 1 0.018042 -0.000349 -0.007096 0.000000 -0.005138 0.000000
# 2 -0.000349 0.005973 -0.000581 0.000000 -0.000026 0.000000
# 3 -0.007096 -0.000581 0.007076 0.000000 0.004483 0.000000
# 4 0.000000 0.000000 0.000000 -0.024257 0.000000 0.008772
# 5 -0.005138 -0.000026 0.004483 0.000000 0.016723 0.000000
# 6 0.000000 0.000000 0.000000 0.008772 0.000000 -0.013786
#
#
# Mechanical properties :
#
#
# Convention : Reuss Voigt Hill
#
# Bulk Modulus (GPa) = 66.49308 89.00158 77.74733
# Shear Modulus (GPa) = 162.14356 10.89596 86.51976
#
# Velocity S-wave (km/s) = 7.53423 1.95309 5.50360
# Velocity P-wave (km/s) = 9.94809 6.02034 8.22220
#
# Compressibility (1/GPa) = 0.01503916
#
# Stress axis : x y z
#
# Youngs Moduli (GPa) = 55.42638 167.41790 141.31528
#
# Poissons Ratio (x) = 0.05849 1.00273
# Poissons Ratio (y) = 0.01936 0.08211
# Poissons Ratio (z) = 0.39329 0.09727
#
# Static dielectric constant tensor:
#      x y z
#    x 2.397500 0.000000 -0.029000 
#    y 0.000000 2.160340 0.000000 
#    z -0.029000 0.000000 2.293470 
# 
# From -- ./inp_files/203623.got.cif
#   From: 2010.05.17/outbox.cif.g08.bks.cpg/sg12_102_cif.got.tgz:203623.got - 2010.06.03 13:09:07.
