data_PCOD9174853
_publ_section_title
;
Structure prediction by ZEFSAII (Michael W. Deem and Ramdas Pophale) SiO2 
 PCOD9174853
Probable space group: C 2/M
;
_chemical_formula_sum "Si O2"
_cell_formula_units_Z 64
_cell_length_a 8.134972
_cell_length_b 24.746297
_cell_length_c 11.729347
_cell_angle_alpha 90.000000
_cell_angle_beta 94.638594
_cell_angle_gamma 90.000000
_cell_volume 2353.505994
_symmetry_space_group_name_H-M "C 2/M"
_symmetry_group_IT_number 12
_symmetry_cell_setting 'monoclinic'
loop_
_space_group_symop_operation_xyz
x,y,z
-x,y,-z
-x,-y,-z
x,-y,z
1/2+x,1/2+y,z
1/2-x,1/2+y,-z
1/2-x,1/2-y,-z
1/2+x,1/2-y,z
loop_
_atom_site_type_symbol
_atom_site_label
_atom_site_fract_x
_atom_site_fract_y
_atom_site_fract_z
Si Si1 0.617973 0.810283 0.656939
Si Si2 0.063625 0.437905 0.284663
Si Si3 0.375947 0.232527 0.912532
Si Si4 0.717581 0.391320 0.511456
Si Si5 0.690231 0.935003 0.051383
Si Si6 0.169685 0.149900 0.128039
Si Si7 0.335671 0.559879 0.713068
Si Si8 0.261572 0.308098 0.325697
O O1 0.715172 0.848199 0.576840
O O2 0.674578 0.826492 0.788771
O O3 0.661905 0.748799 0.636165
O O4 0.423626 0.815650 0.636210
O O5 0.095958 0.500000 0.271824
O O6 0.140992 0.421429 0.409104
O O7 0.163898 0.415346 0.181268
O O8 0.864002 0.433725 0.275184
O O9 0.434600 0.293643 0.879922
O O10 0.287096 0.201504 0.807882
O O11 0.500000 0.199958 0.000000
O O12 0.250000 0.250000 0.000000
O O13 0.635104 0.433092 0.419706
O O14 0.635701 0.355002 0.606615
O O15 0.748799 0.000000 0.045072
O O16 0.500000 0.937754 0.000000
O O17 0.782414 0.888614 0.978235
O O18 0.084500 0.106095 0.205714
O O19 0.384024 0.500000 0.752409
#
# Coordination Sequence:
#
# PCOD9174853 Si02
#       8
#     8   8   8   8   8   8   8   8
#     4  10  22  38  59  83 113 152 195 240 292 351
#     4  10  19  29  46  78 118 153 187 236 293 352
#     4  11  25  42  60  87 123 160 203 251 299 353
#     4  11  21  33  53  82 113 154 193 237 298 356
#     4  10  19  31  50  80 118 154 193 238 291 354
#     4  10  20  34  56  81 113 151 197 238 293 353
#     4  10  18  32  53  81 117 153 193 242 294 357
#     4  11  22  39  57  82 116 149 198 239 290 351
#
# _framework density 27.193473000000001
#
# number of rings (size 3 to 8) (size 9 to 14) (size 15 to 20)
#    0.000    1.625    1.250    5.625    1.750    1.500 
#    0.000    0.000    0.000    1.500    0.000    0.000 
#    0.000    8.000    0.000    0.000    0.000    0.000 
#
# Total GULP energy -178637.717509 kJ/mol
# GULP energy per Si atom -5582.428672 kJ/mol
# Density = 2.713158 g / cm^3
# Si number density = 27.193473 Si / 1000 Ang^3
#
#
#
# Elastic Constant Matrix: (Units=GPa)
#
#
# Indices 1 2 3 4 5 6 
#
# 1 56.8001 2.5495 20.5294 0.0000 -5.5769 0.0000
# 2 2.5495 158.9394 39.5335 0.0000 -5.1676 0.0000
# 3 20.5294 39.5335 186.8293 0.0000 -5.6967 0.0000
# 4 0.0000 0.0000 0.0000 37.4383 0.0000 -6.6455
# 5 -5.5769 -5.1676 -5.6967 0.0000 35.1469 0.0000
# 6 0.0000 0.0000 0.0000 -6.6455 0.0000 25.2552
#
#
#
# Elastic Compliance Matrix: (Units=1/GPa)
#
#
# Indices 1 2 3 4 5 6 
#
# 1 0.018585 0.000292 -0.002023 0.000000 0.002664 0.000000
# 2 0.000292 0.006666 -0.001418 0.000000 0.000796 0.000000
# 3 -0.002023 -0.001418 0.005888 0.000000 0.000425 0.000000
# 4 0.000000 0.000000 0.000000 0.028019 0.000000 0.007373
# 5 0.002664 0.000796 0.000425 0.000000 0.029061 0.000000
# 6 0.000000 0.000000 0.000000 0.007373 0.000000 0.041536
#
#
# Mechanical properties :
#
#
# Convention : Reuss Voigt Hill
#
# Bulk Modulus (GPa) = 40.25763 58.64372 49.45068
# Shear Modulus (GPa) = 34.64212 42.23185 38.43699
#
# Velocity S-wave (km/s) = 3.57306 3.94511 3.76368
# Velocity P-wave (km/s) = 5.64435 6.50876 6.09191
#
# Compressibility (1/GPa) = 0.02484001
#
# Stress axis : x y z
#
# Youngs Moduli (GPa) = 53.80649 150.02208 169.84295
#
# Poissons Ratio (x) = -0.04375 0.34353
# Poissons Ratio (y) = -0.01569 0.24088
# Poissons Ratio (z) = 0.10883 0.21277
#
# Static dielectric constant tensor:
#      x y z
#    x 2.181980 0.000000 -0.030830 
#    y 0.000000 2.531380 0.000000 
#    z -0.030830 0.000000 2.148680 
# 
# From -- ./inp_files/136622.got.cif
#   From: 2010.05.17/outbox.cif.g08.bks.cpg/sg12_69_cif.got.tgz:136622.got - 2010.06.03 13:09:07.
