data_PCOD9174332
_publ_section_title
;
Structure prediction by ZEFSAII (Michael W. Deem and Ramdas Pophale) SiO2 
 PCOD9174332
Probable space group: C 2/M
;
_chemical_formula_sum "Si O2"
_cell_formula_units_Z 64
_cell_length_a 30.023655
_cell_length_b 7.459102
_cell_length_c 24.139116
_cell_angle_alpha 90.000000
_cell_angle_beta 28.876188
_cell_angle_gamma 90.000000
_cell_volume 2610.629926
_symmetry_space_group_name_H-M "C 2/M"
_symmetry_group_IT_number 12
_symmetry_cell_setting 'monoclinic'
loop_
_space_group_symop_operation_xyz
x,y,z
-x,y,-z
-x,-y,-z
x,-y,z
1/2+x,1/2+y,z
1/2-x,1/2+y,-z
1/2-x,1/2-y,-z
1/2+x,1/2-y,z
loop_
_atom_site_type_symbol
_atom_site_label
_atom_site_fract_x
_atom_site_fract_y
_atom_site_fract_z
Si Si1 0.856546 0.797406 0.303499
Si Si2 0.013424 0.293209 0.050587
Si Si3 0.484095 0.280205 0.792337
Si Si4 0.909044 0.789551 0.759416
Si Si5 0.782415 0.200567 0.177292
Si Si6 0.475742 0.794448 0.466487
Si Si7 0.785540 0.216427 0.056438
Si Si8 0.282663 0.780364 0.632532
O O1 0.768049 0.715278 0.368246
O O2 0.930882 0.799507 0.172469
O O3 0.920834 0.718155 0.282325
O O4 0.832101 0.000000 0.347437
O O5 0.019415 0.500000 0.062930
O O6 0.109218 0.194286 0.953006
O O7 0.000000 0.295068 0.000000
O O8 0.485436 0.500000 0.793438
O O9 0.469897 0.223018 0.744599
O O10 0.388115 0.224078 0.927068
O O11 0.800797 0.761079 0.888440
O O12 0.940870 0.706625 0.667128
O O13 0.925171 0.000000 0.737276
O O14 0.752559 0.290531 0.152552
O O15 0.766466 0.276792 0.255929
O O16 0.742539 0.000000 0.222758
O O17 0.500000 0.712784 0.500000
O O18 0.387316 0.721210 0.529531
O O19 0.449721 0.000000 0.506733
O O20 0.789721 0.000000 0.055360
O O21 0.276465 0.000000 0.635761
#
# Coordination Sequence:
#
# PCOD9174332 Si02
#       8
#     8   8   8   8   8   8   8   8
#     4  10  18  34  57  78 105 145 193 233 262 316
#     4  11  21  30  43  73 118 155 179 214 272 330
#     4   9  19  35  56  82 112 147 186 229 273 322
#     4  11  23  38  56  82 114 146 182 227 286 341
#     4  10  18  31  54  81 107 141 188 229 267 319
#     4  10  21  41  64  84 108 139 182 235 280 326
#     4  10  19  34  57  83 111 148 191 231 272 320
#     4   9  18  31  56  86 104 134 188 238 273 311
#
# _framework density 24.515156000000001
#
# number of rings (size 3 to 8) (size 9 to 14) (size 15 to 20)
#    0.000    2.000    2.500    1.875    0.000    3.250 
#    0.000    3.750    0.000    0.000    0.000    0.000 
#    0.000    0.000    0.000    0.000    0.000    0.000 
#
# Total GULP energy -178547.603223 kJ/mol
# GULP energy per Si atom -5579.612601 kJ/mol
# Density = 2.445936 g / cm^3
# Si number density = 24.515156 Si / 1000 Ang^3
#
#
#
# Elastic Constant Matrix: (Units=GPa)
#
#
# Indices 1 2 3 4 5 6 
#
# 1 197.6927 8.9980 45.1248 0.0206 -22.6816 0.0402
# 2 8.9980 87.1340 -4.9253 0.0046 1.3531 0.0206
# 3 45.1248 -4.9253 63.3637 0.0131 -18.1423 0.0120
# 4 0.0206 0.0046 0.0131 -33.6123 -0.0016 -28.8703
# 5 -22.6816 1.3531 -18.1423 -0.0016 45.8681 -0.0187
# 6 0.0402 0.0206 0.0120 -28.8703 -0.0187 -67.8528
#
#
#
# Elastic Compliance Matrix: (Units=1/GPa)
#
#
# Indices 1 2 3 4 5 6 
#
# 1 0.006195 -0.000892 -0.004056 0.000000 0.001486 0.000002
# 2 -0.000892 0.011656 0.001485 -0.000002 -0.000198 0.000004
# 3 -0.004056 0.001485 0.020523 0.000009 0.006068 -0.000004
# 4 0.000000 -0.000002 0.000009 -0.046886 0.000010 0.019949
# 5 0.001486 -0.000198 0.006068 0.000010 0.024942 -0.000009
# 6 0.000002 0.000004 -0.000004 0.019949 -0.000009 -0.023226
#
#
# Mechanical properties :
#
#
# Convention : Reuss Voigt Hill
#
# Bulk Modulus (GPa) = 31.79912 49.62059 40.70986
# Shear Modulus (GPa) = 471.07505 8.81344 239.94425
#
# Velocity S-wave (km/s) = 13.87710 1.89813 9.90396
# Velocity P-wave (km/s) = 16.42451 5.00885 12.14193
#
# Compressibility (1/GPa) = 0.03144741
#
# Stress axis : x y z
#
# Youngs Moduli (GPa) = 161.41534 85.79499 48.72539
#
# Poissons Ratio (x) = 0.07654 0.19763
# Poissons Ratio (y) = 0.14400 -0.07234
# Poissons Ratio (z) = 0.65469 -0.12738
#
# Static dielectric constant tensor:
#      x y z
#    x 2.059520 -0.000030 -0.010600 
#    y -0.000030 1.991020 0.000010 
#    z -0.010600 0.000010 1.898450 
# 
# From -- ./inp_files/353377.got.cif
#   From: 2010.05.17/outbox.cif.g08.bks.cpg/sg12_177_cif.got.tgz:353377.got - 2010.06.03 13:09:07.
