data_PCOD9174343
_publ_section_title
;
Structure prediction by ZEFSAII (Michael W. Deem and Ramdas Pophale) SiO2 
 PCOD9174343
Probable space group: C 2/M
;
_chemical_formula_sum "Si O2"
_cell_formula_units_Z 64
_cell_length_a 15.902649
_cell_length_b 7.828381
_cell_length_c 24.413802
_cell_angle_alpha 90.000000
_cell_angle_beta 90.918257
_cell_angle_gamma 90.000000
_cell_volume 3038.932603
_symmetry_space_group_name_H-M "C 2/M"
_symmetry_group_IT_number 12
_symmetry_cell_setting 'monoclinic'
loop_
_space_group_symop_operation_xyz
x,y,z
-x,y,-z
-x,-y,-z
x,-y,z
1/2+x,1/2+y,z
1/2-x,1/2+y,-z
1/2-x,1/2-y,-z
1/2+x,1/2-y,z
loop_
_atom_site_type_symbol
_atom_site_label
_atom_site_fract_x
_atom_site_fract_y
_atom_site_fract_z
Si Si1 0.405549 0.206308 0.378664
Si Si2 0.589175 0.195499 0.872256
Si Si3 0.243742 0.298874 0.184933
Si Si4 0.348040 0.205454 0.497163
Si Si5 0.846585 0.198976 0.011686
Si Si6 0.091974 0.709261 0.384011
Si Si7 0.242880 0.294791 0.308052
Si Si8 0.906211 0.291820 0.894023
O O1 0.384284 0.269172 0.439926
O O2 0.499370 0.262171 0.364061
O O3 0.331958 0.258398 0.337086
O O4 0.405874 0.000000 0.380440
O O5 0.663322 0.280655 0.838771
O O6 0.616401 0.202508 0.936180
O O7 0.494607 0.266268 0.869236
O O8 0.585883 0.000000 0.853555
O O9 0.225303 0.500000 0.188709
O O10 0.238446 0.226704 0.246131
O O11 0.173810 0.230472 0.142009
O O12 0.250000 0.250000 0.500000
O O13 0.392534 0.265662 0.553207
O O14 0.356519 0.000000 0.496587
O O15 0.849288 0.000000 0.026230
O O16 0.750000 0.250000 0.000000
O O17 0.896316 0.231259 0.956203
O O18 0.094250 0.500000 0.384270
O O19 0.167559 0.769153 0.346076
O O20 0.234331 0.500000 0.305553
O O21 0.906709 0.500000 0.895723
#
# Coordination Sequence:
#
# PCOD9174343 Si02
#       8
#     8   8   8   8   8   8   8   8
#     4  10  20  34  56  84 111 143 186 233 282 338
#     4  11  23  39  62  91 119 151 192 238 287 340
#     4  10  22  40  60  81 111 153 195 237 285 338
#     4  10  18  31  54  82 111 144 181 226 280 339
#     4  12  23  37  61  91 123 156 190 232 287 344
#     4   9  18  34  56  80 111 148 186 226 279 346
#     4  10  21  38  58  80 109 149 193 234 284 336
#     4  10  22  40  61  87 119 153 192 236 284 343
#
# _framework density 21.060026000000001
#
# number of rings (size 3 to 8) (size 9 to 14) (size 15 to 20)
#    0.000    1.750    2.500    2.250    0.000    5.500 
#    0.000    3.750    0.000    1.500    0.000    0.000 
#    0.000    0.000    0.000    0.000    0.000    0.000 
#
# Total GULP energy -178807.241700 kJ/mol
# GULP energy per Si atom -5587.726303 kJ/mol
# Density = 2.101209 g / cm^3
# Si number density = 21.060026 Si / 1000 Ang^3
#
#
#
# Elastic Constant Matrix: (Units=GPa)
#
#
# Indices 1 2 3 4 5 6 
#
# 1 103.9128 -8.0517 11.9219 0.0000 0.3051 0.0000
# 2 -8.0517 29.1400 -6.0738 0.0000 0.0615 0.0000
# 3 11.9219 -6.0738 94.9399 0.0000 -0.2110 0.0000
# 4 0.0000 0.0000 0.0000 8.5261 0.0000 7.4272
# 5 0.3051 0.0615 -0.2110 0.0000 1.5963 0.0000
# 6 0.0000 0.0000 0.0000 7.4272 0.0000 18.9736
#
#
#
# Elastic Compliance Matrix: (Units=1/GPa)
#
#
# Indices 1 2 3 4 5 6 
#
# 1 0.009951 0.002526 -0.001093 0.000000 -0.002144 0.000000
# 2 0.002526 0.035424 0.001945 0.000000 -0.001590 0.000000
# 3 -0.001093 0.001945 0.010798 0.000000 0.001562 0.000000
# 4 0.000000 0.000000 0.000000 0.177976 0.000000 -0.069668
# 5 -0.002144 -0.001590 0.001562 0.000000 0.627134 0.000000
# 6 0.000000 0.000000 0.000000 -0.069668 0.000000 0.079976
#
#
# Mechanical properties :
#
#
# Convention : Reuss Voigt Hill
#
# Bulk Modulus (GPa) = 15.89040 24.84285 20.36662
# Shear Modulus (GPa) = 5.23298 21.16561 13.19930
#
# Velocity S-wave (km/s) = 1.57803 3.17363 2.50621
# Velocity P-wave (km/s) = 3.29878 5.02505 4.25047
#
# Compressibility (1/GPa) = 0.06293110
#
# Stress axis : x y z
#
# Youngs Moduli (GPa) = 100.49377 28.22948 92.60867
#
# Poissons Ratio (x) = -0.07132 0.10119
# Poissons Ratio (y) = -0.25388 -0.18017
# Poissons Ratio (z) = 0.10981 -0.05492
#
# Static dielectric constant tensor:
#      x y z
#    x 1.741780 0.000000 -0.000170 
#    y 0.000000 1.820880 0.000000 
#    z -0.000170 0.000000 1.752050 
# 
# From -- ./inp_files/338872.got.cif
#   From: 2010.05.17/outbox.cif.g08.bks.cpg/sg12_170_cif.got.tgz:338872.got - 2010.06.03 13:09:07.
