data_PCOD9174373
_publ_section_title
;
Structure prediction by ZEFSAII (Michael W. Deem and Ramdas Pophale) SiO2 
 PCOD9174373
Probable space group: C 2/M
;
_chemical_formula_sum "Si O2"
_cell_formula_units_Z 48
_cell_length_a 14.511516
_cell_length_b 14.018218
_cell_length_c 17.407802
_cell_angle_alpha 90.000000
_cell_angle_beta 145.251562
_cell_angle_gamma 90.000000
_cell_volume 2018.388924
_symmetry_space_group_name_H-M "C 2/M"
_symmetry_group_IT_number 12
_symmetry_cell_setting 'monoclinic'
loop_
_space_group_symop_operation_xyz
x,y,z
-x,y,-z
-x,-y,-z
x,-y,z
1/2+x,1/2+y,z
1/2-x,1/2+y,-z
1/2-x,1/2-y,-z
1/2+x,1/2-y,z
loop_
_atom_site_type_symbol
_atom_site_label
_atom_site_fract_x
_atom_site_fract_y
_atom_site_fract_z
Si Si1 0.402459 0.706164 0.753460
Si Si2 0.630870 0.211608 0.028965
Si Si3 0.953128 0.000000 0.116103
Si Si4 0.252141 0.000000 0.167711
Si Si5 0.415980 0.000000 0.704442
Si Si6 0.126212 0.500000 0.990603
Si Si7 0.154178 0.305887 0.710237
Si Si8 0.305228 0.884992 0.503423
O O1 0.556814 0.764917 0.893905
O O2 0.459519 0.597974 0.807818
O O3 0.248509 0.737819 0.701571
O O4 0.335808 0.685281 0.621747
O O5 0.500000 0.251648 0.000000
O O6 0.797363 0.253381 0.176563
O O7 0.635490 0.098556 0.041190
O O8 0.787474 0.000000 0.050532
O O9 0.894590 0.000000 0.989527
O O10 0.261321 0.907716 0.224197
O O11 0.415556 0.000000 0.227609
O O12 0.325097 0.093419 0.608524
O O13 0.467359 0.000000 0.827302
O O14 0.967084 0.335811 0.580591
O O15 0.293765 0.000000 0.469408
#
# Coordination Sequence:
#
# PCOD9174373 Si02
#       8
#     8   8   4   4   4   4   8   8
#     4  11  20  31  54  90 118 142 186 226 278 347
#     4  10  23  39  61  85 105 142 201 250 278 318
#     4  11  20  31  51  85 117 144 180 219 285 350
#     4   9  15  27  44  78 116 141 166 215 273 339
#     4   7  17  33  52  75 107 150 187 205 264 343
#     4  11  23  43  60  72 108 159 201 243 281 310
#     4  10  18  31  54  86 118 152 176 223 288 338
#     4   9  18  32  53  83 127 153 174 211 280 359
#
# _framework density 23.781344000000001
#
# number of rings (size 3 to 8) (size 9 to 14) (size 15 to 20)
#    0.500    1.667    3.333    1.250    0.000    2.000 
#    0.000    0.833    3.667    0.000    0.000    4.667 
#    0.000    0.000    0.000    0.000    0.000    0.000 
#
# Total GULP energy -133652.602611 kJ/mol
# GULP energy per Si atom -5568.858442 kJ/mol
# Density = 2.372722 g / cm^3
# Si number density = 23.781344 Si / 1000 Ang^3
#
#
#
# Elastic Constant Matrix: (Units=GPa)
#
#
# Indices 1 2 3 4 5 6 
#
# 1 59.1392 -9.1046 2.3859 0.0002 4.4934 0.0000
# 2 -9.1046 108.4084 25.5195 0.0001 9.3203 0.0001
# 3 2.3859 25.5195 102.2019 0.0002 0.0660 0.0001
# 4 0.0002 0.0001 0.0002 32.7013 0.0002 2.2557
# 5 4.4934 9.3203 0.0660 0.0002 19.0650 0.0001
# 6 0.0000 0.0001 0.0001 2.2557 0.0001 19.2770
#
#
#
# Elastic Compliance Matrix: (Units=1/GPa)
#
#
# Indices 1 2 3 4 5 6 
#
# 1 0.017676 0.002156 -0.000948 0.000000 -0.005217 0.000000
# 2 0.002156 0.010520 -0.002673 0.000000 -0.005642 0.000000
# 3 -0.000948 -0.002673 0.010473 0.000000 0.001494 0.000000
# 4 0.000000 0.000000 0.000000 0.030829 0.000000 -0.003607
# 5 -0.005217 -0.005642 0.001494 0.000000 0.056435 0.000000
# 6 0.000000 0.000000 0.000000 -0.003607 0.000000 0.052297
#
#
# Mechanical properties :
#
#
# Convention : Reuss Voigt Hill
#
# Bulk Modulus (GPa) = 27.98076 34.15012 31.06544
# Shear Modulus (GPa) = 25.89701 30.93858 28.41780
#
# Velocity S-wave (km/s) = 3.30352 3.61080 3.46057
# Velocity P-wave (km/s) = 5.13249 5.63693 5.39061
#
# Compressibility (1/GPa) = 0.03573885
#
# Stress axis : x y z
#
# Youngs Moduli (GPa) = 56.57451 95.05855 95.48118
#
# Poissons Ratio (x) = -0.20495 0.09048
# Poissons Ratio (y) = -0.12198 0.25527
# Poissons Ratio (z) = 0.05361 0.25414
#
# Static dielectric constant tensor:
#      x y z
#    x 1.932990 0.000000 -0.035360 
#    y 0.000000 1.907530 0.000000 
#    z -0.035360 0.000000 2.014800 
# 
# From -- ./inp_files/321369.got.cif
#   From: 2010.05.17/outbox.cif.g08.bks.cpg/sg12_161_cif.got.tgz:321369.got - 2010.06.03 13:09:07.
