data_PCOD9174973
_publ_section_title
;
Structure prediction by ZEFSAII (Michael W. Deem and Ramdas Pophale) SiO2 
 PCOD9174973
Probable space group: C 2/M
;
_chemical_formula_sum "Si O2"
_cell_formula_units_Z 42
_cell_length_a 12.087011
_cell_length_b 15.090683
_cell_length_c 12.252298
_cell_angle_alpha 90.000000
_cell_angle_beta 49.093175
_cell_angle_gamma 90.000000
_cell_volume 1689.033090
_symmetry_space_group_name_H-M "C 2/M"
_symmetry_group_IT_number 12
_symmetry_cell_setting 'monoclinic'
loop_
_space_group_symop_operation_xyz
x,y,z
-x,y,-z
-x,-y,-z
x,-y,z
1/2+x,1/2+y,z
1/2-x,1/2+y,-z
1/2-x,1/2-y,-z
1/2+x,1/2-y,z
loop_
_atom_site_type_symbol
_atom_site_label
_atom_site_fract_x
_atom_site_fract_y
_atom_site_fract_z
Si Si1 0.606029 0.156257 0.281803
Si Si2 0.996851 0.853040 0.666056
Si Si3 0.248299 0.602147 0.961078
Si Si4 0.500000 0.000000 0.500000
Si Si5 0.247284 0.900963 0.360176
Si Si6 0.632495 0.760598 0.852159
O O1 0.514756 0.247303 0.333779
O O2 0.746493 0.190191 0.260752
O O3 0.523126 0.077593 0.392012
O O4 0.684375 0.127170 0.119128
O O5 0.922883 0.884888 0.826400
O O6 0.881807 0.890595 0.648638
O O7 0.157909 0.883794 0.528887
O O8 0.211658 0.500000 0.959127
O O9 0.181967 0.673792 0.919916
O O10 0.370088 0.830822 0.245226
O O11 0.305038 0.000000 0.319631
O O12 0.500000 0.715140 0.000000
#
# Coordination Sequence:
#
# PCOD9174973 Si02
#       6
#     8   8   8   2   8   8
#     4  10  20  34  54  82 104 140 190 231 272 309
#     4   9  15  27  47  73 108 131 172 225 270 311
#     4  10  18  32  54  84 109 139 181 231 273 311
#     4  12  20  36  62  80 104 134 196 244 254 316
#     4   9  15  25  44  74 102 136 172 215 266 311
#     4  10  20  34  53  80 116 148 175 215 277 342
#
# _framework density 24.866298
#
# number of rings (size 3 to 8) (size 9 to 14) (size 15 to 20)
#    0.000    2.667    0.952    8.571    0.000    1.524 
#    0.000    0.476    0.000   10.286    0.000    0.000 
#    0.000    0.000    0.000    0.000    0.000    0.000 
#
# Total GULP energy -116990.498194 kJ/mol
# GULP energy per Si atom -5570.976104 kJ/mol
# Density = 2.480970 g / cm^3
# Si number density = 24.866298 Si / 1000 Ang^3
#
#
#
# Elastic Constant Matrix: (Units=GPa)
#
#
# Indices 1 2 3 4 5 6 
#
# 1 29.3575 18.0937 12.4970 0.0000 -0.0275 0.0000
# 2 18.0937 132.3316 -5.0930 0.0000 11.8303 0.0000
# 3 12.4970 -5.0930 121.9571 0.0000 19.9463 0.0000
# 4 0.0000 0.0000 0.0000 32.9611 0.0000 8.3034
# 5 -0.0275 11.8303 19.9463 0.0000 29.4076 0.0000
# 6 0.0000 0.0000 0.0000 8.3034 0.0000 -7.8951
#
#
#
# Elastic Compliance Matrix: (Units=1/GPa)
#
#
# Indices 1 2 3 4 5 6 
#
# 1 0.040229 -0.006265 -0.005401 0.000000 0.006221 0.000000
# 2 -0.006265 0.008913 0.001801 0.000000 -0.004813 0.000000
# 3 -0.005401 0.001801 0.010064 0.000000 -0.007556 0.000000
# 4 0.000000 0.000000 0.000000 0.023984 0.000000 0.025225
# 5 0.006221 -0.004813 -0.007556 0.000000 0.041072 0.000000
# 6 0.000000 0.000000 0.000000 0.025225 0.000000 -0.100132
#
#
# Mechanical properties :
#
#
# Convention : Reuss Voigt Hill
#
# Bulk Modulus (GPa) = 25.33138 37.18240 31.25689
# Shear Modulus (GPa) = 87.69125 28.10462 57.89793
#
# Velocity S-wave (km/s) = 5.94489 3.36554 4.83055
# Velocity P-wave (km/s) = 7.57175 5.48524 6.61132
#
# Compressibility (1/GPa) = 0.03947673
#
# Stress axis : x y z
#
# Youngs Moduli (GPa) = 24.85776 112.19617 99.36317
#
# Poissons Ratio (x) = 0.70286 0.53670
# Poissons Ratio (y) = 0.15572 -0.17899
# Poissons Ratio (z) = 0.13427 -0.20211
#
# Static dielectric constant tensor:
#      x y z
#    x 2.175500 0.000000 -0.065410 
#    y 0.000000 1.880770 0.000000 
#    z -0.065410 0.000000 2.039840 
# 
# From -- ./inp_files/224585.got.cif
#   From: 2010.05.17/outbox.cif.g08.bks.cpg/sg12_113_cif.got.tgz:224585.got - 2010.06.03 13:09:07.
