data_PCOD9174180
_publ_section_title
;
Structure prediction by ZEFSAII (Michael W. Deem and Ramdas Pophale) SiO2 
 PCOD9174180
Probable space group: C 2/M
;
_chemical_formula_sum "Si O2"
_cell_formula_units_Z 56
_cell_length_a 22.125984
_cell_length_b 12.891690
_cell_length_c 11.568671
_cell_angle_alpha 90.000000
_cell_angle_beta 99.973434
_cell_angle_gamma 90.000000
_cell_volume 3249.996066
_symmetry_space_group_name_H-M "C 2/M"
_symmetry_group_IT_number 12
_symmetry_cell_setting 'monoclinic'
loop_
_space_group_symop_operation_xyz
x,y,z
-x,y,-z
-x,-y,-z
x,-y,z
1/2+x,1/2+y,z
1/2-x,1/2+y,-z
1/2-x,1/2-y,-z
1/2+x,1/2-y,z
loop_
_atom_site_type_symbol
_atom_site_label
_atom_site_fract_x
_atom_site_fract_y
_atom_site_fract_z
Si Si1 0.827856 0.196606 0.416498
Si Si2 0.692434 0.622404 0.837311
Si Si3 0.401246 0.696527 0.005312
Si Si4 0.019089 0.878530 0.167302
Si Si5 0.809139 0.378839 0.580791
Si Si6 0.949850 0.122309 0.569019
Si Si7 0.336851 0.122617 0.852760
O O1 0.832009 0.189411 0.279400
O O2 0.828446 0.308188 0.479341
O O3 0.763349 0.142327 0.425658
O O4 0.883734 0.137247 0.493070
O O5 0.682988 0.500000 0.807494
O O6 0.765781 0.638980 0.868423
O O7 0.655073 0.651048 0.939648
O O8 0.425101 0.629888 0.904320
O O9 0.380569 0.805914 0.944365
O O10 0.461572 0.690088 0.106297
O O11 0.041837 0.839937 0.298429
O O12 0.999104 0.000000 0.163913
O O13 0.820007 0.500000 0.564557
O O14 0.838516 0.350490 0.715749
O O15 0.000000 0.169904 0.500000
O O16 0.961855 0.000000 0.581500
O O17 0.349909 0.000000 0.867946
#
# Coordination Sequence:
#
# PCOD9174180 Si02
#       7
#     8   8   8   8   8   8   8
#     4  10  18  31  53  77 102 133 165 202 249 307
#     4  10  19  32  52  77 104 134 165 202 252 303
#     4  11  19  33  51  69  99 137 171 203 246 296
#     4  10  21  33  48  73 101 131 168 211 254 298
#     4   9  18  33  53  77 103 131 164 206 256 302
#     4  10  19  31  49  74 102 130 164 206 252 302
#     4   9  19  34  52  74  99 130 171 213 250 295
#
# _framework density 17.230789999999999
#
# number of rings (size 3 to 8) (size 9 to 14) (size 15 to 20)
#    0.000    2.143    0.000    6.000    0.000    1.143 
#    0.000    2.143    0.000    9.857    0.000    0.000 
#    0.000    0.000    0.000    0.000    0.000    0.000 
#
# Total GULP energy -156014.773250 kJ/mol
# GULP energy per Si atom -5571.956188 kJ/mol
# Density = 1.719157 g / cm^3
# Si number density = 17.230790 Si / 1000 Ang^3
#
#
#
# Elastic Constant Matrix: (Units=GPa)
#
#
# Indices 1 2 3 4 5 6 
#
# 1 47.4129 30.4889 49.3786 0.0000 0.5344 0.0000
# 2 30.4889 70.0492 41.6677 0.0000 2.6210 0.0000
# 3 49.3786 41.6677 95.0436 0.0000 6.5977 0.0000
# 4 0.0000 0.0000 0.0000 31.6356 0.0000 6.6554
# 5 0.5344 2.6210 6.5977 0.0000 25.0204 0.0000
# 6 0.0000 0.0000 0.0000 6.6554 0.0000 20.6536
#
#
#
# Elastic Compliance Matrix: (Units=1/GPa)
#
#
# Indices 1 2 3 4 5 6 
#
# 1 0.050202 -0.008541 -0.022741 0.000000 0.005819 0.000000
# 2 -0.008541 0.020766 -0.004613 0.000000 -0.000777 0.000000
# 3 -0.022741 -0.004613 0.024744 0.000000 -0.005556 0.000000
# 4 0.000000 0.000000 0.000000 0.033909 0.000000 -0.010927
# 5 0.005819 -0.000777 -0.005556 0.000000 0.041389 0.000000
# 6 0.000000 0.000000 0.000000 -0.010927 0.000000 0.051939
#
#
# Mechanical properties :
#
#
# Convention : Reuss Voigt Hill
#
# Bulk Modulus (GPa) = 41.80158 50.61956 46.21057
# Shear Modulus (GPa) = 16.51727 21.52663 19.02195
#
# Velocity S-wave (km/s) = 3.09947 3.53840 3.32618
# Velocity P-wave (km/s) = 6.09274 6.79226 6.45199
#
# Compressibility (1/GPa) = 0.02392254
#
# Stress axis : x y z
#
# Youngs Moduli (GPa) = 19.91948 48.15582 40.41308
#
# Poissons Ratio (x) = 0.41129 0.91905
# Poissons Ratio (y) = 0.17013 0.18642
# Poissons Ratio (z) = 0.45300 0.22213
#
# Static dielectric constant tensor:
#      x y z
#    x 1.584560 0.000000 -0.022530 
#    y 0.000000 1.575180 0.000000 
#    z -0.022530 0.000000 1.607700 
# 
# From -- ./inp_files/165045.got.cif
#   From: 2010.05.17/outbox.cif.g08.bks.cpg/sg12_83_cif.got.tgz:165045.got - 2010.06.03 13:09:07.
