data_PCOD9174498
_publ_section_title
;
Structure prediction by ZEFSAII (Michael W. Deem and Ramdas Pophale) SiO2 
 PCOD9174498
Probable space group: C 2/M
;
_chemical_formula_sum "Si O2"
_cell_formula_units_Z 44
_cell_length_a 15.384122
_cell_length_b 13.956167
_cell_length_c 12.806682
_cell_angle_alpha 90.000000
_cell_angle_beta 52.729387
_cell_angle_gamma 90.000000
_cell_volume 2188.118329
_symmetry_space_group_name_H-M "C 2/M"
_symmetry_group_IT_number 12
_symmetry_cell_setting 'monoclinic'
loop_
_space_group_symop_operation_xyz
x,y,z
-x,y,-z
-x,-y,-z
x,-y,z
1/2+x,1/2+y,z
1/2-x,1/2+y,-z
1/2-x,1/2-y,-z
1/2+x,1/2-y,z
loop_
_atom_site_type_symbol
_atom_site_label
_atom_site_fract_x
_atom_site_fract_y
_atom_site_fract_z
Si Si1 0.104125 0.777229 0.718562
Si Si2 0.122927 0.796170 0.197375
Si Si3 0.333930 0.890473 0.954244
Si Si4 0.280948 0.110256 0.482818
Si Si5 0.629213 0.603283 0.391347
Si Si6 0.500000 0.189036 0.000000
O O1 0.212712 0.841547 0.626672
O O2 0.128454 0.682301 0.629916
O O3 0.999253 0.828458 0.742707
O O4 0.066600 0.748647 0.862909
O O5 0.129417 0.686468 0.158088
O O6 0.153220 0.812249 0.294832
O O7 0.211194 0.858154 0.070499
O O8 0.412131 0.871465 0.997572
O O9 0.341157 0.000000 0.917498
O O10 0.193480 0.109607 0.451518
O O11 0.314940 0.000000 0.476758
O O12 0.500000 0.603262 0.500000
O O13 0.660118 0.500000 0.319680
#
# Coordination Sequence:
#
# PCOD9174498 Si02
#       6
#     8   8   8   8   8   4
#     4  10  21  36  56  85 119 151 191 236 289 339
#     4  10  20  34  54  85 117 147 181 236 288 335
#     4  10  21  36  58  86 114 147 187 232 286 343
#     4  10  21  37  59  86 117 152 191 237 286 341
#     4  10  18  31  57  87 108 138 186 234 277 328
#     4  10  21  38  61  88 114 152 189 240 287 336
#
# _framework density 20.108602000000001
#
# number of rings (size 3 to 8) (size 9 to 14) (size 15 to 20)
#    0.000    2.000    1.818    1.909    0.000    5.818 
#    0.000    0.455    0.000   23.455    0.000    0.000 
#    0.000    0.000    0.000    0.000    0.000    0.000 
#
# Total GULP energy -122685.808047 kJ/mol
# GULP energy per Si atom -5576.627639 kJ/mol
# Density = 2.006283 g / cm^3
# Si number density = 20.108602 Si / 1000 Ang^3
#
#
#
# Elastic Constant Matrix: (Units=GPa)
#
#
# Indices 1 2 3 4 5 6 
#
# 1 56.3982 14.0883 10.2090 0.0000 -13.6097 0.0000
# 2 14.0883 89.3768 34.3740 0.0000 14.3405 0.0000
# 3 10.2090 34.3740 101.5502 0.0000 -6.0446 0.0000
# 4 0.0000 0.0000 0.0000 12.5047 0.0000 3.8431
# 5 -13.6097 14.3405 -6.0446 0.0000 26.3660 0.0000
# 6 0.0000 0.0000 0.0000 3.8431 0.0000 17.3863
#
#
#
# Elastic Compliance Matrix: (Units=1/GPa)
#
#
# Indices 1 2 3 4 5 6 
#
# 1 0.022928 -0.006402 0.000785 0.000000 0.015497 0.000000
# 2 -0.006402 0.016621 -0.005796 0.000000 -0.013674 0.000000
# 3 0.000785 -0.005796 0.012107 0.000000 0.006333 0.000000
# 4 0.000000 0.000000 0.000000 0.085798 0.000000 -0.018965
# 5 0.015497 -0.013674 0.006333 0.000000 0.054816 0.000000
# 6 0.000000 0.000000 0.000000 -0.018965 0.000000 0.061708
#
#
# Mechanical properties :
#
#
# Convention : Reuss Voigt Hill
#
# Bulk Modulus (GPa) = 34.68818 40.51865 37.60341
# Shear Modulus (GPa) = 17.45703 23.82833 20.64268
#
# Velocity S-wave (km/s) = 2.94961 3.44609 3.20747
# Velocity P-wave (km/s) = 5.37477 6.00231 5.69719
#
# Compressibility (1/GPa) = 0.02882827
#
# Stress axis : x y z
#
# Youngs Moduli (GPa) = 43.61466 60.16471 82.59359
#
# Poissons Ratio (x) = 0.38520 -0.06480
# Poissons Ratio (y) = 0.27924 0.47874
# Poissons Ratio (z) = -0.03422 0.34874
#
# Static dielectric constant tensor:
#      x y z
#    x 1.707350 0.000000 -0.016420 
#    y 0.000000 1.737400 0.000000 
#    z -0.016420 0.000000 1.766720 
# 
# From -- ./inp_files/155801.got.cif
#   From: 2010.05.17/outbox.cif.g08.bks.cpg/sg12_78_cif.got.tgz:155801.got - 2010.06.03 13:09:07.
