data_PCOD9174427
_publ_section_title
;
Structure prediction by ZEFSAII (Michael W. Deem and Ramdas Pophale) SiO2 
 PCOD9174427
Probable space group: C 2/M
;
_chemical_formula_sum "Si O2"
_cell_formula_units_Z 52
_cell_length_a 23.559651
_cell_length_b 7.649208
_cell_length_c 20.113212
_cell_angle_alpha 90.000000
_cell_angle_beta 146.770013
_cell_angle_gamma 90.000000
_cell_volume 1986.315240
_symmetry_space_group_name_H-M "C 2/M"
_symmetry_group_IT_number 12
_symmetry_cell_setting 'monoclinic'
loop_
_space_group_symop_operation_xyz
x,y,z
-x,y,-z
-x,-y,-z
x,-y,z
1/2+x,1/2+y,z
1/2-x,1/2+y,-z
1/2-x,1/2-y,-z
1/2+x,1/2-y,z
loop_
_atom_site_type_symbol
_atom_site_label
_atom_site_fract_x
_atom_site_fract_y
_atom_site_fract_z
Si Si1 0.385779 0.705701 0.392323
Si Si2 0.073679 0.702265 0.303062
Si Si3 0.852895 0.710630 0.022485
Si Si4 0.134734 0.696597 0.770111
Si Si5 0.119753 0.300355 0.101487
Si Si6 0.228306 0.195790 0.339702
Si Si7 0.969043 0.000000 0.647406
O O1 0.500000 0.784750 0.500000
O O2 0.394138 0.500000 0.390496
O O3 0.330176 0.781528 0.272716
O O4 0.334960 0.727023 0.414705
O O5 0.070655 0.500000 0.320063
O O6 0.153813 0.714515 0.320036
O O7 0.100731 0.844896 0.384370
O O8 0.955671 0.759353 0.164647
O O9 0.847584 0.500000 0.020025
O O10 0.735698 0.779781 0.915908
O O11 0.876774 0.765779 0.970163
O O12 0.095918 0.500000 0.740921
O O13 0.050448 0.845967 0.699827
O O14 0.164447 0.500000 0.147360
O O15 0.166852 0.197482 0.209214
O O16 0.000000 0.315917 0.000000
O O17 0.247245 0.000000 0.381489
#
# Coordination Sequence:
#
# PCOD9174427 Si02
#       7
#     8   8   8   8   8   8   4
#     4  11  24  45  74 107 135 165 213 279 353 415
#     4  11  24  43  65  94 134 187 237 280 321 380
#     4  10  20  37  59  91 135 179 231 277 325 387
#     4  12  25  43  68  97 137 181 221 281 340 398
#     4  10  18  31  55  84 127 175 215 266 326 393
#     4  12  23  37  62  99 138 170 212 279 340 406
#     4  12  26  48  63  93 136 184 247 272 318 400
#
# _framework density 26.179127999999999
#
# number of rings (size 3 to 8) (size 9 to 14) (size 15 to 20)
#    0.000    0.923    5.385    2.308    1.077    2.154 
#    0.000    0.000    0.000    0.923    0.000    0.000 
#    0.000    0.000    0.000    0.000    0.000    0.000 
#
# Total GULP energy -144999.061766 kJ/mol
# GULP energy per Si atom -5576.886991 kJ/mol
# Density = 2.611954 g / cm^3
# Si number density = 26.179128 Si / 1000 Ang^3
#
#
#
# Elastic Constant Matrix: (Units=GPa)
#
#
# Indices 1 2 3 4 5 6 
#
# 1 156.4810 45.3538 21.3168 0.0000 -1.0813 0.0000
# 2 45.3538 148.1456 -2.1457 0.0000 -5.9952 0.0000
# 3 21.3168 -2.1457 102.1346 0.0000 -7.6074 0.0000
# 4 0.0000 0.0000 0.0000 -78.3881 0.0000 21.1957
# 5 -1.0813 -5.9952 -7.6074 0.0000 40.2564 0.0000
# 6 0.0000 0.0000 0.0000 21.1957 0.0000 35.4596
#
#
#
# Elastic Compliance Matrix: (Units=1/GPa)
#
#
# Indices 1 2 3 4 5 6 
#
# 1 0.007261 -0.002264 -0.001596 0.000000 -0.000444 0.000000
# 2 -0.002264 0.007502 0.000719 0.000000 0.001192 0.000000
# 3 -0.001596 0.000719 0.010289 0.000000 0.002009 0.000000
# 4 0.000000 0.000000 0.000000 -0.010982 0.000000 0.006564
# 5 -0.000444 0.001192 0.002009 0.000000 0.025386 0.000000
# 6 0.000000 0.000000 0.000000 0.006564 0.000000 0.024277
#
#
# Mechanical properties :
#
#
# Convention : Reuss Voigt Hill
#
# Bulk Modulus (GPa) = 53.27801 59.53456 56.40628
# Shear Modulus (GPa) = 65.55499 22.28134 43.91817
#
# Velocity S-wave (km/s) = 5.00952 2.92055 4.10030
# Velocity P-wave (km/s) = 7.33866 5.84494 6.63398
#
# Compressibility (1/GPa) = 0.01876947
#
# Stress axis : x y z
#
# Youngs Moduli (GPa) = 137.71998 133.29976 97.19276
#
# Poissons Ratio (x) = 0.30179 0.15513
# Poissons Ratio (y) = 0.31180 -0.06988
# Poissons Ratio (z) = 0.21982 -0.09583
#
# Static dielectric constant tensor:
#      x y z
#    x 2.108480 0.000000 0.035940 
#    y 0.000000 2.029720 0.000000 
#    z 0.035940 0.000000 2.213780 
# 
# From -- ./inp_files/351300.got.cif
#   From: 2010.05.17/outbox.cif.g08.bks.cpg/sg12_176_cif.got.tgz:351300.got - 2010.06.03 13:09:07.
