data_PCOD9174320
_publ_section_title
;
Structure prediction by ZEFSAII (Michael W. Deem and Ramdas Pophale) SiO2 
 PCOD9174320
Probable space group: C 2/M
;
_chemical_formula_sum "Si O2"
_cell_formula_units_Z 56
_cell_length_a 22.341921
_cell_length_b 14.974772
_cell_length_c 9.771736
_cell_angle_alpha 90.000000
_cell_angle_beta 74.626775
_cell_angle_gamma 90.000000
_cell_volume 3152.305643
_symmetry_space_group_name_H-M "C 2/M"
_symmetry_group_IT_number 12
_symmetry_cell_setting 'monoclinic'
loop_
_space_group_symop_operation_xyz
x,y,z
-x,y,-z
-x,-y,-z
x,-y,z
1/2+x,1/2+y,z
1/2-x,1/2+y,-z
1/2-x,1/2-y,-z
1/2+x,1/2-y,z
loop_
_atom_site_type_symbol
_atom_site_label
_atom_site_fract_x
_atom_site_fract_y
_atom_site_fract_z
Si Si1 0.002346 0.096001 0.663479
Si Si2 0.816086 0.241188 0.033454
Si Si3 0.112038 0.218716 0.572304
Si Si4 0.128826 0.164455 0.247374
Si Si5 0.298550 0.392902 0.284443
Si Si6 0.732332 0.901307 0.784678
Si Si7 0.320012 0.101574 0.480277
O O1 0.931423 0.106316 0.751658
O O2 0.000000 0.091997 0.500000
O O3 0.046525 0.180078 0.666329
O O4 0.028371 0.000000 0.695917
O O5 0.815862 0.154333 0.131034
O O6 0.815049 0.328238 0.128404
O O7 0.750000 0.250000 0.000000
O O8 0.864344 0.233933 0.881095
O O9 0.116618 0.201335 0.406731
O O10 0.161992 0.158721 0.623828
O O11 0.129145 0.322526 0.575960
O O12 0.196120 0.117174 0.218109
O O13 0.308172 0.500000 0.280430
O O14 0.225909 0.376215 0.365513
O O15 0.724537 0.898183 0.625997
O O16 0.715724 0.000000 0.843283
O O17 0.343554 0.000000 0.481613
#
# Coordination Sequence:
#
# PCOD9174320 Si02
#       7
#     8   8   8   8   8   8   8
#     4   9  19  33  53  80 105 139 183 219 259 315
#     4  10  21  34  49  78 111 144 170 211 269 324
#     4  11  19  35  56  77 109 141 180 225 259 311
#     4  10  20  34  55  77 111 145 175 216 270 320
#     4  11  21  33  52  80 109 138 175 221 270 317
#     4  10  18  31  54  80 106 138 176 217 263 318
#     4  10  19  31  54  82 104 134 177 224 267 310
#
# _framework density 17.764775
#
# number of rings (size 3 to 8) (size 9 to 14) (size 15 to 20)
#    0.000    1.857    2.857    3.000    0.000    4.000 
#    0.000    1.429    0.000    6.429    0.000    2.000 
#    0.000    0.000    0.000    0.000    0.000    0.000 
#
# Total GULP energy -155874.254675 kJ/mol
# GULP energy per Si atom -5566.937667 kJ/mol
# Density = 1.772434 g / cm^3
# Si number density = 17.764775 Si / 1000 Ang^3
#
#
#
# Elastic Constant Matrix: (Units=GPa)
#
#
# Indices 1 2 3 4 5 6 
#
# 1 55.0002 44.0582 11.1461 0.0000 -10.6273 0.0000
# 2 44.0582 107.6650 18.3428 0.0000 -6.3923 0.0000
# 3 11.1461 18.3428 68.5850 0.0000 -1.9172 0.0000
# 4 0.0000 0.0000 0.0000 9.7882 0.0000 4.0191
# 5 -10.6273 -6.3923 -1.9172 0.0000 17.3813 0.0000
# 6 0.0000 0.0000 0.0000 4.0191 0.0000 21.2759
#
#
#
# Elastic Compliance Matrix: (Units=1/GPa)
#
#
# Indices 1 2 3 4 5 6 
#
# 1 0.030271 -0.011289 -0.001504 0.000000 0.014191 0.000000
# 2 -0.011289 0.014134 -0.001999 0.000000 -0.001925 0.000000
# 3 -0.001504 -0.001999 0.015361 0.000000 0.000040 0.000000
# 4 0.000000 0.000000 0.000000 0.110755 0.000000 -0.020922
# 5 0.014191 -0.001925 0.000040 0.000000 0.065506 0.000000
# 6 0.000000 0.000000 0.000000 -0.020922 0.000000 0.050954
#
#
# Mechanical properties :
#
#
# Convention : Reuss Voigt Hill
#
# Bulk Modulus (GPa) = 33.13183 42.03826 37.58504
# Shear Modulus (GPa) = 15.30803 20.20261 17.75532
#
# Velocity S-wave (km/s) = 2.93867 3.37594 3.16487
# Velocity P-wave (km/s) = 5.49592 6.23788 5.87862
#
# Compressibility (1/GPa) = 0.03018246
#
# Stress axis : x y z
#
# Youngs Moduli (GPa) = 33.03442 70.75159 65.10147
#
# Poissons Ratio (x) = 0.79870 0.09789
# Poissons Ratio (y) = 0.37292 0.13016
# Poissons Ratio (z) = 0.04967 0.14145
#
# Static dielectric constant tensor:
#      x y z
#    x 1.609270 0.000000 0.002550 
#    y 0.000000 1.651750 0.000000 
#    z 0.002550 0.000000 1.635890 
# 
# From -- ./inp_files/96292.got.cif
#   From: 2010.05.17/outbox.cif.g08.bks.cpg/sg12_49_cif.got.tgz:96292.got - 2010.06.03 13:09:07.
