data_PCOD9174477
_publ_section_title
;
Structure prediction by ZEFSAII (Michael W. Deem and Ramdas Pophale) SiO2 
 PCOD9174477
Probable space group: C 2/M
;
_chemical_formula_sum "Si O2"
_cell_formula_units_Z 64
_cell_length_a 17.238539
_cell_length_b 14.836988
_cell_length_c 19.898659
_cell_angle_alpha 90.000000
_cell_angle_beta 151.673389
_cell_angle_gamma 90.000000
_cell_volume 2414.924563
_symmetry_space_group_name_H-M "C 2/M"
_symmetry_group_IT_number 12
_symmetry_cell_setting 'monoclinic'
loop_
_space_group_symop_operation_xyz
x,y,z
-x,y,-z
-x,-y,-z
x,-y,z
1/2+x,1/2+y,z
1/2-x,1/2+y,-z
1/2-x,1/2-y,-z
1/2+x,1/2-y,z
loop_
_atom_site_type_symbol
_atom_site_label
_atom_site_fract_x
_atom_site_fract_y
_atom_site_fract_z
Si Si1 0.846839 0.129670 0.103217
Si Si2 0.420486 0.604155 0.363823
Si Si3 0.434754 0.098643 0.025779
Si Si4 0.403837 0.827545 0.200349
Si Si5 0.681917 0.602537 0.142458
Si Si6 0.809806 0.708057 0.728750
Si Si7 0.250335 0.395752 0.444087
Si Si8 0.796960 0.096808 0.682143
O O1 0.892274 0.230986 0.157634
O O2 0.018232 0.093197 0.205545
O O3 0.756128 0.097154 0.101667
O O4 0.706407 0.116503 0.938648
O O5 0.500000 0.601133 0.500000
O O6 0.366812 0.500000 0.311622
O O7 0.289537 0.681989 0.280029
O O8 0.558369 0.630714 0.413822
O O9 0.501923 0.193682 0.107092
O O10 0.493186 0.000000 0.096209
O O11 0.500000 0.099248 0.000000
O O12 0.308968 0.841907 0.196827
O O13 0.594224 0.850912 0.360019
O O14 0.678080 0.500000 0.111974
O O15 0.716177 0.595300 0.247256
O O16 0.500000 0.640812 0.000000
O O17 0.796225 0.624131 0.668106
O O18 0.753404 0.795789 0.643539
O O19 0.249419 0.500000 0.460963
O O20 0.718654 0.000000 0.599528
#
# Coordination Sequence:
#
# PCOD9174477 Si02
#       8
#     8   8   8   8   8   8   8   8
#     4  11  21  35  52  76 112 156 185 222 271 325
#     4   8  16  30  53  84 111 135 172 230 294 340
#     4  11  24  36  52  82 116 154 191 222 268 339
#     4  11  20  32  53  82 111 145 185 222 284 333
#     4  10  21  33  50  76 109 146 186 233 275 318
#     4  11  19  34  55  77 109 149 179 231 279 326
#     4  10  18  31  56  88 113 135 176 234 290 342
#     4  11  23  37  53  78 109 151 196 228 268 325
#
# _framework density 26.501863
#
# number of rings (size 3 to 8) (size 9 to 14) (size 15 to 20)
#    0.000    1.625    3.750    3.375    1.750    1.000 
#    0.000    0.000    0.000    4.125    0.000    0.000 
#    0.000    0.000    0.000    0.000    0.000    0.000 
#
# Total GULP energy -178262.315702 kJ/mol
# GULP energy per Si atom -5570.697366 kJ/mol
# Density = 2.644154 g / cm^3
# Si number density = 26.501863 Si / 1000 Ang^3
#
#
#
# Elastic Constant Matrix: (Units=GPa)
#
#
# Indices 1 2 3 4 5 6 
#
# 1 181.4294 47.6253 36.5515 -0.0019 49.7047 -0.0005
# 2 47.6253 112.1119 31.3245 0.0129 15.8763 0.0100
# 3 36.5515 31.3245 61.5406 0.0072 27.3707 0.0051
# 4 -0.0019 0.0129 0.0072 11.4859 0.0029 7.7825
# 5 49.7047 15.8763 27.3707 0.0029 46.0523 0.0007
# 6 -0.0005 0.0100 0.0051 7.7825 0.0007 64.6449
#
#
#
# Elastic Compliance Matrix: (Units=1/GPa)
#
#
# Indices 1 2 3 4 5 6 
#
# 1 0.008400 -0.002370 -0.000155 0.000006 -0.008157 0.000000
# 2 -0.002370 0.011079 -0.004990 -0.000010 0.001704 0.000000
# 3 -0.000155 -0.004990 0.024525 -0.000006 -0.012689 0.000000
# 4 0.000006 -0.000010 -0.000006 0.094796 -0.000006 -0.011412
# 5 -0.008157 0.001704 -0.012689 -0.000006 0.037472 0.000001
# 6 0.000000 0.000000 0.000000 -0.011412 0.000001 0.016843
#
#
# Mechanical properties :
#
#
# Convention : Reuss Voigt Hill
#
# Bulk Modulus (GPa) = 34.51262 65.12049 49.81656
# Shear Modulus (GPa) = 22.95663 40.40867 31.68265
#
# Velocity S-wave (km/s) = 2.94637 3.90904 3.46133
# Velocity P-wave (km/s) = 4.96243 6.70817 5.90022
#
# Compressibility (1/GPa) = 0.02897490
#
# Stress axis : x y z
#
# Youngs Moduli (GPa) = 119.05123 90.25912 40.77548
#
# Poissons Ratio (x) = 0.21390 0.00631
# Poissons Ratio (y) = 0.28213 0.20345
# Poissons Ratio (z) = 0.01843 0.45036
#
# Static dielectric constant tensor:
#      x y z
#    x 2.083800 -0.000010 0.010000 
#    y -0.000010 2.175070 0.000000 
#    z 0.010000 0.000000 2.234190 
# 
# From -- ./inp_files/344059.got.cif
#   From: 2010.05.17/outbox.cif.g08.bks.cpg/sg12_173_cif.got.tgz:344059.got - 2010.06.03 13:09:07.
