data_PCOD9174600
_publ_section_title
;
Structure prediction by ZEFSAII (Michael W. Deem and Ramdas Pophale) SiO2 
 PCOD9174600
Probable space group: C 2/M
;
_chemical_formula_sum "Si O2"
_cell_formula_units_Z 64
_cell_length_a 15.144064
_cell_length_b 16.159892
_cell_length_c 12.572641
_cell_angle_alpha 90.000000
_cell_angle_beta 89.124972
_cell_angle_gamma 90.000000
_cell_volume 3076.498844
_symmetry_space_group_name_H-M "C 2/M"
_symmetry_group_IT_number 12
_symmetry_cell_setting 'monoclinic'
loop_
_space_group_symop_operation_xyz
x,y,z
-x,y,-z
-x,-y,-z
x,-y,z
1/2+x,1/2+y,z
1/2-x,1/2+y,-z
1/2-x,1/2-y,-z
1/2+x,1/2-y,z
loop_
_atom_site_type_symbol
_atom_site_label
_atom_site_fract_x
_atom_site_fract_y
_atom_site_fract_z
Si Si1 0.404755 0.128535 0.495781
Si Si2 0.708813 0.408012 0.462681
Si Si3 0.139398 0.778653 0.639576
Si Si4 0.800895 0.820326 0.747744
Si Si5 0.354541 0.143380 0.741296
Si Si6 0.652901 0.403333 0.804299
Si Si7 0.414409 0.904196 0.950322
Si Si8 0.276886 0.600038 0.976077
O O1 0.500000 0.087379 0.500000
O O2 0.315539 0.089486 0.449842
O O3 0.416613 0.212924 0.426730
O O4 0.377972 0.137991 0.618744
O O5 0.678727 0.500000 0.494657
O O6 0.684533 0.337780 0.549374
O O7 0.670853 0.378844 0.350038
O O8 0.211431 0.724143 0.703695
O O9 0.100284 0.841554 0.727768
O O10 0.859856 0.740238 0.767642
O O11 0.792895 0.868011 0.857969
O O12 0.256025 0.106384 0.763774
O O13 0.417564 0.098269 0.823075
O O14 0.628455 0.500000 0.795784
O O15 0.657249 0.377202 0.928238
O O16 0.411529 0.000000 0.985546
O O17 0.500000 0.864164 0.000000
O O18 0.320384 0.868171 0.987420
O O19 0.276525 0.500000 0.976682
#
# Coordination Sequence:
#
# PCOD9174600 Si02
#       8
#     8   8   8   8   8   8   8   8
#     4  11  22  36  50  77 114 141 171 220 269 323
#     4  11  20  34  56  79 103 140 182 220 267 317
#     4  10  19  34  53  75 102 140 183 220 261 310
#     4  10  18  32  51  74 106 131 176 227 268 308
#     4  10  18  32  50  71 101 138 178 213 267 315
#     4   9  17  30  53  77 100 133 175 221 264 307
#     4   9  19  33  49  70 106 148 177 205 253 320
#     4   9  18  31  48  78 106 129 169 222 268 307
#
# _framework density 20.802869000000001
#
# number of rings (size 3 to 8) (size 9 to 14) (size 15 to 20)
#    0.000    2.125    3.750    2.625    0.000    7.250 
#    0.000    1.250    0.000    1.500    0.000    0.000 
#    0.000    3.000    0.000    0.000    0.000    0.125 
#
# Total GULP energy -178223.895043 kJ/mol
# GULP energy per Si atom -5569.496720 kJ/mol
# Density = 2.075552 g / cm^3
# Si number density = 20.802869 Si / 1000 Ang^3
#
#
#
# Elastic Constant Matrix: (Units=GPa)
#
#
# Indices 1 2 3 4 5 6 
#
# 1 6.0687 2.0968 -3.7930 0.0000 4.3257 0.0000
# 2 2.0968 63.0968 20.5061 0.0000 0.7111 0.0000
# 3 -3.7930 20.5061 134.9869 0.0000 0.1866 0.0000
# 4 0.0000 0.0000 0.0000 57.1923 0.0000 -5.2738
# 5 4.3257 0.7111 0.1866 0.0000 9.3829 0.0000
# 6 0.0000 0.0000 0.0000 -5.2738 0.0000 2.2972
#
#
#
# Elastic Compliance Matrix: (Units=1/GPa)
#
#
# Indices 1 2 3 4 5 6 
#
# 1 0.258384 -0.010165 0.008969 0.000000 -0.118529 0.000000
# 2 -0.010165 0.017086 -0.002886 0.000000 0.003449 0.000000
# 3 0.008969 -0.002886 0.008104 0.000000 -0.004077 0.000000
# 4 0.000000 0.000000 0.000000 0.022180 0.000000 0.050921
# 5 -0.118529 0.003449 -0.004077 0.000000 0.161041 0.000000
# 6 0.000000 0.000000 0.000000 0.050921 0.000000 0.552211
#
#
# Mechanical properties :
#
#
# Convention : Reuss Voigt Hill
#
# Bulk Modulus (GPa) = 3.63097 26.86356 15.24727
# Shear Modulus (GPa) = 4.46838 26.13065 15.29952
#
# Velocity S-wave (km/s) = 1.46718 3.54801 2.71486
# Velocity P-wave (km/s) = 2.14927 5.45215 4.14399
#
# Compressibility (1/GPa) = 0.27540820
#
# Stress axis : x y z
#
# Youngs Moduli (GPa) = 3.87021 58.52911 123.39315
#
# Poissons Ratio (x) = 0.59497 -1.10665
# Poissons Ratio (y) = 0.03934 0.35610
# Poissons Ratio (z) = -0.03471 0.16891
#
# Static dielectric constant tensor:
#      x y z
#    x 1.780770 0.000000 0.000540 
#    y 0.000000 1.800190 0.000000 
#    z 0.000540 0.000000 1.800850 
# 
# From -- ./inp_files/157852.got.cif
#   From: 2010.05.17/outbox.cif.g08.bks.cpg/sg12_79_cif.got.tgz:157852.got - 2010.06.03 13:09:07.
