data_PCOD9174201
_publ_section_title
;
Structure prediction by ZEFSAII (Michael W. Deem and Ramdas Pophale) SiO2 
 PCOD9174201
Probable space group: C 2/M
;
_chemical_formula_sum "Si O2"
_cell_formula_units_Z 56
_cell_length_a 29.836389
_cell_length_b 8.069870
_cell_length_c 14.974026
_cell_angle_alpha 90.000000
_cell_angle_beta 120.104697
_cell_angle_gamma 90.000000
_cell_volume 3119.053811
_symmetry_space_group_name_H-M "C 2/M"
_symmetry_group_IT_number 12
_symmetry_cell_setting 'monoclinic'
loop_
_space_group_symop_operation_xyz
x,y,z
-x,y,-z
-x,-y,-z
x,-y,z
1/2+x,1/2+y,z
1/2-x,1/2+y,-z
1/2-x,1/2-y,-z
1/2+x,1/2-y,z
loop_
_atom_site_type_symbol
_atom_site_label
_atom_site_fract_x
_atom_site_fract_y
_atom_site_fract_z
Si Si1 0.416625 0.201524 0.665526
Si Si2 0.443753 0.202738 0.984843
Si Si3 0.531855 0.199367 0.797851
Si Si4 0.367359 0.200548 0.435227
Si Si5 0.952472 0.196272 0.389558
Si Si6 0.758293 0.696202 0.404784
Si Si7 0.649703 0.200404 0.236475
O O1 0.472732 0.257310 0.751685
O O2 0.404276 0.254445 0.553728
O O3 0.372920 0.254558 0.690316
O O4 0.416640 0.000000 0.666517
O O5 0.393555 0.255937 0.878005
O O6 0.444218 0.000000 0.981630
O O7 0.500000 0.252943 0.000000
O O8 0.438939 0.255649 0.083519
O O9 0.546509 0.245822 0.711982
O O10 0.532300 0.000000 0.801382
O O11 0.397090 0.260573 0.377689
O O12 0.310413 0.260557 0.408128
O O13 0.366132 0.000000 0.430419
O O14 0.000000 0.264902 0.500000
O O15 0.958738 0.000000 0.394610
O O16 0.764447 0.500000 0.416082
O O17 0.750000 0.750000 0.500000
O O18 0.708345 0.738740 0.295116
O O19 0.651002 0.000000 0.235098
#
# Coordination Sequence:
#
# PCOD9174201 Si02
#       7
#     8   8   8   8   8   8   8
#     4   9  15  26  49  77 104 135 172 208 245 298
#     4   9  16  28  53  83 107 136 178 220 253 298
#     4  10  18  31  53  78 104 139 178 212 250 303
#     4  10  20  35  53  74 100 137 181 215 248 305
#     4  11  23  35  49  75 108 138 168 212 269 317
#     4  11  22  35  53  78 107 140 177 216 262 312
#     4  10  18  32  52  79 112 141 173 215 259 307
#
# _framework density 17.954163000000001
#
# number of rings (size 3 to 8) (size 9 to 14) (size 15 to 20)
#    0.000    2.000    4.286    0.857    0.000    1.714 
#    0.000    1.429    0.000    1.714    0.000    0.000 
#    0.000    0.000    0.000    0.000    0.000    0.000 
#
# Total GULP energy -156027.057990 kJ/mol
# GULP energy per Si atom -5572.394928 kJ/mol
# Density = 1.791330 g / cm^3
# Si number density = 17.954163 Si / 1000 Ang^3
#
#
#
# Elastic Constant Matrix: (Units=GPa)
#
#
# Indices 1 2 3 4 5 6 
#
# 1 91.1131 1.3573 41.5069 0.0000 -3.4202 0.0000
# 2 1.3573 12.1439 6.5442 0.0000 -1.3415 0.0000
# 3 41.5069 6.5442 99.7175 0.0000 -3.0299 0.0000
# 4 0.0000 0.0000 0.0000 12.1819 0.0000 5.7446
# 5 -3.4202 -1.3415 -3.0299 0.0000 29.3309 0.0000
# 6 0.0000 0.0000 0.0000 5.7446 0.0000 14.3887
#
#
#
# Elastic Compliance Matrix: (Units=1/GPa)
#
#
# Indices 1 2 3 4 5 6 
#
# 1 0.013606 0.001692 -0.005742 0.000000 0.001071 0.000000
# 2 0.001692 0.085902 -0.006236 0.000000 0.003482 0.000000
# 3 -0.005742 -0.006236 0.012839 0.000000 0.000372 0.000000
# 4 0.000000 0.000000 0.000000 0.101129 0.000000 -0.040375
# 5 0.001071 0.003482 0.000372 0.000000 0.034416 0.000000
# 6 0.000000 0.000000 0.000000 -0.040375 0.000000 0.085618
#
#
# Mechanical properties :
#
#
# Convention : Reuss Voigt Hill
#
# Bulk Modulus (GPa) = 10.89628 33.53240 22.21434
# Shear Modulus (GPa) = 12.99804 21.41804 17.20804
#
# Velocity S-wave (km/s) = 2.69356 3.45763 3.09923
# Velocity P-wave (km/s) = 3.96936 5.88706 5.02062
#
# Compressibility (1/GPa) = 0.09177445
#
# Stress axis : x y z
#
# Youngs Moduli (GPa) = 73.49622 11.64123 77.88803
#
# Poissons Ratio (x) = -0.01969 0.44723
# Poissons Ratio (y) = -0.12434 0.48570
# Poissons Ratio (z) = 0.42201 0.07259
#
# Static dielectric constant tensor:
#      x y z
#    x 1.615960 0.000000 0.005690 
#    y 0.000000 1.646560 0.000000 
#    z 0.005690 0.000000 1.623400 
# 
# From -- ./inp_files/244276.got.cif
#   From: 2010.05.17/outbox.cif.g08.bks.cpg/sg12_123_cif.got.tgz:244276.got - 2010.06.03 13:09:07.
