data_PCOD9174705
_publ_section_title
;
Structure prediction by ZEFSAII (Michael W. Deem and Ramdas Pophale) SiO2 
 PCOD9174705
Probable space group: C 2/M
;
_chemical_formula_sum "Si O2"
_cell_formula_units_Z 48
_cell_length_a 13.367878
_cell_length_b 19.717965
_cell_length_c 11.013922
_cell_angle_alpha 90.000000
_cell_angle_beta 89.079633
_cell_angle_gamma 90.000000
_cell_volume 2902.755974
_symmetry_space_group_name_H-M "C 2/M"
_symmetry_group_IT_number 12
_symmetry_cell_setting 'monoclinic'
loop_
_space_group_symop_operation_xyz
x,y,z
-x,y,-z
-x,-y,-z
x,-y,z
1/2+x,1/2+y,z
1/2-x,1/2+y,-z
1/2-x,1/2-y,-z
1/2+x,1/2-y,z
loop_
_atom_site_type_symbol
_atom_site_label
_atom_site_fract_x
_atom_site_fract_y
_atom_site_fract_z
Si Si1 0.016755 0.500000 0.200633
Si Si2 0.770114 0.278329 0.633862
Si Si3 0.046045 0.372819 0.371207
Si Si4 0.122510 0.762986 0.140126
Si Si5 0.415178 0.767869 0.225287
Si Si6 0.337617 0.000000 0.032374
Si Si7 0.210843 0.653077 0.974254
O O1 0.039265 0.433854 0.277950
O O2 0.903568 0.500000 0.153552
O O3 0.086394 0.500000 0.081679
O O4 0.750000 0.250000 0.500000
O O5 0.841377 0.343765 0.620505
O O6 0.833981 0.229965 0.724139
O O7 0.664166 0.280909 0.706910
O O8 0.000000 0.394352 0.500000
O O9 0.974723 0.312639 0.322639
O O10 0.181090 0.813316 0.050094
O O11 0.003829 0.767705 0.148601
O O12 0.157698 0.688128 0.091848
O O13 0.356747 0.818700 0.135993
O O14 0.283158 0.927640 0.025045
#
# Coordination Sequence:
#
# PCOD9174705 Si02
#       7
#     4   8   8   8   8   4   8
#     4  11  23  32  48  77 103 140 164 203 264 311
#     4  10  19  31  49  73  99 136 169 210 253 302
#     4  11  20  34  50  72 106 133 171 208 256 308
#     4   9  20  31  50  74 105 132 172 216 258 299
#     4  10  18  32  52  74 102 131 170 213 257 303
#     4  11  20  32  54  71 108 136 170 209 255 319
#     4  10  19  34  50  78 102 136 172 212 260 307
#
# _framework density 16.536009
#
# number of rings (size 3 to 8) (size 9 to 14) (size 15 to 20)
#    0.000    1.833    3.333    2.750    2.333    0.000 
#    0.000    0.000    0.000    1.000    0.000   16.333 
#    0.000    7.333    0.000    0.167    0.000    0.000 
#
# Total GULP energy -133726.690562 kJ/mol
# GULP energy per Si atom -5571.945440 kJ/mol
# Density = 1.649837 g / cm^3
# Si number density = 16.536009 Si / 1000 Ang^3
#
#
#
# Elastic Constant Matrix: (Units=GPa)
#
#
# Indices 1 2 3 4 5 6 
#
# 1 102.4153 46.8809 30.5263 0.0000 -24.3705 0.0000
# 2 46.8809 97.3026 25.5951 0.0000 -8.4042 0.0000
# 3 30.5263 25.5951 90.4901 0.0000 -4.3146 0.0000
# 4 0.0000 0.0000 0.0000 -52.7045 0.0000 -9.7358
# 5 -24.3705 -8.4042 -4.3146 0.0000 32.0340 0.0000
# 6 0.0000 0.0000 0.0000 -9.7358 0.0000 18.4781
#
#
#
# Elastic Compliance Matrix: (Units=1/GPa)
#
#
# Indices 1 2 3 4 5 6 
#
# 1 0.015810 -0.005913 -0.003182 0.000000 0.010048 0.000000
# 2 -0.005913 0.013518 -0.001887 0.000000 -0.001206 0.000000
# 3 -0.003182 -0.001887 0.012600 0.000000 -0.001219 0.000000
# 4 0.000000 0.000000 0.000000 -0.017291 0.000000 -0.009110
# 5 0.010048 -0.001206 -0.001219 0.000000 0.038381 0.000000
# 6 0.000000 0.000000 0.000000 -0.009110 0.000000 0.049318
#
#
# Mechanical properties :
#
#
# Convention : Reuss Voigt Hill
#
# Bulk Modulus (GPa) = 50.08527 55.13474 52.61000
# Shear Modulus (GPa) = 35.47276 12.04190 23.75733
#
# Velocity S-wave (km/s) = 4.63664 2.70149 3.79450
# Velocity P-wave (km/s) = 7.68238 6.56851 7.14718
#
# Compressibility (1/GPa) = 0.01996595
#
# Stress axis : x y z
#
# Youngs Moduli (GPa) = 63.25074 73.97545 79.36604
#
# Poissons Ratio (x) = 0.43738 0.25254
# Poissons Ratio (y) = 0.37397 0.14972
# Poissons Ratio (z) = 0.20126 0.13956
#
# Static dielectric constant tensor:
#      x y z
#    x 1.579690 0.000000 0.001760 
#    y 0.000000 1.536600 0.000000 
#    z 0.001760 0.000000 1.601540 
# 
# From -- ./inp_files/132537.got.cif
#   From: 2010.05.17/outbox.cif.g08.bks.cpg/sg12_67_cif.got.tgz:132537.got - 2010.06.03 13:09:07.
