data_PCOD9174598
_publ_section_title
;
Structure prediction by ZEFSAII (Michael W. Deem and Ramdas Pophale) SiO2 
 PCOD9174598
Probable space group: C 2/M
;
_chemical_formula_sum "Si O2"
_cell_formula_units_Z 48
_cell_length_a 20.585715
_cell_length_b 8.721796
_cell_length_c 31.984561
_cell_angle_alpha 90.000000
_cell_angle_beta 29.318072
_cell_angle_gamma 90.000000
_cell_volume 2811.931121
_symmetry_space_group_name_H-M "C 2/M"
_symmetry_group_IT_number 12
_symmetry_cell_setting 'monoclinic'
loop_
_space_group_symop_operation_xyz
x,y,z
-x,y,-z
-x,-y,-z
x,-y,z
1/2+x,1/2+y,z
1/2-x,1/2+y,-z
1/2-x,1/2-y,-z
1/2+x,1/2-y,z
loop_
_atom_site_type_symbol
_atom_site_label
_atom_site_fract_x
_atom_site_fract_y
_atom_site_fract_z
Si Si1 0.504215 0.317783 0.447488
Si Si2 0.310568 0.317946 0.900722
Si Si3 0.444834 0.816737 0.277077
Si Si4 0.200674 0.314421 0.727802
Si Si5 0.062361 0.685411 0.085920
Si Si6 0.247707 0.181613 0.547516
O O1 0.500000 0.302094 0.500000
O O2 0.490449 0.500000 0.446003
O O3 0.649012 0.261007 0.351491
O O4 0.382668 0.231220 0.494965
O O5 0.321201 0.500000 0.889114
O O6 0.403710 0.235797 0.814861
O O7 0.374409 0.268720 0.909383
O O8 0.155009 0.277200 0.994273
O O9 0.361614 0.767108 0.282124
O O10 0.373552 0.747206 0.357116
O O11 0.438845 0.000000 0.282093
O O12 0.208247 0.500000 0.721847
O O13 0.093151 0.275219 0.823847
O O14 0.073482 0.500000 0.086034
O O15 0.250000 0.250000 0.500000
O O16 0.237456 0.000000 0.551319
#
# Coordination Sequence:
#
# PCOD9174598 Si02
#       6
#     8   8   8   8   8   8
#     4  10  18  33  55  78 104 138 175 209 254 307
#     4   9  15  23  38  64  96 129 167 208 249 294
#     4  10  18  32  50  70  97 133 171 207 256 309
#     4   8  14  26  47  71  98 134 170 202 244 299
#     4   8  14  24  38  61  96 135 168 201 245 299
#     4  12  25  39  54  75 103 135 174 217 261 306
#
# _framework density 17.070119999999999
#
# number of rings (size 3 to 8) (size 9 to 14) (size 15 to 20)
#    0.000    2.500    1.667    3.500    0.000    1.000 
#    0.000    0.833    0.000    0.000    0.000    1.167 
#    0.000    9.333    0.000    0.000    0.000    0.000 
#
# Total GULP energy -133656.213053 kJ/mol
# GULP energy per Si atom -5569.008877 kJ/mol
# Density = 1.703127 g / cm^3
# Si number density = 17.070120 Si / 1000 Ang^3
#
#
#
# Elastic Constant Matrix: (Units=GPa)
#
#
# Indices 1 2 3 4 5 6 
#
# 1 29.0982 25.6995 39.0305 -0.0002 9.4014 -0.0002
# 2 25.6995 65.8832 58.0761 -0.0003 5.1397 -0.0001
# 3 39.0305 58.0761 195.5854 -0.0001 -1.0482 -0.0005
# 4 -0.0002 -0.0003 -0.0001 28.2336 0.0001 -0.8158
# 5 9.4014 5.1397 -1.0482 0.0001 14.9240 0.0004
# 6 -0.0002 -0.0001 -0.0005 -0.8158 0.0004 15.2474
#
#
#
# Elastic Compliance Matrix: (Units=1/GPa)
#
#
# Indices 1 2 3 4 5 6 
#
# 1 0.078678 -0.017876 -0.010629 0.000000 -0.044153 0.000002
# 2 -0.017876 0.025499 -0.003993 0.000000 0.002199 0.000000
# 3 -0.010629 -0.003993 0.008466 0.000000 0.008666 0.000000
# 4 0.000000 0.000000 0.000000 0.035474 0.000000 0.001898
# 5 -0.044153 0.002199 0.008666 0.000000 0.094672 -0.000003
# 6 0.000002 0.000000 0.000000 0.001898 -0.000003 0.065687
#
#
# Mechanical properties :
#
#
# Convention : Reuss Voigt Hill
#
# Bulk Modulus (GPa) = 20.98763 59.57545 40.28154
# Shear Modulus (GPa) = 12.84182 22.86505 17.85343
#
# Velocity S-wave (km/s) = 2.74578 3.66386 3.23753
# Velocity P-wave (km/s) = 4.73012 7.27150 6.13387
#
# Compressibility (1/GPa) = 0.04764712
#
# Stress axis : x y z
#
# Youngs Moduli (GPa) = 12.71009 39.21681 118.11980
#
# Poissons Ratio (x) = 0.70104 1.25553
# Poissons Ratio (y) = 0.22721 0.47160
# Poissons Ratio (z) = 0.13510 0.15657
#
# Static dielectric constant tensor:
#      x y z
#    x 1.540460 0.000000 -0.019540 
#    y 0.000000 1.580170 0.000000 
#    z -0.019540 0.000000 1.646560 
# 
# From -- ./inp_files/380142.got.cif
#   From: 2010.05.17/outbox.cif.g08.bks.cpg/sg12_191_cif.got.tgz:380142.got - 2010.06.03 13:09:07.
