data_PCOD9174338
_publ_section_title
;
Structure prediction by ZEFSAII (Michael W. Deem and Ramdas Pophale) SiO2 
 PCOD9174338
Probable space group: C 2/M
;
_chemical_formula_sum "Si O2"
_cell_formula_units_Z 64
_cell_length_a 22.006732
_cell_length_b 25.090559
_cell_length_c 11.709893
_cell_angle_alpha 90.000000
_cell_angle_beta 151.907018
_cell_angle_gamma 90.000000
_cell_volume 3044.745798
_symmetry_space_group_name_H-M "C 2/M"
_symmetry_group_IT_number 12
_symmetry_cell_setting 'monoclinic'
loop_
_space_group_symop_operation_xyz
x,y,z
-x,y,-z
-x,-y,-z
x,-y,z
1/2+x,1/2+y,z
1/2-x,1/2+y,-z
1/2-x,1/2-y,-z
1/2+x,1/2-y,z
loop_
_atom_site_type_symbol
_atom_site_label
_atom_site_fract_x
_atom_site_fract_y
_atom_site_fract_z
Si Si1 0.364249 0.939059 0.242939
Si Si2 0.511039 0.661738 0.710697
Si Si3 0.809520 0.771044 0.860806
Si Si4 0.910279 0.610721 0.100488
Si Si5 0.712425 0.127534 0.564537
Si Si6 0.350444 0.834693 0.782997
Si Si7 0.796005 0.811991 0.174169
Si Si8 0.374262 0.436644 0.992169
O O1 0.500000 0.911602 0.500000
O O2 0.357346 0.934978 0.095126
O O3 0.240201 0.921946 0.107224
O O4 0.374340 0.000000 0.296740
O O5 0.622106 0.670440 0.798564
O O6 0.381712 0.667182 0.423724
O O7 0.549443 0.708644 0.863482
O O8 0.518001 0.605366 0.787985
O O9 0.743713 0.821636 0.694773
O O10 0.813729 0.721557 0.780226
O O11 0.727216 0.749471 0.832398
O O12 0.064526 0.610164 0.344192
O O13 0.853970 0.617479 0.880975
O O14 0.846481 0.662066 0.058256
O O15 0.723200 0.147400 0.452325
O O16 0.812381 0.081825 0.769303
O O17 0.500000 0.827043 0.000000
O O18 0.402802 0.500000 0.043905
#
# Coordination Sequence:
#
# PCOD9174338 Si02
#       8
#     8   8   8   8   8   8   8   8
#     4  10  18  31  54  82 107 136 176 225 277 328
#     4  10  21  37  51  82 113 147 188 220 275 337
#     4  10  21  35  56  77 110 146 186 227 273 325
#     4  10  19  34  53  77 111 144 173 222 276 323
#     4  10  20  35  56  83 108 144 187 229 275 323
#     4   9  20  35  54  76 113 143 182 224 271 331
#     4  10  21  34  52  76 119 147 178 221 274 339
#     4  10  20  36  59  82 110 144 187 235 275 325
#
# _framework density 21.019818000000001
#
# number of rings (size 3 to 8) (size 9 to 14) (size 15 to 20)
#    0.000    2.125    2.500    0.750    5.250    0.000 
#    0.000    2.500    0.000    2.250    0.000    3.500 
#    0.000    0.000    0.000    0.000    0.000    0.000 
#
# Total GULP energy -178194.666382 kJ/mol
# GULP energy per Si atom -5568.583324 kJ/mol
# Density = 2.097198 g / cm^3
# Si number density = 21.019818 Si / 1000 Ang^3
#
#
#
# Elastic Constant Matrix: (Units=GPa)
#
#
# Indices 1 2 3 4 5 6 
#
# 1 45.0931 7.8504 1.5593 0.0000 -15.1599 0.0000
# 2 7.8504 73.8148 40.9539 0.0000 -11.8220 0.0000
# 3 1.5593 40.9539 67.5982 0.0000 -14.8636 0.0000
# 4 0.0000 0.0000 0.0000 14.7939 0.0000 -8.5303
# 5 -15.1599 -11.8220 -14.8636 0.0000 23.7205 0.0000
# 6 0.0000 0.0000 0.0000 -8.5303 0.0000 25.0822
#
#
#
# Elastic Compliance Matrix: (Units=1/GPa)
#
#
# Indices 1 2 3 4 5 6 
#
# 1 0.029554 -0.002957 0.005728 0.000000 0.021004 0.000000
# 2 -0.002957 0.020866 -0.012412 0.000000 0.000731 0.000000
# 3 0.005728 -0.012412 0.025082 0.000000 0.013191 0.000000
# 4 0.000000 0.000000 0.000000 0.084084 0.000000 0.028597
# 5 0.021004 0.000731 0.013191 0.000000 0.064212 0.000000
# 6 0.000000 0.000000 0.000000 0.028597 0.000000 0.049594
#
#
# Mechanical properties :
#
#
# Convention : Reuss Voigt Hill
#
# Bulk Modulus (GPa) = 17.78756 31.91481 24.85118
# Shear Modulus (GPa) = 16.05575 21.79549 18.92562
#
# Velocity S-wave (km/s) = 2.76676 3.22359 3.00387
# Velocity P-wave (km/s) = 4.32288 5.39180 4.88666
#
# Compressibility (1/GPa) = 0.05621906
#
# Stress axis : x y z
#
# Youngs Moduli (GPa) = 33.83585 47.92555 39.86975
#
# Poissons Ratio (x) = 0.14174 -0.22839
# Poissons Ratio (y) = 0.10007 0.49488
# Poissons Ratio (z) = -0.19383 0.59487
#
# Static dielectric constant tensor:
#      x y z
#    x 1.837440 0.000000 -0.017660 
#    y 0.000000 1.777100 0.000000 
#    z -0.017660 0.000000 1.798820 
# 
# From -- ./inp_files/178427.got.cif
#   From: 2010.05.17/outbox.cif.g08.bks.cpg/sg12_90_cif.got.tgz:178427.got - 2010.06.03 13:09:07.
