data_PCOD9174349
_publ_section_title
;
Structure prediction by ZEFSAII (Michael W. Deem and Ramdas Pophale) SiO2 
 PCOD9174349
Probable space group: C 2/M
;
_chemical_formula_sum "Si O2"
_cell_formula_units_Z 56
_cell_length_a 26.950513
_cell_length_b 12.374874
_cell_length_c 10.266043
_cell_angle_alpha 90.000000
_cell_angle_beta 110.537151
_cell_angle_gamma 90.000000
_cell_volume 3206.218657
_symmetry_space_group_name_H-M "C 2/M"
_symmetry_group_IT_number 12
_symmetry_cell_setting 'monoclinic'
loop_
_space_group_symop_operation_xyz
x,y,z
-x,y,-z
-x,-y,-z
x,-y,z
1/2+x,1/2+y,z
1/2-x,1/2+y,-z
1/2-x,1/2-y,-z
1/2+x,1/2-y,z
loop_
_atom_site_type_symbol
_atom_site_label
_atom_site_fract_x
_atom_site_fract_y
_atom_site_fract_z
Si Si1 0.273143 0.873562 0.792966
Si Si2 0.060410 0.376857 0.958829
Si Si3 0.548604 0.799152 0.225321
Si Si4 0.338104 0.124899 0.602339
Si Si5 0.336711 0.274658 0.355690
Si Si6 0.830690 0.373686 0.097072
Si Si7 0.449042 0.370783 0.545261
O O1 0.309514 0.833098 0.707330
O O2 0.211889 0.856710 0.705419
O O3 0.286215 0.000000 0.812939
O O4 0.289659 0.831053 0.950047
O O5 0.058563 0.500000 0.010557
O O6 0.112940 0.368623 0.923799
O O7 0.008541 0.356063 0.824430
O O8 0.059611 0.294400 0.079710
O O9 0.598491 0.866770 0.323225
O O10 0.546275 0.692472 0.312559
O O11 0.324388 0.200756 0.469494
O O12 0.322869 0.000000 0.567169
O O13 0.334711 0.197988 0.228341
O O14 0.394068 0.329481 0.429539
O O15 0.819551 0.500000 0.119281
O O16 0.500000 0.346274 0.500000
O O17 0.446927 0.500000 0.561439
#
# Coordination Sequence:
#
# PCOD9174349 Si02
#       7
#     8   8   8   8   8   8   8
#     4  10  20  35  53  74 103 142 180 213 260 314
#     4  10  18  31  54  83 112 139 168 206 263 323
#     4  10  18  31  55  80 102 137 176 207 254 316
#     4  10  19  33  52  79 110 137 171 215 264 317
#     4  11  21  34  55  79 102 139 180 220 261 306
#     4  10  20  34  53  80 111 138 170 215 263 315
#     4  10  22  39  55  73 102 139 180 221 262 306
#
# _framework density 17.466058
#
# number of rings (size 3 to 8) (size 9 to 14) (size 15 to 20)
#    0.000    1.857    1.429    4.286    0.000    0.000 
#    0.000    1.429    0.000   11.571    0.000    0.000 
#    0.000    0.000    0.000    0.000    0.000    0.000 
#
# Total GULP energy -156031.661865 kJ/mol
# GULP energy per Si atom -5572.559352 kJ/mol
# Density = 1.742630 g / cm^3
# Si number density = 17.466058 Si / 1000 Ang^3
#
#
#
# Elastic Constant Matrix: (Units=GPa)
#
#
# Indices 1 2 3 4 5 6 
#
# 1 75.5242 27.2802 38.4038 0.0000 4.1572 0.0000
# 2 27.2802 61.5815 43.7804 0.0000 -17.1254 0.0000
# 3 38.4038 43.7804 116.7010 0.0000 -5.3587 0.0000
# 4 0.0000 0.0000 0.0000 35.0590 0.0000 -14.8310
# 5 4.1572 -17.1254 -5.3587 0.0000 31.7873 0.0000
# 6 0.0000 0.0000 0.0000 -14.8310 0.0000 46.9244
#
#
#
# Elastic Compliance Matrix: (Units=1/GPa)
#
#
# Indices 1 2 3 4 5 6 
#
# 1 0.018095 -0.007498 -0.003463 0.000000 -0.006990 0.000000
# 2 -0.007498 0.029482 -0.007880 0.000000 0.015536 0.000000
# 3 -0.003463 -0.007880 0.012588 0.000000 -0.001670 0.000000
# 4 0.000000 0.000000 0.000000 0.032926 0.000000 0.010407
# 5 -0.006990 0.015536 -0.001670 0.000000 0.040462 0.000000
# 6 0.000000 0.000000 0.000000 0.010407 0.000000 0.024600
#
#
# Mechanical properties :
#
#
# Convention : Reuss Voigt Hill
#
# Bulk Modulus (GPa) = 44.47494 52.52617 48.50056
# Shear Modulus (GPa) = 24.59098 32.37699 28.48398
#
# Velocity S-wave (km/s) = 3.75631 4.31014 4.04272
# Velocity P-wave (km/s) = 6.65823 7.41002 7.04416
#
# Compressibility (1/GPa) = 0.02248457
#
# Stress axis : x y z
#
# Youngs Moduli (GPa) = 55.26519 33.91862 79.44246
#
# Poissons Ratio (x) = 0.25431 0.27509
# Poissons Ratio (y) = 0.41437 0.62597
# Poissons Ratio (z) = 0.19137 0.26726
#
# Static dielectric constant tensor:
#      x y z
#    x 1.595240 0.000000 0.006590 
#    y 0.000000 1.573200 0.000000 
#    z 0.006590 0.000000 1.610150 
# 
# From -- ./inp_files/103156.got.cif
#   From: 2010.05.17/outbox.cif.g08.bks.cpg/sg12_52_cif.got.tgz:103156.got - 2010.06.03 13:09:07.
