data_PCOD9174781
_publ_section_title
;
Structure prediction by ZEFSAII (Michael W. Deem and Ramdas Pophale) SiO2 
 PCOD9174781
Probable space group: C 2/M
;
_chemical_formula_sum "Si O2"
_cell_formula_units_Z 64
_cell_length_a 15.347523
_cell_length_b 7.474747
_cell_length_c 27.224585
_cell_angle_alpha 90.000000
_cell_angle_beta 117.698017
_cell_angle_gamma 90.000000
_cell_volume 2765.287820
_symmetry_space_group_name_H-M "C 2/M"
_symmetry_group_IT_number 12
_symmetry_cell_setting 'monoclinic'
loop_
_space_group_symop_operation_xyz
x,y,z
-x,y,-z
-x,-y,-z
x,-y,z
1/2+x,1/2+y,z
1/2-x,1/2+y,-z
1/2-x,1/2-y,-z
1/2+x,1/2-y,z
loop_
_atom_site_type_symbol
_atom_site_label
_atom_site_fract_x
_atom_site_fract_y
_atom_site_fract_z
Si Si1 0.054045 0.706800 0.392809
Si Si2 0.388637 0.794154 0.489154
Si Si3 0.088836 0.282714 0.723645
Si Si4 0.822846 0.294009 0.075486
Si Si5 0.295948 0.718531 0.749456
Si Si6 0.606216 0.294780 0.011533
Si Si7 0.512261 0.706225 0.808407
Si Si8 0.732015 0.717562 0.369969
O O1 0.030477 0.500000 0.399850
O O2 0.103104 0.788669 0.454389
O O3 0.135065 0.716434 0.371912
O O4 0.957511 0.779626 0.340420
O O5 0.500000 0.795235 0.500000
O O6 0.321028 0.719129 0.428212
O O7 0.353782 0.000000 0.486613
O O8 0.083634 0.500000 0.722058
O O9 0.202522 0.228794 0.757265
O O10 0.027628 0.217316 0.754006
O O11 0.807097 0.500000 0.056569
O O12 0.712973 0.218763 0.056678
O O13 0.894955 0.290755 0.140459
O O14 0.878811 0.208882 0.043572
O O15 0.299972 0.500000 0.750592
O O16 0.404450 0.781930 0.792294
O O17 0.271120 0.774361 0.687199
O O18 0.603610 0.500000 0.029109
O O19 0.500000 0.216325 0.000000
O O20 0.513268 0.500000 0.823847
O O21 0.733247 0.500000 0.369253
#
# Coordination Sequence:
#
# PCOD9174781 Si02
#       8
#     8   8   8   8   8   8   8   8
#     4  10  19  31  50  76 102 129 169 224 281 329
#     4   9  17  29  48  74  99 128 172 222 268 327
#     4  10  20  36  56  76 103 141 185 231 277 330
#     4  10  21  37  59  88 120 152 189 230 273 320
#     4   9  19  35  55  76 101 142 188 225 270 332
#     4   9  19  38  63  89 119 156 192 226 268 319
#     4  11  22  38  57  80 113 148 188 232 275 325
#     4  10  18  32  53  73  99 135 176 218 270 337
#
# _framework density 23.144064
#
# number of rings (size 3 to 8) (size 9 to 14) (size 15 to 20)
#    0.000    2.250    1.250    1.875    0.000    4.750 
#    0.000    6.875    0.000    3.000    0.000    0.000 
#    0.000    0.000    0.000    0.000    0.000    0.000 
#
# Total GULP energy -178558.133686 kJ/mol
# GULP energy per Si atom -5579.941678 kJ/mol
# Density = 2.309139 g / cm^3
# Si number density = 23.144064 Si / 1000 Ang^3
#
#
#
# Elastic Constant Matrix: (Units=GPa)
#
#
# Indices 1 2 3 4 5 6 
#
# 1 112.3034 -1.1870 13.3764 0.0000 40.3239 0.0000
# 2 -1.1870 69.2479 1.0530 0.0000 6.5045 0.0000
# 3 13.3764 1.0530 100.9731 0.0000 37.0727 0.0000
# 4 0.0000 0.0000 0.0000 72.0248 0.0000 33.9353
# 5 40.3239 6.5045 37.0727 0.0000 34.4709 0.0000
# 6 0.0000 0.0000 0.0000 33.9353 0.0000 29.4118
#
#
#
# Elastic Compliance Matrix: (Units=1/GPa)
#
#
# Indices 1 2 3 4 5 6 
#
# 1 0.020671 0.003590 0.010495 0.000000 -0.036145 0.000000
# 2 0.003590 0.015451 0.003265 0.000000 -0.010626 0.000000
# 3 0.010495 0.003265 0.021835 0.000000 -0.036376 0.000000
# 4 0.000000 0.000000 0.000000 0.030423 0.000000 -0.035101
# 5 -0.036145 -0.010626 -0.036376 0.000000 0.112418 0.000000
# 6 0.000000 0.000000 0.000000 -0.035101 0.000000 0.074500
#
#
# Mechanical properties :
#
#
# Convention : Reuss Voigt Hill
#
# Bulk Modulus (GPa) = 10.79271 34.33437 22.56354
# Shear Modulus (GPa) = 18.41734 45.13364 31.77549
#
# Velocity S-wave (km/s) = 2.82400 4.42080 3.70934
# Velocity P-wave (km/s) = 3.91238 6.39729 5.30245
#
# Compressibility (1/GPa) = 0.09265515
#
# Stress axis : x y z
#
# Youngs Moduli (GPa) = 48.37791 64.72131 45.79852
#
# Poissons Ratio (x) = -0.23234 -0.48065
# Poissons Ratio (y) = -0.17367 -0.14952
# Poissons Ratio (z) = -0.50772 -0.21129
#
# Static dielectric constant tensor:
#      x y z
#    x 1.858590 0.000000 0.032420 
#    y 0.000000 1.944630 0.000000 
#    z 0.032420 0.000000 1.902870 
# 
# From -- ./inp_files/359842.got.cif
#   From: 2010.05.17/outbox.cif.g08.bks.cpg/sg12_180_cif.got.tgz:359842.got - 2010.06.03 13:09:07.
