data_PCOD9174709
_publ_section_title
;
Structure prediction by ZEFSAII (Michael W. Deem and Ramdas Pophale) SiO2 
 PCOD9174709
Probable space group: C 2/M
;
_chemical_formula_sum "Si O2"
_cell_formula_units_Z 56
_cell_length_a 31.757088
_cell_length_b 7.626298
_cell_length_c 11.989019
_cell_angle_alpha 90.000000
_cell_angle_beta 65.374656
_cell_angle_gamma 90.000000
_cell_volume 2639.530980
_symmetry_space_group_name_H-M "C 2/M"
_symmetry_group_IT_number 12
_symmetry_cell_setting 'monoclinic'
loop_
_space_group_symop_operation_xyz
x,y,z
-x,y,-z
-x,-y,-z
x,-y,z
1/2+x,1/2+y,z
1/2-x,1/2+y,-z
1/2-x,1/2-y,-z
1/2+x,1/2-y,z
loop_
_atom_site_type_symbol
_atom_site_label
_atom_site_fract_x
_atom_site_fract_y
_atom_site_fract_z
Si Si1 0.130653 0.215388 0.932967
Si Si2 0.715064 0.292319 0.700898
Si Si3 0.489352 0.201352 0.326369
Si Si4 0.903424 0.295897 0.545104
Si Si5 0.594039 0.700882 0.208754
Si Si6 0.455481 0.288079 0.124421
Si Si7 0.813962 0.713127 0.515820
O O1 0.180317 0.276222 0.833188
O O2 0.090663 0.267130 0.889626
O O3 0.129997 0.000000 0.935169
O O4 0.116829 0.275911 0.071687
O O5 0.719349 0.500000 0.715475
O O6 0.767220 0.222866 0.629463
O O7 0.690845 0.266104 0.607491
O O8 0.453709 0.278102 0.456382
O O9 0.538430 0.293579 0.256853
O O10 0.462244 0.209904 0.239105
O O11 0.501218 0.000000 0.342486
O O12 0.906874 0.500000 0.509054
O O13 0.894535 0.286051 0.685903
O O14 0.860618 0.221380 0.522432
O O15 0.609009 0.500000 0.201292
O O16 0.454760 0.500000 0.136704
O O17 0.500000 0.242316 0.000000
O O18 0.813675 0.500000 0.519927
#
# Coordination Sequence:
#
# PCOD9174709 Si02
#       7
#     8   8   8   8   8   8   8
#     4   9  18  33  52  76 105 135 168 210 258 300
#     4   9  17  32  57  82 103 132 167 205 255 310
#     4  11  22  35  52  75 104 137 173 213 258 308
#     4  10  22  38  52  72 105 139 171 212 261 304
#     4  11  22  37  54  73 101 137 178 217 252 300
#     4  10  18  32  52  74 105 137 167 209 254 298
#     4   9  18  34  55  79 107 133 163 209 258 303
#
# _framework density 21.215890000000002
#
# number of rings (size 3 to 8) (size 9 to 14) (size 15 to 20)
#    0.000    2.143    1.429    2.143    0.000    3.714 
#    0.000    2.143    0.000    0.000    0.000    0.000 
#    0.000    0.000    0.000    0.000    0.000    0.000 
#
# Total GULP energy -156396.554210 kJ/mol
# GULP energy per Si atom -5585.591222 kJ/mol
# Density = 2.116760 g / cm^3
# Si number density = 21.215890 Si / 1000 Ang^3
#
#
#
# Elastic Constant Matrix: (Units=GPa)
#
#
# Indices 1 2 3 4 5 6 
#
# 1 55.6658 -4.5596 42.8704 0.0000 -16.5309 0.0000
# 2 -4.5596 41.3362 -7.1967 0.0000 -5.8670 0.0000
# 3 42.8704 -7.1967 116.7100 0.0000 -28.1456 0.0000
# 4 0.0000 0.0000 0.0000 19.3611 0.0000 10.0080
# 5 -16.5309 -5.8670 -28.1456 0.0000 32.1868 0.0000
# 6 0.0000 0.0000 0.0000 10.0080 0.0000 11.3235
#
#
#
# Elastic Compliance Matrix: (Units=1/GPa)
#
#
# Indices 1 2 3 4 5 6 
#
# 1 0.026288 0.002566 -0.007767 0.000000 0.007177 0.000000
# 2 0.002566 0.026146 0.002708 0.000000 0.008452 0.000000
# 3 -0.007767 0.002708 0.013617 0.000000 0.008412 0.000000
# 4 0.000000 0.000000 0.000000 0.095094 0.000000 -0.084046
# 5 0.007177 0.008452 0.008412 0.000000 0.043651 0.000000
# 6 0.000000 0.000000 0.000000 -0.084046 0.000000 0.162594
#
#
# Mechanical properties :
#
#
# Convention : Reuss Voigt Hill
#
# Bulk Modulus (GPa) = 16.37624 30.66001 23.51812
# Shear Modulus (GPa) = 12.73140 24.74749 18.73945
#
# Velocity S-wave (km/s) = 2.45233 3.41905 2.97522
# Velocity P-wave (km/s) = 3.96915 5.48356 4.78662
#
# Compressibility (1/GPa) = 0.06106407
#
# Stress axis : x y z
#
# Youngs Moduli (GPa) = 38.04078 38.24688 73.43889
#
# Poissons Ratio (x) = -0.09814 0.57040
# Poissons Ratio (y) = -0.09762 -0.19886
# Poissons Ratio (z) = 0.29546 -0.10357
#
# Static dielectric constant tensor:
#      x y z
#    x 1.750390 0.000000 -0.032700 
#    y 0.000000 2.084020 0.000000 
#    z -0.032700 0.000000 1.763450 
# 
# From -- ./inp_files/186432.got.cif
#   From: 2010.05.17/outbox.cif.g08.bks.cpg/sg12_94_cif.got.tgz:186432.got - 2010.06.03 13:09:07.
