data_PCOD9174607
_publ_section_title
;
Structure prediction by ZEFSAII (Michael W. Deem and Ramdas Pophale) SiO2 
 PCOD9174607
Probable space group: C 2/M
;
_chemical_formula_sum "Si O2"
_cell_formula_units_Z 56
_cell_length_a 12.283252
_cell_length_b 21.522284
_cell_length_c 11.541826
_cell_angle_alpha 90.000000
_cell_angle_beta 68.934699
_cell_angle_gamma 90.000000
_cell_volume 2847.329018
_symmetry_space_group_name_H-M "C 2/M"
_symmetry_group_IT_number 12
_symmetry_cell_setting 'monoclinic'
loop_
_space_group_symop_operation_xyz
x,y,z
-x,y,-z
-x,-y,-z
x,-y,z
1/2+x,1/2+y,z
1/2-x,1/2+y,-z
1/2-x,1/2-y,-z
1/2+x,1/2-y,z
loop_
_atom_site_type_symbol
_atom_site_label
_atom_site_fract_x
_atom_site_fract_y
_atom_site_fract_z
Si Si1 0.853578 0.343202 0.910251
Si Si2 0.032763 0.426527 0.711316
Si Si3 0.797589 0.659563 0.467498
Si Si4 0.208191 0.570044 0.863445
Si Si5 0.103470 0.214454 0.669747
Si Si6 0.855018 0.167321 0.702230
Si Si7 0.332671 0.258814 0.107709
O O1 0.727115 0.322010 0.912624
O O2 0.935997 0.373338 0.779646
O O3 0.847176 0.397862 0.005239
O O4 0.881052 0.283419 0.983904
O O5 0.998630 0.500000 0.707894
O O6 0.115453 0.398550 0.577721
O O7 0.117603 0.425014 0.791590
O O8 0.870125 0.721552 0.408379
O O9 0.719959 0.672496 0.609855
O O10 0.699026 0.657775 0.404072
O O11 0.232423 0.500000 0.879791
O O12 0.324856 0.605303 0.782974
O O13 0.088009 0.228588 0.811318
O O14 0.988226 0.185154 0.660545
O O15 0.774854 0.219235 0.795509
#
# Coordination Sequence:
#
# PCOD9174607 Si02
#       7
#     8   8   8   8   8   8   8
#     4  10  18  32  50  73 105 133 163 206 260 306
#     4  10  19  32  53  78 104 135 169 212 262 304
#     4   9  19  32  51  78 102 126 167 213 250 306
#     4   9  18  31  48  73  99 126 166 209 249 300
#     4  10  18  33  53  72 100 135 166 205 259 307
#     4   9  17  31  50  74 100 125 160 205 256 304
#     4   9  20  32  49  78 103 130 166 209 254 309
#
# _framework density 19.667553999999999
#
# number of rings (size 3 to 8) (size 9 to 14) (size 15 to 20)
#    0.000    2.571    0.000    3.000    0.000    2.286 
#    0.000   11.429    0.000    8.571    0.000    0.000 
#    0.000    0.000    0.000    0.000    0.000    0.000 
#
# Total GULP energy -156010.944045 kJ/mol
# GULP energy per Si atom -5571.819430 kJ/mol
# Density = 1.962279 g / cm^3
# Si number density = 19.667554 Si / 1000 Ang^3
#
#
#
# Elastic Constant Matrix: (Units=GPa)
#
#
# Indices 1 2 3 4 5 6 
#
# 1 59.3842 30.5205 13.7689 0.0000 -22.5770 0.0000
# 2 30.5205 86.4331 11.9641 0.0000 -21.8496 0.0000
# 3 13.7689 11.9641 48.5686 0.0000 -18.0819 0.0000
# 4 0.0000 0.0000 0.0000 23.2272 0.0000 0.5264
# 5 -22.5770 -21.8496 -18.0819 0.0000 21.6742 0.0000
# 6 0.0000 0.0000 0.0000 0.5264 0.0000 14.7383
#
#
#
# Elastic Compliance Matrix: (Units=1/GPa)
#
#
# Indices 1 2 3 4 5 6 
#
# 1 0.029098 -0.003135 0.003816 0.000000 0.030334 0.000000
# 2 -0.003135 0.016152 0.002547 0.000000 0.015142 0.000000
# 3 0.003816 0.002547 0.030919 0.000000 0.032338 0.000000
# 4 0.000000 0.000000 0.000000 0.043088 0.000000 -0.001539
# 5 0.030334 0.015142 0.032338 0.000000 0.119979 0.000000
# 6 0.000000 0.000000 0.000000 -0.001539 0.000000 0.067905
#
#
# Mechanical properties :
#
#
# Convention : Reuss Voigt Hill
#
# Bulk Modulus (GPa) = 12.10259 34.09918 23.10089
# Shear Modulus (GPa) = 15.23338 21.13676 18.18507
#
# Velocity S-wave (km/s) = 2.78608 3.28182 3.04406
# Velocity P-wave (km/s) = 4.06406 5.63346 4.91185
#
# Compressibility (1/GPa) = 0.08262694
#
# Stress axis : x y z
#
# Youngs Moduli (GPa) = 34.36613 61.91223 32.34213
#
# Poissons Ratio (x) = 0.19410 -0.12342
# Poissons Ratio (y) = 0.10774 -0.08239
# Poissons Ratio (z) = -0.13115 -0.15772
#
# Static dielectric constant tensor:
#      x y z
#    x 1.733740 0.000000 -0.001160 
#    y 0.000000 1.699640 0.000000 
#    z -0.001160 0.000000 1.765690 
# 
# From -- ./inp_files/133867.got.cif
#   From: 2010.05.17/outbox.cif.g08.bks.cpg/sg12_67_cif.got.tgz:133867.got - 2010.06.03 13:09:07.
