data_PCOD9174335
_publ_section_title
;
Structure prediction by ZEFSAII (Michael W. Deem and Ramdas Pophale) SiO2 
 PCOD9174335
Probable space group: C 2/M
;
_chemical_formula_sum "Si O2"
_cell_formula_units_Z 64
_cell_length_a 28.436384
_cell_length_b 14.197879
_cell_length_c 9.070716
_cell_angle_alpha 90.000000
_cell_angle_beta 116.187439
_cell_angle_gamma 90.000000
_cell_volume 3286.273957
_symmetry_space_group_name_H-M "C 2/M"
_symmetry_group_IT_number 12
_symmetry_cell_setting 'monoclinic'
loop_
_space_group_symop_operation_xyz
x,y,z
-x,y,-z
-x,-y,-z
x,-y,z
1/2+x,1/2+y,z
1/2-x,1/2+y,-z
1/2-x,1/2-y,-z
1/2+x,1/2-y,z
loop_
_atom_site_type_symbol
_atom_site_label
_atom_site_fract_x
_atom_site_fract_y
_atom_site_fract_z
Si Si1 0.683648 0.098831 0.218288
Si Si2 0.900319 0.608043 0.639887
Si Si3 0.767796 0.858140 0.534744
Si Si4 0.126470 0.891697 0.451851
Si Si5 0.145510 0.279779 0.694276
Si Si6 0.143082 0.779653 0.001943
Si Si7 0.557650 0.288409 0.141296
Si Si8 0.751168 0.893734 0.843880
O O1 0.650845 0.107222 0.324947
O O2 0.742730 0.097648 0.355202
O O3 0.672635 0.189094 0.108854
O O4 0.668778 0.000000 0.125355
O O5 0.919572 0.500000 0.659137
O O6 0.883443 0.647080 0.456142
O O7 0.936025 0.684357 0.774991
O O8 0.750000 0.750000 0.500000
O O9 0.828966 0.875698 0.610075
O O10 0.748720 0.897201 0.662670
O O11 0.144102 0.817324 0.600165
O O12 0.074031 0.858286 0.296421
O O13 0.124584 0.000000 0.495573
O O14 0.203217 0.322399 0.812055
O O15 0.119561 0.253958 0.813926
O O16 0.098293 0.801045 0.060584
O O17 0.190227 0.854772 0.041231
O O18 0.500000 0.302208 0.000000
O O19 0.743511 0.000000 0.892115
#
# Coordination Sequence:
#
# PCOD9174335 Si02
#       8
#     8   8   8   8   8   8   8   8
#     4  10  18  31  54  81 110 148 192 231 270 328
#     4   9  18  35  59  84 111 146 186 231 284 342
#     4  12  17  32  56  82 114 149 195 236 271 328
#     4  11  22  38  60  83 110 150 196 237 280 336
#     4  11  22  37  56  84 123 153 182 226 284 353
#     4  11  23  38  55  84 120 153 191 235 284 337
#     4  10  22  41  63  86 110 144 196 251 291 326
#     4  12  22  34  55  84 119 159 192 225 276 339
#
# _framework density 19.474944000000001
#
# number of rings (size 3 to 8) (size 9 to 14) (size 15 to 20)
#    0.000    1.250    5.000    2.625    0.000    2.000 
#    0.000    2.500    0.000    1.500    0.000    0.000 
#    0.000    0.000    0.000    0.000    0.000    0.000 
#
# Total GULP energy -178403.899966 kJ/mol
# GULP energy per Si atom -5575.121874 kJ/mol
# Density = 1.943062 g / cm^3
# Si number density = 19.474944 Si / 1000 Ang^3
#
#
#
# Elastic Constant Matrix: (Units=GPa)
#
#
# Indices 1 2 3 4 5 6 
#
# 1 44.7260 16.8501 31.3073 0.0000 14.0225 0.0000
# 2 16.8501 138.9679 20.3258 0.0000 7.4585 0.0000
# 3 31.3073 20.3258 64.9424 0.0000 -2.6488 0.0000
# 4 0.0000 0.0000 0.0000 -13.6673 0.0000 3.5351
# 5 14.0225 7.4585 -2.6488 0.0000 36.0862 0.0000
# 6 0.0000 0.0000 0.0000 3.5351 0.0000 7.2932
#
#
#
# Elastic Compliance Matrix: (Units=1/GPa)
#
#
# Indices 1 2 3 4 5 6 
#
# 1 0.043417 -0.001172 -0.021306 0.000000 -0.018193 0.000000
# 2 -0.001172 0.007683 -0.001892 0.000000 -0.001271 0.000000
# 3 -0.021306 -0.001892 0.026695 0.000000 0.010630 0.000000
# 4 0.000000 0.000000 0.000000 -0.065016 0.000000 0.031514
# 5 -0.018193 -0.001271 0.010630 0.000000 0.035824 0.000000
# 6 0.000000 0.000000 0.000000 0.031514 0.000000 0.121839
#
#
# Mechanical properties :
#
#
# Convention : Reuss Voigt Hill
#
# Bulk Modulus (GPa) = 34.41540 42.84474 38.63007
# Shear Modulus (GPa) = 21.84680 17.95261 19.89971
#
# Velocity S-wave (km/s) = 3.35295 3.03946 3.20005
# Velocity P-wave (km/s) = 5.71836 5.86221 5.79073
#
# Compressibility (1/GPa) = 0.02905676
#
# Stress axis : x y z
#
# Youngs Moduli (GPa) = 23.03229 130.15930 37.46029
#
# Poissons Ratio (x) = 0.15251 0.79812
# Poissons Ratio (y) = 0.02699 0.07086
# Poissons Ratio (z) = 0.49072 0.24621
#
# Static dielectric constant tensor:
#      x y z
#    x 1.710260 0.000000 0.005350 
#    y 0.000000 1.764070 0.000000 
#    z 0.005350 0.000000 1.695210 
# 
# From -- ./inp_files/104688.got.cif
#   From: 2010.05.17/outbox.cif.g08.bks.cpg/sg12_53_cif.got.tgz:104688.got - 2010.06.03 13:09:07.
