data_PCOD9174544
_publ_section_title
;
Structure prediction by ZEFSAII (Michael W. Deem and Ramdas Pophale) SiO2 
 PCOD9174544
Probable space group: C 2/M
;
_chemical_formula_sum "Si O2"
_cell_formula_units_Z 56
_cell_length_a 23.659359
_cell_length_b 26.992085
_cell_length_c 14.033949
_cell_angle_alpha 90.000000
_cell_angle_beta 157.183163
_cell_angle_gamma 90.000000
_cell_volume 3475.457265
_symmetry_space_group_name_H-M "C 2/M"
_symmetry_group_IT_number 12
_symmetry_cell_setting 'monoclinic'
loop_
_space_group_symop_operation_xyz
x,y,z
-x,y,-z
-x,-y,-z
x,-y,z
1/2+x,1/2+y,z
1/2-x,1/2+y,-z
1/2-x,1/2-y,-z
1/2+x,1/2-y,z
loop_
_atom_site_type_symbol
_atom_site_label
_atom_site_fract_x
_atom_site_fract_y
_atom_site_fract_z
Si Si1 0.594002 0.845662 0.055780
Si Si2 0.634657 0.944238 0.634557
Si Si3 0.079449 0.811500 0.425343
Si Si4 0.536581 0.270539 0.949568
Si Si5 0.733343 0.641145 0.042369
Si Si6 0.042085 0.376624 0.768028
Si Si7 0.860136 0.290192 0.389426
O O1 0.768424 0.840846 0.339347
O O2 0.500000 0.863473 0.000000
O O3 0.540794 0.789059 0.954789
O O4 0.565275 0.875867 0.915643
O O5 0.500000 0.944980 0.500000
O O6 0.745618 0.904392 0.851273
O O7 0.560305 0.921376 0.425609
O O8 0.690175 0.000000 0.709894
O O9 0.087696 0.766008 0.513844
O O10 0.061094 0.789124 0.289951
O O11 0.933315 0.842031 0.221281
O O12 0.500000 0.286186 0.000000
O O13 0.697935 0.289868 0.179787
O O14 0.807509 0.624994 0.058626
O O15 0.831333 0.686213 0.240035
O O16 0.959530 0.327026 0.604504
#
# Coordination Sequence:
#
# PCOD9174544 Si02
#       7
#     8   8   8   8   8   8   8
#     4  10  21  31  45  65  94 133 169 198 232 276
#     4   8  15  31  57  78  93 116 153 205 250 278
#     4  10  19  32  43  66 101 135 163 196 236 278
#     4   9  18  29  44  61  88 133 176 211 225 256
#     4   9  19  32  46  72 102 123 160 200 237 288
#     4  10  18  32  47  71  99 123 159 201 233 289
#     4   9  17  29  43  66  95 130 162 193 236 273
#
# _framework density 16.112988000000001
#
# number of rings (size 3 to 8) (size 9 to 14) (size 15 to 20)
#    0.000    2.714    1.429    1.286    2.000    2.857 
#    5.143    0.000    0.000    1.286    0.000    5.000 
#    0.000    0.000    0.000    0.000    0.000    0.000 
#
# Total GULP energy -155946.401980 kJ/mol
# GULP energy per Si atom -5569.514356 kJ/mol
# Density = 1.607631 g / cm^3
# Si number density = 16.112988 Si / 1000 Ang^3
#
#
#
# Elastic Constant Matrix: (Units=GPa)
#
#
# Indices 1 2 3 4 5 6 
#
# 1 90.8543 30.7676 37.8757 0.0000 -20.0582 0.0000
# 2 30.7676 66.7019 40.6359 0.0000 2.4885 0.0000
# 3 37.8757 40.6359 94.6553 0.0000 -4.8317 0.0000
# 4 0.0000 0.0000 0.0000 7.9137 0.0000 -3.8752
# 5 -20.0582 2.4885 -4.8317 0.0000 15.3274 0.0000
# 6 0.0000 0.0000 0.0000 -3.8752 0.0000 7.6848
#
#
#
# Elastic Compliance Matrix: (Units=1/GPa)
#
#
# Indices 1 2 3 4 5 6 
#
# 1 0.021945 -0.009164 -0.003360 0.000000 0.029148 0.000000
# 2 -0.009164 0.024714 -0.007887 0.000000 -0.018490 0.000000
# 3 -0.003360 -0.007887 0.015383 0.000000 0.001733 0.000000
# 4 0.000000 0.000000 0.000000 0.167799 0.000000 0.084617
# 5 0.029148 -0.018490 0.001733 0.000000 0.106935 0.000000
# 6 0.000000 0.000000 0.000000 0.084617 0.000000 0.172797
#
#
# Mechanical properties :
#
#
# Convention : Reuss Voigt Hill
#
# Bulk Modulus (GPa) = 47.11968 52.30778 49.71373
# Shear Modulus (GPa) = 8.96914 15.71399 12.34157
#
# Velocity S-wave (km/s) = 2.36188 3.12627 2.77056
# Velocity P-wave (km/s) = 6.06175 6.75018 6.41521
#
# Compressibility (1/GPa) = 0.02122255
#
# Stress axis : x y z
#
# Youngs Moduli (GPa) = 45.56765 40.46371 65.00587
#
# Poissons Ratio (x) = 0.37079 0.21839
# Poissons Ratio (y) = 0.41756 0.51268
# Poissons Ratio (z) = 0.15309 0.31913
#
# Static dielectric constant tensor:
#      x y z
#    x 1.571600 0.000000 -0.009460 
#    y 0.000000 1.536540 0.000000 
#    z -0.009460 0.000000 1.546960 
# 
# From -- ./inp_files/136351.got.cif
#   From: 2010.05.17/outbox.cif.g08.bks.cpg/sg12_69_cif.got.tgz:136351.got - 2010.06.03 13:09:07.
