data_PCOD9174127
_publ_section_title
;
Structure prediction by ZEFSAII (Michael W. Deem and Ramdas Pophale) SiO2 
 PCOD9174127
Probable space group: C 2/M
;
_chemical_formula_sum "Si O2"
_cell_formula_units_Z 48
_cell_length_a 11.030230
_cell_length_b 22.762266
_cell_length_c 9.725935
_cell_angle_alpha 90.000000
_cell_angle_beta 83.324964
_cell_angle_gamma 90.000000
_cell_volume 2425.367138
_symmetry_space_group_name_H-M "C 2/M"
_symmetry_group_IT_number 12
_symmetry_cell_setting 'monoclinic'
loop_
_space_group_symop_operation_xyz
x,y,z
-x,y,-z
-x,-y,-z
x,-y,z
1/2+x,1/2+y,z
1/2-x,1/2+y,-z
1/2-x,1/2-y,-z
1/2+x,1/2-y,z
loop_
_atom_site_type_symbol
_atom_site_label
_atom_site_fract_x
_atom_site_fract_y
_atom_site_fract_z
Si Si1 0.797630 0.933762 0.747973
Si Si2 0.615541 0.267230 0.068775
Si Si3 0.090129 0.929582 0.686071
Si Si4 0.865628 0.903370 0.018418
Si Si5 0.749091 0.851162 0.530144
Si Si6 0.113011 0.261480 0.386039
O O1 0.716166 0.891232 0.665525
O O2 0.943562 0.918623 0.713694
O O3 0.782149 0.000000 0.701580
O O4 0.778649 0.930658 0.914926
O O5 0.592301 0.247108 0.227591
O O6 0.500000 0.243160 0.000000
O O7 0.750000 0.250000 0.000000
O O8 0.617032 0.337248 0.040026
O O9 0.159427 0.909166 0.816952
O O10 0.148337 0.889871 0.559807
O O11 0.105697 0.000000 0.664252
O O12 0.000000 0.932971 0.000000
O O13 0.793006 0.790507 0.591990
O O14 0.658136 0.826081 0.426219
O O15 0.000000 0.248447 0.500000
#
# Coordination Sequence:
#
# PCOD9174127 Si02
#       6
#     8   8   8   8   8   8
#     4  10  18  31  52  81 113 150 191 241 305 369
#     4  11  24  40  63  89 123 164 209 252 305 365
#     4  10  19  32  53  82 116 154 194 245 305 367
#     4   9  18  31  50  79 116 152 193 245 303 362
#     4  11  22  35  55  80 119 149 202 237 302 354
#     4  11  25  39  59  85 119 163 202 254 303 360
#
# _framework density 19.790818000000002
#
# number of rings (size 3 to 8) (size 9 to 14) (size 15 to 20)
#    0.000    1.667    1.667    3.500    9.333    3.333 
#    0.000    0.000    0.000    2.000    0.000    0.000 
#    0.000    9.333    0.000    0.000    0.000    0.000 
#
# Total GULP energy -133636.163456 kJ/mol
# GULP energy per Si atom -5568.173477 kJ/mol
# Density = 1.974577 g / cm^3
# Si number density = 19.790818 Si / 1000 Ang^3
#
#
#
# Elastic Constant Matrix: (Units=GPa)
#
#
# Indices 1 2 3 4 5 6 
#
# 1 36.6010 16.9759 30.1001 0.0000 12.0727 0.0000
# 2 16.9759 94.4478 32.1557 0.0000 26.9756 0.0000
# 3 30.1001 32.1557 149.4355 0.0000 35.1452 0.0000
# 4 0.0000 0.0000 0.0000 16.3104 0.0000 -8.4199
# 5 12.0727 26.9756 35.1452 0.0000 26.8171 0.0000
# 6 0.0000 0.0000 0.0000 -8.4199 0.0000 3.1901
#
#
#
# Elastic Compliance Matrix: (Units=1/GPa)
#
#
# Indices 1 2 3 4 5 6 
#
# 1 0.034746 -0.002726 -0.004883 0.000000 -0.006500 0.000000
# 2 -0.002726 0.015092 0.000843 0.000000 -0.015059 0.000000
# 3 -0.004883 0.000843 0.010374 0.000000 -0.012246 0.000000
# 4 0.000000 0.000000 0.000000 -0.169121 0.000000 -0.446374
# 5 -0.006500 -0.015059 -0.012246 0.000000 0.071412 0.000000
# 6 0.000000 0.000000 0.000000 -0.446374 0.000000 -0.864679
#
#
# Mechanical properties :
#
#
# Convention : Reuss Voigt Hill
#
# Bulk Modulus (GPa) = 21.42271 48.77197 35.09734
# Shear Modulus (GPa) = -5.72683 22.68036 8.47677
#
# Velocity S-wave (km/s) = -1.70293 3.38894 2.07183
# Velocity P-wave (km/s) = 2.64224 6.32538 4.84726
#
# Compressibility (1/GPa) = 0.04667944
#
# Stress axis : x y z
#
# Youngs Moduli (GPa) = 28.78019 66.26118 96.39455
#
# Poissons Ratio (x) = 0.18063 0.47074
# Poissons Ratio (y) = 0.07846 -0.08129
# Poissons Ratio (z) = 0.14055 -0.05588
#
# Static dielectric constant tensor:
#      x y z
#    x 1.715240 0.000000 0.046510 
#    y 0.000000 1.738090 0.000000 
#    z 0.046510 0.000000 1.778460 
# 
# From -- ./inp_files/50607.got.cif
#   From: 2010.05.17/outbox.cif.g08.bks.cpg/sg12_26_cif.got.tgz:50607.got - 2010.06.03 13:09:07.
