data_PCOD9174459
_publ_section_title
;
Structure prediction by ZEFSAII (Michael W. Deem and Ramdas Pophale) SiO2 
 PCOD9174459
Probable space group: C 2/M
;
_chemical_formula_sum "Si O2"
_cell_formula_units_Z 32
_cell_length_a 11.489434
_cell_length_b 17.677851
_cell_length_c 9.835189
_cell_angle_alpha 90.000000
_cell_angle_beta 114.860846
_cell_angle_gamma 90.000000
_cell_volume 1812.494987
_symmetry_space_group_name_H-M "C 2/M"
_symmetry_group_IT_number 12
_symmetry_cell_setting 'monoclinic'
loop_
_space_group_symop_operation_xyz
x,y,z
-x,y,-z
-x,-y,-z
x,-y,z
1/2+x,1/2+y,z
1/2-x,1/2+y,-z
1/2-x,1/2-y,-z
1/2+x,1/2-y,z
loop_
_atom_site_type_symbol
_atom_site_label
_atom_site_fract_x
_atom_site_fract_y
_atom_site_fract_z
Si Si1 0.438915 0.806369 0.600411
Si Si2 0.540570 0.414231 0.747610
Si Si3 0.828685 0.858686 0.465143
Si Si4 0.095729 0.236833 0.920118
O O1 0.500000 0.845525 0.500000
O O2 0.322987 0.854046 0.603972
O O3 0.620732 0.727402 0.487910
O O4 0.540143 0.783211 0.764405
O O5 0.564571 0.500000 0.800150
O O6 0.395243 0.403682 0.621048
O O7 0.621957 0.392223 0.652391
O O8 0.572565 0.351482 0.874276
O O9 0.250000 0.250000 0.000000
O O10 0.000000 0.255365 0.000000
#
# Coordination Sequence:
#
# PCOD9174459 Si02
#       4
#     8   8   8   8
#     4  10  18  31  56  81 109 139 182 233 280 315
#     4  10  19  34  56  79 109 148 184 226 280 338
#     4   9  16  30  54  83 105 134 184 234 269 319
#     4  11  23  36  56  86 116 144 185 236 283 328
#
# _framework density 17.655221000000001
#
# number of rings (size 3 to 8) (size 9 to 14) (size 15 to 20)
#    0.000    2.000    5.000    3.000    7.000    0.500 
#    0.000    0.000    0.000   11.250    0.000    0.000 
#    0.000    0.000    0.000    0.000    0.000    0.000 
#
# Total GULP energy -89122.129883 kJ/mol
# GULP energy per Si atom -5570.133118 kJ/mol
# Density = 1.761504 g / cm^3
# Si number density = 17.655221 Si / 1000 Ang^3
#
#
#
# Elastic Constant Matrix: (Units=GPa)
#
#
# Indices 1 2 3 4 5 6 
#
# 1 113.7332 18.1009 67.4333 0.0000 22.9859 0.0000
# 2 18.1009 50.6557 18.5322 0.0000 6.8339 0.0000
# 3 67.4333 18.5322 89.6845 0.0000 13.6135 0.0000
# 4 0.0000 0.0000 0.0000 4.8787 0.0000 -0.7730
# 5 22.9859 6.8339 13.6135 0.0000 31.7270 0.0000
# 6 0.0000 0.0000 0.0000 -0.7730 0.0000 13.4292
#
#
#
# Elastic Compliance Matrix: (Units=1/GPa)
#
#
# Indices 1 2 3 4 5 6 
#
# 1 0.017415 -0.000917 -0.011787 0.000000 -0.007362 0.000000
# 2 -0.000917 0.021655 -0.003399 0.000000 -0.002541 0.000000
# 3 -0.011787 -0.003399 0.020653 0.000000 0.000410 0.000000
# 4 0.000000 0.000000 0.000000 0.206861 0.000000 0.011907
# 5 -0.007362 -0.002541 0.000410 0.000000 0.037224 0.000000
# 6 0.000000 0.000000 0.000000 0.011907 0.000000 0.075150
#
#
# Mechanical properties :
#
#
# Convention : Reuss Voigt Hill
#
# Bulk Modulus (GPa) = 36.34287 51.35624 43.84955
# Shear Modulus (GPa) = 11.89518 20.00743 15.95131
#
# Velocity S-wave (km/s) = 2.59848 3.37000 3.00907
# Velocity P-wave (km/s) = 5.44355 6.65538 6.07974
#
# Compressibility (1/GPa) = 0.02751572
#
# Stress axis : x y z
#
# Youngs Moduli (GPa) = 57.42125 46.17785 48.41867
#
# Poissons Ratio (x) = 0.04237 0.57073
# Poissons Ratio (y) = 0.05268 0.16459
# Poissons Ratio (z) = 0.67684 0.15697
#
# Static dielectric constant tensor:
#      x y z
#    x 1.677220 0.000000 -0.012790 
#    y 0.000000 1.604600 0.000000 
#    z -0.012790 0.000000 1.606470 
# 
# From -- ./inp_files/118683.got.cif
#   From: 2010.05.17/outbox.cif.g08.bks.cpg/sg12_60_cif.got.tgz:118683.got - 2010.06.03 13:09:07.
