data_PCOD9174997
_publ_section_title
;
Structure prediction by ZEFSAII (Michael W. Deem and Ramdas Pophale) SiO2 
 PCOD9174997
Probable space group: C 2/M
;
_chemical_formula_sum "Si O2"
_cell_formula_units_Z 64
_cell_length_a 21.242268
_cell_length_b 7.601931
_cell_length_c 20.628174
_cell_angle_alpha 90.000000
_cell_angle_beta 76.779668
_cell_angle_gamma 90.000000
_cell_volume 3242.803040
_symmetry_space_group_name_H-M "C 2/M"
_symmetry_group_IT_number 12
_symmetry_cell_setting 'monoclinic'
loop_
_space_group_symop_operation_xyz
x,y,z
-x,y,-z
-x,-y,-z
x,-y,z
1/2+x,1/2+y,z
1/2-x,1/2+y,-z
1/2-x,1/2-y,-z
1/2+x,1/2-y,z
loop_
_atom_site_type_symbol
_atom_site_label
_atom_site_fract_x
_atom_site_fract_y
_atom_site_fract_z
Si Si1 0.183685 0.215453 0.798471
Si Si2 0.800160 0.707530 0.580128
Si Si3 0.450965 0.287569 0.919356
Si Si4 0.410703 0.293724 0.293317
Si Si5 0.406358 0.714364 0.067148
Si Si6 0.340595 0.712619 0.434059
Si Si7 0.944055 0.294775 0.774674
Si Si8 0.324703 0.215815 0.718405
O O1 0.136278 0.277512 0.751793
O O2 0.152380 0.272569 0.873841
O O3 0.256774 0.269163 0.766716
O O4 0.182839 0.000000 0.798757
O O5 0.790546 0.500000 0.591849
O O6 0.729394 0.777043 0.575982
O O7 0.846030 0.731584 0.507343
O O8 0.824064 0.775197 0.643632
O O9 0.450631 0.500000 0.918402
O O10 0.525355 0.233817 0.915961
O O11 0.429352 0.226081 0.854227
O O12 0.409726 0.228868 0.991513
O O13 0.394726 0.500000 0.299557
O O14 0.392770 0.225412 0.369031
O O15 0.485130 0.279620 0.256629
O O16 0.406143 0.500000 0.066639
O O17 0.339808 0.500000 0.436274
O O18 0.949371 0.500000 0.758702
O O19 0.886511 0.221353 0.744103
O O20 0.325892 0.000000 0.719270
#
# Coordination Sequence:
#
# PCOD9174997 Si02
#       8
#     8   8   8   8   8   8   8   8
#     4   9  14  27  53  77  92 119 171 215 233 268
#     4   9  16  30  51  73  98 129 161 197 242 291
#     4   9  16  30  50  74  99 125 163 205 245 288
#     4  10  18  32  55  76  95 125 168 211 244 281
#     4   8  14  25  50  79  95 116 164 216 241 273
#     4   9  17  29  50  79 100 118 156 210 254 283
#     4  11  22  33  47  72 105 135 161 197 247 299
#     4   9  18  32  49  71 100 134 169 198 235 294
#
# _framework density 19.736011000000001
#
# number of rings (size 3 to 8) (size 9 to 14) (size 15 to 20)
#    0.000    2.750    2.500    1.125    0.000    0.500 
#    0.000    3.750    0.000    5.250    0.000    0.000 
#    0.000    0.000    0.000    0.000    0.000    0.000 
#
# Total GULP energy -178426.339363 kJ/mol
# GULP energy per Si atom -5575.823105 kJ/mol
# Density = 1.969109 g / cm^3
# Si number density = 19.736011 Si / 1000 Ang^3
#
#
#
# Elastic Constant Matrix: (Units=GPa)
#
#
# Indices 1 2 3 4 5 6 
#
# 1 75.3350 -10.6947 43.7241 0.0000 4.5465 0.0000
# 2 -10.6947 31.5865 -14.7096 0.0000 0.4372 0.0000
# 3 43.7241 -14.7096 145.0598 0.0000 -1.5880 0.0000
# 4 0.0000 0.0000 0.0000 17.9527 0.0000 1.4859
# 5 4.5465 0.4372 -1.5880 0.0000 26.1380 0.0000
# 6 0.0000 0.0000 0.0000 1.4859 0.0000 7.1306
#
#
#
# Elastic Compliance Matrix: (Units=1/GPa)
#
#
# Indices 1 2 3 4 5 6 
#
# 1 0.016705 0.003505 -0.004715 0.000000 -0.003251 0.000000
# 2 0.003505 0.033967 0.002377 0.000000 -0.001033 0.000000
# 3 -0.004715 0.002377 0.008570 0.000000 0.001301 0.000000
# 4 0.000000 0.000000 0.000000 0.056679 0.000000 -0.011811
# 5 -0.003251 -0.001033 0.001301 0.000000 0.038920 0.000000
# 6 0.000000 0.000000 0.000000 -0.011811 0.000000 0.142702
#
#
# Mechanical properties :
#
#
# Convention : Reuss Voigt Hill
#
# Bulk Modulus (GPa) = 16.24056 32.06900 24.15478
# Shear Modulus (GPa) = 15.83605 25.82170 20.82887
#
# Velocity S-wave (km/s) = 2.83573 3.62104 3.25218
# Velocity P-wave (km/s) = 4.35529 5.81092 5.13495
#
# Compressibility (1/GPa) = 0.06157422
#
# Stress axis : x y z
#
# Youngs Moduli (GPa) = 59.86410 29.44045 116.68306
#
# Poissons Ratio (x) = -0.10319 0.55019
# Poissons Ratio (y) = -0.20982 -0.27731
# Poissons Ratio (z) = 0.28227 -0.06997
#
# Static dielectric constant tensor:
#      x y z
#    x 1.658650 0.000000 -0.004400 
#    y 0.000000 1.757360 0.000000 
#    z -0.004400 0.000000 1.713980 
# 
# From -- ./inp_files/319144.got.cif
#   From: 2010.05.17/outbox.cif.g08.bks.cpg/sg12_160_cif.got.tgz:319144.got - 2010.06.03 13:09:07.
