data_PCOD9174710
_publ_section_title
;
Structure prediction by ZEFSAII (Michael W. Deem and Ramdas Pophale) SiO2 
 PCOD9174710
Probable space group: C 2/M
;
_chemical_formula_sum "Si O2"
_cell_formula_units_Z 40
_cell_length_a 15.964048
_cell_length_b 17.049585
_cell_length_c 17.383983
_cell_angle_alpha 90.000000
_cell_angle_beta 153.469572
_cell_angle_gamma 90.000000
_cell_volume 2113.468838
_symmetry_space_group_name_H-M "C 2/M"
_symmetry_group_IT_number 12
_symmetry_cell_setting 'monoclinic'
loop_
_space_group_symop_operation_xyz
x,y,z
-x,y,-z
-x,-y,-z
x,-y,z
1/2+x,1/2+y,z
1/2-x,1/2+y,-z
1/2-x,1/2-y,-z
1/2+x,1/2-y,z
loop_
_atom_site_type_symbol
_atom_site_label
_atom_site_fract_x
_atom_site_fract_y
_atom_site_fract_z
Si Si1 0.905437 0.406065 0.646546
Si Si2 0.966817 0.906533 0.743301
Si Si3 0.279946 0.693251 0.950822
Si Si4 0.747040 0.847460 0.150831
Si Si5 0.842331 0.407880 0.766441
O O1 0.938103 0.500000 0.677372
O O2 0.748908 0.390377 0.454011
O O3 0.824252 0.381499 0.663553
O O4 0.097983 0.360760 0.792138
O O5 0.087817 0.876617 0.769254
O O6 0.993662 0.000000 0.772614
O O7 0.045880 0.860864 0.882138
O O8 0.294774 0.755468 0.894803
O O9 0.250000 0.750000 0.000000
O O10 0.775408 0.867113 0.263242
O O11 0.560181 0.892454 0.967840
O O12 0.802507 0.500000 0.737272
#
# Coordination Sequence:
#
# PCOD9174710 Si02
#       5
#     8   8   8   8   8
#     4  10  20  33  53  77 101 134 173 209 249 302
#     4  10  19  32  52  74 100 135 173 209 250 299
#     4  10  19  32  48  73 105 137 167 209 251 301
#     4  10  19  30  48  74 104 139 165 201 255 301
#     4  10  18  32  52  74 106 138 167 203 245 307
#
# _framework density 18.92623
#
# number of rings (size 3 to 8) (size 9 to 14) (size 15 to 20)
#    0.000    2.000    4.000    3.000    0.000    4.000 
#    0.000    3.000    0.000    0.000    0.000   11.200 
#    0.000   12.800    0.000    0.000    0.000    0.000 
#
# Total GULP energy -111571.568646 kJ/mol
# GULP energy per Si atom -5578.578432 kJ/mol
# Density = 1.888315 g / cm^3
# Si number density = 18.926230 Si / 1000 Ang^3
#
#
#
# Elastic Constant Matrix: (Units=GPa)
#
#
# Indices 1 2 3 4 5 6 
#
# 1 28.6322 19.6989 4.7457 0.0171 -10.8421 -0.0007
# 2 19.6989 75.9795 53.0782 0.0222 -17.5643 0.0003
# 3 4.7457 53.0782 87.6651 0.0366 -9.3122 0.0126
# 4 0.0171 0.0222 0.0366 -22.2221 0.0168 -54.9797
# 5 -10.8421 -17.5643 -9.3122 0.0168 13.7203 0.0056
# 6 -0.0007 0.0003 0.0126 -54.9797 0.0056 -27.6556
#
#
#
# Elastic Compliance Matrix: (Units=1/GPa)
#
#
# Indices 1 2 3 4 5 6 
#
# 1 0.054290 -0.011867 0.007748 -0.000012 0.032969 0.000032
# 2 -0.011867 0.033203 -0.017180 -0.000005 0.021467 0.000007
# 3 0.007748 -0.017180 0.021235 0.000000 -0.001459 0.000009
# 4 -0.000012 -0.000005 0.000000 0.011484 -0.000020 -0.022830
# 5 0.032969 0.021467 -0.001459 -0.000020 0.125429 0.000065
# 6 0.000032 0.000007 0.000009 -0.022830 0.000065 0.009228
#
#
# Mechanical properties :
#
#
# Convention : Reuss Voigt Hill
#
# Bulk Modulus (GPa) = 15.12189 38.59138 26.85664
# Shear Modulus (GPa) = 15.64900 0.41877 8.03389
#
# Velocity S-wave (km/s) = 2.87861 0.47090 2.06254
# Velocity P-wave (km/s) = 4.36529 4.55306 4.46016
#
# Compressibility (1/GPa) = 0.06612930
#
# Stress axis : x y z
#
# Youngs Moduli (GPa) = 18.41956 30.11815 47.09263
#
# Poissons Ratio (x) = 0.35741 -0.36488
# Poissons Ratio (y) = 0.21858 0.80906
# Poissons Ratio (z) = -0.14272 0.51744
#
# Static dielectric constant tensor:
#      x y z
#    x 1.672350 0.000000 -0.014450 
#    y 0.000000 1.663080 0.000000 
#    z -0.014450 0.000000 1.694310 
# 
# From -- ./inp_files/284920.got.cif
#   From: 2010.05.17/outbox.cif.g08.bks.cpg/sg12_143_cif.got.tgz:284920.got - 2010.06.03 13:09:07.
