data_PCOD9174847
_publ_section_title
;
Structure prediction by ZEFSAII (Michael W. Deem and Ramdas Pophale) SiO2 
 PCOD9174847
Probable space group: C 2/M
;
_chemical_formula_sum "Si O2"
_cell_formula_units_Z 64
_cell_length_a 20.964086
_cell_length_b 20.969504
_cell_length_c 12.620323
_cell_angle_alpha 90.000000
_cell_angle_beta 42.129401
_cell_angle_gamma 90.000000
_cell_volume 3721.622532
_symmetry_space_group_name_H-M "C 2/M"
_symmetry_group_IT_number 12
_symmetry_cell_setting 'monoclinic'
loop_
_space_group_symop_operation_xyz
x,y,z
-x,y,-z
-x,-y,-z
x,-y,z
1/2+x,1/2+y,z
1/2-x,1/2+y,-z
1/2-x,1/2-y,-z
1/2+x,1/2-y,z
loop_
_atom_site_type_symbol
_atom_site_label
_atom_site_fract_x
_atom_site_fract_y
_atom_site_fract_z
Si Si1 0.574523 0.432155 0.002075
Si Si2 0.073122 0.698105 0.811084
Si Si3 0.438539 0.701140 0.873137
Si Si4 0.938184 0.571886 0.315240
Si Si5 0.770444 0.754404 0.235589
Si Si6 0.418636 0.882249 0.690550
Si Si7 0.596831 0.734689 0.314537
Si Si8 0.782879 0.600833 0.681967
O O1 0.572094 0.500000 0.063385
O O2 0.676932 0.424161 0.820739
O O3 0.500000 0.433516 0.000000
O O4 0.549653 0.370196 0.099788
O O5 0.075866 0.630329 0.748403
O O6 0.173690 0.720469 0.737384
O O7 0.028004 0.752673 0.789724
O O8 0.000000 0.693753 0.000000
O O9 0.413050 0.697356 0.781850
O O10 0.350468 0.729697 0.048939
O O11 0.942803 0.500000 0.265215
O O12 0.851294 0.574768 0.506640
O O13 0.034175 0.586656 0.264993
O O14 0.685293 0.718088 0.281000
O O15 0.725049 0.822501 0.324606
O O16 0.500000 0.883116 0.500000
O O17 0.392730 0.808249 0.737972
O O18 0.330161 0.912861 0.738649
O O19 0.500000 0.730747 0.500000
#
# Coordination Sequence:
#
# PCOD9174847 Si02
#       8
#     8   8   8   8   8   8   8   8
#     4  10  20  35  53  77 107 136 174 223 271 318
#     4  10  21  37  54  77 108 141 183 222 254 314
#     4  10  18  34  57  76 105 138 176 218 269 316
#     4  11  21  33  52  79 111 148 174 209 268 324
#     4   9  19  33  53  80 105 139 174 221 274 303
#     4   8  16  30  49  77 109 131 161 211 267 317
#     4  10  18  32  53  81 107 134 175 223 262 310
#     4   9  18  33  54  81 108 131 171 222 271 322
#
# _framework density 17.196801000000001
#
# number of rings (size 3 to 8) (size 9 to 14) (size 15 to 20)
#    0.000    2.375    1.250    3.375    0.000    3.500 
#    2.250    0.000    0.000    1.125    0.000    0.000 
#    0.000    0.000    0.000    0.000    0.000    0.000 
#
# Total GULP energy -178313.393675 kJ/mol
# GULP energy per Si atom -5572.293552 kJ/mol
# Density = 1.715766 g / cm^3
# Si number density = 17.196801 Si / 1000 Ang^3
#
#
#
# Elastic Constant Matrix: (Units=GPa)
#
#
# Indices 1 2 3 4 5 6 
#
# 1 134.2214 51.3617 25.2270 0.0000 -20.6522 0.0000
# 2 51.3617 99.8676 21.0414 0.0000 -2.3734 0.0000
# 3 25.2270 21.0414 15.6985 0.0000 -5.7301 0.0000
# 4 0.0000 0.0000 0.0000 -23.1524 0.0000 18.7204
# 5 -20.6522 -2.3734 -5.7301 0.0000 19.9258 0.0000
# 6 0.0000 0.0000 0.0000 18.7204 0.0000 -5.0509
#
#
#
# Elastic Compliance Matrix: (Units=1/GPa)
#
#
# Indices 1 2 3 4 5 6 
#
# 1 0.012488 -0.003734 -0.011733 0.000000 0.009125 0.000000
# 2 -0.003734 0.015385 -0.017166 0.000000 -0.006974 0.000000
# 3 -0.011733 -0.017166 0.112151 0.000000 0.018045 0.000000
# 4 0.000000 0.000000 0.000000 0.021630 0.000000 0.080169
# 5 0.009125 -0.006974 0.018045 0.000000 0.064002 0.000000
# 6 0.000000 0.000000 0.000000 0.080169 0.000000 0.099148
#
#
# Mechanical properties :
#
#
# Convention : Reuss Voigt Hill
#
# Bulk Modulus (GPa) = 13.37663 49.44973 31.41318
# Shear Modulus (GPa) = 12.04849 8.48834 10.26841
#
# Velocity S-wave (km/s) = 2.64980 2.22412 2.44624
# Velocity P-wave (km/s) = 4.14215 5.95090 5.12692
#
# Compressibility (1/GPa) = 0.07475726
#
# Stress axis : x y z
#
# Youngs Moduli (GPa) = 80.07393 65.00022 8.91657
#
# Poissons Ratio (x) = 0.24270 0.10462
# Poissons Ratio (y) = 0.29898 0.15306
# Poissons Ratio (z) = 0.93954 1.11580
#
# Static dielectric constant tensor:
#      x y z
#    x 1.611630 0.000000 -0.017870 
#    y 0.000000 1.608840 0.000000 
#    z -0.017870 0.000000 1.567930 
# 
# From -- ./inp_files/159548.got.cif
#   From: 2010.05.17/outbox.cif.g08.bks.cpg/sg12_80_cif.got.tgz:159548.got - 2010.06.03 13:09:07.
