data_PCOD9174779
_publ_section_title
;
Structure prediction by ZEFSAII (Michael W. Deem and Ramdas Pophale) SiO2 
 PCOD9174779
Probable space group: C 2/M
;
_chemical_formula_sum "Si O2"
_cell_formula_units_Z 56
_cell_length_a 27.766129
_cell_length_b 8.130843
_cell_length_c 14.176427
_cell_angle_alpha 90.000000
_cell_angle_beta 122.040427
_cell_angle_gamma 90.000000
_cell_volume 2712.979748
_symmetry_space_group_name_H-M "C 2/M"
_symmetry_group_IT_number 12
_symmetry_cell_setting 'monoclinic'
loop_
_space_group_symop_operation_xyz
x,y,z
-x,y,-z
-x,-y,-z
x,-y,z
1/2+x,1/2+y,z
1/2-x,1/2+y,-z
1/2-x,1/2-y,-z
1/2+x,1/2-y,z
loop_
_atom_site_type_symbol
_atom_site_label
_atom_site_fract_x
_atom_site_fract_y
_atom_site_fract_z
Si Si1 0.029689 0.201555 0.628452
Si Si2 0.340379 0.306042 0.230046
Si Si3 0.740289 0.310784 0.237553
Si Si4 0.939128 0.308903 0.035502
Si Si5 0.321372 0.810722 0.007746
Si Si6 0.961602 0.192236 0.738981
Si Si7 0.129799 0.800267 0.220288
O O1 0.095199 0.257732 0.696010
O O2 0.000000 0.246484 0.500000
O O3 0.992391 0.262687 0.678420
O O4 0.031066 0.000000 0.635187
O O5 0.343293 0.500000 0.218442
O O6 0.300512 0.271948 0.278434
O O7 0.311954 0.233280 0.106087
O O8 0.750807 0.500000 0.271618
O O9 0.693775 0.241299 0.263030
O O10 0.707330 0.297390 0.102919
O O11 0.955325 0.500000 0.044026
O O12 0.888777 0.294802 0.059753
O O13 0.992413 0.209444 0.129193
O O14 0.910102 0.251402 0.908804
O O15 0.304706 0.000000 0.971834
O O16 0.902389 0.259412 0.719090
O O17 0.951805 0.000000 0.709359
O O18 0.131774 0.000000 0.223431
#
# Coordination Sequence:
#
# PCOD9174779 Si02
#       7
#     8   8   8   8   8   8   8
#     4   9  19  35  56  80 100 123 165 219 266 303
#     4  11  20  32  52  74  98 130 167 209 257 300
#     4  10  20  33  48  70 103 138 171 203 240 294
#     4  10  19  29  45  72 106 138 167 201 247 300
#     4  10  19  31  47  71 104 138 171 203 243 298
#     4  10  18  32  53  73  97 130 169 212 252 296
#     4   9  19  32  48  71 100 137 174 202 238 293
#
# _framework density 20.64151
#
# number of rings (size 3 to 8) (size 9 to 14) (size 15 to 20)
#    0.000    2.143    1.429    2.571    0.000    4.000 
#    0.000    0.000    0.000    4.714    0.000    0.000 
#    0.000    0.000    0.000    0.000    0.000    0.571 
#
# Total GULP energy -156177.835122 kJ/mol
# GULP energy per Si atom -5577.779826 kJ/mol
# Density = 2.059453 g / cm^3
# Si number density = 20.641510 Si / 1000 Ang^3
#
#
#
# Elastic Constant Matrix: (Units=GPa)
#
#
# Indices 1 2 3 4 5 6 
#
# 1 198.1338 2.1583 40.1458 0.0000 -15.5877 0.0000
# 2 2.1583 16.5021 -4.9007 0.0000 -2.3678 0.0000
# 3 40.1458 -4.9007 33.0331 0.0000 1.1839 0.0000
# 4 0.0000 0.0000 0.0000 2.3133 0.0000 0.4498
# 5 -15.5877 -2.3678 1.1839 0.0000 12.3425 0.0000
# 6 0.0000 0.0000 0.0000 0.4498 0.0000 19.9852
#
#
#
# Elastic Compliance Matrix: (Units=1/GPa)
#
#
# Indices 1 2 3 4 5 6 
#
# 1 0.008058 -0.002661 -0.010571 0.000000 0.010680 0.000000
# 2 -0.002661 0.065879 0.012718 0.000000 0.008058 0.000000
# 3 -0.010571 0.012718 0.045554 0.000000 -0.015280 0.000000
# 4 0.000000 0.000000 0.000000 0.434192 0.000000 -0.009771
# 5 0.010680 0.008058 -0.015280 0.000000 0.097521 0.000000
# 6 0.000000 0.000000 0.000000 -0.009771 0.000000 0.050257
#
#
# Mechanical properties :
#
#
# Convention : Reuss Voigt Hill
#
# Bulk Modulus (GPa) = 8.44128 35.83068 22.13598
# Shear Modulus (GPa) = 6.73876 20.94589 13.84232
#
# Velocity S-wave (km/s) = 1.80880 3.18896 2.59242
# Velocity P-wave (km/s) = 2.90873 5.56377 4.43938
#
# Compressibility (1/GPa) = 0.11846538
#
# Stress axis : x y z
#
# Youngs Moduli (GPa) = 124.09729 15.17925 21.95194
#
# Poissons Ratio (x) = 0.04039 0.23205
# Poissons Ratio (y) = 0.33018 -0.27919
# Poissons Ratio (z) = 1.31181 -0.19306
#
# Static dielectric constant tensor:
#      x y z
#    x 1.851070 0.000000 -0.001480 
#    y 0.000000 1.733280 0.000000 
#    z -0.001480 0.000000 1.690710 
# 
# From -- ./inp_files/244339.got.cif
#   From: 2010.05.17/outbox.cif.g08.bks.cpg/sg12_123_cif.got.tgz:244339.got - 2010.06.03 13:09:07.
