data_PCOD9174790
_publ_section_title
;
Structure prediction by ZEFSAII (Michael W. Deem and Ramdas Pophale) SiO2 
 PCOD9174790
Probable space group: C 2/M
;
_chemical_formula_sum "Si O2"
_cell_formula_units_Z 64
_cell_length_a 14.801832
_cell_length_b 7.494582
_cell_length_c 26.298087
_cell_angle_alpha 90.000000
_cell_angle_beta 117.202636
_cell_angle_gamma 90.000000
_cell_volume 2594.668594
_symmetry_space_group_name_H-M "C 2/M"
_symmetry_group_IT_number 12
_symmetry_cell_setting 'monoclinic'
loop_
_space_group_symop_operation_xyz
x,y,z
-x,y,-z
-x,-y,-z
x,-y,z
1/2+x,1/2+y,z
1/2-x,1/2+y,-z
1/2-x,1/2-y,-z
1/2+x,1/2-y,z
loop_
_atom_site_type_symbol
_atom_site_label
_atom_site_fract_x
_atom_site_fract_y
_atom_site_fract_z
Si Si1 0.434061 0.218022 0.910174
Si Si2 0.653867 0.787262 0.010904
Si Si3 0.744779 0.213307 0.712409
Si Si4 0.429106 0.296564 0.411917
Si Si5 0.457392 0.211817 0.803798
Si Si6 0.430238 0.795370 0.639616
Si Si7 0.601988 0.217978 0.760507
Si Si8 0.722900 0.714834 0.550989
O O1 0.353175 0.278466 0.932229
O O2 0.427516 0.285922 0.851013
O O3 0.429079 0.000000 0.907645
O O4 0.547178 0.268875 0.958183
O O5 0.648961 0.000000 0.012676
O O6 0.750000 0.750000 0.000000
O O7 0.669770 0.293834 0.651091
O O8 0.862664 0.259658 0.741648
O O9 0.703819 0.273072 0.757831
O O10 0.732683 0.000000 0.705322
O O11 0.463280 0.500000 0.428359
O O12 0.517535 0.205436 0.402656
O O13 0.382579 0.220733 0.452062
O O14 0.561582 0.279074 0.804773
O O15 0.470351 0.000000 0.813153
O O16 0.514166 0.719658 0.698774
O O17 0.319804 0.711764 0.606998
O O18 0.416688 0.000000 0.651798
O O19 0.603991 0.000000 0.762033
O O20 0.719891 0.500000 0.556120
O O21 0.750000 0.750000 0.500000
#
# Coordination Sequence:
#
# PCOD9174790 Si02
#       8
#     8   8   8   8   8   8   8   8
#     4   8  17  32  50  72 101 135 171 207 253 306
#     4   9  17  33  53  73  98 133 174 214 253 299
#     4  10  20  34  51  76 106 134 163 204 253 300
#     4  10  20  36  56  77 100 133 173 210 245 297
#     4  10  18  32  53  74  99 136 173 207 246 298
#     4   9  18  35  54  73  99 133 167 207 254 299
#     4   8  16  31  51  71  96 129 165 199 243 300
#     4  10  22  37  54  76 104 134 168 208 255 304
#
# _framework density 24.665963000000001
#
# number of rings (size 3 to 8) (size 9 to 14) (size 15 to 20)
#    0.000    2.750    0.000    3.000    0.000    5.000 
#    0.000   11.875    0.000    0.000    0.000    0.000 
#    0.000    0.000    0.000    0.000    0.000    0.000 
#
# Total GULP energy -178638.560758 kJ/mol
# GULP energy per Si atom -5582.455024 kJ/mol
# Density = 2.460982 g / cm^3
# Si number density = 24.665963 Si / 1000 Ang^3
#
#
#
# Elastic Constant Matrix: (Units=GPa)
#
#
# Indices 1 2 3 4 5 6 
#
# 1 157.2795 -4.3115 21.6687 0.0000 -35.9893 0.0000
# 2 -4.3115 77.5413 -4.2207 0.0000 -5.3289 0.0000
# 3 21.6687 -4.2207 57.7355 0.0000 -29.1308 0.0000
# 4 0.0000 0.0000 0.0000 3.3926 0.0000 -3.9517
# 5 -35.9893 -5.3289 -29.1308 0.0000 33.7150 0.0000
# 6 0.0000 0.0000 0.0000 -3.9517 0.0000 14.2446
#
#
#
# Elastic Compliance Matrix: (Units=1/GPa)
#
#
# Indices 1 2 3 4 5 6 
#
# 1 0.008771 0.001482 0.002941 0.000000 0.012138 0.000000
# 2 0.001482 0.013708 0.004144 0.000000 0.007329 0.000000
# 3 0.002941 0.004144 0.032681 0.000000 0.032032 0.000000
# 4 0.000000 0.000000 0.000000 0.435476 0.000000 0.120808
# 5 0.012138 0.007329 0.032032 0.000000 0.071452 0.000000
# 6 0.000000 0.000000 0.000000 0.120808 0.000000 0.103716
#
#
# Mechanical properties :
#
#
# Convention : Reuss Voigt Hill
#
# Bulk Modulus (GPa) = 13.83258 35.42546 24.62902
# Shear Modulus (GPa) = 7.43197 28.89843 18.16520
#
# Velocity S-wave (km/s) = 1.73770 3.42656 2.71670
# Velocity P-wave (km/s) = 3.10584 5.48164 4.45503
#
# Compressibility (1/GPa) = 0.07229312
#
# Stress axis : x y z
#
# Youngs Moduli (GPa) = 114.01224 72.95018 30.59838
#
# Poissons Ratio (x) = -0.10811 -0.08998
# Poissons Ratio (y) = -0.16896 -0.12679
# Poissons Ratio (z) = -0.33527 -0.30229
#
# Static dielectric constant tensor:
#      x y z
#    x 1.974290 0.000000 -0.061010 
#    y 0.000000 1.945890 0.000000 
#    z -0.061010 0.000000 2.014220 
# 
# From -- ./inp_files/359792.got.cif
#   From: 2010.05.17/outbox.cif.g08.bks.cpg/sg12_180_cif.got.tgz:359792.got - 2010.06.03 13:09:07.
