data_PCOD9174122
_publ_section_title
;
Structure prediction by ZEFSAII (Michael W. Deem and Ramdas Pophale) SiO2 
 PCOD9174122
Probable space group: C 2/M
;
_chemical_formula_sum "Si O2"
_cell_formula_units_Z 64
_cell_length_a 15.014992
_cell_length_b 19.008620
_cell_length_c 11.757867
_cell_angle_alpha 90.000000
_cell_angle_beta 127.978797
_cell_angle_gamma 90.000000
_cell_volume 2645.220615
_symmetry_space_group_name_H-M "C 2/M"
_symmetry_group_IT_number 12
_symmetry_cell_setting 'monoclinic'
loop_
_space_group_symop_operation_xyz
x,y,z
-x,y,-z
-x,-y,-z
x,-y,z
1/2+x,1/2+y,z
1/2-x,1/2+y,-z
1/2-x,1/2-y,-z
1/2+x,1/2-y,z
loop_
_atom_site_type_symbol
_atom_site_label
_atom_site_fract_x
_atom_site_fract_y
_atom_site_fract_z
Si Si1 0.927724 0.215182 0.558720
Si Si2 0.401990 0.080897 0.824958
Si Si3 0.347133 0.075711 0.315042
Si Si4 0.961763 0.670467 0.236861
Si Si5 0.116350 0.215092 0.090639
Si Si6 0.764714 0.341707 0.896260
Si Si7 0.136369 0.920634 0.973722
Si Si8 0.262561 0.661822 0.593203
O O1 0.838306 0.280583 0.486090
O O2 0.844056 0.156761 0.547462
O O3 0.000000 0.201522 0.500000
O O4 0.015525 0.248123 0.719160
O O5 0.437808 0.128066 0.745987
O O6 0.380960 0.000000 0.776340
O O7 0.500000 0.078563 0.000000
O O8 0.300846 0.119233 0.809996
O O9 0.429521 0.134635 0.330723
O O10 0.244976 0.073165 0.142853
O O11 0.293086 0.093463 0.393935
O O12 0.401905 0.000000 0.353469
O O13 0.860388 0.657075 0.069587
O O14 0.083048 0.148161 0.988666
O O15 0.155256 0.191536 0.243971
O O16 0.223239 0.258968 0.125683
O O17 0.000000 0.260037 0.000000
O O18 0.668611 0.390229 0.875655
O O19 0.085961 0.000000 0.930625
#
# Coordination Sequence:
#
# PCOD9174122 Si02
#       8
#     8   8   8   8   8   8   8   8
#     4  11  21  37  58  80 113 147 186 234 277 336
#     4   9  16  26  45  75 113 153 179 208 265 336
#     4   9  17  33  55  79 110 142 179 226 274 329
#     4  10  18  31  52  80 113 144 185 226 275 332
#     4  11  21  36  56  84 110 143 184 235 281 332
#     4  10  18  31  52  80 114 143 179 229 279 332
#     4   9  19  33  51  77 110 147 182 220 271 331
#     4  10  22  38  56  82 112 147 186 227 286 332
#
# _framework density 24.194579999999998
#
# number of rings (size 3 to 8) (size 9 to 14) (size 15 to 20)
#    0.000    2.125    1.250    3.750    0.000    3.250 
#    2.250    1.875    0.000    0.375    0.000    0.000 
#    0.000    0.000    0.000    0.000    0.000    0.000 
#
# Total GULP energy -178463.246846 kJ/mol
# GULP energy per Si atom -5576.976464 kJ/mol
# Density = 2.413951 g / cm^3
# Si number density = 24.194580 Si / 1000 Ang^3
#
#
#
# Elastic Constant Matrix: (Units=GPa)
#
#
# Indices 1 2 3 4 5 6 
#
# 1 121.9965 31.6087 19.9662 0.0000 -46.6370 0.0000
# 2 31.6087 110.5666 5.6667 0.0000 -28.2328 0.0000
# 3 19.9662 5.6667 58.7862 0.0000 -11.7853 0.0000
# 4 0.0000 0.0000 0.0000 5.3026 0.0000 -4.7671
# 5 -46.6370 -28.2328 -11.7853 0.0000 49.0631 0.0000
# 6 0.0000 0.0000 0.0000 -4.7671 0.0000 15.3292
#
#
#
# Elastic Compliance Matrix: (Units=1/GPa)
#
#
# Indices 1 2 3 4 5 6 
#
# 1 0.013152 -0.000690 -0.002074 0.000000 0.011607 0.000000
# 2 -0.000690 0.010641 0.000320 0.000000 0.005544 0.000000
# 3 -0.002074 0.000320 0.018203 0.000000 0.002585 0.000000
# 4 0.000000 0.000000 0.000000 0.261775 0.000000 0.081407
# 5 0.011607 0.005544 0.002585 0.000000 0.035226 0.000000
# 6 0.000000 0.000000 0.000000 0.081407 0.000000 0.090551
#
#
# Mechanical properties :
#
#
# Convention : Reuss Voigt Hill
#
# Bulk Modulus (GPa) = 26.94794 45.09252 36.02023
# Shear Modulus (GPa) = 11.19058 29.54615 20.36836
#
# Velocity S-wave (km/s) = 2.15297 3.49834 2.90462
# Velocity P-wave (km/s) = 4.16444 5.91572 5.11558
#
# Compressibility (1/GPa) = 0.03710859
#
# Stress axis : x y z
#
# Youngs Moduli (GPa) = 76.03359 93.97747 54.93729
#
# Poissons Ratio (x) = 0.06484 0.11392
# Poissons Ratio (y) = 0.05246 -0.01758
# Poissons Ratio (z) = 0.15766 -0.03008
#
# Static dielectric constant tensor:
#      x y z
#    x 2.077120 0.000000 0.059970 
#    y 0.000000 1.933360 0.000000 
#    z 0.059970 0.000000 1.980420 
# 
# From -- ./inp_files/147658.got.cif
#   From: 2010.05.17/outbox.cif.g08.bks.cpg/sg12_74_cif.got.tgz:147658.got - 2010.06.03 13:09:07.
