data_PCOD9174253
_publ_section_title
;
Structure prediction by ZEFSAII (Michael W. Deem and Ramdas Pophale) SiO2 
 PCOD9174253
Probable space group: C 2/M
;
_chemical_formula_sum "Si O2"
_cell_formula_units_Z 56
_cell_length_a 12.482150
_cell_length_b 21.406848
_cell_length_c 12.315277
_cell_angle_alpha 90.000000
_cell_angle_beta 54.771339
_cell_angle_gamma 90.000000
_cell_volume 2688.017234
_symmetry_space_group_name_H-M "C 2/M"
_symmetry_group_IT_number 12
_symmetry_cell_setting 'monoclinic'
loop_
_space_group_symop_operation_xyz
x,y,z
-x,y,-z
-x,-y,-z
x,-y,z
1/2+x,1/2+y,z
1/2-x,1/2+y,-z
1/2-x,1/2-y,-z
1/2+x,1/2-y,z
loop_
_atom_site_type_symbol
_atom_site_label
_atom_site_fract_x
_atom_site_fract_y
_atom_site_fract_z
Si Si1 0.767829 0.152549 0.746050
Si Si2 0.664678 0.568932 0.488247
Si Si3 0.727109 0.222478 0.131326
Si Si4 0.951602 0.699343 0.266232
Si Si5 0.860918 0.367968 0.522580
Si Si6 0.398624 0.331886 0.193449
Si Si7 0.928671 0.071435 0.800247
O O1 0.838266 0.123173 0.599507
O O2 0.806316 0.221570 0.764313
O O3 0.620682 0.161446 0.787106
O O4 0.802853 0.106531 0.824029
O O5 0.667054 0.500000 0.434877
O O6 0.794793 0.578521 0.485892
O O7 0.539662 0.572282 0.640019
O O8 0.600859 0.179188 0.195056
O O9 0.857322 0.190421 0.098843
O O10 0.750000 0.250000 0.000000
O O11 0.883107 0.687478 0.421877
O O12 0.946462 0.771605 0.233705
O O13 0.743820 0.350713 0.672790
O O14 0.000000 0.380956 0.500000
O O15 0.500143 0.387640 0.149871
O O16 0.903177 0.000000 0.844992
#
# Coordination Sequence:
#
# PCOD9174253 Si02
#       7
#     8   8   8   8   8   8   8
#     4  10  20  34  55  81 111 150 188 233 286 336
#     4   9  19  33  53  84 118 153 190 228 277 350
#     4  11  23  39  59  80 111 153 198 245 291 338
#     4  10  20  36  53  85 114 146 186 234 295 347
#     4  10  18  31  53  81 120 146 179 226 293 356
#     4  10  20  35  55  84 116 149 186 232 289 345
#     4  10  19  35  59  88 122 154 189 231 283 349
#
# _framework density 20.833200000000001
#
# number of rings (size 3 to 8) (size 9 to 14) (size 15 to 20)
#    0.000    2.000    2.857    1.286    0.000    4.857 
#    5.143    0.000    0.000    2.571    0.000    9.000 
#    0.000    0.000    0.000    0.000    0.000    0.000 
#
# Total GULP energy -156200.672949 kJ/mol
# GULP energy per Si atom -5578.595462 kJ/mol
# Density = 2.078578 g / cm^3
# Si number density = 20.833200 Si / 1000 Ang^3
#
#
#
# Elastic Constant Matrix: (Units=GPa)
#
#
# Indices 1 2 3 4 5 6 
#
# 1 186.7988 54.9126 15.3085 0.0000 16.2246 0.0000
# 2 54.9126 102.1553 12.0139 0.0000 7.3518 0.0000
# 3 15.3085 12.0139 41.8628 0.0000 10.5368 0.0000
# 4 0.0000 0.0000 0.0000 13.5670 0.0000 6.5924
# 5 16.2246 7.3518 10.5368 0.0000 26.1075 0.0000
# 6 0.0000 0.0000 0.0000 6.5924 0.0000 27.5952
#
#
#
# Elastic Compliance Matrix: (Units=1/GPa)
#
#
# Indices 1 2 3 4 5 6 
#
# 1 0.006626 -0.003265 -0.000758 0.000000 -0.002893 0.000000
# 2 -0.003265 0.011822 -0.002083 0.000000 -0.000459 0.000000
# 3 -0.000758 -0.002083 0.027266 0.000000 -0.009947 0.000000
# 4 0.000000 0.000000 0.000000 0.083388 0.000000 -0.019921
# 5 -0.002893 -0.000459 -0.009947 0.000000 0.044245 0.000000
# 6 0.000000 0.000000 0.000000 -0.019921 0.000000 0.040997
#
#
# Mechanical properties :
#
#
# Convention : Reuss Voigt Hill
#
# Bulk Modulus (GPa) = 29.84852 55.03189 42.44020
# Shear Modulus (GPa) = 21.03278 30.02606 25.52942
#
# Velocity S-wave (km/s) = 3.18084 3.80051 3.50440
# Velocity P-wave (km/s) = 5.27719 6.76249 6.06548
#
# Compressibility (1/GPa) = 0.03350250
#
# Stress axis : x y z
#
# Youngs Moduli (GPa) = 150.91075 84.58838 36.67538
#
# Poissons Ratio (x) = 0.27615 0.02781
# Poissons Ratio (y) = 0.49267 0.07640
# Poissons Ratio (z) = 0.11442 0.17622
#
# Static dielectric constant tensor:
#      x y z
#    x 1.792090 0.000000 0.011520 
#    y 0.000000 1.744320 0.000000 
#    z 0.011520 0.000000 1.788850 
# 
# From -- ./inp_files/135257.got.cif
#   From: 2010.05.17/outbox.cif.g08.bks.cpg/sg12_68_cif.got.tgz:135257.got - 2010.06.03 13:09:07.
