data_PCOD9174540
_publ_section_title
;
Structure prediction by ZEFSAII (Michael W. Deem and Ramdas Pophale) SiO2 
 PCOD9174540
Probable space group: C 2/M
;
_chemical_formula_sum "Si O2"
_cell_formula_units_Z 64
_cell_length_a 18.704696
_cell_length_b 14.048814
_cell_length_c 19.482443
_cell_angle_alpha 90.000000
_cell_angle_beta 31.125716
_cell_angle_gamma 90.000000
_cell_volume 2646.397305
_symmetry_space_group_name_H-M "C 2/M"
_symmetry_group_IT_number 12
_symmetry_cell_setting 'monoclinic'
loop_
_space_group_symop_operation_xyz
x,y,z
-x,y,-z
-x,-y,-z
x,-y,z
1/2+x,1/2+y,z
1/2-x,1/2+y,-z
1/2-x,1/2-y,-z
1/2+x,1/2-y,z
loop_
_atom_site_type_symbol
_atom_site_label
_atom_site_fract_x
_atom_site_fract_y
_atom_site_fract_z
Si Si1 0.865480 0.359056 0.967043
Si Si2 0.838428 0.356971 0.289959
Si Si3 0.861543 0.835724 0.358864
Si Si4 0.735400 0.815851 0.799962
Si Si5 0.052815 0.182156 0.556592
Si Si6 0.262284 0.899294 0.816358
Si Si7 0.381685 0.367430 0.926691
Si Si8 0.576715 0.894453 0.550185
O O1 0.878408 0.247169 0.937172
O O2 0.011227 0.401564 0.822379
O O3 0.830667 0.359392 0.076695
O O4 0.734245 0.394884 0.032914
O O5 0.838711 0.263493 0.338078
O O6 0.842531 0.341167 0.204994
O O7 0.678617 0.386778 0.432041
O O8 0.935500 0.815728 0.370154
O O9 0.711644 0.884736 0.487400
O O10 0.967664 0.892793 0.224302
O O11 0.732968 0.700380 0.804534
O O12 0.897558 0.844493 0.664182
O O13 0.076916 0.292286 0.510359
O O14 0.423032 0.893281 0.708752
O O15 0.248792 0.000000 0.788514
O O16 0.162228 0.902371 0.963267
O O17 0.587414 0.000000 0.507455
#
# Coordination Sequence:
#
# PCOD9174540 Si02
#       8
#     8   8   8   8   8   8   8   8
#     4   9  17  28  46  69  94 121 159 203 252 293
#     4  10  19  27  47  71  96 130 165 202 250 294
#     4  10  19  32  49  72  97 131 166 212 258 296
#     4  10  18  32  46  67 104 131 162 201 251 301
#     4  10  19  32  49  69 100 132 168 208 256 296
#     4   9  19  32  49  70 100 137 174 205 238 295
#     4   9  17  29  49  70  91 126 162 208 255 290
#     4   9  18  30  46  69  97 127 161 207 245 285
#
# _framework density 24.183821999999999
#
# number of rings (size 3 to 8) (size 9 to 14) (size 15 to 20)
#    0.000    2.500    1.250    2.250    7.000    0.500 
#    0.000    2.500    0.000   19.500    0.000    0.000 
#    0.000   15.000    0.000    0.000    0.000    0.000 
#
# Total GULP energy -178366.742404 kJ/mol
# GULP energy per Si atom -5573.960700 kJ/mol
# Density = 2.412878 g / cm^3
# Si number density = 24.183822 Si / 1000 Ang^3
#
#
#
# Elastic Constant Matrix: (Units=GPa)
#
#
# Indices 1 2 3 4 5 6 
#
# 1 64.3618 -13.4091 -2.4659 -0.0001 4.7215 0.0001
# 2 -13.4091 83.6104 11.5940 -0.0004 -7.3772 0.0003
# 3 -2.4659 11.5940 123.1458 0.0000 -21.2766 0.0002
# 4 -0.0001 -0.0004 0.0000 -20.4831 -0.0001 0.9598
# 5 4.7215 -7.3772 -21.2766 -0.0001 35.3616 -0.0001
# 6 0.0001 0.0003 0.0002 0.9598 -0.0001 -14.6662
#
#
#
# Elastic Compliance Matrix: (Units=1/GPa)
#
#
# Indices 1 2 3 4 5 6 
#
# 1 0.016173 0.002467 -0.000215 0.000000 -0.001774 0.000000
# 2 0.002467 0.012630 -0.000827 0.000000 0.001808 0.000000
# 3 -0.000215 -0.000827 0.009117 0.000000 0.005342 0.000000
# 4 0.000000 0.000000 0.000000 -0.048971 0.000000 -0.003205
# 5 -0.001774 0.001808 0.005342 0.000000 0.032107 0.000000
# 6 0.000000 0.000000 0.000000 -0.003205 0.000000 -0.068394
#
#
# Mechanical properties :
#
#
# Convention : Reuss Voigt Hill
#
# Bulk Modulus (GPa) = 24.52808 29.17288 26.85048
# Shear Modulus (GPa) = -136.62411 18.40239 -59.11086
#
# Velocity S-wave (km/s) = -7.52440 2.76150 -4.94928
# Velocity P-wave (km/s) = 8.08236 4.71774 4.64045
#
# Compressibility (1/GPa) = 0.04076959
#
# Stress axis : x y z
#
# Youngs Moduli (GPa) = 61.83126 79.17587 109.68572
#
# Poissons Ratio (x) = -0.19533 0.02357
# Poissons Ratio (y) = -0.15254 0.09075
# Poissons Ratio (z) = 0.01329 0.06551
#
# Static dielectric constant tensor:
#      x y z
#    x 1.875620 0.000000 -0.009780 
#    y 0.000000 1.923400 0.000000 
#    z -0.009780 0.000000 1.955800 
# 
# From -- ./inp_files/322852.got.cif
#   From: 2010.05.17/outbox.cif.g08.bks.cpg/sg12_162_cif.got.tgz:322852.got - 2010.06.03 13:09:07.
