data_PCOD9174583
_publ_section_title
;
Structure prediction by ZEFSAII (Michael W. Deem and Ramdas Pophale) SiO2 
 PCOD9174583
Probable space group: C 2/M
;
_chemical_formula_sum "Si O2"
_cell_formula_units_Z 56
_cell_length_a 27.325339
_cell_length_b 13.707288
_cell_length_c 10.162015
_cell_angle_alpha 90.000000
_cell_angle_beta 54.491677
_cell_angle_gamma 90.000000
_cell_volume 3098.403357
_symmetry_space_group_name_H-M "C 2/M"
_symmetry_group_IT_number 12
_symmetry_cell_setting 'monoclinic'
loop_
_space_group_symop_operation_xyz
x,y,z
-x,y,-z
-x,-y,-z
x,-y,z
1/2+x,1/2+y,z
1/2-x,1/2+y,-z
1/2-x,1/2-y,-z
1/2+x,1/2-y,z
loop_
_atom_site_type_symbol
_atom_site_label
_atom_site_fract_x
_atom_site_fract_y
_atom_site_fract_z
Si Si1 0.333670 0.806346 0.772376
Si Si2 0.745879 0.610026 0.406624
Si Si3 0.741852 0.391792 0.111788
Si Si4 0.050736 0.783889 0.309060
Si Si5 0.034918 0.216710 0.807408
Si Si6 0.839194 0.297710 0.455383
Si Si7 0.551796 0.500000 0.308405
Si Si8 0.467853 0.500000 0.189636
O O1 0.302528 0.699551 0.830734
O O2 0.398551 0.794193 0.737374
O O3 0.337771 0.829018 0.610847
O O4 0.292098 0.877607 0.922028
O O5 0.723056 0.500000 0.464544
O O6 0.767300 0.615491 0.221030
O O7 0.799506 0.633845 0.423410
O O8 0.694861 0.692652 0.500496
O O9 0.714174 0.500000 0.143423
O O10 0.080240 0.892863 0.271502
O O11 0.000000 0.780156 0.500000
O O12 0.015070 0.771686 0.228481
O O13 0.092070 0.286024 0.698280
O O14 0.061822 0.105917 0.751859
O O15 0.000000 0.226206 0.000000
O O16 0.500000 0.500000 0.500000
O O17 0.518543 0.500000 0.221261
O O18 0.500000 0.500000 0.000000
#
# Coordination Sequence:
#
# PCOD9174583 Si02
#       8
#     8   8   8   8   8   8   4   4
#     4  10  20  34  57  81 111 142 176 221 269 323
#     4   9  20  38  58  79 104 141 186 227 264 312
#     4   9  20  38  57  80 106 140 182 227 270 310
#     4  10  18  32  49  79 109 140 175 215 267 324
#     4  10  20  32  51  77 111 145 176 216 264 322
#     4  10  20  35  56  82 108 143 181 218 270 317
#     4   8  16  26  42  68 102 136 168 202 246 310
#     4   8  16  30  42  64 106 140 170 202 248 308
#
# _framework density 18.073824999999999
#
# number of rings (size 3 to 8) (size 9 to 14) (size 15 to 20)
#    0.000    2.571    1.429    0.000    4.000    0.571 
#    0.000    0.000    0.000    1.714    0.000    0.000 
#    0.000    0.000    0.000    0.000    0.000    0.000 
#
# Total GULP energy -155889.374557 kJ/mol
# GULP energy per Si atom -5567.477663 kJ/mol
# Density = 1.803269 g / cm^3
# Si number density = 18.073825 Si / 1000 Ang^3
#
#
#
# Elastic Constant Matrix: (Units=GPa)
#
#
# Indices 1 2 3 4 5 6 
#
# 1 86.2602 4.5501 49.7773 0.0000 16.1905 0.0000
# 2 4.5501 34.8851 11.7090 0.0000 8.8489 0.0000
# 3 49.7773 11.7090 90.5402 0.0000 17.2624 0.0000
# 4 0.0000 0.0000 0.0000 20.5324 0.0000 -1.0138
# 5 16.1905 8.8489 17.2624 0.0000 23.9076 0.0000
# 6 0.0000 0.0000 0.0000 -1.0138 0.0000 25.0834
#
#
#
# Elastic Compliance Matrix: (Units=1/GPa)
#
#
# Indices 1 2 3 4 5 6 
#
# 1 0.017795 0.002299 -0.008838 0.000000 -0.006521 0.000000
# 2 0.002299 0.032300 -0.003322 0.000000 -0.011113 0.000000
# 3 -0.008838 -0.003322 0.017346 0.000000 -0.005310 0.000000
# 4 0.000000 0.000000 0.000000 0.048801 0.000000 0.001972
# 5 -0.006521 -0.011113 -0.005310 0.000000 0.054191 0.000000
# 6 0.000000 0.000000 0.000000 0.001972 0.000000 0.039947
#
#
# Mechanical properties :
#
#
# Convention : Reuss Voigt Hill
#
# Bulk Modulus (GPa) = 20.95585 38.19535 29.57560
# Shear Modulus (GPa) = 20.32463 23.61463 21.96963
#
# Velocity S-wave (km/s) = 3.35705 3.61857 3.49026
# Velocity P-wave (km/s) = 5.16199 6.21591 5.71330
#
# Compressibility (1/GPa) = 0.04771938
#
# Stress axis : x y z
#
# Youngs Moduli (GPa) = 56.19453 30.95997 57.65169
#
# Poissons Ratio (x) = -0.07119 0.50950
# Poissons Ratio (y) = -0.12921 0.19154
# Poissons Ratio (z) = 0.49662 0.10286
#
# Static dielectric constant tensor:
#      x y z
#    x 1.600510 0.000000 0.017400 
#    y 0.000000 1.651680 0.000000 
#    z 0.017400 0.000000 1.603660 
# 
# From -- ./inp_files/104483.got.cif
#   From: 2010.05.17/outbox.cif.g08.bks.cpg/sg12_53_cif.got.tgz:104483.got - 2010.06.03 13:09:07.
