data_PCOD9174216
_publ_section_title
;
Structure prediction by ZEFSAII (Michael W. Deem and Ramdas Pophale) SiO2 
 PCOD9174216
Probable space group: C 2/M
;
_chemical_formula_sum "Si O2"
_cell_formula_units_Z 64
_cell_length_a 17.002604
_cell_length_b 13.543247
_cell_length_c 15.987031
_cell_angle_alpha 90.000000
_cell_angle_beta 115.612720
_cell_angle_gamma 90.000000
_cell_volume 3319.599903
_symmetry_space_group_name_H-M "C 2/M"
_symmetry_group_IT_number 12
_symmetry_cell_setting 'monoclinic'
loop_
_space_group_symop_operation_xyz
x,y,z
-x,y,-z
-x,-y,-z
x,-y,z
1/2+x,1/2+y,z
1/2-x,1/2+y,-z
1/2-x,1/2-y,-z
1/2+x,1/2-y,z
loop_
_atom_site_type_symbol
_atom_site_label
_atom_site_fract_x
_atom_site_fract_y
_atom_site_fract_z
Si Si1 0.683125 0.887770 0.427602
Si Si2 0.788797 0.182280 0.635353
Si Si3 0.972175 0.880852 0.759457
Si Si4 0.086745 0.887793 0.092858
Si Si5 0.985976 0.613587 0.394967
Si Si6 0.185362 0.299622 0.751584
Si Si7 0.742981 0.380791 0.054278
Si Si8 0.821202 0.882333 0.158753
O O1 0.728826 0.870993 0.538856
O O2 0.716957 0.799575 0.384675
O O3 0.579128 0.875741 0.393053
O O4 0.700268 0.000000 0.407354
O O5 0.751547 0.158337 0.711222
O O6 0.889910 0.152081 0.666036
O O7 0.074557 0.858701 0.797108
O O8 0.941229 0.838300 0.834568
O O9 0.970673 0.000000 0.760385
O O10 0.158208 0.842654 0.065725
O O11 0.117221 0.000000 0.126218
O O12 0.000000 0.896635 0.000000
O O13 0.955769 0.500000 0.368506
O O14 0.910823 0.685430 0.329006
O O15 0.000000 0.627888 0.500000
O O16 0.185345 0.348852 0.844555
O O17 0.210893 0.186550 0.781404
O O18 0.742646 0.500000 0.050996
O O19 0.728361 0.352941 0.950553
O O20 0.811788 0.000000 0.165678
#
# Coordination Sequence:
#
# PCOD9174216 Si02
#       8
#     8   8   8   8   8   8   8   8
#     4  10  22  40  56  74 106 140 174 217 269 320
#     4  11  22  34  56  83 103 134 177 223 264 313
#     4  10  18  31  53  79 105 133 171 216 263 310
#     4   9  14  24  46  73 100 129 161 204 258 305
#     4  10  20  36  59  83 107 136 172 223 280 320
#     4  12  22  34  55  83 110 139 183 222 262 319
#     4  10  19  32  52  80 109 139 179 224 268 308
#     4  10  22  37  52  74 113 154 178 210 262 321
#
# _framework density 19.279432
#
# number of rings (size 3 to 8) (size 9 to 14) (size 15 to 20)
#    0.000    1.750    3.750    1.875    0.000    1.500 
#    0.000    0.000    0.000    0.375    0.000    0.000 
#    0.000   11.000    0.000    0.000    0.000    0.000 
#
# Total GULP energy -178142.455830 kJ/mol
# GULP energy per Si atom -5566.951745 kJ/mol
# Density = 1.923555 g / cm^3
# Si number density = 19.279432 Si / 1000 Ang^3
#
#
#
# Elastic Constant Matrix: (Units=GPa)
#
#
# Indices 1 2 3 4 5 6 
#
# 1 23.4356 6.5155 13.3022 0.0000 8.3604 0.0000
# 2 6.5155 57.6970 21.7707 0.0000 2.3000 0.0000
# 3 13.3022 21.7707 69.8836 0.0000 6.1565 0.0000
# 4 0.0000 0.0000 0.0000 40.0604 0.0000 -37.2806
# 5 8.3604 2.3000 6.1565 0.0000 23.8337 0.0000
# 6 0.0000 0.0000 0.0000 -37.2806 0.0000 141.1916
#
#
#
# Elastic Compliance Matrix: (Units=1/GPa)
#
#
# Indices 1 2 3 4 5 6 
#
# 1 0.053807 -0.002382 -0.008040 0.000000 -0.016568 0.000000
# 2 -0.002382 0.019749 -0.005735 0.000000 0.000411 0.000000
# 3 -0.008040 -0.005735 0.017733 0.000000 -0.001207 0.000000
# 4 0.000000 0.000000 0.000000 0.033094 0.000000 0.008738
# 5 -0.016568 0.000411 -0.001207 0.000000 0.048041 0.000000
# 6 0.000000 0.000000 0.000000 0.008738 0.000000 0.009390
#
#
# Mechanical properties :
#
#
# Convention : Reuss Voigt Hill
#
# Bulk Modulus (GPa) = 16.95682 26.02146 21.48914
# Shear Modulus (GPa) = 21.38712 48.31232 34.84972
#
# Velocity S-wave (km/s) = 3.33426 5.01133 4.25621
# Velocity P-wave (km/s) = 4.86184 6.85644 5.94341
#
# Compressibility (1/GPa) = 0.05897332
#
# Stress axis : x y z
#
# Youngs Moduli (GPa) = 18.58510 50.63674 56.39224
#
# Poissons Ratio (x) = 0.12061 0.45342
# Poissons Ratio (y) = 0.04427 0.32341
# Poissons Ratio (z) = 0.14943 0.29041
#
# Static dielectric constant tensor:
#      x y z
#    x 1.686010 0.000000 0.012200 
#    y 0.000000 1.710340 0.000000 
#    z 0.012200 0.000000 1.721820 
# 
# From -- ./inp_files/225348.got.cif
#   From: 2010.05.17/outbox.cif.g08.bks.cpg/sg12_113_cif.got.tgz:225348.got - 2010.06.03 13:09:07.
