data_PCOD9174957
_publ_section_title
;
Structure prediction by ZEFSAII (Michael W. Deem and Ramdas Pophale) SiO2 
 PCOD9174957
Probable space group: C 2/M
;
_chemical_formula_sum "Si O2"
_cell_formula_units_Z 58
_cell_length_a 13.987944
_cell_length_b 13.357436
_cell_length_c 16.099182
_cell_angle_alpha 90.000000
_cell_angle_beta 112.812922
_cell_angle_gamma 90.000000
_cell_volume 2772.720330
_symmetry_space_group_name_H-M "C 2/M"
_symmetry_group_IT_number 12
_symmetry_cell_setting 'monoclinic'
loop_
_space_group_symop_operation_xyz
x,y,z
-x,y,-z
-x,-y,-z
x,-y,z
1/2+x,1/2+y,z
1/2-x,1/2+y,-z
1/2-x,1/2-y,-z
1/2+x,1/2-y,z
loop_
_atom_site_type_symbol
_atom_site_label
_atom_site_fract_x
_atom_site_fract_y
_atom_site_fract_z
Si Si1 0.107098 0.112836 0.399904
Si Si2 0.968728 0.296711 0.372340
Si Si3 0.822325 0.384711 0.196236
Si Si4 0.399236 0.615477 0.801786
Si Si5 0.341360 0.882757 0.481042
Si Si6 0.186065 0.384859 0.006549
Si Si7 0.500000 0.500000 0.000000
Si Si8 0.096925 0.185307 0.950521
O O1 0.110108 0.112995 0.300306
O O2 0.223700 0.143807 0.465382
O O3 0.016673 0.186863 0.396209
O O4 0.088373 0.000000 0.422168
O O5 0.910939 0.317910 0.267211
O O6 0.886962 0.323325 0.417320
O O7 0.071008 0.365425 0.419874
O O8 0.840587 0.500000 0.229071
O O9 0.710918 0.356801 0.196962
O O10 0.821218 0.383215 0.096625
O O11 0.428747 0.500000 0.841898
O O12 0.493900 0.684176 0.860816
O O13 0.338457 0.000000 0.457025
O O14 0.166971 0.500000 0.027497
O O15 0.113892 0.289946 0.003428
O O16 0.301112 0.345502 0.067520
O O17 0.583818 0.590051 0.005479
#
# Coordination Sequence:
#
# PCOD9174957 Si02
#       8
#     8   8   8   8   8   8   2   8
#     4  10  21  35  53  80 112 145 182 226 271 329
#     4  11  19  33  56  81 109 142 184 227 278 322
#     4  10  19  32  56  83 108 139 181 230 275 323
#     4  10  18  32  54  82 110 140 184 228 272 320
#     4  10  20  36  56  81 108 137 182 233 273 325
#     4  10  21  36  53  83 117 144 179 231 285 332
#     4  12  20  36  58  84 104 142 194 224 264 324
#     4  11  21  34  57  83 112 144 186 231 270 331
#
# _framework density 20.918084
#
# number of rings (size 3 to 8) (size 9 to 14) (size 15 to 20)
#    0.000    1.655    2.759    3.724    1.931    0.000 
#    0.000    1.724    0.000    3.310    0.000    0.000 
#    0.000    0.000    0.000    0.000    0.000    0.000 
#
# Total GULP energy -161754.018648 kJ/mol
# GULP energy per Si atom -5577.724781 kJ/mol
# Density = 2.087047 g / cm^3
# Si number density = 20.918084 Si / 1000 Ang^3
#
#
#
# Elastic Constant Matrix: (Units=GPa)
#
#
# Indices 1 2 3 4 5 6 
#
# 1 65.6244 48.6014 21.8295 0.0000 28.5744 0.0000
# 2 48.6014 160.3929 14.1798 0.0000 18.4282 0.0000
# 3 21.8295 14.1798 63.5476 0.0000 25.3832 0.0000
# 4 0.0000 0.0000 0.0000 12.2180 0.0000 26.5595
# 5 28.5744 18.4282 25.3832 0.0000 35.5348 0.0000
# 6 0.0000 0.0000 0.0000 26.5595 0.0000 15.3847
#
#
#
# Elastic Compliance Matrix: (Units=1/GPa)
#
#
# Indices 1 2 3 4 5 6 
#
# 1 0.028531 -0.006385 -0.000748 0.000000 -0.019097 0.000000
# 2 -0.006385 0.008060 0.000019 0.000000 0.000941 0.000000
# 3 -0.000748 0.000019 0.022042 0.000000 -0.015153 0.000000
# 4 0.000000 0.000000 0.000000 -0.029733 0.000000 0.051329
# 5 -0.019097 0.000941 -0.015153 0.000000 0.053834 0.000000
# 6 0.000000 0.000000 0.000000 0.051329 0.000000 -0.023613
#
#
# Mechanical properties :
#
#
# Convention : Reuss Voigt Hill
#
# Bulk Modulus (GPa) = 22.52039 50.97624 36.74832
# Shear Modulus (GPa) = 56.72113 26.29113 41.50613
#
# Velocity S-wave (km/s) = 5.21294 3.54907 4.45929
# Velocity P-wave (km/s) = 6.85728 6.42004 6.64226
#
# Compressibility (1/GPa) = 0.04440420
#
# Stress axis : x y z
#
# Youngs Moduli (GPa) = 35.04941 124.07479 45.36863
#
# Poissons Ratio (x) = 0.79223 0.03394
# Poissons Ratio (y) = 0.22379 -0.00086
# Poissons Ratio (z) = 0.02622 -0.00236
#
# Static dielectric constant tensor:
#      x y z
#    x 1.758880 0.000000 0.020430 
#    y 0.000000 1.799680 0.000000 
#    z 0.020430 0.000000 1.680980 
# 
# From -- ./inp_files/268819.got.cif
#   From: 2010.05.17/outbox.cif.g08.bks.cpg/sg12_135_cif.got.tgz:268819.got - 2010.06.03 13:09:07.
