data_PCOD9174398
_publ_section_title
;
Structure prediction by ZEFSAII (Michael W. Deem and Ramdas Pophale) SiO2 
 PCOD9174398
Probable space group: C 2/M
;
_chemical_formula_sum "Si O2"
_cell_formula_units_Z 40
_cell_length_a 20.994204
_cell_length_b 17.247118
_cell_length_c 6.303520
_cell_angle_alpha 90.000000
_cell_angle_beta 58.124165
_cell_angle_gamma 90.000000
_cell_volume 1938.234181
_symmetry_space_group_name_H-M "C 2/M"
_symmetry_group_IT_number 12
_symmetry_cell_setting 'monoclinic'
loop_
_space_group_symop_operation_xyz
x,y,z
-x,y,-z
-x,-y,-z
x,-y,z
1/2+x,1/2+y,z
1/2-x,1/2+y,-z
1/2-x,1/2-y,-z
1/2+x,1/2-y,z
loop_
_atom_site_type_symbol
_atom_site_label
_atom_site_fract_x
_atom_site_fract_y
_atom_site_fract_z
Si Si1 0.354195 0.268470 0.741278
Si Si2 0.473384 0.810304 0.260456
Si Si3 0.279671 0.588941 0.631555
Si Si4 0.103360 0.409362 0.944833
Si Si5 0.274187 0.308143 0.269017
O O1 0.431048 0.243318 0.498158
O O2 0.326766 0.349301 0.683893
O O3 0.294192 0.202545 0.774307
O O4 0.345691 0.280486 0.007764
O O5 0.415938 0.872381 0.251914
O O6 0.500000 0.765151 0.000000
O O7 0.546064 0.861629 0.194843
O O8 0.300319 0.500000 0.632958
O O9 0.190970 0.598605 0.837129
O O10 0.286448 0.612304 0.370757
O O11 0.084930 0.500000 0.980328
O O12 0.250000 0.250000 0.500000
#
# Coordination Sequence:
#
# PCOD9174398 Si02
#       5
#     8   8   8   8   8
#     4  10  18  31  55  81 102 139 188 231 273 322
#     4   8  15  27  49  78 109 141 180 225 267 321
#     4  10  19  32  53  81 112 143 177 228 281 328
#     4   8  15  28  49  80 117 148 172 214 275 331
#     4   9  18  33  52  75 107 142 185 232 267 316
#
# _framework density 20.637340999999999
#
# number of rings (size 3 to 8) (size 9 to 14) (size 15 to 20)
#    1.200    1.600    2.000    1.200    0.000    0.800 
#    0.000    0.000    0.000   36.600    0.000   26.600 
#    0.000    0.000    0.000    0.000    0.000    0.400 
#
# Total GULP energy -111408.724437 kJ/mol
# GULP energy per Si atom -5570.436222 kJ/mol
# Density = 2.059037 g / cm^3
# Si number density = 20.637341 Si / 1000 Ang^3
#
#
#
# Elastic Constant Matrix: (Units=GPa)
#
#
# Indices 1 2 3 4 5 6 
#
# 1 66.9339 48.1735 41.6932 0.0000 -10.7076 0.0000
# 2 48.1735 134.4855 71.1654 0.0000 -12.8163 0.0000
# 3 41.6932 71.1654 170.7982 0.0000 -24.4379 0.0000
# 4 0.0000 0.0000 0.0000 23.7171 0.0000 -6.7816
# 5 -10.7076 -12.8163 -24.4379 0.0000 31.3624 0.0000
# 6 0.0000 0.0000 0.0000 -6.7816 0.0000 31.7261
#
#
#
# Elastic Compliance Matrix: (Units=1/GPa)
#
#
# Indices 1 2 3 4 5 6 
#
# 1 0.021213 -0.006157 -0.002180 0.000000 0.003028 0.000000
# 2 -0.006157 0.011348 -0.003222 0.000000 0.000025 0.000000
# 3 -0.002180 -0.003222 0.008367 0.000000 0.004459 0.000000
# 4 0.000000 0.000000 0.000000 0.044908 0.000000 0.009599
# 5 0.003028 0.000025 0.004459 0.000000 0.036404 0.000000
# 6 0.000000 0.000000 0.000000 0.009599 0.000000 0.033572
#
#
# Mechanical properties :
#
#
# Convention : Reuss Voigt Hill
#
# Bulk Modulus (GPa) = 56.14108 77.14241 66.64175
# Shear Modulus (GPa) = 27.04634 31.44018 29.24326
#
# Velocity S-wave (km/s) = 3.62408 3.90739 3.76840
# Velocity P-wave (km/s) = 6.69139 7.60382 7.16215
#
# Compressibility (1/GPa) = 0.01781227
#
# Stress axis : x y z
#
# Youngs Moduli (GPa) = 47.14001 88.11751 119.51012
#
# Poissons Ratio (x) = 0.54251 0.26051
# Poissons Ratio (y) = 0.29023 0.38507
# Poissons Ratio (z) = 0.10276 0.28392
#
# Static dielectric constant tensor:
#      x y z
#    x 1.823950 0.000000 0.009150 
#    y 0.000000 1.741590 0.000000 
#    z 0.009150 0.000000 1.827030 
# 
# From -- ./inp_files/24680.got.cif
#   From: 2010.05.17/outbox.cif.g08.bks.cpg/sg12_13_cif.got.tgz:24680.got - 2010.06.03 13:09:07.
