data_PCOD9174547
_publ_section_title
;
Structure prediction by ZEFSAII (Michael W. Deem and Ramdas Pophale) SiO2 
 PCOD9174547
Probable space group: C 2/M
;
_chemical_formula_sum "Si O2"
_cell_formula_units_Z 56
_cell_length_a 9.046284
_cell_length_b 24.359005
_cell_length_c 22.901184
_cell_angle_alpha 90.000000
_cell_angle_beta 42.042536
_cell_angle_gamma 90.000000
_cell_volume 3379.530788
_symmetry_space_group_name_H-M "C 2/M"
_symmetry_group_IT_number 12
_symmetry_cell_setting 'monoclinic'
loop_
_space_group_symop_operation_xyz
x,y,z
-x,y,-z
-x,-y,-z
x,-y,z
1/2+x,1/2+y,z
1/2-x,1/2+y,-z
1/2-x,1/2-y,-z
1/2+x,1/2-y,z
loop_
_atom_site_type_symbol
_atom_site_label
_atom_site_fract_x
_atom_site_fract_y
_atom_site_fract_z
Si Si1 0.457357 0.620125 0.411546
Si Si2 0.054584 0.690742 0.581140
Si Si3 0.795379 0.500000 0.642707
Si Si4 0.940919 0.791189 0.823725
Si Si5 0.760773 0.283095 0.349132
Si Si6 0.196966 0.000000 0.531345
Si Si7 0.994518 0.225549 0.938632
Si Si8 0.129571 0.884842 0.700163
O O1 0.257594 0.658074 0.493750
O O2 0.674758 0.655569 0.361398
O O3 0.428734 0.557731 0.443704
O O4 0.434761 0.616737 0.348691
O O5 0.107423 0.713031 0.629747
O O6 0.950342 0.743326 0.579755
O O7 0.858999 0.647026 0.639760
O O8 0.748812 0.500000 0.586115
O O9 0.680343 0.446638 0.702351
O O10 0.061507 0.500000 0.569789
O O11 0.690959 0.769238 0.891644
O O12 0.093657 0.746572 0.743957
O O13 0.030949 0.799251 0.863352
O O14 0.958353 0.849245 0.786562
O O15 0.000000 0.194000 0.000000
O O16 0.750000 0.250000 0.000000
#
# Coordination Sequence:
#
# PCOD9174547 Si02
#       8
#     8   8   4   8   8   4   8   8
#     4  11  20  33  47  66  92 135 181 217 248 278
#     4  11  21  33  44  66  95 134 175 211 248 291
#     4   9  16  32  49  72  89 131 180 215 254 276
#     4  10  18  32  47  75 104 123 153 195 243 298
#     4  11  22  32  47  69 100 132 161 209 255 290
#     4   9  18  32  50  63  92 130 185 232 240 275
#     4   9  18  32  53  75  99 125 146 176 233 314
#     4  10  19  31  53  70  96 131 169 215 251 283
#
# _framework density 16.570347999999999
#
# number of rings (size 3 to 8) (size 9 to 14) (size 15 to 20)
#    0.000    1.857    1.429    5.571    0.000    2.286 
#    0.000    2.143    0.000    0.000    0.000    5.000 
#    0.000    4.571    0.000    1.714    0.000    0.000 
#
# Total GULP energy -155949.031494 kJ/mol
# GULP energy per Si atom -5569.608268 kJ/mol
# Density = 1.653263 g / cm^3
# Si number density = 16.570348 Si / 1000 Ang^3
#
#
#
# Elastic Constant Matrix: (Units=GPa)
#
#
# Indices 1 2 3 4 5 6 
#
# 1 76.5406 17.7898 15.6371 0.0000 7.6041 0.0000
# 2 17.7898 106.2792 18.3477 0.0000 -10.2813 0.0000
# 3 15.6371 18.3477 57.7750 0.0002 5.2206 0.0001
# 4 0.0000 0.0000 0.0002 9.9867 -0.0001 3.0153
# 5 7.6041 -10.2813 5.2206 -0.0001 29.2848 -0.0001
# 6 0.0000 0.0000 0.0001 3.0153 -0.0001 22.4581
#
#
#
# Elastic Compliance Matrix: (Units=1/GPa)
#
#
# Indices 1 2 3 4 5 6 
#
# 1 0.014599 -0.002352 -0.002833 0.000000 -0.004112 0.000000
# 2 -0.002352 0.010850 -0.003261 0.000000 0.005001 0.000000
# 3 -0.002833 -0.003261 0.019461 0.000000 -0.003879 0.000000
# 4 0.000000 0.000000 0.000000 0.104363 0.000000 -0.014012
# 5 -0.004112 0.005001 -0.003879 0.000000 0.037662 0.000000
# 6 0.000000 0.000000 0.000000 -0.014012 0.000000 0.046409
#
#
# Mechanical properties :
#
#
# Convention : Reuss Voigt Hill
#
# Bulk Modulus (GPa) = 35.69126 38.23823 36.96475
# Shear Modulus (GPa) = 19.26223 24.93392 22.09808
#
# Velocity S-wave (km/s) = 3.41317 3.88330 3.65580
# Velocity P-wave (km/s) = 6.09254 6.57518 6.33846
#
# Compressibility (1/GPa) = 0.02801807
#
# Stress axis : x y z
#
# Youngs Moduli (GPa) = 68.49828 92.16857 51.38427
#
# Poissons Ratio (x) = 0.21682 0.14556
# Poissons Ratio (y) = 0.16114 0.16755
# Poissons Ratio (z) = 0.19403 0.30054
#
# Static dielectric constant tensor:
#      x y z
#    x 1.576100 0.000000 0.010670 
#    y 0.000000 1.564050 0.000000 
#    z 0.010670 0.000000 1.613230 
# 
# From -- ./inp_files/302094.got.cif
#   From: 2010.05.17/outbox.cif.g08.bks.cpg/sg12_152_cif.got.tgz:302094.got - 2010.06.03 13:09:07.
