data_PCOD9174153
_publ_section_title
;
Structure prediction by ZEFSAII (Michael W. Deem and Ramdas Pophale) SiO2 
 PCOD9174153
Probable space group: C 2/M
;
_chemical_formula_sum "Si O2"
_cell_formula_units_Z 48
_cell_length_a 11.981415
_cell_length_b 15.304538
_cell_length_c 13.881654
_cell_angle_alpha 90.000000
_cell_angle_beta 118.182973
_cell_angle_gamma 90.000000
_cell_volume 2243.696961
_symmetry_space_group_name_H-M "C 2/M"
_symmetry_group_IT_number 12
_symmetry_cell_setting 'monoclinic'
loop_
_space_group_symop_operation_xyz
x,y,z
-x,y,-z
-x,-y,-z
x,-y,z
1/2+x,1/2+y,z
1/2-x,1/2+y,-z
1/2-x,1/2-y,-z
1/2+x,1/2-y,z
loop_
_atom_site_type_symbol
_atom_site_label
_atom_site_fract_x
_atom_site_fract_y
_atom_site_fract_z
Si Si1 0.512549 0.208606 0.784565
Si Si2 0.919513 0.595700 0.368385
Si Si3 0.641911 0.328001 0.553266
Si Si4 0.368790 0.101965 0.009091
Si Si5 0.779646 0.399130 0.778327
Si Si6 0.175984 0.840353 0.355559
O O1 0.545778 0.169953 0.693703
O O2 0.620031 0.174333 0.902634
O O3 0.393545 0.155123 0.778711
O O4 0.454592 0.305664 0.745323
O O5 0.949952 0.500000 0.338469
O O6 0.770354 0.601217 0.331839
O O7 0.000000 0.602174 0.500000
O O8 0.500000 0.295172 0.500000
O O9 0.666457 0.384426 0.658275
O O10 0.737907 0.247057 0.596543
O O11 0.659428 0.374847 0.457517
O O12 0.352792 0.000000 0.035462
O O13 0.500000 0.103969 0.000000
O O14 0.265084 0.124942 0.884661
O O15 0.815259 0.500000 0.793005
#
# Coordination Sequence:
#
# PCOD9174153 Si02
#       6
#     8   8   8   8   8   8
#     4  10  18  31  53  74 101 137 174 212 267 317
#     4  11  21  32  50  77 106 140 183 224 263 314
#     4  10  19  32  50  70 101 140 175 208 263 323
#     4   8  14  27  49  76 102 128 167 222 270 304
#     4   9  17  29  49  78 105 131 171 221 266 309
#     4  10  20  32  49  73 103 138 173 218 266 313
#
# _framework density 21.393263999999999
#
# number of rings (size 3 to 8) (size 9 to 14) (size 15 to 20)
#    0.000    2.333    0.000    7.000    0.000    2.333 
#    0.000    0.000    0.000   29.000    0.000    0.000 
#    0.000   20.667    0.000    0.000    0.000    0.000 
#
# Total GULP energy -133703.594623 kJ/mol
# GULP energy per Si atom -5570.983109 kJ/mol
# Density = 2.134457 g / cm^3
# Si number density = 21.393264 Si / 1000 Ang^3
#
#
#
# Elastic Constant Matrix: (Units=GPa)
#
#
# Indices 1 2 3 4 5 6 
#
# 1 39.4714 2.6452 26.9558 0.0000 2.2632 0.0000
# 2 2.6452 36.4830 33.6776 0.0000 2.6812 0.0000
# 3 26.9558 33.6776 156.1226 0.0000 5.2128 0.0000
# 4 0.0000 0.0000 0.0000 -1.7225 0.0000 28.2241
# 5 2.2632 2.6812 5.2128 0.0000 15.6409 0.0000
# 6 0.0000 0.0000 0.0000 28.2241 0.0000 -31.0789
#
#
#
# Elastic Compliance Matrix: (Units=1/GPa)
#
#
# Indices 1 2 3 4 5 6 
#
# 1 0.029137 0.003315 -0.005649 0.000000 -0.002902 0.000000
# 2 0.003315 0.034787 -0.007950 0.000000 -0.003793 0.000000
# 3 -0.005649 -0.007950 0.009124 0.000000 -0.000861 0.000000
# 4 0.000000 0.000000 0.000000 0.041825 0.000000 0.037983
# 5 -0.002902 -0.003793 -0.000861 0.000000 0.065292 0.000000
# 6 0.000000 0.000000 0.000000 0.037983 0.000000 0.002318
#
#
# Mechanical properties :
#
#
# Convention : Reuss Voigt Hill
#
# Bulk Modulus (GPa) = 19.05451 39.84825 29.45138
# Shear Modulus (GPa) = 22.67127 7.82114 15.24620
#
# Velocity S-wave (km/s) = 3.25889 1.91411 2.67247
# Velocity P-wave (km/s) = 4.80486 4.85305 4.82901
#
# Compressibility (1/GPa) = 0.05248102
#
# Stress axis : x y z
#
# Youngs Moduli (GPa) = 34.32089 28.74650 109.59920
#
# Poissons Ratio (x) = -0.09530 0.61912
# Poissons Ratio (y) = -0.11378 0.87128
# Poissons Ratio (z) = 0.19388 0.22853
#
# Static dielectric constant tensor:
#      x y z
#    x 1.791980 0.000000 0.053350 
#    y 0.000000 1.819890 0.000000 
#    z 0.053350 0.000000 1.915390 
# 
# From -- ./inp_files/131772.got.cif
#   From: 2010.05.17/outbox.cif.g08.bks.cpg/sg12_66_cif.got.tgz:131772.got - 2010.06.03 13:09:07.
