data_PCOD9174762
_publ_section_title
;
Structure prediction by ZEFSAII (Michael W. Deem and Ramdas Pophale) SiO2 
 PCOD9174762
Probable space group: C 2/M
;
_chemical_formula_sum "Si O2"
_cell_formula_units_Z 48
_cell_length_a 17.185752
_cell_length_b 13.003631
_cell_length_c 9.525594
_cell_angle_alpha 90.000000
_cell_angle_beta 108.509163
_cell_angle_gamma 90.000000
_cell_volume 2018.638645
_symmetry_space_group_name_H-M "C 2/M"
_symmetry_group_IT_number 12
_symmetry_cell_setting 'monoclinic'
loop_
_space_group_symop_operation_xyz
x,y,z
-x,y,-z
-x,-y,-z
x,-y,z
1/2+x,1/2+y,z
1/2-x,1/2+y,-z
1/2-x,1/2-y,-z
1/2+x,1/2-y,z
loop_
_atom_site_type_symbol
_atom_site_label
_atom_site_fract_x
_atom_site_fract_y
_atom_site_fract_z
Si Si1 0.081403 0.338125 0.125041
Si Si2 0.061566 0.163120 0.671533
Si Si3 0.068478 0.108950 0.181656
Si Si4 0.979482 0.388102 0.323895
Si Si5 0.255613 0.612282 0.608454
Si Si6 0.256953 0.663143 0.290200
O O1 0.078405 0.214531 0.104025
O O2 0.176404 0.365819 0.152749
O O3 0.059075 0.366143 0.273291
O O4 0.000000 0.379320 0.000000
O O5 0.070350 0.283328 0.720656
O O6 0.153202 0.123242 0.698790
O O7 0.000000 0.156771 0.500000
O O8 0.012488 0.113237 0.771124
O O9 0.145644 0.111523 0.330442
O O10 0.076268 0.000000 0.108966
O O11 0.945442 0.500000 0.263909
O O12 0.000000 0.392519 0.500000
O O13 0.225363 0.500000 0.640249
O O14 0.234822 0.627503 0.434721
O O15 0.233711 0.712629 0.685800
#
# Coordination Sequence:
#
# PCOD9174762 Si02
#       6
#     8   8   8   8   8   8
#     4  10  22  40  59  81 115 156 193 231 276 332
#     4  10  18  32  52  81 116 145 179 232 292 340
#     4   9  18  34  55  81 112 145 185 235 286 336
#     4   9  20  37  58  83 112 149 192 237 282 329
#     4   9  18  31  51  79 110 140 182 240 290 327
#     4  10  20  33  52  82 113 145 189 232 278 339
#
# _framework density 23.778402
#
# number of rings (size 3 to 8) (size 9 to 14) (size 15 to 20)
#    0.000    2.500    1.667    0.000    7.000    3.000 
#    0.000    3.333    0.000    2.000    0.000    0.000 
#    0.000    0.000    0.000    0.000    0.000    0.000 
#
# Total GULP energy -133755.924549 kJ/mol
# GULP energy per Si atom -5573.163523 kJ/mol
# Density = 2.372428 g / cm^3
# Si number density = 23.778402 Si / 1000 Ang^3
#
#
#
# Elastic Constant Matrix: (Units=GPa)
#
#
# Indices 1 2 3 4 5 6 
#
# 1 168.9085 0.4398 31.8882 0.0000 36.3771 0.0000
# 2 0.4398 135.4134 5.2237 0.0000 2.6948 0.0000
# 3 31.8882 5.2237 55.5455 0.0000 33.9181 0.0000
# 4 0.0000 0.0000 0.0000 -3.3973 0.0000 4.0018
# 5 36.3771 2.6948 33.9181 0.0000 37.0358 0.0000
# 6 0.0000 0.0000 0.0000 4.0018 0.0000 -0.4320
#
#
#
# Elastic Compliance Matrix: (Units=1/GPa)
#
#
# Indices 1 2 3 4 5 6 
#
# 1 0.007515 0.000114 0.000425 0.000000 -0.007779 0.000000
# 2 0.000114 0.007414 -0.000828 0.000000 0.000107 0.000000
# 3 0.000425 -0.000828 0.040963 0.000000 -0.037872 0.000000
# 4 0.000000 0.000000 0.000000 0.029694 0.000000 0.275096
# 5 -0.007779 0.000107 -0.037872 0.000000 0.069318 0.000000
# 6 0.000000 0.000000 0.000000 0.275096 0.000000 0.233543
#
#
# Mechanical properties :
#
#
# Convention : Reuss Voigt Hill
#
# Bulk Modulus (GPa) = 18.07826 48.33009 33.20417
# Shear Modulus (GPa) = 12.27105 28.12902 20.20004
#
# Velocity S-wave (km/s) = 2.27416 3.44316 2.91780
# Velocity P-wave (km/s) = 3.80986 6.01469 5.03445
#
# Compressibility (1/GPa) = 0.05531505
#
# Stress axis : x y z
#
# Youngs Moduli (GPa) = 133.06423 134.87567 24.41215
#
# Poissons Ratio (x) = -0.01538 -0.01038
# Poissons Ratio (y) = -0.01517 0.02021
# Poissons Ratio (z) = -0.05656 0.11166
#
# Static dielectric constant tensor:
#      x y z
#    x 1.906250 0.000000 0.030810 
#    y 0.000000 1.966090 0.000000 
#    z 0.030810 0.000000 1.953250 
# 
# From -- ./inp_files/155495.got.cif
#   From: 2010.05.17/outbox.cif.g08.bks.cpg/sg12_78_cif.got.tgz:155495.got - 2010.06.03 13:09:07.
