data_PCOD9174012
_publ_section_title
;
Structure prediction by ZEFSAII (Michael W. Deem and Ramdas Pophale) SiO2 
 PCOD9174012
Probable space group: C 2/M
;
_chemical_formula_sum "Si O2"
_cell_formula_units_Z 48
_cell_length_a 15.151201
_cell_length_b 7.441603
_cell_length_c 25.608573
_cell_angle_alpha 90.000000
_cell_angle_beta 130.557258
_cell_angle_gamma 90.000000
_cell_volume 2193.680617
_symmetry_space_group_name_H-M "C 2/M"
_symmetry_group_IT_number 12
_symmetry_cell_setting 'monoclinic'
loop_
_space_group_symop_operation_xyz
x,y,z
-x,y,-z
-x,-y,-z
x,-y,z
1/2+x,1/2+y,z
1/2-x,1/2+y,-z
1/2-x,1/2-y,-z
1/2+x,1/2-y,z
loop_
_atom_site_type_symbol
_atom_site_label
_atom_site_fract_x
_atom_site_fract_y
_atom_site_fract_z
Si Si1 0.588833 0.783344 0.164316
Si Si2 0.995719 0.789937 0.758027
Si Si3 0.745980 0.219400 0.133720
Si Si4 0.139070 0.781815 0.394501
Si Si5 0.908811 0.211733 0.507801
Si Si6 0.867872 0.714211 0.013958
O O1 0.584541 0.724178 0.222130
O O2 0.698606 0.729801 0.172053
O O3 0.475836 0.716060 0.088880
O O4 0.584790 0.000000 0.163640
O O5 0.936788 0.715710 0.683388
O O6 0.122392 0.716060 0.822289
O O7 0.015351 0.000000 0.754764
O O8 0.744813 0.000000 0.129693
O O9 0.658833 0.281666 0.054623
O O10 0.091948 0.717116 0.432749
O O11 0.274181 0.731301 0.439353
O O12 0.136760 0.000000 0.394496
O O13 0.000000 0.285164 0.500000
O O14 0.935308 0.000000 0.522460
O O15 0.886722 0.500000 0.016954
O O16 0.750000 0.750000 0.000000
#
# Coordination Sequence:
#
# PCOD9174012 Si02
#       6
#     8   8   8   8   8   8
#     4  10  20  33  52  76  99 130 176 220 254 298
#     4  10  20  35  52  72 104 140 168 201 253 310
#     4   9  18  33  52  72  99 135 170 209 260 307
#     4   9  19  34  52  77 107 136 166 202 249 302
#     4   9  18  34  57  82 104 130 168 209 245 290
#     4  10  18  31  52  74  97 129 171 217 261 303
#
# _framework density 21.881034
#
# number of rings (size 3 to 8) (size 9 to 14) (size 15 to 20)
#    0.000    2.500    1.667    0.500    0.000    4.333 
#    0.000    5.000    0.000    2.000    0.000    0.000 
#    0.000    0.000    0.000    0.000    0.000    0.000 
#
# Total GULP energy -133951.757077 kJ/mol
# GULP energy per Si atom -5581.323212 kJ/mol
# Density = 2.183123 g / cm^3
# Si number density = 21.881034 Si / 1000 Ang^3
#
#
#
# Elastic Constant Matrix: (Units=GPa)
#
#
# Indices 1 2 3 4 5 6 
#
# 1 130.2489 -4.1287 37.8365 0.0000 -22.2733 0.0000
# 2 -4.1287 61.3127 3.3317 0.0000 -1.1030 0.0000
# 3 37.8365 3.3317 110.8296 0.0000 -35.7703 0.0000
# 4 0.0000 0.0000 0.0000 46.9260 0.0000 14.8373
# 5 -22.2733 -1.1030 -35.7703 0.0000 21.2699 0.0000
# 6 0.0000 0.0000 0.0000 14.8373 0.0000 22.3025
#
#
#
# Elastic Compliance Matrix: (Units=1/GPa)
#
#
# Indices 1 2 3 4 5 6 
#
# 1 0.009393 0.000812 -0.000094 0.000000 0.009720 0.000000
# 2 0.000812 0.016407 -0.000484 0.000000 0.000887 0.000000
# 3 -0.000094 -0.000484 0.019749 0.000000 0.033089 0.000000
# 4 0.000000 0.000000 0.000000 0.026987 0.000000 -0.017954
# 5 0.009720 0.000887 0.033089 0.000000 0.112887 0.000000
# 6 0.000000 0.000000 0.000000 -0.017954 0.000000 0.056782
#
#
# Mechanical properties :
#
#
# Convention : Reuss Voigt Hill
#
# Bulk Modulus (GPa) = 21.73085 41.83003 31.78044
# Shear Modulus (GPa) = 19.44959 35.78981 27.61970
#
# Velocity S-wave (km/s) = 2.98464 4.04871 3.55669
# Velocity P-wave (km/s) = 4.67230 6.40426 5.60558
#
# Compressibility (1/GPa) = 0.04601752
#
# Stress axis : x y z
#
# Youngs Moduli (GPa) = 106.46405 60.95029 50.63536
#
# Poissons Ratio (x) = -0.04952 0.00475
# Poissons Ratio (y) = -0.08650 0.02452
# Poissons Ratio (z) = 0.00999 0.02951
#
# Static dielectric constant tensor:
#      x y z
#    x 1.779450 0.000000 -0.014860 
#    y 0.000000 1.935340 0.000000 
#    z -0.014860 0.000000 1.782680 
# 
# From -- ./inp_files/261669.got.cif
#   From: 2010.05.17/outbox.cif.g08.bks.cpg/sg12_131_cif.got.tgz:261669.got - 2010.06.03 13:09:07.
