data_PCOD9174295
_publ_section_title
;
Structure prediction by ZEFSAII (Michael W. Deem and Ramdas Pophale) SiO2 
 PCOD9174295
Probable space group: C 2/M
;
_chemical_formula_sum "Si O2"
_cell_formula_units_Z 56
_cell_length_a 14.997052
_cell_length_b 7.318640
_cell_length_c 19.541914
_cell_angle_alpha 90.000000
_cell_angle_beta 77.053211
_cell_angle_gamma 90.000000
_cell_volume 2090.355889
_symmetry_space_group_name_H-M "C 2/M"
_symmetry_group_IT_number 12
_symmetry_cell_setting 'monoclinic'
loop_
_space_group_symop_operation_xyz
x,y,z
-x,y,-z
-x,-y,-z
x,-y,z
1/2+x,1/2+y,z
1/2-x,1/2+y,-z
1/2-x,1/2-y,-z
1/2+x,1/2-y,z
loop_
_atom_site_type_symbol
_atom_site_label
_atom_site_fract_x
_atom_site_fract_y
_atom_site_fract_z
Si Si1 0.360990 0.721448 0.131671
Si Si2 0.643241 0.722171 0.450806
Si Si3 0.688296 0.780885 0.656087
Si Si4 0.973665 0.214736 0.400677
Si Si5 0.809401 0.207945 0.758809
Si Si6 0.641372 0.283159 0.018234
Si Si7 0.038756 0.223875 0.172664
O O1 0.355995 0.500000 0.132787
O O2 0.260725 0.795323 0.165315
O O3 0.434513 0.778695 0.176230
O O4 0.391813 0.780398 0.050731
O O5 0.647349 0.500000 0.453189
O O6 0.745684 0.783129 0.417440
O O7 0.576348 0.778232 0.398883
O O8 0.591461 0.789019 0.527283
O O9 0.583900 0.733513 0.658438
O O10 0.743522 0.710127 0.712266
O O11 0.689305 0.000000 0.659274
O O12 0.979965 0.000000 0.411482
O O13 0.903193 0.288064 0.771872
O O14 0.830806 0.000000 0.732919
O O15 0.624956 0.500000 0.021946
O O16 0.592590 0.215010 0.094857
O O17 0.750000 0.250000 0.000000
O O18 0.040361 0.000000 0.175345
#
# Coordination Sequence:
#
# PCOD9174295 Si02
#       7
#     8   8   8   8   8   8   8
#     4  10  20  34  55  79  99 127 171 217 253 292
#     4   8  16  32  53  77 104 132 165 205 251 304
#     4  10  20  33  50  73 103 137 170 203 248 303
#     4   9  17  32  55  79 101 129 167 211 252 292
#     4  10  21  36  51  70 101 140 172 203 248 303
#     4  10  18  31  54  79 103 128 161 208 258 303
#     4   9  18  34  54  74 100 134 168 203 252 308
#
# _framework density 26.789694999999998
#
# number of rings (size 3 to 8) (size 9 to 14) (size 15 to 20)
#    0.000    2.571    1.429    1.714    0.000    3.429 
#    0.000    6.429    0.000    1.714    0.000    0.000 
#    0.000    0.000    0.000    0.000    0.000    0.000 
#
# Total GULP energy -156534.249624 kJ/mol
# GULP energy per Si atom -5590.508915 kJ/mol
# Density = 2.672872 g / cm^3
# Si number density = 26.789695 Si / 1000 Ang^3
#
#
#
# Elastic Constant Matrix: (Units=GPa)
#
#
# Indices 1 2 3 4 5 6 
#
# 1 184.3961 -9.5347 33.2099 0.0000 31.6644 0.0000
# 2 -9.5347 109.7459 -7.3711 0.0000 1.8719 0.0000
# 3 33.2099 -7.3711 77.5168 0.0000 23.7101 0.0000
# 4 0.0000 0.0000 0.0000 13.0082 0.0000 -10.6642
# 5 31.6644 1.8719 23.7101 0.0000 59.6967 0.0000
# 6 0.0000 0.0000 0.0000 -10.6642 0.0000 25.0408
#
#
#
# Elastic Compliance Matrix: (Units=1/GPa)
#
#
# Indices 1 2 3 4 5 6 
#
# 1 0.006221 0.000462 -0.001830 0.000000 -0.002587 0.000000
# 2 0.000462 0.009232 0.000960 0.000000 -0.000916 0.000000
# 3 -0.001830 0.000960 0.015353 0.000000 -0.005157 0.000000
# 4 0.000000 0.000000 0.000000 0.118111 0.000000 0.050301
# 5 -0.002587 -0.000916 -0.005157 0.000000 0.020201 0.000000
# 6 0.000000 0.000000 0.000000 0.050301 0.000000 0.061356
#
#
# Mechanical properties :
#
#
# Convention : Reuss Voigt Hill
#
# Bulk Modulus (GPa) = 33.34412 44.91855 39.13134
# Shear Modulus (GPa) = 20.72217 43.23947 31.98082
#
# Velocity S-wave (km/s) = 2.78423 4.02186 3.45885
# Velocity P-wave (km/s) = 4.77593 6.19441 5.53083
#
# Compressibility (1/GPa) = 0.02999030
#
# Stress axis : x y z
#
# Youngs Moduli (GPa) = 160.75000 108.31680 65.13309
#
# Poissons Ratio (x) = -0.05001 0.11918
# Poissons Ratio (y) = -0.07422 -0.06254
# Poissons Ratio (z) = 0.29415 -0.10401
#
# Static dielectric constant tensor:
#      x y z
#    x 2.029250 0.000000 0.027370 
#    y 0.000000 2.038470 0.000000 
#    z 0.027370 0.000000 2.166770 
# 
# From -- ./inp_files/308963.got.cif
#   From: 2010.05.17/outbox.cif.g08.bks.cpg/sg12_155_cif.got.tgz:308963.got - 2010.06.03 13:09:07.
