data_PCOD9174754
_publ_section_title
;
Structure prediction by ZEFSAII (Michael W. Deem and Ramdas Pophale) SiO2 
 PCOD9174754
Probable space group: C 2/M
;
_chemical_formula_sum "Si O2"
_cell_formula_units_Z 40
_cell_length_a 18.576667
_cell_length_b 17.107828
_cell_length_c 8.479106
_cell_angle_alpha 90.000000
_cell_angle_beta 58.214660
_cell_angle_gamma 90.000000
_cell_volume 2290.581293
_symmetry_space_group_name_H-M "C 2/M"
_symmetry_group_IT_number 12
_symmetry_cell_setting 'monoclinic'
loop_
_space_group_symop_operation_xyz
x,y,z
-x,y,-z
-x,-y,-z
x,-y,z
1/2+x,1/2+y,z
1/2-x,1/2+y,-z
1/2-x,1/2-y,-z
1/2+x,1/2-y,z
loop_
_atom_site_type_symbol
_atom_site_label
_atom_site_fract_x
_atom_site_fract_y
_atom_site_fract_z
Si Si1 0.218512 0.087856 0.706663
Si Si2 0.821786 0.244212 0.048609
Si Si3 0.675222 0.811369 0.626367
Si Si4 0.497111 0.256524 0.321834
Si Si5 0.964225 0.912886 0.214393
O O1 0.194607 0.158068 0.854720
O O2 0.297648 0.113755 0.507324
O O3 0.136408 0.084769 0.689251
O O4 0.228831 0.000000 0.762146
O O5 0.819202 0.308770 0.191067
O O6 0.750000 0.250000 0.000000
O O7 0.913212 0.256051 0.865064
O O8 0.750000 0.750000 0.500000
O O9 0.583497 0.780826 0.675295
O O10 0.500000 0.231534 0.500000
O O11 0.485721 0.349793 0.319034
O O12 0.997419 0.000000 0.206156
O O13 0.000000 0.888499 0.000000
#
# Coordination Sequence:
#
# PCOD9174754 Si02
#       5
#     8   8   8   8   8
#     4  10  20  36  59  82 115 152 183 228 288 338
#     4  11  22  36  58  84 112 148 193 235 280 330
#     4  10  19  36  56  80 110 145 188 228 273 332
#     4  12  21  33  56  83 113 149 187 233 277 330
#     4  10  18  32  52  79 114 152 181 219 283 343
#
# _framework density 17.462816
#
# number of rings (size 3 to 8) (size 9 to 14) (size 15 to 20)
#    0.000    1.400    6.000    3.000    0.000    0.400 
#    0.000    1.000    0.000    7.800    0.000    0.000 
#    0.000    0.000    0.000    0.000    0.000    0.000 
#
# Total GULP energy -111354.150359 kJ/mol
# GULP energy per Si atom -5567.707518 kJ/mol
# Density = 1.742307 g / cm^3
# Si number density = 17.462816 Si / 1000 Ang^3
#
#
#
# Elastic Constant Matrix: (Units=GPa)
#
#
# Indices 1 2 3 4 5 6 
#
# 1 102.2647 -1.8046 47.9320 0.0000 -13.6839 0.0000
# 2 -1.8046 35.1523 23.3315 0.0000 -8.5433 0.0000
# 3 47.9320 23.3315 117.3862 0.0000 -12.8101 0.0000
# 4 0.0000 0.0000 0.0000 20.3385 0.0000 -3.2236
# 5 -13.6839 -8.5433 -12.8101 0.0000 28.9076 0.0000
# 6 0.0000 0.0000 0.0000 -3.2236 0.0000 14.4008
#
#
#
# Elastic Compliance Matrix: (Units=1/GPa)
#
#
# Indices 1 2 3 4 5 6 
#
# 1 0.013486 0.006083 -0.006119 0.000000 0.005470 0.000000
# 2 0.006083 0.036981 -0.008750 0.000000 0.009931 0.000000
# 3 -0.006119 -0.008750 0.012776 0.000000 0.000179 0.000000
# 4 0.000000 0.000000 0.000000 0.050976 0.000000 0.011411
# 5 0.005470 0.009931 0.000179 0.000000 0.040197 0.000000
# 6 0.000000 0.000000 0.000000 0.011411 0.000000 0.071995
#
#
# Mechanical properties :
#
#
# Convention : Reuss Voigt Hill
#
# Bulk Modulus (GPa) = 21.89590 43.74678 32.82134
# Shear Modulus (GPa) = 19.28960 25.08568 22.18764
#
# Velocity S-wave (km/s) = 3.32717 3.79426 3.56837
# Velocity P-wave (km/s) = 5.22742 6.65590 5.98443
#
# Compressibility (1/GPa) = 0.04567065
#
# Stress axis : x y z
#
# Youngs Moduli (GPa) = 74.15291 27.04064 78.27139
#
# Poissons Ratio (x) = -0.16448 0.47891
# Poissons Ratio (y) = -0.45106 0.68490
# Poissons Ratio (z) = 0.45371 0.23662
#
# Static dielectric constant tensor:
#      x y z
#    x 1.584320 0.000000 0.001390 
#    y 0.000000 1.658430 0.000000 
#    z 0.001390 0.000000 1.658920 
# 
# From -- ./inp_files/74349.got.cif
#   From: 2010.05.17/outbox.cif.g08.bks.cpg/sg12_38_cif.got.tgz:74349.got - 2010.06.03 13:09:07.
