data_PCOD9174224
_publ_section_title
;
Structure prediction by ZEFSAII (Michael W. Deem and Ramdas Pophale) SiO2 
 PCOD9174224
Probable space group: C 2/M
;
_chemical_formula_sum "Si O2"
_cell_formula_units_Z 48
_cell_length_a 25.730763
_cell_length_b 7.769401
_cell_length_c 12.273215
_cell_angle_alpha 90.000000
_cell_angle_beta 90.409645
_cell_angle_gamma 90.000000
_cell_volume 2453.507805
_symmetry_space_group_name_H-M "C 2/M"
_symmetry_group_IT_number 12
_symmetry_cell_setting 'monoclinic'
loop_
_space_group_symop_operation_xyz
x,y,z
-x,y,-z
-x,-y,-z
x,-y,z
1/2+x,1/2+y,z
1/2-x,1/2+y,-z
1/2-x,1/2-y,-z
1/2+x,1/2-y,z
loop_
_atom_site_type_symbol
_atom_site_label
_atom_site_fract_x
_atom_site_fract_y
_atom_site_fract_z
Si Si1 0.494256 0.210942 0.375731
Si Si2 0.201035 0.203876 0.626513
Si Si3 0.939150 0.289665 0.003676
Si Si4 0.817916 0.199342 0.614377
Si Si5 0.589979 0.202575 0.231626
Si Si6 0.895585 0.708047 0.234277
O O1 0.500000 0.268111 0.500000
O O2 0.542636 0.272126 0.303769
O O3 0.440654 0.264409 0.318569
O O4 0.494760 0.000000 0.376635
O O5 0.179350 0.271174 0.509367
O O6 0.257663 0.283077 0.646417
O O7 0.159709 0.235452 0.720159
O O8 0.209307 0.000000 0.613433
O O9 0.938250 0.500000 0.007905
O O10 0.911367 0.231005 0.113942
O O11 0.911962 0.229626 0.891686
O O12 0.000000 0.240728 0.000000
O O13 0.856825 0.279633 0.701657
O O14 0.832543 0.000000 0.609433
O O15 0.579099 0.000000 0.220372
O O16 0.895785 0.500000 0.232974
#
# Coordination Sequence:
#
# PCOD9174224 Si02
#       6
#     8   8   8   8   8   8
#     4   9  16  25  44  76 107 135 170 211 254 306
#     4  10  21  37  56  78 105 137 174 218 269 321
#     4   9  16  30  52  79 108 143 182 218 255 300
#     4  10  21  37  56  78 105 137 174 218 269 321
#     4  10  18  31  53  79 108 140 178 218 258 308
#     4  10  18  31  53  79 108 140 178 218 258 308
#
# _framework density 19.563827
#
# number of rings (size 3 to 8) (size 9 to 14) (size 15 to 20)
#    0.000    2.333    1.667    2.000    0.000    3.333 
#    0.000    2.500    0.000    4.000    0.000    0.000 
#    0.000    0.000    0.000    0.000    0.000    0.000 
#
# Total GULP energy -133951.834660 kJ/mol
# GULP energy per Si atom -5581.326444 kJ/mol
# Density = 1.951930 g / cm^3
# Si number density = 19.563827 Si / 1000 Ang^3
#
#
#
# Elastic Constant Matrix: (Units=GPa)
#
#
# Indices 1 2 3 4 5 6 
#
# 1 71.6852 -14.4015 40.5912 0.0000 -17.6608 0.0000
# 2 -14.4015 23.2917 -3.0819 0.0000 -0.5906 0.0000
# 3 40.5912 -3.0819 107.3191 0.0000 -23.1172 0.0000
# 4 0.0000 0.0000 0.0000 8.5748 0.0000 -1.6447
# 5 -17.6608 -0.5906 -23.1172 0.0000 31.8256 0.0000
# 6 0.0000 0.0000 0.0000 -1.6447 0.0000 12.1666
#
#
#
# Elastic Compliance Matrix: (Units=1/GPa)
#
#
# Indices 1 2 3 4 5 6 
#
# 1 0.022067 0.013017 -0.006263 0.000000 0.007938 0.000000
# 2 0.013017 0.050885 -0.002018 0.000000 0.006701 0.000000
# 3 -0.006263 -0.002018 0.012889 0.000000 0.005849 0.000000
# 4 0.000000 0.000000 0.000000 0.119726 0.000000 0.016184
# 5 0.007938 0.006701 0.005849 0.000000 0.040199 0.000000
# 6 0.000000 0.000000 0.000000 0.016184 0.000000 0.084380
#
#
# Mechanical properties :
#
#
# Convention : Reuss Voigt Hill
#
# Bulk Modulus (GPa) = 10.49188 27.61238 19.05213
# Shear Modulus (GPa) = 14.18664 22.45928 18.32296
#
# Velocity S-wave (km/s) = 2.69578 3.39189 3.06367
# Velocity P-wave (km/s) = 3.88126 5.42997 4.71957
#
# Compressibility (1/GPa) = 0.09531184
#
# Stress axis : x y z
#
# Youngs Moduli (GPa) = 45.31708 19.65213 77.58741
#
# Poissons Ratio (x) = -0.25581 0.48590
# Poissons Ratio (y) = -0.58988 0.15661
# Poissons Ratio (z) = 0.28380 0.03967
#
# Static dielectric constant tensor:
#      x y z
#    x 1.639260 0.000000 -0.000930 
#    y 0.000000 1.726390 0.000000 
#    z -0.000930 0.000000 1.693830 
# 
# From -- ./inp_files/172278.got.cif
#   From: 2010.05.17/outbox.cif.g08.bks.cpg/sg12_87_cif.got.tgz:172278.got - 2010.06.03 13:09:07.
