data_PCOD9174078
_publ_section_title
;
Structure prediction by ZEFSAII (Michael W. Deem and Ramdas Pophale) SiO2 
 PCOD9174078
Probable space group: C 2/M
;
_chemical_formula_sum "Si O2"
_cell_formula_units_Z 56
_cell_length_a 21.107310
_cell_length_b 7.565477
_cell_length_c 31.413968
_cell_angle_alpha 90.000000
_cell_angle_beta 146.681085
_cell_angle_gamma 90.000000
_cell_volume 2755.501056
_symmetry_space_group_name_H-M "C 2/M"
_symmetry_group_IT_number 12
_symmetry_cell_setting 'monoclinic'
loop_
_space_group_symop_operation_xyz
x,y,z
-x,y,-z
-x,-y,-z
x,-y,z
1/2+x,1/2+y,z
1/2-x,1/2+y,-z
1/2-x,1/2-y,-z
1/2+x,1/2-y,z
loop_
_atom_site_type_symbol
_atom_site_label
_atom_site_fract_x
_atom_site_fract_y
_atom_site_fract_z
Si Si1 0.084565 0.709594 0.928034
Si Si2 0.305336 0.207233 0.097749
Si Si3 0.665183 0.288583 0.236360
Si Si4 0.593932 0.783022 0.668821
Si Si5 0.065406 0.707468 0.748474
Si Si6 0.573278 0.784391 0.499732
Si Si7 0.168068 0.785618 0.335332
O O1 0.100383 0.500000 0.936575
O O2 0.131431 0.782781 0.908848
O O3 0.949752 0.748258 0.854529
O O4 0.169649 0.778060 0.012294
O O5 0.352215 0.283640 0.168178
O O6 0.335821 0.000000 0.115603
O O7 0.675328 0.500000 0.244982
O O8 0.783268 0.225315 0.281448
O O9 0.651297 0.223568 0.277127
O O10 0.577659 0.719664 0.707883
O O11 0.492744 0.727733 0.579845
O O12 0.592761 0.000000 0.668003
O O13 0.094301 0.500000 0.760640
O O14 0.936186 0.724079 0.693791
O O15 0.500000 0.729258 0.500000
O O16 0.705695 0.728258 0.578162
O O17 0.573771 0.000000 0.500505
O O18 0.165756 0.000000 0.333968
#
# Coordination Sequence:
#
# PCOD9174078 Si02
#       7
#     8   8   8   8   8   8   8
#     4  10  19  31  51  77 101 129 167 211 256 300
#     4   9  18  32  49  72 101 132 167 208 250 299
#     4  10  18  31  52  78 101 130 173 213 248 295
#     4   9  18  32  52  75 102 138 174 208 249 298
#     4  10  20  35  52  74 106 138 167 205 257 308
#     4   9  15  28  50  78 105 130 170 217 250 284
#     4  10  19  30  52  79 103 132 171 214 251 294
#
# _framework density 20.322983000000001
#
# number of rings (size 3 to 8) (size 9 to 14) (size 15 to 20)
#    0.000    2.429    2.857    0.429    0.000    1.714 
#    0.000    1.429    0.000    5.571    0.000    0.000 
#    0.000    0.000    0.000    0.000    0.000    0.000 
#
# Total GULP energy -156279.418744 kJ/mol
# GULP energy per Si atom -5581.407812 kJ/mol
# Density = 2.027673 g / cm^3
# Si number density = 20.322983 Si / 1000 Ang^3
#
#
#
# Elastic Constant Matrix: (Units=GPa)
#
#
# Indices 1 2 3 4 5 6 
#
# 1 96.6815 -6.9340 58.4975 0.0004 -15.3299 -0.0001
# 2 -6.9340 44.0621 -10.4097 0.0018 -9.2185 -0.0005
# 3 58.4975 -10.4097 171.9041 0.0000 -5.2765 -0.0002
# 4 0.0004 0.0018 0.0000 6.4407 -0.0002 5.7340
# 5 -15.3299 -9.2185 -5.2765 -0.0002 32.1013 0.0005
# 6 -0.0001 -0.0005 -0.0002 5.7340 0.0005 10.8861
#
#
#
# Elastic Compliance Matrix: (Units=1/GPa)
#
#
# Indices 1 2 3 4 5 6 
#
# 1 0.014352 0.002629 -0.004514 -0.000003 0.006867 0.000001
# 2 0.002629 0.025122 0.000891 -0.000014 0.008616 0.000008
# 3 -0.004514 0.000891 0.007386 0.000000 -0.000686 0.000000
# 4 -0.000003 -0.000014 0.000000 0.292362 -0.000001 -0.153995
# 5 0.006867 0.008616 -0.000686 -0.000001 0.036792 -0.000001
# 6 0.000001 0.000008 0.000000 -0.153995 -0.000001 0.172974
#
#
# Mechanical properties :
#
#
# Convention : Reuss Voigt Hill
#
# Bulk Modulus (GPa) = 22.28555 43.88391 33.08473
# Shear Modulus (GPa) = 8.83497 27.98522 18.41010
#
# Velocity S-wave (km/s) = 2.08728 3.71485 3.01304
# Velocity P-wave (km/s) = 4.09859 6.32774 5.33098
#
# Compressibility (1/GPa) = 0.04487213
#
# Stress axis : x y z
#
# Youngs Moduli (GPa) = 69.67848 39.80558 135.38893
#
# Poissons Ratio (x) = -0.10464 0.61112
# Poissons Ratio (y) = -0.18316 -0.12066
# Poissons Ratio (z) = 0.31451 -0.03548
#
# Static dielectric constant tensor:
#      x y z
#    x 1.690920 0.000000 -0.015680 
#    y 0.000000 1.766700 0.000000 
#    z -0.015680 0.000000 1.725770 
# 
# From -- ./inp_files/314416.got.cif
#   From: 2010.05.17/outbox.cif.g08.bks.cpg/sg12_158_cif.got.tgz:314416.got - 2010.06.03 13:09:07.
