data_PCOD9174665
_publ_section_title
;
Structure prediction by ZEFSAII (Michael W. Deem and Ramdas Pophale) SiO2 
 PCOD9174665
Probable space group: C 2/M
;
_chemical_formula_sum "Si O2"
_cell_formula_units_Z 56
_cell_length_a 14.215957
_cell_length_b 17.617908
_cell_length_c 13.677113
_cell_angle_alpha 90.000000
_cell_angle_beta 53.869368
_cell_angle_gamma 90.000000
_cell_volume 2766.695661
_symmetry_space_group_name_H-M "C 2/M"
_symmetry_group_IT_number 12
_symmetry_cell_setting 'monoclinic'
loop_
_space_group_symop_operation_xyz
x,y,z
-x,y,-z
-x,-y,-z
x,-y,z
1/2+x,1/2+y,z
1/2-x,1/2+y,-z
1/2-x,1/2-y,-z
1/2+x,1/2-y,z
loop_
_atom_site_type_symbol
_atom_site_label
_atom_site_fract_x
_atom_site_fract_y
_atom_site_fract_z
Si Si1 0.667367 0.582115 0.855733
Si Si2 0.621585 0.740019 0.196084
Si Si3 0.253145 0.761913 0.382417
Si Si4 0.929945 0.134629 0.279545
Si Si5 0.622579 0.743041 0.969476
Si Si6 0.593767 0.854352 0.370198
Si Si7 0.128522 0.912400 0.468472
O O1 0.656220 0.500000 0.909279
O O2 0.589610 0.586417 0.805128
O O3 0.633322 0.651944 0.946006
O O4 0.799980 0.594995 0.735288
O O5 0.557428 0.660027 0.233284
O O6 0.754396 0.730880 0.151701
O O7 0.555095 0.803467 0.300966
O O8 0.626557 0.765204 0.080385
O O9 0.250000 0.750000 0.500000
O O10 0.369557 0.715325 0.283903
O O11 0.150148 0.710349 0.403554
O O12 0.221917 0.848792 0.378520
O O13 0.877021 0.098216 0.409771
O O14 0.500000 0.768083 0.000000
O O15 0.500000 0.892213 0.500000
O O16 0.000000 0.896411 0.500000
O O17 0.156977 0.000000 0.428404
#
# Coordination Sequence:
#
# PCOD9174665 Si02
#       7
#     8   8   8   8   8   8   8
#     4  10  21  35  54  83 117 150 188 234 294 356
#     4  10  20  34  57  81 111 140 194 237 281 341
#     4   9  17  29  49  72 105 151 191 224 270 325
#     4  10  18  32  51  76 105 138 186 238 282 331
#     4  10  20  38  57  80 110 145 186 246 292 327
#     4  10  19  33  54  82 117 154 187 234 281 339
#     4  10  19  30  45  71 110 150 190 229 270 331
#
# _framework density 20.240752000000001
#
# number of rings (size 3 to 8) (size 9 to 14) (size 15 to 20)
#    0.000    2.143    1.429    3.429    0.000    0.571 
#    0.000    0.000    0.000    9.429    0.000    0.000 
#    0.000   20.000    0.000    0.286    0.000    0.000 
#
# Total GULP energy -155978.823858 kJ/mol
# GULP energy per Si atom -5570.672281 kJ/mol
# Density = 2.019468 g / cm^3
# Si number density = 20.240752 Si / 1000 Ang^3
#
#
#
# Elastic Constant Matrix: (Units=GPa)
#
#
# Indices 1 2 3 4 5 6 
#
# 1 83.2604 32.3191 12.9658 0.0000 -1.2325 0.0000
# 2 32.3191 87.4801 -2.7192 0.0000 -0.1613 0.0000
# 3 12.9658 -2.7192 64.1991 0.0000 0.8480 0.0000
# 4 0.0000 0.0000 0.0000 19.9208 0.0000 3.6363
# 5 -1.2325 -0.1613 0.8480 0.0000 37.1904 0.0000
# 6 0.0000 0.0000 0.0000 3.6363 0.0000 9.4816
#
#
#
# Elastic Compliance Matrix: (Units=1/GPa)
#
#
# Indices 1 2 3 4 5 6 
#
# 1 0.014657 -0.005513 -0.003201 0.000000 0.000535 0.000000
# 2 -0.005513 0.013520 0.001688 0.000000 -0.000163 0.000000
# 3 -0.003201 0.001688 0.016301 0.000000 -0.000470 0.000000
# 4 0.000000 0.000000 0.000000 0.053978 0.000000 -0.020701
# 5 0.000535 -0.000163 -0.000470 0.000000 0.026916 0.000000
# 6 0.000000 0.000000 0.000000 -0.020701 0.000000 0.113406
#
#
# Mechanical properties :
#
#
# Convention : Reuss Voigt Hill
#
# Bulk Modulus (GPa) = 32.86642 35.56344 34.21493
# Shear Modulus (GPa) = 19.01343 26.14349 22.57846
#
# Velocity S-wave (km/s) = 3.06823 3.59782 3.34353
# Velocity P-wave (km/s) = 5.36890 5.90486 5.64325
#
# Compressibility (1/GPa) = 0.03042619
#
# Stress axis : x y z
#
# Youngs Moduli (GPa) = 68.22666 73.96300 61.34705
#
# Poissons Ratio (x) = 0.40779 0.19636
# Poissons Ratio (y) = 0.37617 -0.10357
# Poissons Ratio (z) = 0.21838 -0.12487
#
# Static dielectric constant tensor:
#      x y z
#    x 1.799130 0.000000 -0.028620 
#    y 0.000000 1.734870 0.000000 
#    z -0.028620 0.000000 1.820580 
# 
# From -- ./inp_files/215841.got.cif
#   From: 2010.05.17/outbox.cif.g08.bks.cpg/sg12_108_cif.got.tgz:215841.got - 2010.06.03 13:09:07.
