data_PCOD9174654
_publ_section_title
;
Structure prediction by ZEFSAII (Michael W. Deem and Ramdas Pophale) SiO2 
 PCOD9174654
Probable space group: C 2/M
;
_chemical_formula_sum "Si O2"
_cell_formula_units_Z 56
_cell_length_a 5.259694
_cell_length_b 26.156059
_cell_length_c 18.046521
_cell_angle_alpha 90.000000
_cell_angle_beta 109.781878
_cell_angle_gamma 90.000000
_cell_volume 2336.201502
_symmetry_space_group_name_H-M "C 2/M"
_symmetry_group_IT_number 12
_symmetry_cell_setting 'monoclinic'
loop_
_space_group_symop_operation_xyz
x,y,z
-x,y,-z
-x,-y,-z
x,-y,z
1/2+x,1/2+y,z
1/2-x,1/2+y,-z
1/2-x,1/2-y,-z
1/2+x,1/2-y,z
loop_
_atom_site_type_symbol
_atom_site_label
_atom_site_fract_x
_atom_site_fract_y
_atom_site_fract_z
Si Si1 0.131525 0.661691 0.089184
Si Si2 0.193617 0.134749 0.656378
Si Si3 0.547531 0.692060 0.237024
Si Si4 0.190839 0.943832 0.446862
Si Si5 0.986642 0.278155 0.620505
Si Si6 0.136715 0.394567 0.802268
Si Si7 0.922629 0.054510 0.078054
O O1 0.344718 0.701037 0.148449
O O2 0.262195 0.606428 0.080023
O O3 0.934989 0.644171 0.136850
O O4 0.000000 0.681267 0.000000
O O5 0.358610 0.164690 0.608133
O O6 0.382077 0.098037 0.724333
O O7 0.112343 0.180530 0.703297
O O8 0.932469 0.103740 0.608104
O O9 0.653083 0.635492 0.227456
O O10 0.830231 0.720047 0.283962
O O11 0.500000 0.936784 0.500000
O O12 0.000000 0.946329 0.500000
O O13 0.171515 0.000000 0.407301
O O14 0.725672 0.241047 0.590552
O O15 0.294614 0.441751 0.850627
O O16 0.785230 0.000000 0.081324
O O17 0.000000 0.056074 0.000000
#
# Coordination Sequence:
#
# PCOD9174654 Si02
#       7
#     8   8   8   8   8   8   8
#     4  10  18  32  51  73 107 154 207 259 314 379
#     4  10  21  39  67  94 125 161 213 258 310 374
#     4   9  20  35  56  91 116 156 204 254 314 373
#     4  10  24  44  69  99 131 172 214 254 309 368
#     4  11  21  37  64  98 128 163 207 259 316 381
#     4   9  19  33  51  77 108 151 204 252 309 367
#     4  10  19  29  43  68 106 150 200 255 315 374
#
# _framework density 23.970533
#
# number of rings (size 3 to 8) (size 9 to 14) (size 15 to 20)
#    0.000    2.143    2.857    0.000    4.000    1.429 
#    0.000    5.714    0.000    3.429    0.000    0.000 
#    0.000    0.000    0.000    0.000    0.000    0.000 
#
# Total GULP energy -156034.288376 kJ/mol
# GULP energy per Si atom -5572.653156 kJ/mol
# Density = 2.391598 g / cm^3
# Si number density = 23.970533 Si / 1000 Ang^3
#
#
#
# Elastic Constant Matrix: (Units=GPa)
#
#
# Indices 1 2 3 4 5 6 
#
# 1 111.8325 13.3904 17.1564 0.0000 17.7473 0.0000
# 2 13.3904 85.0339 32.2682 0.0000 19.0905 0.0000
# 3 17.1564 32.2682 47.9627 0.0000 25.2530 0.0000
# 4 0.0000 0.0000 0.0000 18.5510 0.0000 13.4350
# 5 17.7473 19.0905 25.2530 0.0000 41.8544 0.0000
# 6 0.0000 0.0000 0.0000 13.4350 0.0000 28.1556
#
#
#
# Elastic Compliance Matrix: (Units=1/GPa)
#
#
# Indices 1 2 3 4 5 6 
#
# 1 0.009707 -0.000185 -0.001795 0.000000 -0.002948 0.000000
# 2 -0.000185 0.015834 -0.010003 0.000000 -0.001108 0.000000
# 3 -0.001795 -0.010003 0.037253 0.000000 -0.017153 0.000000
# 4 0.000000 0.000000 0.000000 0.082371 0.000000 -0.039305
# 5 -0.002948 -0.001108 -0.017153 0.000000 0.035997 0.000000
# 6 0.000000 0.000000 0.000000 -0.039305 0.000000 0.054272
#
#
# Mechanical properties :
#
#
# Convention : Reuss Voigt Hill
#
# Bulk Modulus (GPa) = 25.75539 41.16213 33.45876
# Shear Modulus (GPa) = 18.35919 29.84649 24.10284
#
# Velocity S-wave (km/s) = 2.77050 3.53247 3.17443
# Velocity P-wave (km/s) = 4.58281 5.81782 5.23685
#
# Compressibility (1/GPa) = 0.03882683
#
# Stress axis : x y z
#
# Youngs Moduli (GPa) = 103.01354 63.15587 26.84377
#
# Poissons Ratio (x) = 0.01171 0.04819
# Poissons Ratio (y) = 0.01911 0.26851
# Poissons Ratio (z) = 0.18493 0.63174
#
# Static dielectric constant tensor:
#      x y z
#    x 2.001120 0.000000 -0.000480 
#    y 0.000000 1.963770 0.000000 
#    z -0.000480 0.000000 2.010940 
# 
# From -- ./inp_files/254048.got.cif
#   From: 2010.05.17/outbox.cif.g08.bks.cpg/sg12_128_cif.got.tgz:254048.got - 2010.06.03 13:09:07.
