data_PCOD9174314
_publ_section_title
;
Structure prediction by ZEFSAII (Michael W. Deem and Ramdas Pophale) SiO2 
 PCOD9174314
Probable space group: C 2/M
;
_chemical_formula_sum "Si O2"
_cell_formula_units_Z 48
_cell_length_a 23.959116
_cell_length_b 7.335344
_cell_length_c 12.153117
_cell_angle_alpha 90.000000
_cell_angle_beta 109.090976
_cell_angle_gamma 90.000000
_cell_volume 2018.417318
_symmetry_space_group_name_H-M "C 2/M"
_symmetry_group_IT_number 12
_symmetry_cell_setting 'monoclinic'
loop_
_space_group_symop_operation_xyz
x,y,z
-x,y,-z
-x,-y,-z
x,-y,z
1/2+x,1/2+y,z
1/2-x,1/2+y,-z
1/2-x,1/2-y,-z
1/2+x,1/2-y,z
loop_
_atom_site_type_symbol
_atom_site_label
_atom_site_fract_x
_atom_site_fract_y
_atom_site_fract_z
Si Si1 0.484854 0.278243 0.114797
Si Si2 0.095756 0.778837 0.332520
Si Si3 0.351241 0.719663 0.040081
Si Si4 0.803725 0.777126 0.771191
Si Si5 0.822263 0.712231 0.258801
Si Si6 0.935064 0.292560 0.443594
O O1 0.484946 0.500000 0.115748
O O2 0.536004 0.221027 0.230948
O O3 0.418850 0.218324 0.099935
O O4 0.500000 0.223224 0.000000
O O5 0.151975 0.721420 0.296526
O O6 0.094032 0.708523 0.454821
O O7 0.095804 0.000000 0.336929
O O8 0.350903 0.500000 0.038281
O O9 0.314443 0.777816 0.122543
O O10 0.328690 0.779962 0.906440
O O11 0.736128 0.713877 0.720402
O O12 0.803545 0.000000 0.771504
O O13 0.825846 0.500000 0.292406
O O14 0.885691 0.793085 0.332731
O O15 0.946019 0.500000 0.411242
O O16 0.000000 0.207378 0.500000
#
# Coordination Sequence:
#
# PCOD9174314 Si02
#       6
#     8   8   8   8   8   8
#     4   9  15  27  50  78 103 127 157 199 254 304
#     4  10  19  33  56  81 103 129 168 213 252 298
#     4  10  18  31  54  80 105 131 166 210 253 301
#     4   9  18  33  53  78 105 133 165 207 259 306
#     4  10  21  36  52  71 102 142 175 204 250 304
#     4  10  22  39  54  70 101 141 174 208 253 301
#
# _framework density 23.781009999999998
#
# number of rings (size 3 to 8) (size 9 to 14) (size 15 to 20)
#    0.000    2.333    1.667    1.500    0.000    1.667 
#    0.000    1.667    0.000    1.000    0.000    0.000 
#    0.000    0.000    0.000    0.000    0.000    0.000 
#
# Total GULP energy -134187.796144 kJ/mol
# GULP energy per Si atom -5591.158173 kJ/mol
# Density = 2.372688 g / cm^3
# Si number density = 23.781010 Si / 1000 Ang^3
#
#
#
# Elastic Constant Matrix: (Units=GPa)
#
#
# Indices 1 2 3 4 5 6 
#
# 1 152.4402 2.6984 26.5367 0.0000 6.6719 0.0000
# 2 2.6984 96.9823 -5.4240 0.0000 8.7466 0.0000
# 3 26.5367 -5.4240 87.5252 0.0000 -6.9196 0.0000
# 4 0.0000 0.0000 0.0000 6.7326 0.0000 -16.7144
# 5 6.6719 8.7466 -6.9196 0.0000 35.3818 0.0000
# 6 0.0000 0.0000 0.0000 -16.7144 0.0000 -4.1506
#
#
#
# Elastic Compliance Matrix: (Units=1/GPa)
#
#
# Indices 1 2 3 4 5 6 
#
# 1 0.007036 -0.000167 -0.002280 0.000000 -0.001731 0.000000
# 2 -0.000167 0.010568 0.000509 0.000000 -0.002481 0.000000
# 3 -0.002280 0.000509 0.012363 0.000000 0.002722 0.000000
# 4 0.000000 0.000000 0.000000 0.013506 0.000000 -0.054389
# 5 -0.001731 -0.002481 0.002722 0.000000 0.029735 0.000000
# 6 0.000000 0.000000 0.000000 -0.054389 0.000000 -0.021908
#
#
# Mechanical properties :
#
#
# Convention : Reuss Voigt Hill
#
# Bulk Modulus (GPa) = 38.32744 42.72999 40.52871
# Shear Modulus (GPa) = 78.27923 28.46853 53.37388
#
# Velocity S-wave (km/s) = 5.74353 3.46368 4.74264
# Velocity P-wave (km/s) = 7.75474 5.83123 6.86073
#
# Compressibility (1/GPa) = 0.02609097
#
# Stress axis : x y z
#
# Youngs Moduli (GPa) = 142.13330 94.62450 80.88371
#
# Poissons Ratio (x) = 0.01582 0.18444
# Poissons Ratio (y) = 0.02376 -0.04120
# Poissons Ratio (z) = 0.32412 -0.04820
#
# Static dielectric constant tensor:
#      x y z
#    x 1.894330 0.000000 0.039770 
#    y 0.000000 1.898240 0.000000 
#    z 0.039770 0.000000 1.858000 
# 
# From -- ./inp_files/102402.got.cif
#   From: 2010.05.17/outbox.cif.g08.bks.cpg/sg12_52_cif.got.tgz:102402.got - 2010.06.03 13:09:07.
