data_PCOD9174985
_publ_section_title
;
Structure prediction by ZEFSAII (Michael W. Deem and Ramdas Pophale) SiO2 
 PCOD9174985
Probable space group: C 2/M
;
_chemical_formula_sum "Si O2"
_cell_formula_units_Z 50
_cell_length_a 8.958267
_cell_length_b 31.543386
_cell_length_c 12.080483
_cell_angle_alpha 90.000000
_cell_angle_beta 51.541365
_cell_angle_gamma 90.000000
_cell_volume 2673.069181
_symmetry_space_group_name_H-M "C 2/M"
_symmetry_group_IT_number 12
_symmetry_cell_setting 'monoclinic'
loop_
_space_group_symop_operation_xyz
x,y,z
-x,y,-z
-x,-y,-z
x,-y,z
1/2+x,1/2+y,z
1/2-x,1/2+y,-z
1/2-x,1/2-y,-z
1/2+x,1/2-y,z
loop_
_atom_site_type_symbol
_atom_site_label
_atom_site_fract_x
_atom_site_fract_y
_atom_site_fract_z
Si Si1 0.921027 0.073947 0.710295
Si Si2 0.462539 0.732218 0.392290
Si Si3 0.000000 0.000000 0.500000
Si Si4 0.816235 0.950571 0.008124
Si Si5 0.955104 0.325087 0.691773
Si Si6 0.815244 0.152694 0.367465
Si Si7 0.479757 0.884371 0.140760
O O1 0.872521 0.055868 0.854142
O O2 0.729908 0.095710 0.749595
O O3 0.080437 0.109774 0.651264
O O4 0.986969 0.036871 0.601304
O O5 0.500000 0.717630 0.500000
O O6 0.250000 0.750000 0.500000
O O7 0.576110 0.774301 0.304310
O O8 0.461335 0.692002 0.313478
O O9 0.763663 0.000000 0.051677
O O10 0.637358 0.919100 0.105974
O O11 0.000000 0.940852 0.000000
O O12 0.141799 0.337515 0.532629
O O13 0.778610 0.346802 0.710189
O O14 0.989014 0.343213 0.797745
O O15 0.500000 0.875890 0.000000
#
# Coordination Sequence:
#
# PCOD9174985 Si02
#       7
#     8   8   2   8   8   8   8
#     4  11  23  37  58  85 119 147 192 241 289 343
#     4  10  18  32  54  87 115 151 192 230 289 347
#     4  12  24  36  52  90 118 148 174 244 298 334
#     4  10  21  41  64  80 105 150 201 236 281 345
#     4  10  19  37  56  85 124 147 194 240 280 349
#     4  10  21  34  59  89 115 156 186 236 301 339
#     4  10  23  37  60  84 111 157 193 237 280 341
#
# _framework density 18.705090999999999
#
# number of rings (size 3 to 8) (size 9 to 14) (size 15 to 20)
#    0.000    1.760    4.000    1.920    6.720    0.960 
#    0.000    0.000    0.000   12.480    0.000    0.000 
#    0.000    0.000    0.000    0.000    0.000    0.000 
#
# Total GULP energy -139182.109371 kJ/mol
# GULP energy per Si atom -5567.284375 kJ/mol
# Density = 1.866252 g / cm^3
# Si number density = 18.705091 Si / 1000 Ang^3
#
#
#
# Elastic Constant Matrix: (Units=GPa)
#
#
# Indices 1 2 3 4 5 6 
#
# 1 113.0478 44.3903 22.0563 0.0000 17.4556 0.0000
# 2 44.3903 119.4404 30.6329 0.0000 8.1652 0.0000
# 3 22.0563 30.6329 22.4211 0.0000 12.1139 0.0000
# 4 0.0000 0.0000 0.0000 9.7459 0.0000 12.5777
# 5 17.4556 8.1652 12.1139 0.0000 23.3199 0.0000
# 6 0.0000 0.0000 0.0000 12.5777 0.0000 27.8694
#
#
#
# Elastic Compliance Matrix: (Units=1/GPa)
#
#
# Indices 1 2 3 4 5 6 
#
# 1 0.011686 -0.002711 -0.004976 0.000000 -0.005213 0.000000
# 2 -0.002711 0.014253 -0.021140 0.000000 0.008020 0.000000
# 3 -0.004976 -0.021140 0.100603 0.000000 -0.041133 0.000000
# 4 0.000000 0.000000 0.000000 0.245729 0.000000 -0.110899
# 5 -0.005213 0.008020 -0.041133 0.000000 0.065343 0.000000
# 6 0.000000 0.000000 0.000000 -0.110899 0.000000 0.085931
#
#
# Mechanical properties :
#
#
# Convention : Reuss Voigt Hill
#
# Bulk Modulus (GPa) = 14.51617 49.89647 32.20632
# Shear Modulus (GPa) = 8.27592 22.70903 15.49248
#
# Velocity S-wave (km/s) = 2.10571 3.48811 2.88105
# Velocity P-wave (km/s) = 3.69992 6.55407 5.32190
#
# Compressibility (1/GPa) = 0.06888870
#
# Stress axis : x y z
#
# Youngs Moduli (GPa) = 85.57276 70.15874 9.94010
#
# Poissons Ratio (x) = 0.19017 0.04946
# Poissons Ratio (y) = 0.23195 0.21014
# Poissons Ratio (z) = 0.42578 1.48318
#
# Static dielectric constant tensor:
#      x y z
#    x 1.646480 0.000000 -0.022190 
#    y 0.000000 1.658490 0.000000 
#    z -0.022190 0.000000 1.635240 
# 
# From -- ./inp_files/125127.got.cif
#   From: 2010.05.17/outbox.cif.g08.bks.cpg/sg12_63_cif.got.tgz:125127.got - 2010.06.03 13:09:07.
