data_PCOD9174712
_publ_section_title
;
Structure prediction by ZEFSAII (Michael W. Deem and Ramdas Pophale) SiO2 
 PCOD9174712
Probable space group: C 2/M
;
_chemical_formula_sum "Si O2"
_cell_formula_units_Z 48
_cell_length_a 16.955139
_cell_length_b 22.873534
_cell_length_c 9.372766
_cell_angle_alpha 90.000000
_cell_angle_beta 123.306553
_cell_angle_gamma 90.000000
_cell_volume 3037.917378
_symmetry_space_group_name_H-M "C 2/M"
_symmetry_group_IT_number 12
_symmetry_cell_setting 'monoclinic'
loop_
_space_group_symop_operation_xyz
x,y,z
-x,y,-z
-x,-y,-z
x,-y,z
1/2+x,1/2+y,z
1/2-x,1/2+y,-z
1/2-x,1/2-y,-z
1/2+x,1/2-y,z
loop_
_atom_site_type_symbol
_atom_site_label
_atom_site_fract_x
_atom_site_fract_y
_atom_site_fract_z
Si Si1 0.179705 0.293191 0.017044
Si Si2 0.887364 0.885352 0.868439
Si Si3 0.339665 0.380412 0.145731
Si Si4 0.475747 0.734116 0.310677
Si Si5 0.436304 0.500000 0.797580
Si Si6 0.835014 0.766571 0.689885
Si Si7 0.416424 0.500000 0.306993
O O1 0.236933 0.353518 0.073384
O O2 0.162929 0.272871 0.163921
O O3 0.250000 0.250000 0.000000
O O4 0.086442 0.283851 0.829881
O O5 0.830046 0.831498 0.749089
O O6 0.879672 0.940128 0.754216
O O7 0.850093 0.897323 0.989882
O O8 0.000000 0.870631 0.000000
O O9 0.416617 0.327707 0.247335
O O10 0.360016 0.439193 0.254094
O O11 0.500000 0.745921 0.500000
O O12 0.570316 0.731771 0.310904
O O13 0.518169 0.500000 0.766163
O O14 0.500000 0.500000 0.000000
O O15 0.750000 0.750000 0.500000
O O16 0.500000 0.500000 0.500000
#
# Coordination Sequence:
#
# PCOD9174712 Si02
#       7
#     8   8   8   8   4   8   4
#     4  10  20  34  50  73 105 140 178 216 261 321
#     4  11  17  33  53  73 105 142 179 210 258 321
#     4  11  20  34  53  76 110 143 174 216 264 326
#     4  11  21  34  52  76 107 139 177 221 271 320
#     4  10  18  32  52  74  95 143 176 196 257 327
#     4  12  21  32  52  77 106 143 180 223 273 318
#     4  12  22  32  52  80 113 138 179 220 270 319
#
# _framework density 15.800298
#
# number of rings (size 3 to 8) (size 9 to 14) (size 15 to 20)
#    0.000    1.000    8.333    3.000    0.000    1.333 
#    0.000    0.000    0.000    0.000    0.000    4.083 
#    0.000    0.000    0.000    0.000    0.000    0.000 
#
# Total GULP energy -133611.506002 kJ/mol
# GULP energy per Si atom -5567.146083 kJ/mol
# Density = 1.576434 g / cm^3
# Si number density = 15.800298 Si / 1000 Ang^3
#
#
#
# Elastic Constant Matrix: (Units=GPa)
#
#
# Indices 1 2 3 4 5 6 
#
# 1 50.7045 15.1610 21.0811 0.0000 -3.0123 0.0000
# 2 15.1610 104.5658 34.6671 0.0000 17.6512 0.0000
# 3 21.0811 34.6671 94.5361 0.0000 0.6604 0.0000
# 4 0.0000 0.0000 0.0000 19.3811 0.0000 7.7860
# 5 -3.0123 17.6512 0.6604 0.0000 28.4800 0.0000
# 6 0.0000 0.0000 0.0000 7.7860 0.0000 25.9026
#
#
#
# Elastic Compliance Matrix: (Units=1/GPa)
#
#
# Indices 1 2 3 4 5 6 
#
# 1 0.022435 -0.002586 -0.004083 0.000000 0.004071 0.000000
# 2 -0.002586 0.012612 -0.003992 0.000000 -0.007998 0.000000
# 3 -0.004083 -0.003992 0.012940 0.000000 0.001742 0.000000
# 4 0.000000 0.000000 0.000000 0.058683 0.000000 -0.017639
# 5 0.004071 -0.007998 0.001742 0.000000 0.040459 0.000000
# 6 0.000000 0.000000 0.000000 -0.017639 0.000000 0.043908
#
#
# Mechanical properties :
#
#
# Convention : Reuss Voigt Hill
#
# Bulk Modulus (GPa) = 37.50371 43.51385 40.50878
# Shear Modulus (GPa) = 22.59907 26.67923 24.63915
#
# Velocity S-wave (km/s) = 3.78603 4.11363 3.95322
# Velocity P-wave (km/s) = 6.54978 7.08253 6.82136
#
# Compressibility (1/GPa) = 0.02666403
#
# Stress axis : x y z
#
# Youngs Moduli (GPa) = 44.57366 79.28990 77.27830
#
# Poissons Ratio (x) = 0.20507 0.31552
# Poissons Ratio (y) = 0.11528 0.30852
# Poissons Ratio (z) = 0.18199 0.31655
#
# Static dielectric constant tensor:
#      x y z
#    x 1.530770 0.000000 0.001420 
#    y 0.000000 1.734140 0.000000 
#    z 0.001420 0.000000 1.538670 
# 
# From -- ./inp_files/78921.got.cif
#   From: 2010.05.17/outbox.cif.g08.bks.cpg/sg12_40_cif.got.tgz:78921.got - 2010.06.03 13:09:07.
