data_PCOD9174719
_publ_section_title
;
Structure prediction by ZEFSAII (Michael W. Deem and Ramdas Pophale) SiO2 
 PCOD9174719
Probable space group: C 2/M
;
_chemical_formula_sum "Si O2"
_cell_formula_units_Z 64
_cell_length_a 12.830270
_cell_length_b 13.265873
_cell_length_c 27.178184
_cell_angle_alpha 90.000000
_cell_angle_beta 41.068770
_cell_angle_gamma 90.000000
_cell_volume 3039.022434
_symmetry_space_group_name_H-M "C 2/M"
_symmetry_group_IT_number 12
_symmetry_cell_setting 'monoclinic'
loop_
_space_group_symop_operation_xyz
x,y,z
-x,y,-z
-x,-y,-z
x,-y,z
1/2+x,1/2+y,z
1/2-x,1/2+y,-z
1/2-x,1/2-y,-z
1/2+x,1/2-y,z
loop_
_atom_site_type_symbol
_atom_site_label
_atom_site_fract_x
_atom_site_fract_y
_atom_site_fract_z
Si Si1 0.553763 0.822081 0.788790
Si Si2 0.761830 0.878299 0.056399
Si Si3 0.969302 0.611705 0.407399
Si Si4 0.542794 0.696404 0.432723
Si Si5 0.667712 0.386532 0.759263
Si Si6 0.409915 0.614657 0.688470
Si Si7 0.904386 0.298625 0.328660
Si Si8 0.576014 0.378706 0.900227
O O1 0.418326 0.843904 0.876278
O O2 0.562969 0.702426 0.775175
O O3 0.722249 0.861210 0.749084
O O4 0.524366 0.860967 0.743339
O O5 0.835519 0.842794 0.082443
O O6 0.757473 0.000000 0.057293
O O7 0.891102 0.846166 0.969660
O O8 0.929806 0.500000 0.439345
O O9 0.946673 0.700832 0.454675
O O10 0.155790 0.615106 0.325268
O O11 0.887752 0.636715 0.384535
O O12 0.500000 0.649517 0.500000
O O13 0.525861 0.628877 0.390318
O O14 0.727147 0.725689 0.373712
O O15 0.605238 0.500000 0.775968
O O16 0.664928 0.358038 0.818078
O O17 0.434417 0.500000 0.696625
O O18 0.495401 0.700677 0.690216
O O19 0.573384 0.500000 0.905221
#
# Coordination Sequence:
#
# PCOD9174719 Si02
#       8
#     8   8   8   8   8   8   8   8
#     4  11  20  33  55  81 108 142 185 224 270 321
#     4   9  17  29  49  77 107 139 176 225 277 319
#     4  10  20  36  57  83 107 139 184 226 264 316
#     4  10  22  40  58  81 113 143 177 220 265 322
#     4  10  18  32  52  75 105 137 179 226 265 313
#     4  10  22  38  55  82 112 142 180 221 269 325
#     4  10  20  37  55  80 107 145 175 223 267 317
#     4   8  16  30  48  74 105 137 178 227 273 317
#
# _framework density 21.059403
#
# number of rings (size 3 to 8) (size 9 to 14) (size 15 to 20)
#    0.000    2.250    3.750    1.875    0.000    7.500 
#    0.000    1.250    0.000    0.000    0.000    1.750 
#    0.000    0.000    0.000    0.000    0.000    0.000 
#
# Total GULP energy -178351.744059 kJ/mol
# GULP energy per Si atom -5573.492002 kJ/mol
# Density = 2.101147 g / cm^3
# Si number density = 21.059403 Si / 1000 Ang^3
#
#
#
# Elastic Constant Matrix: (Units=GPa)
#
#
# Indices 1 2 3 4 5 6 
#
# 1 40.6702 -6.1786 -3.6873 0.0000 -3.9347 0.0000
# 2 -6.1786 56.5161 -7.9726 0.0000 -6.8829 0.0000
# 3 -3.6873 -7.9726 38.0196 0.0000 4.9349 0.0000
# 4 0.0000 0.0000 0.0000 17.1266 0.0000 -1.3137
# 5 -3.9347 -6.8829 4.9349 0.0000 20.4861 0.0000
# 6 0.0000 0.0000 0.0000 -1.3137 0.0000 12.0869
#
#
#
# Elastic Compliance Matrix: (Units=1/GPa)
#
#
# Indices 1 2 3 4 5 6 
#
# 1 0.025964 0.003896 0.002599 0.000000 0.005670 0.000000
# 2 0.003896 0.019409 0.003617 0.000000 0.006398 0.000000
# 3 0.002599 0.003617 0.027965 0.000000 -0.005022 0.000000
# 4 0.000000 0.000000 0.000000 0.058880 0.000000 0.006400
# 5 0.005670 0.006398 -0.005022 0.000000 0.053262 0.000000
# 6 0.000000 0.000000 0.000000 0.006400 0.000000 0.083430
#
#
# Mechanical properties :
#
#
# Convention : Reuss Voigt Hill
#
# Bulk Modulus (GPa) = 10.68804 11.05876 10.87340
# Shear Modulus (GPa) = 17.86527 20.14287 19.00407
#
# Velocity S-wave (km/s) = 2.91577 3.09605 3.00726
# Velocity P-wave (km/s) = 4.05238 4.24775 4.15121
#
# Compressibility (1/GPa) = 0.09356254
#
# Stress axis : x y z
#
# Youngs Moduli (GPa) = 38.51483 51.52125 35.75937
#
# Poissons Ratio (x) = -0.20071 -0.09294
# Poissons Ratio (y) = -0.15004 -0.12936
# Poissons Ratio (z) = -0.10010 -0.18638
#
# Static dielectric constant tensor:
#      x y z
#    x 1.783770 0.000000 0.004920 
#    y 0.000000 1.775670 0.000000 
#    z 0.004920 0.000000 1.835330 
# 
# From -- ./inp_files/358398.got.cif
#   From: 2010.05.17/outbox.cif.g08.bks.cpg/sg12_180_cif.got.tgz:358398.got - 2010.06.03 13:09:07.
