data_PCOD9174497
_publ_section_title
;
Structure prediction by ZEFSAII (Michael W. Deem and Ramdas Pophale) SiO2 
 PCOD9174497
Probable space group: C 2/M
;
_chemical_formula_sum "Si O2"
_cell_formula_units_Z 40
_cell_length_a 9.462682
_cell_length_b 19.280943
_cell_length_c 14.587388
_cell_angle_alpha 90.000000
_cell_angle_beta 51.432476
_cell_angle_gamma 90.000000
_cell_volume 2080.926811
_symmetry_space_group_name_H-M "C 2/M"
_symmetry_group_IT_number 12
_symmetry_cell_setting 'monoclinic'
loop_
_space_group_symop_operation_xyz
x,y,z
-x,y,-z
-x,-y,-z
x,-y,z
1/2+x,1/2+y,z
1/2-x,1/2+y,-z
1/2-x,1/2-y,-z
1/2+x,1/2-y,z
loop_
_atom_site_type_symbol
_atom_site_label
_atom_site_fract_x
_atom_site_fract_y
_atom_site_fract_z
Si Si1 0.595925 0.678010 0.704711
Si Si2 0.059843 0.578253 0.740611
Si Si3 0.146598 0.194357 0.356648
Si Si4 0.667723 0.922513 0.486446
Si Si5 0.149331 0.917727 0.860793
O O1 0.738423 0.739117 0.659291
O O2 0.429968 0.709540 0.714730
O O3 0.661280 0.622755 0.602520
O O4 0.594260 0.632645 0.798740
O O5 0.072823 0.500000 0.775131
O O6 0.209690 0.631565 0.715774
O O7 0.114095 0.573909 0.612250
O O8 0.848391 0.599413 0.821856
O O9 0.000000 0.183256 0.500000
O O10 0.500000 0.890499 0.500000
O O11 0.694907 0.000000 0.439207
O O12 0.158960 0.000000 0.829116
O O13 0.000000 0.911806 0.000000
#
# Coordination Sequence:
#
# PCOD9174497 Si02
#       5
#     8   8   8   8   8
#     4  12  23  38  58  88 125 161 204 247 301 364
#     4  10  21  38  59  89 124 156 200 252 303 359
#     4  12  25  38  58  92 129 167 197 247 311 369
#     4  10  18  31  57  86 116 154 195 246 302 362
#     4  10  22  43  69  91 117 160 208 252 298 355
#
# _framework density 19.222204000000001
#
# number of rings (size 3 to 8) (size 9 to 14) (size 15 to 20)
#    0.000    1.200    4.000    3.000    0.000    2.000 
#    0.000    5.000    0.000    3.600    0.000    0.000 
#    0.000    0.000    0.000    0.000    0.000    0.000 
#
# Total GULP energy -111383.059842 kJ/mol
# GULP energy per Si atom -5569.152992 kJ/mol
# Density = 1.917845 g / cm^3
# Si number density = 19.222204 Si / 1000 Ang^3
#
#
#
# Elastic Constant Matrix: (Units=GPa)
#
#
# Indices 1 2 3 4 5 6 
#
# 1 119.0925 53.6678 30.8630 0.0000 -5.0561 0.0000
# 2 53.6678 79.8155 31.6380 0.0000 -8.6647 0.0000
# 3 30.8630 31.6380 82.1028 0.0000 -16.4880 0.0000
# 4 0.0000 0.0000 0.0000 36.3235 0.0000 19.4739
# 5 -5.0561 -8.6647 -16.4880 0.0000 14.6160 0.0000
# 6 0.0000 0.0000 0.0000 19.4739 0.0000 85.8366
#
#
#
# Elastic Compliance Matrix: (Units=1/GPa)
#
#
# Indices 1 2 3 4 5 6 
#
# 1 0.012331 -0.007714 -0.002230 0.000000 -0.002823 0.000000
# 2 -0.007714 0.019717 -0.003732 0.000000 0.004810 0.000000
# 3 -0.002230 -0.003732 0.017916 0.000000 0.017226 0.000000
# 4 0.000000 0.000000 0.000000 0.031343 0.000000 -0.007111
# 5 -0.002823 0.004810 0.017226 0.000000 0.089726 0.000000
# 6 0.000000 0.000000 0.000000 -0.007111 0.000000 0.013263
#
#
# Mechanical properties :
#
#
# Convention : Reuss Voigt Hill
#
# Bulk Modulus (GPa) = 44.22378 57.03870 50.63124
# Shear Modulus (GPa) = 22.81176 38.34469 30.57823
#
# Velocity S-wave (km/s) = 3.44865 4.47118 3.99278
# Velocity P-wave (km/s) = 6.23812 7.50953 6.90316
#
# Compressibility (1/GPa) = 0.02261227
#
# Stress axis : x y z
#
# Youngs Moduli (GPa) = 81.09617 50.71664 55.81716
#
# Poissons Ratio (x) = 0.39123 0.12445
# Poissons Ratio (y) = 0.62558 0.20833
# Poissons Ratio (z) = 0.18081 0.18929
#
# Static dielectric constant tensor:
#      x y z
#    x 1.455600 0.000000 0.076850 
#    y 0.000000 1.700270 0.000000 
#    z 0.076850 0.000000 1.616760 
# 
# From -- ./inp_files/118955.got.cif
#   From: 2010.05.17/outbox.cif.g08.bks.cpg/sg12_60_cif.got.tgz:118955.got - 2010.06.03 13:09:07.
