data_PCOD9174312
_publ_section_title
;
Structure prediction by ZEFSAII (Michael W. Deem and Ramdas Pophale) SiO2 
 PCOD9174312
Probable space group: C 2/M
;
_chemical_formula_sum "Si O2"
_cell_formula_units_Z 56
_cell_length_a 30.303123
_cell_length_b 7.779056
_cell_length_c 12.317495
_cell_angle_alpha 90.000000
_cell_angle_beta 109.993142
_cell_angle_gamma 90.000000
_cell_volume 2728.609672
_symmetry_space_group_name_H-M "C 2/M"
_symmetry_group_IT_number 12
_symmetry_cell_setting 'monoclinic'
loop_
_space_group_symop_operation_xyz
x,y,z
-x,y,-z
-x,-y,-z
x,-y,z
1/2+x,1/2+y,z
1/2-x,1/2+y,-z
1/2-x,1/2-y,-z
1/2+x,1/2-y,z
loop_
_atom_site_type_symbol
_atom_site_label
_atom_site_fract_x
_atom_site_fract_y
_atom_site_fract_z
Si Si1 0.550321 0.203149 0.996930
Si Si2 0.402126 0.710586 0.368120
Si Si3 0.313631 0.701837 0.157388
Si Si4 0.021961 0.207805 0.737338
Si Si5 0.085425 0.210780 0.374835
Si Si6 0.361757 0.302332 0.789516
Si Si7 0.291176 0.799635 0.906598
O O1 0.549007 0.233135 0.867501
O O2 0.554513 0.000000 0.022590
O O3 0.500000 0.264271 0.000000
O O4 0.592806 0.292452 0.094180
O O5 0.402252 0.500000 0.367742
O O6 0.357260 0.772780 0.261664
O O7 0.449392 0.762979 0.344848
O O8 0.401400 0.763671 0.492564
O O9 0.312276 0.500000 0.183106
O O10 0.261791 0.773259 0.141467
O O11 0.318521 0.718636 0.031631
O O12 0.968018 0.266919 0.694312
O O13 0.021138 0.000000 0.737561
O O14 0.120744 0.270816 0.310718
O O15 0.085386 0.000000 0.370942
O O16 0.348501 0.500000 0.761778
O O17 0.319426 0.217910 0.819411
O O18 0.287443 0.000000 0.931111
#
# Coordination Sequence:
#
# PCOD9174312 Si02
#       7
#     8   8   8   8   8   8   8
#     4  11  22  34  50  74 107 140 169 209 260 309
#     4   9  17  31  53  78 102 131 173 220 262 302
#     4   9  18  34  56  81 105 134 173 217 263 312
#     4  10  18  31  54  80 104 134 174 216 258 308
#     4   9  18  31  49  76 106 136 172 217 257 300
#     4  11  21  34  53  76 105 139 177 213 254 310
#     4  10  20  34  54  79 108 136 169 216 267 314
#
# _framework density 20.523271999999999
#
# number of rings (size 3 to 8) (size 9 to 14) (size 15 to 20)
#    0.000    2.143    1.429    2.571    0.000    4.000 
#    0.000    0.714    0.000    6.000    0.000    0.000 
#    0.000    0.000    0.000    0.000    0.000    0.000 
#
# Total GULP energy -156359.341221 kJ/mol
# GULP energy per Si atom -5584.262186 kJ/mol
# Density = 2.047656 g / cm^3
# Si number density = 20.523272 Si / 1000 Ang^3
#
#
#
# Elastic Constant Matrix: (Units=GPa)
#
#
# Indices 1 2 3 4 5 6 
#
# 1 100.3871 1.8875 40.7808 0.0000 -31.4890 0.0000
# 2 1.8875 24.9517 -9.3867 0.0000 2.5191 0.0000
# 3 40.7808 -9.3867 95.0568 0.0000 -29.8938 0.0000
# 4 0.0000 0.0000 0.0000 -3.6861 0.0000 1.8844
# 5 -31.4890 2.5191 -29.8938 0.0000 32.9155 0.0000
# 6 0.0000 0.0000 0.0000 1.8844 0.0000 11.3054
#
#
#
# Elastic Compliance Matrix: (Units=1/GPa)
#
#
# Indices 1 2 3 4 5 6 
#
# 1 0.014973 -0.003473 -0.003049 0.000000 0.011821 0.000000
# 2 -0.003473 0.042443 0.005060 0.000000 -0.001976 0.000000
# 3 -0.003049 0.005060 0.015802 0.000000 0.011047 0.000000
# 4 0.000000 0.000000 0.000000 -0.249989 0.000000 0.041667
# 5 0.011821 -0.001976 0.011047 0.000000 0.051873 0.000000
# 6 0.000000 0.000000 0.000000 0.041667 0.000000 0.081508
#
#
# Mechanical properties :
#
#
# Convention : Reuss Voigt Hill
#
# Bulk Modulus (GPa) = 14.22610 31.88431 23.05521
# Shear Modulus (GPa) = -293.54518 20.58125 -136.48196
#
# Velocity S-wave (km/s) = -11.97251 3.17018 -8.16367
# Velocity P-wave (km/s) = 13.57109 5.38233 8.80923
#
# Compressibility (1/GPa) = 0.07029332
#
# Stress axis : x y z
#
# Youngs Moduli (GPa) = 66.78509 23.56094 63.28333
#
# Poissons Ratio (x) = 0.08183 0.19297
# Poissons Ratio (y) = 0.23196 -0.32021
# Poissons Ratio (z) = 0.20365 -0.11922
#
# Static dielectric constant tensor:
#      x y z
#    x 1.740720 0.000000 -0.006230 
#    y 0.000000 1.760210 0.000000 
#    z -0.006230 0.000000 1.702210 
# 
# From -- ./inp_files/186844.got.cif
#   From: 2010.05.17/outbox.cif.g08.bks.cpg/sg12_94_cif.got.tgz:186844.got - 2010.06.03 13:09:07.
