data_PCOD9174408
_publ_section_title
;
Structure prediction by ZEFSAII (Michael W. Deem and Ramdas Pophale) SiO2 
 PCOD9174408
Probable space group: C 2/M
;
_chemical_formula_sum "Si O2"
_cell_formula_units_Z 64
_cell_length_a 33.625007
_cell_length_b 9.207547
_cell_length_c 10.913575
_cell_angle_alpha 90.000000
_cell_angle_beta 92.654562
_cell_angle_gamma 90.000000
_cell_volume 3375.258825
_symmetry_space_group_name_H-M "C 2/M"
_symmetry_group_IT_number 12
_symmetry_cell_setting 'monoclinic'
loop_
_space_group_symop_operation_xyz
x,y,z
-x,y,-z
-x,-y,-z
x,-y,z
1/2+x,1/2+y,z
1/2-x,1/2+y,-z
1/2-x,1/2-y,-z
1/2+x,1/2-y,z
loop_
_atom_site_type_symbol
_atom_site_label
_atom_site_fract_x
_atom_site_fract_y
_atom_site_fract_z
Si Si1 0.565912 0.168228 0.579600
Si Si2 0.010854 0.332524 0.815348
Si Si3 0.867255 0.167773 0.273035
Si Si4 0.445541 0.670416 0.664986
Si Si5 0.869036 0.828270 0.802070
Si Si6 0.423117 0.332798 0.039459
Si Si7 0.708647 0.828059 0.138586
Si Si8 0.291792 0.827380 0.153736
O O1 0.537383 0.173435 0.694202
O O2 0.606541 0.248981 0.622896
O O3 0.547144 0.248054 0.460814
O O4 0.572882 0.000000 0.550930
O O5 0.000951 0.500000 0.838295
O O6 0.039016 0.265190 0.923548
O O7 0.972497 0.238221 0.775958
O O8 0.894746 0.168054 0.154854
O O9 0.826809 0.249747 0.233133
O O10 0.860212 0.000000 0.305904
O O11 0.454290 0.500000 0.655963
O O12 0.399217 0.688739 0.693816
O O13 0.828983 0.736638 0.795601
O O14 0.859553 0.000000 0.814579
O O15 0.895506 0.784379 0.923718
O O16 0.435564 0.500000 0.018232
O O17 0.749202 0.744257 0.175960
O O18 0.713167 0.000000 0.158605
O O19 0.701324 0.804374 0.991477
O O20 0.291398 0.000000 0.175430
#
# Coordination Sequence:
#
# PCOD9174408 Si02
#       8
#     8   8   8   8   8   8   8   8
#     4  10  21  37  56  78 106 137 176 225 273 314
#     4  10  21  36  55  78 105 135 173 225 274 314
#     4  10  18  31  55  82 108 138 176 219 264 314
#     4  11  23  37  55  77 103 140 183 221 265 319
#     4  10  21  37  54  75 108 145 178 217 263 317
#     4   9  18  33  53  76 105 140 174 213 264 316
#     4  10  20  32  51  79 110 144 179 215 256 310
#     4  10  19  31  51  80 113 143 174 214 262 310
#
# _framework density 18.961510000000001
#
# number of rings (size 3 to 8) (size 9 to 14) (size 15 to 20)
#    0.000    2.000    1.250    2.625    0.000    6.500 
#    0.000    2.500    0.000    0.750    0.000    0.000 
#    0.000    0.000    0.000    0.000    0.000    0.000 
#
# Total GULP energy -178783.999359 kJ/mol
# GULP energy per Si atom -5586.999980 kJ/mol
# Density = 1.891835 g / cm^3
# Si number density = 18.961510 Si / 1000 Ang^3
#
#
#
# Elastic Constant Matrix: (Units=GPa)
#
#
# Indices 1 2 3 4 5 6 
#
# 1 108.5458 68.5827 6.7628 0.0000 14.1271 0.0000
# 2 68.5827 118.8174 15.6423 0.0000 6.3119 0.0000
# 3 6.7628 15.6423 32.5815 0.0000 5.5753 0.0000
# 4 0.0000 0.0000 0.0000 20.4228 0.0000 6.1729
# 5 14.1271 6.3119 5.5753 0.0000 19.0651 0.0000
# 6 0.0000 0.0000 0.0000 6.1729 0.0000 36.7750
#
#
#
# Elastic Compliance Matrix: (Units=1/GPa)
#
#
# Indices 1 2 3 4 5 6 
#
# 1 0.016060 -0.009111 0.002696 0.000000 -0.009673 0.000000
# 2 -0.009111 0.014212 -0.005560 0.000000 0.003672 0.000000
# 3 0.002696 -0.005560 0.034558 0.000000 -0.010263 0.000000
# 4 0.000000 0.000000 0.000000 0.051582 0.000000 -0.008658
# 5 -0.009673 0.003672 -0.010263 0.000000 0.061405 0.000000
# 6 0.000000 0.000000 0.000000 -0.008658 0.000000 0.028646
#
#
# Mechanical properties :
#
#
# Convention : Reuss Voigt Hill
#
# Bulk Modulus (GPa) = 24.46222 49.10225 36.78223
# Shear Modulus (GPa) = 20.48827 26.51636 23.50232
#
# Velocity S-wave (km/s) = 3.29069 3.74362 3.52444
# Velocity P-wave (km/s) = 5.23137 6.68118 6.00022
#
# Compressibility (1/GPa) = 0.04087936
#
# Stress axis : x y z
#
# Youngs Moduli (GPa) = 62.26482 70.36114 28.93648
#
# Poissons Ratio (x) = 0.64108 -0.07801
# Poissons Ratio (y) = 0.56732 0.16090
# Poissons Ratio (z) = -0.16786 0.39124
#
# Static dielectric constant tensor:
#      x y z
#    x 1.644050 0.000000 -0.021750 
#    y 0.000000 1.634650 0.000000 
#    z -0.021750 0.000000 1.657930 
# 
# From -- ./inp_files/187407.got.cif
#   From: 2010.05.17/outbox.cif.g08.bks.cpg/sg12_94_cif.got.tgz:187407.got - 2010.06.03 13:09:07.
