data_PCOD9174102
_publ_section_title
;
Structure prediction by ZEFSAII (Michael W. Deem and Ramdas Pophale) SiO2 
 PCOD9174102
Probable space group: C 2/M
;
_chemical_formula_sum "Si O2"
_cell_formula_units_Z 64
_cell_length_a 23.296732
_cell_length_b 14.838664
_cell_length_c 10.949415
_cell_angle_alpha 90.000000
_cell_angle_beta 113.034150
_cell_angle_gamma 90.000000
_cell_volume 3483.347776
_symmetry_space_group_name_H-M "C 2/M"
_symmetry_group_IT_number 12
_symmetry_cell_setting 'monoclinic'
loop_
_space_group_symop_operation_xyz
x,y,z
-x,y,-z
-x,-y,-z
x,-y,z
1/2+x,1/2+y,z
1/2-x,1/2+y,-z
1/2-x,1/2-y,-z
1/2+x,1/2-y,z
loop_
_atom_site_type_symbol
_atom_site_label
_atom_site_fract_x
_atom_site_fract_y
_atom_site_fract_z
Si Si1 0.856232 0.606250 0.295096
Si Si2 0.733881 0.287874 0.119914
Si Si3 0.609034 0.599326 0.274716
Si Si4 0.108417 0.100619 0.003795
Si Si5 0.979171 0.696169 0.350824
Si Si6 0.799556 0.731584 0.648474
Si Si7 0.981590 0.101341 0.300880
Si Si8 0.102975 0.392416 0.389643
O O1 0.859307 0.500000 0.279274
O O2 0.789115 0.643571 0.201871
O O3 0.912333 0.653248 0.266823
O O4 0.870392 0.624255 0.450653
O O5 0.728470 0.225899 0.237745
O O6 0.750000 0.250000 0.000000
O O7 0.666023 0.332218 0.047997
O O8 0.639220 0.500000 0.308225
O O9 0.657370 0.679330 0.322648
O O10 0.554416 0.603507 0.327390
O O11 0.579424 0.605894 0.114730
O O12 0.058533 0.110592 0.856155
O O13 0.135177 0.000000 0.013495
O O14 0.969500 0.803648 0.355752
O O15 0.000000 0.658955 0.500000
O O16 0.038064 0.663633 0.319013
O O17 0.750000 0.750000 0.500000
O O18 0.844092 0.647494 0.654575
O O19 0.967620 0.000000 0.340145
O O20 0.092623 0.500000 0.367816
#
# Coordination Sequence:
#
# PCOD9174102 Si02
#       8
#     8   8   8   8   8   8   8   8
#     4  10  20  36  60  84 111 155 205 243 282 343
#     4  11  22  36  56  85 118 153 189 235 293 351
#     4   9  18  32  54  81 107 138 183 233 282 336
#     4   9  18  32  51  76 103 140 186 230 274 334
#     4  10  20  34  55  82 115 150 195 245 290 344
#     4  11  21  37  59  85 117 148 191 240 292 345
#     4  10  18  31  52  78 111 145 184 234 290 343
#     4  10  20  37  59  85 113 150 198 251 294 337
#
# _framework density 18.373128999999999
#
# number of rings (size 3 to 8) (size 9 to 14) (size 15 to 20)
#    0.000    2.000    2.500    1.875    0.000    4.250 
#    0.000    1.250    0.000    0.750    0.000    3.500 
#    0.000    0.000    0.000    0.000    0.000    0.000 
#
# Total GULP energy -178184.255859 kJ/mol
# GULP energy per Si atom -5568.257996 kJ/mol
# Density = 1.833131 g / cm^3
# Si number density = 18.373129 Si / 1000 Ang^3
#
#
#
# Elastic Constant Matrix: (Units=GPa)
#
#
# Indices 1 2 3 4 5 6 
#
# 1 70.0175 26.9275 15.0802 0.0000 -4.1703 0.0000
# 2 26.9275 80.4307 19.0895 0.0000 2.1772 0.0000
# 3 15.0802 19.0895 62.1447 0.0000 -0.6592 0.0000
# 4 0.0000 0.0000 0.0000 24.2787 0.0000 2.0561
# 5 -4.1703 2.1772 -0.6592 0.0000 24.0337 0.0000
# 6 0.0000 0.0000 0.0000 2.0561 0.0000 23.9535
#
#
#
# Elastic Compliance Matrix: (Units=1/GPa)
#
#
# Indices 1 2 3 4 5 6 
#
# 1 0.017018 -0.005195 -0.002498 0.000000 0.003355 0.000000
# 2 -0.005195 0.015039 -0.003384 0.000000 -0.002357 0.000000
# 3 -0.002498 -0.003384 0.017741 0.000000 0.000360 0.000000
# 4 0.000000 0.000000 0.000000 0.041490 0.000000 -0.003561
# 5 0.003355 -0.002357 0.000360 0.000000 0.042414 0.000000
# 6 0.000000 0.000000 0.000000 -0.003561 0.000000 0.042053
#
#
# Mechanical properties :
#
#
# Convention : Reuss Voigt Hill
#
# Bulk Modulus (GPa) = 36.17516 37.19860 36.68688
# Shear Modulus (GPa) = 24.14000 24.55289 24.34645
#
# Velocity S-wave (km/s) = 3.62867 3.65958 3.64416
# Velocity P-wave (km/s) = 6.10641 6.17631 6.14146
#
# Compressibility (1/GPa) = 0.02764328
#
# Stress axis : x y z
#
# Youngs Moduli (GPa) = 58.76106 66.49200 56.36663
#
# Poissons Ratio (x) = 0.34545 0.14081
# Poissons Ratio (y) = 0.30529 0.19075
# Poissons Ratio (z) = 0.14679 0.22501
#
# Static dielectric constant tensor:
#      x y z
#    x 1.653460 0.000000 -0.027420 
#    y 0.000000 1.648390 0.000000 
#    z -0.027420 0.000000 1.646840 
# 
# From -- ./inp_files/176132.got.cif
#   From: 2010.05.17/outbox.cif.g08.bks.cpg/sg12_89_cif.got.tgz:176132.got - 2010.06.03 13:09:07.
