data_PCOD9174075
_publ_section_title
;
Structure prediction by ZEFSAII (Michael W. Deem and Ramdas Pophale) SiO2 
 PCOD9174075
Probable space group: C 2/M
;
_chemical_formula_sum "Si O2"
_cell_formula_units_Z 56
_cell_length_a 19.111949
_cell_length_b 11.919711
_cell_length_c 11.331565
_cell_angle_alpha 90.000000
_cell_angle_beta 87.654748
_cell_angle_gamma 90.000000
_cell_volume 2579.269218
_symmetry_space_group_name_H-M "C 2/M"
_symmetry_group_IT_number 12
_symmetry_cell_setting 'monoclinic'
loop_
_space_group_symop_operation_xyz
x,y,z
-x,y,-z
-x,-y,-z
x,-y,z
1/2+x,1/2+y,z
1/2-x,1/2+y,-z
1/2-x,1/2-y,-z
1/2+x,1/2-y,z
loop_
_atom_site_type_symbol
_atom_site_label
_atom_site_fract_x
_atom_site_fract_y
_atom_site_fract_z
Si Si1 0.815703 0.376981 0.605953
Si Si2 0.516793 0.627355 0.633310
Si Si3 0.837966 0.797357 0.439110
Si Si4 0.215466 0.299511 0.142615
Si Si5 0.542287 0.266756 0.874950
Si Si6 0.843993 0.880230 0.996924
Si Si7 0.166862 0.631143 0.769698
O O1 0.842783 0.500000 0.568848
O O2 0.851630 0.260095 0.564043
O O3 0.735884 0.359838 0.564312
O O4 0.810891 0.369752 0.746555
O O5 0.500000 0.669756 0.500000
O O6 0.489212 0.500000 0.644822
O O7 0.601271 0.628092 0.617930
O O8 0.502828 0.695957 0.756148
O O9 0.837324 0.684591 0.359691
O O10 0.154607 0.231501 0.081926
O O11 0.268849 0.201453 0.181162
O O12 0.266212 0.373411 0.057803
O O13 0.594099 0.164136 0.838370
O O14 0.500000 0.249099 0.000000
O O15 0.597794 0.364906 0.906312
O O16 0.854308 0.000000 0.935937
O O17 0.179411 0.500000 0.770399
#
# Coordination Sequence:
#
# PCOD9174075 Si02
#       7
#     8   8   8   8   8   8   8
#     4  10  18  31  52  77 110 143 173 216 266 320
#     4  10  21  38  59  79 105 141 178 223 274 319
#     4   9  19  32  51  80 107 137 180 218 259 321
#     4   9  19  31  49  79 105 134 176 215 259 320
#     4  10  22  37  55  81 108 138 183 226 264 320
#     4  10  19  33  52  73 105 140 170 214 269 320
#     4   9  17  33  55  76 106 142 173 214 267 316
#
# _framework density 21.711576000000001
#
# number of rings (size 3 to 8) (size 9 to 14) (size 15 to 20)
#    0.000    2.429    0.000    3.000    0.000    2.571 
#    0.000    4.286    0.000   14.143    0.000    0.000 
#    0.000    0.000    0.000    0.000    0.000    0.000 
#
# Total GULP energy -155888.730844 kJ/mol
# GULP energy per Si atom -5567.454673 kJ/mol
# Density = 2.166216 g / cm^3
# Si number density = 21.711576 Si / 1000 Ang^3
#
#
#
# Elastic Constant Matrix: (Units=GPa)
#
#
# Indices 1 2 3 4 5 6 
#
# 1 35.1535 -1.8605 13.9434 0.0000 -1.8789 0.0000
# 2 -1.8605 101.2347 4.5753 0.0000 6.7209 0.0000
# 3 13.9434 4.5753 99.2059 0.0000 4.6518 0.0000
# 4 0.0000 0.0000 0.0000 17.9083 0.0000 -0.1080
# 5 -1.8789 6.7209 4.6518 0.0000 32.3061 0.0000
# 6 0.0000 0.0000 0.0000 -0.1080 0.0000 2.6808
#
#
#
# Elastic Compliance Matrix: (Units=1/GPa)
#
#
# Indices 1 2 3 4 5 6 
#
# 1 0.030345 0.000606 -0.004399 0.000000 0.002272 0.000000
# 2 0.000606 0.010042 -0.000455 0.000000 -0.001988 0.000000
# 3 -0.004399 -0.000455 0.010800 0.000000 -0.001716 0.000000
# 4 0.000000 0.000000 0.000000 0.055854 0.000000 0.002249
# 5 0.002272 -0.001988 -0.001716 0.000000 0.031747 0.000000
# 6 0.000000 0.000000 0.000000 0.002249 0.000000 0.373109
#
#
# Mechanical properties :
#
#
# Convention : Reuss Voigt Hill
#
# Bulk Modulus (GPa) = 23.42517 29.87893 26.65205
# Shear Modulus (GPa) = 9.35236 25.17477 17.26357
#
# Velocity S-wave (km/s) = 2.07771 3.40885 2.82287
# Velocity P-wave (km/s) = 4.07045 5.41159 4.78821
#
# Compressibility (1/GPa) = 0.04268913
#
# Stress axis : x y z
#
# Youngs Moduli (GPa) = 32.95415 99.58436 92.59385
#
# Poissons Ratio (x) = -0.06032 0.40737
# Poissons Ratio (y) = -0.01996 0.04213
# Poissons Ratio (z) = 0.14498 0.04531
#
# Static dielectric constant tensor:
#      x y z
#    x 1.816930 0.000000 0.017270 
#    y 0.000000 1.745340 0.000000 
#    z 0.017270 0.000000 1.922520 
# 
# From -- ./inp_files/164884.got.cif
#   From: 2010.05.17/outbox.cif.g08.bks.cpg/sg12_83_cif.got.tgz:164884.got - 2010.06.03 13:09:07.
