data_PCOD9174399
_publ_section_title
;
Structure prediction by ZEFSAII (Michael W. Deem and Ramdas Pophale) SiO2 
 PCOD9174399
Probable space group: C 2/M
;
_chemical_formula_sum "Si O2"
_cell_formula_units_Z 56
_cell_length_a 12.529671
_cell_length_b 14.734646
_cell_length_c 31.921690
_cell_angle_alpha 90.000000
_cell_angle_beta 28.131080
_cell_angle_gamma 90.000000
_cell_volume 2778.676772
_symmetry_space_group_name_H-M "C 2/M"
_symmetry_group_IT_number 12
_symmetry_cell_setting 'monoclinic'
loop_
_space_group_symop_operation_xyz
x,y,z
-x,y,-z
-x,-y,-z
x,-y,z
1/2+x,1/2+y,z
1/2-x,1/2+y,-z
1/2-x,1/2-y,-z
1/2+x,1/2-y,z
loop_
_atom_site_type_symbol
_atom_site_label
_atom_site_fract_x
_atom_site_fract_y
_atom_site_fract_z
Si Si1 0.699798 0.896164 0.402498
Si Si2 0.321625 0.889186 0.921137
Si Si3 0.651090 0.389829 0.886896
Si Si4 0.449845 0.653948 0.608232
Si Si5 0.449409 0.106507 0.310138
Si Si6 0.815651 0.895018 0.745323
Si Si7 0.558274 0.138334 0.589668
O O1 0.500000 0.853005 0.500000
O O2 0.615021 0.899765 0.384526
O O3 0.947481 0.853113 0.321158
O O4 0.724542 0.000000 0.410251
O O5 0.254494 0.865979 0.896540
O O6 0.574671 0.854832 0.842352
O O7 0.329683 0.000000 0.919743
O O8 0.110668 0.859280 0.022768
O O9 0.643743 0.500000 0.887709
O O10 0.824214 0.359563 0.791378
O O11 0.272397 0.654757 0.631767
O O12 0.333924 0.607779 0.688496
O O13 0.518847 0.754224 0.598930
O O14 0.688120 0.611292 0.512025
O O15 0.473863 0.113237 0.351265
O O16 0.419006 0.000000 0.309760
O O17 0.813365 0.000000 0.760302
#
# Coordination Sequence:
#
# PCOD9174399 Si02
#       7
#     8   8   8   8   8   8   8
#     4  10  20  34  54  74 101 140 182 223 259 313
#     4   8  13  25  48  81 110 133 170 225 278 319
#     4   8  14  26  49  81 112 134 167 226 282 322
#     4  11  23  36  53  76 108 148 183 219 271 329
#     4  11  22  37  59  87 113 141 183 235 283 322
#     4  10  18  31  55  81 104 134 183 230 263 309
#     4  11  25  37  52  75 114 149 181 218 273 335
#
# _framework density 20.153478
#
# number of rings (size 3 to 8) (size 9 to 14) (size 15 to 20)
#    0.000    2.143    2.857    2.143    2.000    2.286 
#    0.000    0.000    0.000    1.714    3.714    5.000 
#    0.000    0.000    0.000    0.000    0.000    0.000 
#
# Total GULP energy -156199.350826 kJ/mol
# GULP energy per Si atom -5578.548244 kJ/mol
# Density = 2.010761 g / cm^3
# Si number density = 20.153478 Si / 1000 Ang^3
#
#
#
# Elastic Constant Matrix: (Units=GPa)
#
#
# Indices 1 2 3 4 5 6 
#
# 1 115.6499 -4.0863 65.6834 0.0014 -21.1997 -0.0015
# 2 -4.0863 31.0377 10.7934 0.0014 -3.9770 0.0038
# 3 65.6834 10.7934 151.9521 0.0056 -37.8955 0.0097
# 4 0.0014 0.0014 0.0056 10.2077 0.0061 -3.3321
# 5 -21.1997 -3.9770 -37.8955 0.0061 38.2044 0.0132
# 6 -0.0015 0.0038 0.0097 -3.3321 0.0132 1.9809
#
#
#
# Elastic Compliance Matrix: (Units=1/GPa)
#
#
# Indices 1 2 3 4 5 6 
#
# 1 0.011935 0.003542 -0.004872 0.000007 0.002158 0.000023
# 2 0.003542 0.034149 -0.003428 -0.000053 0.002120 -0.000149
# 3 -0.004872 -0.003428 0.010852 -0.000094 0.007704 -0.000260
# 4 0.000007 -0.000053 -0.000094 0.217261 -0.000257 0.365455
# 5 0.002158 0.002120 0.007704 -0.000257 0.035235 -0.000706
# 6 0.000023 -0.000149 -0.000260 0.365455 -0.000706 1.119554
#
#
# Mechanical properties :
#
#
# Convention : Reuss Voigt Hill
#
# Bulk Modulus (GPa) = 21.08839 49.26895 35.17867
# Shear Modulus (GPa) = 3.43806 25.16189 14.29997
#
# Velocity S-wave (km/s) = 1.30753 3.53726 2.66663
# Velocity P-wave (km/s) = 3.57297 6.41739 5.19370
#
# Compressibility (1/GPa) = 0.04741946
#
# Stress axis : x y z
#
# Youngs Moduli (GPa) = 83.78823 29.28342 92.14956
#
# Poissons Ratio (x) = -0.10373 0.44898
# Poissons Ratio (y) = -0.29680 0.31590
# Poissons Ratio (z) = 0.40824 0.10039
#
# Static dielectric constant tensor:
#      x y z
#    x 1.690390 0.000000 -0.033050 
#    y 0.000000 1.569070 0.000040 
#    z -0.033050 0.000040 1.751340 
# 
# From -- ./inp_files/263821.got.cif
#   From: 2010.05.17/outbox.cif.g08.bks.cpg/sg12_132_cif.got.tgz:263821.got - 2010.06.03 13:09:07.
