data_PCOD9174375
_publ_section_title
;
Structure prediction by ZEFSAII (Michael W. Deem and Ramdas Pophale) SiO2 
 PCOD9174375
Probable space group: C 2/M
;
_chemical_formula_sum "Si O2"
_cell_formula_units_Z 56
_cell_length_a 8.997369
_cell_length_b 28.967081
_cell_length_c 13.906051
_cell_angle_alpha 90.000000
_cell_angle_beta 127.482925
_cell_angle_gamma 90.000000
_cell_volume 2876.007537
_symmetry_space_group_name_H-M "C 2/M"
_symmetry_group_IT_number 12
_symmetry_cell_setting 'monoclinic'
loop_
_space_group_symop_operation_xyz
x,y,z
-x,y,-z
-x,-y,-z
x,-y,z
1/2+x,1/2+y,z
1/2-x,1/2+y,-z
1/2-x,1/2-y,-z
1/2+x,1/2-y,z
loop_
_atom_site_type_symbol
_atom_site_label
_atom_site_fract_x
_atom_site_fract_y
_atom_site_fract_z
Si Si1 0.002138 0.303481 0.761156
Si Si2 0.928517 0.373911 0.364735
Si Si3 0.350881 0.450691 0.026304
Si Si4 0.369816 0.875889 0.855910
Si Si5 0.033131 0.447280 0.243432
Si Si6 0.902560 0.234710 0.871150
Si Si7 0.519003 0.643289 0.824472
O O1 0.972359 0.329747 0.648479
O O2 0.203248 0.280885 0.829878
O O3 0.996425 0.344146 0.836968
O O4 0.881402 0.263820 0.764921
O O5 0.703217 0.365030 0.280340
O O6 0.000000 0.380463 0.500000
O O7 0.980890 0.417350 0.317039
O O8 0.359897 0.500000 0.084327
O O9 0.401660 0.404568 0.101985
O O10 0.500000 0.452609 0.000000
O O11 0.152247 0.448045 0.895964
O O12 0.325388 0.920319 0.771866
O O13 0.175305 0.849752 0.803430
O O14 0.500000 0.885856 0.000000
O O15 0.085190 0.500000 0.286428
O O16 0.020028 0.188411 0.892337
O O17 0.000000 0.260088 0.000000
#
# Coordination Sequence:
#
# PCOD9174375 Si02
#       7
#     8   8   8   8   8   8   8
#     4  10  22  37  54  83 113 149 191 231 287 337
#     4  10  23  42  61  79 110 153 202 244 277 325
#     4  10  18  31  54  86 119 146 182 233 287 346
#     4  11  20  33  54  85 125 150 177 227 289 358
#     4  10  21  36  57  85 118 152 188 235 287 340
#     4  11  20  33  57  84 118 148 184 233 288 352
#     4  11  21  34  57  87 116 153 188 230 284 341
#
# _framework density 19.471437999999999
#
# number of rings (size 3 to 8) (size 9 to 14) (size 15 to 20)
#    0.000    1.571    2.857    3.000    2.000    1.143 
#    0.000    5.714    0.000    0.857    0.000    0.000 
#    0.000    0.000    0.000    0.000    0.000    0.000 
#
# Total GULP energy -155956.547713 kJ/mol
# GULP energy per Si atom -5569.876704 kJ/mol
# Density = 1.942712 g / cm^3
# Si number density = 19.471438 Si / 1000 Ang^3
#
#
#
# Elastic Constant Matrix: (Units=GPa)
#
#
# Indices 1 2 3 4 5 6 
#
# 1 102.8854 20.9915 19.0813 0.0000 -20.5945 0.0000
# 2 20.9915 96.1890 29.0521 0.0000 -14.1800 0.0000
# 3 19.0813 29.0521 70.5887 0.0000 -18.1905 0.0000
# 4 0.0000 0.0000 0.0000 20.0342 0.0000 -13.5331
# 5 -20.5945 -14.1800 -18.1905 0.0000 17.6151 0.0000
# 6 0.0000 0.0000 0.0000 -13.5331 0.0000 37.1183
#
#
#
# Elastic Compliance Matrix: (Units=1/GPa)
#
#
# Indices 1 2 3 4 5 6 
#
# 1 0.012755 -0.000793 0.000759 0.000000 0.015057 0.000000
# 2 -0.000793 0.012431 -0.003491 0.000000 0.005475 0.000000
# 3 0.000759 -0.003491 0.020307 0.000000 0.019047 0.000000
# 4 0.000000 0.000000 0.000000 0.066225 0.000000 0.024145
# 5 0.015057 0.005475 0.019047 0.000000 0.098449 0.000000
# 6 0.000000 0.000000 0.000000 0.024145 0.000000 0.035744
#
#
# Mechanical properties :
#
#
# Convention : Reuss Voigt Hill
#
# Bulk Modulus (GPa) = 26.01354 45.32365 35.66859
# Shear Modulus (GPa) = 18.81297 28.32273 23.56785
#
# Velocity S-wave (km/s) = 3.11172 3.81803 3.48283
# Velocity P-wave (km/s) = 5.12828 6.53942 5.87636
#
# Compressibility (1/GPa) = 0.03844152
#
# Stress axis : x y z
#
# Youngs Moduli (GPa) = 78.40316 80.44622 49.24523
#
# Poissons Ratio (x) = 0.06379 -0.03736
# Poissons Ratio (y) = 0.06217 0.17191
# Poissons Ratio (z) = -0.05949 0.28083
#
# Static dielectric constant tensor:
#      x y z
#    x 1.654600 0.000000 0.021720 
#    y 0.000000 1.794310 0.000000 
#    z 0.021720 0.000000 1.613000 
# 
# From -- ./inp_files/125825.got.cif
#   From: 2010.05.17/outbox.cif.g08.bks.cpg/sg12_63_cif.got.tgz:125825.got - 2010.06.03 13:09:07.
