data_PCOD9174358
_publ_section_title
;
Structure prediction by ZEFSAII (Michael W. Deem and Ramdas Pophale) SiO2 
 PCOD9174358
Probable space group: C 2/M
;
_chemical_formula_sum "Si O2"
_cell_formula_units_Z 48
_cell_length_a 25.931617
_cell_length_b 8.498909
_cell_length_c 24.819700
_cell_angle_alpha 90.000000
_cell_angle_beta 150.779115
_cell_angle_gamma 90.000000
_cell_volume 2670.344830
_symmetry_space_group_name_H-M "C 2/M"
_symmetry_group_IT_number 12
_symmetry_cell_setting 'monoclinic'
loop_
_space_group_symop_operation_xyz
x,y,z
-x,y,-z
-x,-y,-z
x,-y,z
1/2+x,1/2+y,z
1/2-x,1/2+y,-z
1/2-x,1/2-y,-z
1/2+x,1/2-y,z
loop_
_atom_site_type_symbol
_atom_site_label
_atom_site_fract_x
_atom_site_fract_y
_atom_site_fract_z
Si Si1 0.661204 0.809915 0.278979
Si Si2 0.563943 0.190182 0.873712
Si Si3 0.549422 0.311748 0.740525
Si Si4 0.684501 0.813398 0.491478
Si Si5 0.761879 0.691957 0.879489
Si Si6 0.621220 0.192153 0.121176
O O1 0.550040 0.765735 0.205626
O O2 0.756196 0.743692 0.400882
O O3 0.658271 0.757890 0.214159
O O4 0.666794 0.000000 0.284973
O O5 0.576061 0.261597 0.825806
O O6 0.566293 0.000000 0.871593
O O7 0.655390 0.238975 0.998537
O O8 0.544112 0.500000 0.733282
O O9 0.435444 0.244896 0.621400
O O10 0.644655 0.256986 0.788814
O O11 0.750000 0.750000 0.500000
O O12 0.685742 0.000000 0.489882
O O13 0.762427 0.500000 0.879353
O O14 0.805328 0.744315 0.861205
O O15 0.621059 0.000000 0.121061
O O16 0.500000 0.240104 0.000000
#
# Coordination Sequence:
#
# PCOD9174358 Si02
#       6
#     8   8   8   8   8   8
#     4  10  19  32  57  88 112 138 179 226 272 320
#     4  10  18  31  54  83 115 145 178 224 275 326
#     4  11  22  35  53  80 115 150 185 224 271 326
#     4  12  24  39  58  78 107 143 185 230 275 325
#     4   9  18  32  52  83 117 148 184 225 269 322
#     4   9  15  29  55  85 113 142 179 224 268 314
#
# _framework density 17.975207999999999
#
# number of rings (size 3 to 8) (size 9 to 14) (size 15 to 20)
#    0.000    1.833    3.333    2.500    0.000    0.000 
#    0.000    1.667    0.000    8.500    0.000    0.000 
#    0.000    0.000    0.000    0.000    0.000    0.000 
#
# Total GULP energy -134019.766352 kJ/mol
# GULP energy per Si atom -5584.156931 kJ/mol
# Density = 1.793430 g / cm^3
# Si number density = 17.975208 Si / 1000 Ang^3
#
#
#
# Elastic Constant Matrix: (Units=GPa)
#
#
# Indices 1 2 3 4 5 6 
#
# 1 184.5948 30.9989 97.3238 0.0000 1.3696 0.0000
# 2 30.9989 24.9648 22.0665 0.0000 -0.3725 0.0000
# 3 97.3238 22.0665 114.3223 0.0000 -4.5727 0.0000
# 4 0.0000 0.0000 0.0000 22.0127 0.0000 -4.9577
# 5 1.3696 -0.3725 -4.5727 0.0000 34.7930 0.0000
# 6 0.0000 0.0000 0.0000 -4.9577 0.0000 18.7790
#
#
#
# Elastic Compliance Matrix: (Units=1/GPa)
#
#
# Indices 1 2 3 4 5 6 
#
# 1 0.010658 -0.006249 -0.007928 0.000000 -0.001528 0.000000
# 2 -0.006249 0.051978 -0.004705 0.000000 0.000184 0.000000
# 3 -0.007928 -0.004705 0.016502 0.000000 0.002431 0.000000
# 4 0.000000 0.000000 0.000000 0.048300 0.000000 0.012751
# 5 -0.001528 0.000184 0.002431 0.000000 0.029123 0.000000
# 6 0.000000 0.000000 0.000000 0.012751 0.000000 0.056618
#
#
# Mechanical properties :
#
#
# Convention : Reuss Voigt Hill
#
# Bulk Modulus (GPa) = 24.17069 69.40668 46.78869
# Shear Modulus (GPa) = 18.88679 26.68310 22.78495
#
# Velocity S-wave (km/s) = 3.24499 3.85702 3.56417
# Velocity P-wave (km/s) = 5.24555 7.65061 6.55925
#
# Compressibility (1/GPa) = 0.04137242
#
# Stress axis : x y z
#
# Youngs Moduli (GPa) = 93.82613 19.23891 60.59854
#
# Poissons Ratio (x) = 0.12023 0.48044
# Poissons Ratio (y) = 0.58633 0.28515
# Poissons Ratio (z) = 0.74387 0.09053
#
# Static dielectric constant tensor:
#      x y z
#    x 1.616770 0.000000 0.009420 
#    y 0.000000 1.624400 0.000000 
#    z 0.009420 0.000000 1.594640 
# 
# From -- ./inp_files/172122.got.cif
#   From: 2010.05.17/outbox.cif.g08.bks.cpg/sg12_87_cif.got.tgz:172122.got - 2010.06.03 13:09:07.
