data_PCOD9174175
_publ_section_title
;
Structure prediction by ZEFSAII (Michael W. Deem and Ramdas Pophale) SiO2 
 PCOD9174175
Probable space group: C 2/M
;
_chemical_formula_sum "Si O2"
_cell_formula_units_Z 56
_cell_length_a 30.407970
_cell_length_b 7.454136
_cell_length_c 12.339849
_cell_angle_alpha 90.000000
_cell_angle_beta 68.534352
_cell_angle_gamma 90.000000
_cell_volume 2603.004779
_symmetry_space_group_name_H-M "C 2/M"
_symmetry_group_IT_number 12
_symmetry_cell_setting 'monoclinic'
loop_
_space_group_symop_operation_xyz
x,y,z
-x,y,-z
-x,-y,-z
x,-y,z
1/2+x,1/2+y,z
1/2-x,1/2+y,-z
1/2-x,1/2-y,-z
1/2+x,1/2-y,z
loop_
_atom_site_type_symbol
_atom_site_label
_atom_site_fract_x
_atom_site_fract_y
_atom_site_fract_z
Si Si1 0.859262 0.295360 0.225675
Si Si2 0.084579 0.720118 0.623548
Si Si3 0.522539 0.783778 0.254527
Si Si4 0.905235 0.280629 0.632837
Si Si5 0.789323 0.716620 0.113037
Si Si6 0.449012 0.709323 0.006806
Si Si7 0.683202 0.786995 0.147707
O O1 0.845132 0.500000 0.262945
O O2 0.877834 0.215874 0.321489
O O3 0.817299 0.213668 0.192174
O O4 0.905051 0.298028 0.105816
O O5 0.084637 0.500000 0.626785
O O6 0.094489 0.776212 0.491866
O O7 0.031563 0.777733 0.703222
O O8 0.548697 0.726102 0.340385
O O9 0.551312 0.728027 0.122240
O O10 0.521811 0.000000 0.255643
O O11 0.905039 0.500000 0.631004
O O12 0.859641 0.218184 0.741258
O O13 0.793885 0.500000 0.108505
O O14 0.733985 0.758811 0.157517
O O15 0.812024 0.783824 0.979410
O O16 0.447019 0.500000 0.037878
O O17 0.500000 0.781239 0.000000
O O18 0.675518 0.000000 0.144581
#
# Coordination Sequence:
#
# PCOD9174175 Si02
#       7
#     8   8   8   8   8   8   8
#     4  10  19  33  53  76 100 130 168 206 247 293
#     4   9  17  29  49  76 102 130 165 207 248 288
#     4  10  18  31  53  76  99 131 171 208 243 289
#     4   9  17  30  50  77 103 127 165 213 249 283
#     4   9  18  32  51  74  98 123 159 208 252 291
#     4  11  22  33  47  71 105 136 162 200 247 294
#     4   9  17  31  50  71  97 128 161 201 251 299
#
# _framework density 21.513598999999999
#
# number of rings (size 3 to 8) (size 9 to 14) (size 15 to 20)
#    0.000    2.429    1.429    1.714    0.000    5.143 
#    0.000    4.286    0.000    4.286    0.000    0.000 
#    0.000    0.000    0.000    0.000    0.000    0.000 
#
# Total GULP energy -156401.205144 kJ/mol
# GULP energy per Si atom -5585.757327 kJ/mol
# Density = 2.146463 g / cm^3
# Si number density = 21.513599 Si / 1000 Ang^3
#
#
#
# Elastic Constant Matrix: (Units=GPa)
#
#
# Indices 1 2 3 4 5 6 
#
# 1 91.3219 -4.8794 34.2855 0.0000 35.0598 0.0000
# 2 -4.8794 67.0116 -3.5402 0.0000 0.4987 0.0000
# 3 34.2855 -3.5402 80.7950 0.0000 31.9554 0.0000
# 4 0.0000 0.0000 0.0000 -39.5684 0.0000 -29.9875
# 5 35.0598 0.4987 31.9554 0.0000 37.9263 0.0000
# 6 0.0000 0.0000 0.0000 -29.9875 0.0000 -23.4815
#
#
#
# Elastic Compliance Matrix: (Units=1/GPa)
#
#
# Indices 1 2 3 4 5 6 
#
# 1 0.017206 0.001287 -0.001421 0.000000 -0.014725 0.000000
# 2 0.001287 0.015086 0.000996 0.000000 -0.002227 0.000000
# 3 -0.001421 0.000996 0.018761 0.000000 -0.014507 0.000000
# 4 0.000000 0.000000 0.000000 -0.785894 0.000000 1.003639
# 5 -0.014725 -0.002227 -0.014507 0.000000 0.052232 0.000000
# 6 0.000000 0.000000 0.000000 1.003639 0.000000 -1.324300
#
#
# Mechanical properties :
#
#
# Convention : Reuss Voigt Hill
#
# Bulk Modulus (GPa) = 18.94773 32.31781 25.63277
# Shear Modulus (GPa) = -2.51125 9.19277 3.34076
#
# Velocity S-wave (km/s) = -1.08158 2.06937 1.24749
# Velocity P-wave (km/s) = 2.69568 4.55679 3.74373
#
# Compressibility (1/GPa) = 0.05277678
#
# Stress axis : x y z
#
# Youngs Moduli (GPa) = 58.12039 66.28790 53.30101
#
# Poissons Ratio (x) = -0.08533 0.07574
# Poissons Ratio (y) = -0.07482 -0.05307
# Poissons Ratio (z) = 0.08259 -0.06600
#
# Static dielectric constant tensor:
#      x y z
#    x 1.771060 0.000000 0.029560 
#    y 0.000000 1.826070 0.000000 
#    z 0.029560 0.000000 1.747590 
# 
# From -- ./inp_files/186497.got.cif
#   From: 2010.05.17/outbox.cif.g08.bks.cpg/sg12_94_cif.got.tgz:186497.got - 2010.06.03 13:09:07.
