data_PCOD9174290
_publ_section_title
;
Structure prediction by ZEFSAII (Michael W. Deem and Ramdas Pophale) SiO2 
 PCOD9174290
Probable space group: C 2/M
;
_chemical_formula_sum "Si O2"
_cell_formula_units_Z 56
_cell_length_a 21.173397
_cell_length_b 12.877870
_cell_length_c 11.901356
_cell_angle_alpha 90.000000
_cell_angle_beta 94.878134
_cell_angle_gamma 90.000000
_cell_volume 3233.367550
_symmetry_space_group_name_H-M "C 2/M"
_symmetry_group_IT_number 12
_symmetry_cell_setting 'monoclinic'
loop_
_space_group_symop_operation_xyz
x,y,z
-x,y,-z
-x,-y,-z
x,-y,z
1/2+x,1/2+y,z
1/2-x,1/2+y,-z
1/2-x,1/2-y,-z
1/2+x,1/2-y,z
loop_
_atom_site_type_symbol
_atom_site_label
_atom_site_fract_x
_atom_site_fract_y
_atom_site_fract_z
Si Si1 0.752707 0.692405 0.183984
Si Si2 0.879637 0.880218 0.738703
Si Si3 0.496001 0.112497 0.726499
Si Si4 0.435519 0.270027 0.542487
Si Si5 0.693620 0.122524 0.045587
Si Si6 0.060444 0.717894 0.081733
Si Si7 0.128779 0.623989 0.655363
O O1 0.692112 0.640964 0.233680
O O2 0.732546 0.809524 0.143866
O O3 0.810431 0.675158 0.277844
O O4 0.772148 0.638203 0.069228
O O5 0.892894 0.845173 0.612323
O O6 0.919874 0.810432 0.831559
O O7 0.895673 0.000000 0.753591
O O8 0.465230 0.192038 0.637317
O O9 0.465829 0.126678 0.842766
O O10 0.571357 0.125817 0.736781
O O11 0.482340 0.000000 0.676676
O O12 0.500000 0.319870 0.500000
O O13 0.396431 0.198296 0.449066
O O14 0.623804 0.175882 0.031174
O O15 0.689349 0.000000 0.070794
O O16 0.000000 0.750275 0.000000
O O17 0.138338 0.500000 0.628093
#
# Coordination Sequence:
#
# PCOD9174290 Si02
#       7
#     8   8   8   8   8   8   8
#     4  10  21  35  52  76 103 134 175 206 240 303
#     4  10  21  37  53  69  99 139 171 207 254 300
#     4   9  17  30  49  76 108 134 158 199 257 306
#     4   9  19  34  52  75 100 127 169 215 256 302
#     4  10  20  35  54  75 106 140 165 203 254 296
#     4  10  20  32  51  80 105 128 167 211 248 298
#     4  10  18  31  54  78 103 135 168 208 255 301
#
# _framework density 17.319406000000001
#
# number of rings (size 3 to 8) (size 9 to 14) (size 15 to 20)
#    0.000    2.286    0.000    3.000    0.000    5.143 
#    0.000    1.429    0.000   13.714    0.000    0.000 
#    0.000    0.000    0.000    0.000    0.000    0.000 
#
# Total GULP energy -155897.325155 kJ/mol
# GULP energy per Si atom -5567.761613 kJ/mol
# Density = 1.727999 g / cm^3
# Si number density = 17.319406 Si / 1000 Ang^3
#
#
#
# Elastic Constant Matrix: (Units=GPa)
#
#
# Indices 1 2 3 4 5 6 
#
# 1 113.0319 47.8589 52.8287 0.0000 -0.5325 0.0000
# 2 47.8589 107.6301 30.6836 0.0000 -2.4138 0.0000
# 3 52.8287 30.6836 70.5649 0.0000 -8.5033 0.0000
# 4 0.0000 0.0000 0.0000 9.2390 0.0000 -6.3662
# 5 -0.5325 -2.4138 -8.5033 0.0000 39.5647 0.0000
# 6 0.0000 0.0000 0.0000 -6.3662 0.0000 14.4013
#
#
#
# Elastic Compliance Matrix: (Units=1/GPa)
#
#
# Indices 1 2 3 4 5 6 
#
# 1 0.015122 -0.003962 -0.009858 0.000000 -0.002157 0.000000
# 2 -0.003962 0.011649 -0.002073 0.000000 0.000212 0.000000
# 3 -0.009858 -0.002073 0.023018 0.000000 0.004688 0.000000
# 4 0.000000 0.000000 0.000000 0.155646 0.000000 0.068804
# 5 -0.002157 0.000212 0.004688 0.000000 0.026266 0.000000
# 6 0.000000 0.000000 0.000000 0.068804 0.000000 0.099853
#
#
# Mechanical properties :
#
#
# Convention : Reuss Voigt Hill
#
# Bulk Modulus (GPa) = 55.55111 61.55214 58.55163
# Shear Modulus (GPa) = 13.53755 23.29806 18.41780
#
# Velocity S-wave (km/s) = 2.79882 3.67168 3.26455
# Velocity P-wave (km/s) = 6.52600 7.32062 6.93470
#
# Compressibility (1/GPa) = 0.01800144
#
# Stress axis : x y z
#
# Youngs Moduli (GPa) = 66.12856 85.84621 43.44377
#
# Poissons Ratio (x) = 0.34013 0.42828
# Poissons Ratio (y) = 0.26201 0.09008
# Poissons Ratio (z) = 0.65191 0.17799
#
# Static dielectric constant tensor:
#      x y z
#    x 1.613150 0.000000 -0.024660 
#    y 0.000000 1.602610 0.000000 
#    z -0.024660 0.000000 1.595460 
# 
# From -- ./inp_files/164976.got.cif
#   From: 2010.05.17/outbox.cif.g08.bks.cpg/sg12_83_cif.got.tgz:164976.got - 2010.06.03 13:09:07.
