data_PCOD9174291
_publ_section_title
;
Structure prediction by ZEFSAII (Michael W. Deem and Ramdas Pophale) SiO2 
 PCOD9174291
Probable space group: C 2/M
;
_chemical_formula_sum "Si O2"
_cell_formula_units_Z 56
_cell_length_a 31.048769
_cell_length_b 8.471843
_cell_length_c 22.784174
_cell_angle_alpha 90.000000
_cell_angle_beta 33.074108
_cell_angle_gamma 90.000000
_cell_volume 3270.605042
_symmetry_space_group_name_H-M "C 2/M"
_symmetry_group_IT_number 12
_symmetry_cell_setting 'monoclinic'
loop_
_space_group_symop_operation_xyz
x,y,z
-x,y,-z
-x,-y,-z
x,-y,z
1/2+x,1/2+y,z
1/2-x,1/2+y,-z
1/2-x,1/2-y,-z
1/2+x,1/2-y,z
loop_
_atom_site_type_symbol
_atom_site_label
_atom_site_fract_x
_atom_site_fract_y
_atom_site_fract_z
Si Si1 0.623569 0.188609 0.653822
Si Si2 0.488997 0.307733 0.632673
Si Si3 0.163389 0.191156 0.393416
Si Si4 0.212061 0.311128 0.982863
Si Si5 0.668102 0.692712 0.254661
Si Si6 0.254608 0.811194 0.586950
Si Si7 0.040181 0.811381 0.199701
O O1 0.675220 0.240845 0.537912
O O2 0.674322 0.242409 0.651758
O O3 0.536918 0.260244 0.747935
O O4 0.618285 0.000000 0.658755
O O5 0.489366 0.500000 0.632149
O O6 0.574874 0.256934 0.512618
O O7 0.417261 0.257522 0.672819
O O8 0.472419 0.256715 0.718348
O O9 0.180383 0.243044 0.307574
O O10 0.223170 0.253949 0.373917
O O11 0.164752 0.000000 0.393470
O O12 0.215354 0.500000 0.980183
O O13 0.121871 0.256824 0.082759
O O14 0.250000 0.250000 0.000000
O O15 0.264964 0.255720 0.867555
O O16 0.667827 0.500000 0.255081
O O17 0.250889 0.000000 0.589305
O O18 0.045924 0.000000 0.194033
#
# Coordination Sequence:
#
# PCOD9174291 Si02
#       7
#     8   8   8   8   8   8   8
#     4  10  20  34  53  78 106 138 175 213 260 314
#     4   9  16  28  49  77 105 134 172 213 255 305
#     4  10  18  31  54  78 104 140 177 215 259 311
#     4  11  21  35  53  76 105 141 183 224 261 303
#     4   9  18  32  51  76 104 139 183 219 253 306
#     4  10  20  33  51  77 110 139 169 212 263 317
#     4  11  20  33  54  79 107 139 175 218 267 311
#
# _framework density 17.122212999999999
#
# number of rings (size 3 to 8) (size 9 to 14) (size 15 to 20)
#    0.000    2.000    2.857    2.143    0.000    2.857 
#    0.000    1.429    0.000    1.714    0.000    6.000 
#    0.000    0.000    0.000    0.000    0.000    0.000 
#
# Total GULP energy -156295.679958 kJ/mol
# GULP energy per Si atom -5581.988570 kJ/mol
# Density = 1.708324 g / cm^3
# Si number density = 17.122213 Si / 1000 Ang^3
#
#
#
# Elastic Constant Matrix: (Units=GPa)
#
#
# Indices 1 2 3 4 5 6 
#
# 1 144.4156 15.7554 65.9240 0.0180 0.6002 -0.0090
# 2 15.7554 23.2681 14.0137 0.0199 0.0879 -0.0117
# 3 65.9240 14.0137 84.5251 0.0231 4.5785 -0.0149
# 4 0.0180 0.0199 0.0231 20.1500 -0.0111 -3.0251
# 5 0.6002 0.0879 4.5785 -0.0111 29.3782 0.0019
# 6 -0.0090 -0.0117 -0.0149 -3.0251 0.0019 25.7044
#
#
#
# Elastic Compliance Matrix: (Units=1/GPa)
#
#
# Indices 1 2 3 4 5 6 
#
# 1 0.010915 -0.002481 -0.008159 0.000002 0.001056 -0.000002
# 2 -0.002481 0.048344 -0.006127 -0.000036 0.000861 0.000013
# 3 -0.008159 -0.006127 0.019364 -0.000010 -0.002833 0.000005
# 4 0.000002 -0.000036 -0.000010 0.050521 0.000020 0.005946
# 5 0.001056 0.000861 -0.002833 0.000020 0.034456 -0.000001
# 6 -0.000002 0.000013 0.000005 0.005946 -0.000001 0.039604
#
#
# Mechanical properties :
#
#
# Convention : Reuss Voigt Hill
#
# Bulk Modulus (GPa) = 22.17825 49.28834 35.73329
# Shear Modulus (GPa) = 19.85970 25.48089 22.67029
#
# Velocity S-wave (km/s) = 3.40939 3.86188 3.64267
# Velocity P-wave (km/s) = 5.33663 6.98098 6.21344
#
# Compressibility (1/GPa) = 0.04508923
#
# Stress axis : x y z
#
# Youngs Moduli (GPa) = 91.61489 20.68513 51.64347
#
# Poissons Ratio (x) = 0.05132 0.42136
# Poissons Ratio (y) = 0.22730 0.31640
# Poissons Ratio (z) = 0.74749 0.12673
#
# Static dielectric constant tensor:
#      x y z
#    x 1.562720 0.000000 0.006260 
#    y 0.000000 1.590860 0.000000 
#    z 0.006260 0.000000 1.568400 
# 
# From -- ./inp_files/237377.got.cif
#   From: 2010.05.17/outbox.cif.g08.bks.cpg/sg12_119_cif.got.tgz:237377.got - 2010.06.03 13:09:07.
