data_PCOD9174760
_publ_section_title
;
Structure prediction by ZEFSAII (Michael W. Deem and Ramdas Pophale) SiO2 
 PCOD9174760
Probable space group: C 2/M
;
_chemical_formula_sum "Si O2"
_cell_formula_units_Z 56
_cell_length_a 14.784404
_cell_length_b 24.267904
_cell_length_c 22.638921
_cell_angle_alpha 90.000000
_cell_angle_beta 160.606731
_cell_angle_gamma 90.000000
_cell_volume 2697.091740
_symmetry_space_group_name_H-M "C 2/M"
_symmetry_group_IT_number 12
_symmetry_cell_setting 'monoclinic'
loop_
_space_group_symop_operation_xyz
x,y,z
-x,y,-z
-x,-y,-z
x,-y,z
1/2+x,1/2+y,z
1/2-x,1/2+y,-z
1/2-x,1/2-y,-z
1/2+x,1/2-y,z
loop_
_atom_site_type_symbol
_atom_site_label
_atom_site_fract_x
_atom_site_fract_y
_atom_site_fract_z
Si Si1 0.363975 0.668950 0.979939
Si Si2 0.903834 0.142589 0.376804
Si Si3 0.267844 0.345347 0.529406
Si Si4 0.696874 0.877168 0.991025
Si Si5 0.269607 0.564132 0.625659
Si Si6 0.129028 0.725346 0.643728
Si Si7 0.238449 0.781889 0.880537
O O1 0.229892 0.624477 0.940381
O O2 0.594305 0.696184 0.164733
O O3 0.500000 0.653112 0.000000
O O4 0.152248 0.719300 0.839560
O O5 0.847082 0.208888 0.342887
O O6 0.000000 0.125205 0.500000
O O7 0.161000 0.136710 0.492067
O O8 0.619232 0.111656 0.186316
O O9 0.202631 0.398466 0.528071
O O10 0.548687 0.320220 0.725395
O O11 0.065524 0.296935 0.424099
O O12 0.730922 0.816121 0.040758
O O13 0.948818 0.912796 0.171941
O O14 0.307422 0.500000 0.635116
O O15 0.000000 0.569385 0.500000
O O16 0.000000 0.708561 0.500000
O O17 0.500000 0.775062 0.000000
#
# Coordination Sequence:
#
# PCOD9174760 Si02
#       7
#     8   8   8   8   8   8   8
#     4  11  22  33  53  83 121 167 212 251 300 368
#     4  11  24  34  53  89 135 176 201 236 300 383
#     4  11  21  37  61  86 126 160 212 257 305 363
#     4  11  21  37  58  86 125 159 198 260 309 368
#     4  10  23  45  73  95 110 145 209 281 332 361
#     4  11  22  36  54  86 125 175 217 251 297 362
#     4  10  18  32  52  80 118 161 200 250 295 352
#
# _framework density 20.763104999999999
#
# number of rings (size 3 to 8) (size 9 to 14) (size 15 to 20)
#    0.000    1.286    2.857    4.714    6.000    0.000 
#    0.000    1.429    0.000    2.143    0.000    0.000 
#    0.000    0.000    0.000    0.000    0.000    0.000 
#
# Total GULP energy -156168.546658 kJ/mol
# GULP energy per Si atom -5577.448095 kJ/mol
# Density = 2.071585 g / cm^3
# Si number density = 20.763105 Si / 1000 Ang^3
#
#
#
# Elastic Constant Matrix: (Units=GPa)
#
#
# Indices 1 2 3 4 5 6 
#
# 1 101.4218 -6.3049 18.0952 -0.0539 -6.4725 0.2852
# 2 -6.3049 37.6772 12.7076 0.0289 6.7214 0.1200
# 3 18.0952 12.7076 59.6658 -0.1570 -0.3943 -0.1527
# 4 -0.0539 0.0289 -0.1570 19.6150 -0.0683 4.2496
# 5 -6.4725 6.7214 -0.3943 -0.0683 30.5314 -0.0128
# 6 0.2852 0.1200 -0.1527 4.2496 -0.0128 2.7577
#
#
#
# Elastic Compliance Matrix: (Units=1/GPa)
#
#
# Indices 1 2 3 4 5 6 
#
# 1 0.010840 0.002842 -0.003886 0.000473 0.001622 -0.002181
# 2 0.002842 0.030647 -0.007436 0.000495 -0.006240 -0.002830
# 3 -0.003886 -0.007436 0.019535 -0.000349 0.001066 0.002349
# 4 0.000473 0.000495 -0.000349 0.076559 0.000108 -0.118065
# 5 0.001622 -0.006240 0.001066 0.000108 0.034485 0.000156
# 6 -0.002181 -0.002830 0.002349 -0.118065 0.000156 0.545038
#
#
# Mechanical properties :
#
#
# Convention : Reuss Voigt Hill
#
# Bulk Modulus (GPa) = 22.69642 27.52894 25.11268
# Shear Modulus (GPa) = 6.67779 22.19861 14.43820
#
# Velocity S-wave (km/s) = 1.79532 3.27331 2.63986
# Velocity P-wave (km/s) = 3.90543 5.25105 4.62741
#
# Compressibility (1/GPa) = 0.04405982
#
# Stress axis : x y z
#
# Youngs Moduli (GPa) = 92.25280 32.62982 51.19134
#
# Poissons Ratio (x) = -0.09273 0.19895
# Poissons Ratio (y) = -0.26217 0.38067
# Poissons Ratio (z) = 0.35852 0.24264
#
# Static dielectric constant tensor:
#      x y z
#    x 1.849480 0.000050 0.008950 
#    y 0.000050 1.703820 -0.000060 
#    z 0.008950 -0.000060 1.886840 
# 
# From -- ./inp_files/341511.got.cif
#   From: 2010.05.17/outbox.cif.g08.bks.cpg/sg12_171_cif.got.tgz:341511.got - 2010.06.03 13:09:07.
