data_PCOD9174275
_publ_section_title
;
Structure prediction by ZEFSAII (Michael W. Deem and Ramdas Pophale) SiO2 
 PCOD9174275
Probable space group: C 2/M
;
_chemical_formula_sum "Si O2"
_cell_formula_units_Z 56
_cell_length_a 22.685591
_cell_length_b 15.380825
_cell_length_c 8.591876
_cell_angle_alpha 90.000000
_cell_angle_beta 91.733455
_cell_angle_gamma 90.000000
_cell_volume 2996.532115
_symmetry_space_group_name_H-M "C 2/M"
_symmetry_group_IT_number 12
_symmetry_cell_setting 'monoclinic'
loop_
_space_group_symop_operation_xyz
x,y,z
-x,y,-z
-x,-y,-z
x,-y,z
1/2+x,1/2+y,z
1/2-x,1/2+y,-z
1/2-x,1/2-y,-z
1/2+x,1/2-y,z
loop_
_atom_site_type_symbol
_atom_site_label
_atom_site_fract_x
_atom_site_fract_y
_atom_site_fract_z
Si Si1 0.287491 0.597466 0.954894
Si Si2 0.658641 0.166321 0.905196
Si Si3 0.643348 0.747543 0.208836
Si Si4 0.608526 0.094450 0.617393
Si Si5 0.212160 0.599708 0.393134
Si Si6 0.567579 0.720337 0.499416
Si Si7 0.330041 0.659966 0.283104
O O1 0.291732 0.500000 0.894816
O O2 0.218909 0.623100 0.969578
O O3 0.316205 0.667310 0.841569
O O4 0.319830 0.604148 0.125635
O O5 0.618250 0.103426 0.801637
O O6 0.678078 0.243242 0.788128
O O7 0.623566 0.210569 0.043641
O O8 0.679826 0.825548 0.291819
O O9 0.594945 0.717605 0.328653
O O10 0.674451 0.098249 0.548096
O O11 0.574041 0.178358 0.553202
O O12 0.583580 0.000000 0.572279
O O13 0.209464 0.500000 0.331034
O O14 0.279662 0.630331 0.399696
O O15 0.500000 0.693968 0.500000
O O16 0.608524 0.665014 0.620607
#
# Coordination Sequence:
#
# PCOD9174275 Si02
#       7
#     8   8   8   8   8   8   8
#     4  11  20  33  55  87 124 152 175 221 293 356
#     4  10  18  32  51  84 121 149 168 217 283 355
#     4  10  20  36  57  86 116 145 190 234 279 344
#     4   9  20  33  54  86 119 147 182 227 281 351
#     4  10  18  31  53  86 119 152 180 223 290 345
#     4  10  23  40  60  76 105 158 203 245 280 311
#     4  10  19  34  53  78 117 146 187 229 275 335
#
# _framework density 18.688268999999998
#
# number of rings (size 3 to 8) (size 9 to 14) (size 15 to 20)
#    0.000    2.000    2.857    1.714    2.000    2.571 
#    0.000    7.143    0.000    5.571    0.000    0.000 
#    0.000    0.000    0.000    0.000    0.000    0.000 
#
# Total GULP energy -156028.165682 kJ/mol
# GULP energy per Si atom -5572.434489 kJ/mol
# Density = 1.864573 g / cm^3
# Si number density = 18.688269 Si / 1000 Ang^3
#
#
#
# Elastic Constant Matrix: (Units=GPa)
#
#
# Indices 1 2 3 4 5 6 
#
# 1 85.2113 -1.6207 29.5363 0.0000 4.3596 0.0000
# 2 -1.6207 55.7847 8.4393 0.0000 3.2396 0.0000
# 3 29.5363 8.4393 81.1568 0.0000 -1.9453 0.0000
# 4 0.0000 0.0000 0.0000 18.1730 0.0000 -4.3589
# 5 4.3596 3.2396 -1.9453 0.0000 11.2152 0.0000
# 6 0.0000 0.0000 0.0000 -4.3589 0.0000 7.7200
#
#
#
# Elastic Compliance Matrix: (Units=1/GPa)
#
#
# Indices 1 2 3 4 5 6 
#
# 1 0.013999 0.001626 -0.005428 0.000000 -0.006853 0.000000
# 2 0.001626 0.018760 -0.002699 0.000000 -0.006519 0.000000
# 3 -0.005428 -0.002699 0.014708 0.000000 0.005441 0.000000
# 4 0.000000 0.000000 0.000000 0.063646 0.000000 0.035937
# 5 -0.006853 -0.006519 0.005441 0.000000 0.094655 0.000000
# 6 0.000000 0.000000 0.000000 0.035937 0.000000 0.149825
#
#
# Mechanical properties :
#
#
# Convention : Reuss Voigt Hill
#
# Bulk Modulus (GPa) = 29.01481 32.76252 30.88867
# Shear Modulus (GPa) = 13.15500 19.80818 16.48159
#
# Velocity S-wave (km/s) = 2.65602 3.25918 2.97294
# Velocity P-wave (km/s) = 4.99653 5.63313 5.32435
#
# Compressibility (1/GPa) = 0.03446516
#
# Stress axis : x y z
#
# Youngs Moduli (GPa) = 71.43617 53.30440 67.98867
#
# Poissons Ratio (x) = -0.08666 0.36904
# Poissons Ratio (y) = -0.11614 0.18349
# Poissons Ratio (z) = 0.38775 0.14386
#
# Static dielectric constant tensor:
#      x y z
#    x 1.615970 0.000000 0.001970 
#    y 0.000000 1.681800 0.000000 
#    z 0.001970 0.000000 1.701320 
# 
# From -- ./inp_files/86395.got.cif
#   From: 2010.05.17/outbox.cif.g08.bks.cpg/sg12_44_cif.got.tgz:86395.got - 2010.06.03 13:09:07.
