data_PCOD9174351
_publ_section_title
;
Structure prediction by ZEFSAII (Michael W. Deem and Ramdas Pophale) SiO2 
 PCOD9174351
Probable space group: C 2/M
;
_chemical_formula_sum "Si O2"
_cell_formula_units_Z 60
_cell_length_a 25.196826
_cell_length_b 11.688186
_cell_length_c 13.099715
_cell_angle_alpha 90.000000
_cell_angle_beta 54.467020
_cell_angle_gamma 90.000000
_cell_volume 3139.513905
_symmetry_space_group_name_H-M "C 2/M"
_symmetry_group_IT_number 12
_symmetry_cell_setting 'monoclinic'
loop_
_space_group_symop_operation_xyz
x,y,z
-x,y,-z
-x,-y,-z
x,-y,z
1/2+x,1/2+y,z
1/2-x,1/2+y,-z
1/2-x,1/2-y,-z
1/2+x,1/2-y,z
loop_
_atom_site_type_symbol
_atom_site_label
_atom_site_fract_x
_atom_site_fract_y
_atom_site_fract_z
Si Si1 0.051192 0.134313 0.798400
Si Si2 0.773379 0.374907 0.016743
Si Si3 0.219462 0.777827 0.276071
Si Si4 0.616457 0.820034 0.240731
Si Si5 0.587680 0.634869 0.118050
Si Si6 0.404539 0.630290 0.480590
Si Si7 0.000000 0.296504 0.500000
Si Si8 0.159457 0.136128 0.832519
O O1 0.087094 0.142459 0.649880
O O2 0.097863 0.178479 0.835122
O O3 0.979114 0.181548 0.857815
O O4 0.040892 0.000000 0.835599
O O5 0.745017 0.500000 0.014351
O O6 0.755340 0.361045 0.155244
O O7 0.750000 0.250000 0.000000
O O8 0.848297 0.378651 0.894822
O O9 0.172701 0.692514 0.262735
O O10 0.169111 0.843555 0.403691
O O11 0.275442 0.704065 0.266203
O O12 0.600699 0.695263 0.210700
O O13 0.550377 0.861394 0.368457
O O14 0.579519 0.500000 0.144458
O O15 0.643104 0.651548 0.970806
O O16 0.421899 0.500000 0.488485
O O17 0.452981 0.716580 0.484115
O O18 0.167026 0.000000 0.806414
#
# Coordination Sequence:
#
# PCOD9174351 Si02
#       8
#     8   8   8   8   8   8   4   8
#     4   9  18  32  51  80 110 143 187 239 293 339
#     4  10  21  37  56  81 116 153 192 235 284 340
#     4  10  21  33  49  80 111 147 189 224 280 345
#     4  10  20  33  51  81 110 144 180 230 283 346
#     4  10  18  31  54  83 112 142 182 238 298 342
#     4  10  19  31  50  77 111 145 183 236 290 342
#     4  10  19  32  53  78 114 142 186 220 290 354
#     4  10  20  34  53  77 111 148 190 239 288 342
#
# _framework density 19.111238
#
# number of rings (size 3 to 8) (size 9 to 14) (size 15 to 20)
#    0.000    2.133    2.667    1.000    0.000    8.533 
#    0.000    0.333    0.000    0.800    0.000    2.800 
#    0.000    0.000    0.000    0.000    0.000    0.000 
#
# Total GULP energy -167088.863098 kJ/mol
# GULP energy per Si atom -5569.628770 kJ/mol
# Density = 1.906774 g / cm^3
# Si number density = 19.111238 Si / 1000 Ang^3
#
#
#
# Elastic Constant Matrix: (Units=GPa)
#
#
# Indices 1 2 3 4 5 6 
#
# 1 62.3947 10.4379 -3.3782 0.0000 -8.2725 0.0000
# 2 10.4379 65.7223 15.2726 0.0000 -3.2592 0.0000
# 3 -3.3782 15.2726 107.1128 0.0000 -27.7147 0.0000
# 4 0.0000 0.0000 0.0000 8.6856 0.0000 -4.5990
# 5 -8.2725 -3.2592 -27.7147 0.0000 26.4575 0.0000
# 6 0.0000 0.0000 0.0000 -4.5990 0.0000 19.9367
#
#
#
# Elastic Compliance Matrix: (Units=1/GPa)
#
#
# Indices 1 2 3 4 5 6 
#
# 1 0.017870 -0.003164 0.003237 0.000000 0.008589 0.000000
# 2 -0.003164 0.016303 -0.002964 0.000000 -0.002086 0.000000
# 3 0.003237 -0.002964 0.013757 0.000000 0.015057 0.000000
# 4 0.000000 0.000000 0.000000 0.131153 0.000000 0.030255
# 5 0.008589 -0.002086 0.015057 0.000000 0.055998 0.000000
# 6 0.000000 0.000000 0.000000 0.030255 0.000000 0.057138
#
#
# Mechanical properties :
#
#
# Convention : Reuss Voigt Hill
#
# Bulk Modulus (GPa) = 23.72632 31.09938 27.41285
# Shear Modulus (GPa) = 16.02298 25.20910 20.61604
#
# Velocity S-wave (km/s) = 2.89867 3.63584 3.28798
# Velocity P-wave (km/s) = 4.86259 5.82529 5.36557
#
# Compressibility (1/GPa) = 0.04214728
#
# Stress axis : x y z
#
# Youngs Moduli (GPa) = 55.95860 61.33656 72.69198
#
# Poissons Ratio (x) = 0.19410 -0.23531
# Poissons Ratio (y) = 0.17708 0.21547
# Poissons Ratio (z) = -0.18114 0.18181
#
# Static dielectric constant tensor:
#      x y z
#    x 1.695580 0.000000 -0.024750 
#    y 0.000000 1.687910 0.000000 
#    z -0.024750 0.000000 1.715070 
# 
# From -- ./inp_files/245354.got.cif
#   From: 2010.05.17/outbox.cif.g08.bks.cpg/sg12_123_cif.got.tgz:245354.got - 2010.06.03 13:09:07.
