data_PCOD9174223
_publ_section_title
;
Structure prediction by ZEFSAII (Michael W. Deem and Ramdas Pophale) SiO2 
 PCOD9174223
Probable space group: C 2/M
;
_chemical_formula_sum "Si O2"
_cell_formula_units_Z 64
_cell_length_a 14.922514
_cell_length_b 7.404132
_cell_length_c 22.617628
_cell_angle_alpha 90.000000
_cell_angle_beta 102.824268
_cell_angle_gamma 90.000000
_cell_volume 2436.646394
_symmetry_space_group_name_H-M "C 2/M"
_symmetry_group_IT_number 12
_symmetry_cell_setting 'monoclinic'
loop_
_space_group_symop_operation_xyz
x,y,z
-x,y,-z
-x,-y,-z
x,-y,z
1/2+x,1/2+y,z
1/2-x,1/2+y,-z
1/2-x,1/2-y,-z
1/2+x,1/2-y,z
loop_
_atom_site_type_symbol
_atom_site_label
_atom_site_fract_x
_atom_site_fract_y
_atom_site_fract_z
Si Si1 0.360797 0.281122 0.386454
Si Si2 0.528936 0.203294 0.845170
Si Si3 0.306195 0.222706 0.199473
Si Si4 0.358895 0.285108 0.515925
Si Si5 0.641227 0.714268 0.976791
Si Si6 0.038213 0.221203 0.350846
Si Si7 0.190441 0.205997 0.292386
Si Si8 0.861537 0.208728 0.897472
O O1 0.355859 0.500000 0.385488
O O2 0.392655 0.222948 0.456317
O O3 0.433547 0.223686 0.347112
O O4 0.260177 0.207550 0.357961
O O5 0.592030 0.285730 0.802799
O O6 0.595275 0.200595 0.912674
O O7 0.435033 0.285212 0.855650
O O8 0.505635 0.000000 0.825269
O O9 0.254036 0.286592 0.250534
O O10 0.235050 0.284298 0.138347
O O11 0.310191 0.000000 0.200882
O O12 0.374285 0.500000 0.519073
O O13 0.250000 0.250000 0.500000
O O14 0.408042 0.217322 0.582027
O O15 0.623147 0.500000 0.966962
O O16 0.750000 0.750000 0.000000
O O17 0.603210 0.780913 0.034868
O O18 0.095281 0.284871 0.302269
O O19 0.040355 0.000000 0.349373
O O20 0.171761 0.000000 0.271509
O O21 0.842910 0.000000 0.907294
#
# Coordination Sequence:
#
# PCOD9174223 Si02
#       8
#     8   8   8   8   8   8   8   8
#     4  10  20  34  54  81 111 139 174 228 278 320
#     4  11  22  38  58  85 116 148 185 228 279 333
#     4   9  20  39  58  77 109 149 185 226 276 322
#     4  10  18  31  53  79 108 140 175 218 271 328
#     4  11  21  36  60  87 116 149 184 226 279 335
#     4   9  18  33  54  79 106 142 181 214 266 333
#     4  10  20  37  59  78 103 145 190 225 265 326
#     4  10  21  39  59  83 114 148 184 227 276 330
#
# _framework density 26.265608
#
# number of rings (size 3 to 8) (size 9 to 14) (size 15 to 20)
#    0.000    2.000    2.500    1.500    0.000    5.000 
#    0.000    4.375    0.000    1.500    0.000    0.000 
#    0.000    0.000    0.000    0.000    0.000    0.000 
#
# Total GULP energy -178959.767224 kJ/mol
# GULP energy per Si atom -5592.492726 kJ/mol
# Density = 2.620583 g / cm^3
# Si number density = 26.265608 Si / 1000 Ang^3
#
#
#
# Elastic Constant Matrix: (Units=GPa)
#
#
# Indices 1 2 3 4 5 6 
#
# 1 140.2761 -5.9131 28.9128 0.0000 -29.2594 0.0000
# 2 -5.9131 98.7702 7.5926 0.0000 -3.6869 0.0000
# 3 28.9128 7.5926 92.5911 0.0000 -30.0278 0.0000
# 4 0.0000 0.0000 0.0000 9.1358 0.0000 3.6393
# 5 -29.2594 -3.6869 -30.0278 0.0000 60.5503 0.0000
# 6 0.0000 0.0000 0.0000 3.6393 0.0000 14.2478
#
#
#
# Elastic Compliance Matrix: (Units=1/GPa)
#
#
# Indices 1 2 3 4 5 6 
#
# 1 0.008151 0.000728 -0.001565 0.000000 0.003207 0.000000
# 2 0.000728 0.010257 -0.000896 0.000000 0.000532 0.000000
# 3 -0.001565 -0.000896 0.013227 0.000000 0.005748 0.000000
# 4 0.000000 0.000000 0.000000 0.121859 0.000000 -0.031126
# 5 0.003207 0.000532 0.005748 0.000000 0.020948 0.000000
# 6 0.000000 0.000000 0.000000 -0.031126 0.000000 0.078137
#
#
# Mechanical properties :
#
#
# Convention : Reuss Voigt Hill
#
# Bulk Modulus (GPa) = 35.50024 43.64689 39.57357
# Shear Modulus (GPa) = 18.83717 36.85646 27.84681
#
# Velocity S-wave (km/s) = 2.68093 3.75002 3.25960
# Velocity P-wave (km/s) = 4.80920 5.95011 5.40981
#
# Compressibility (1/GPa) = 0.02816882
#
# Stress axis : x y z
#
# Youngs Moduli (GPa) = 122.68486 97.49609 75.60544
#
# Poissons Ratio (x) = -0.07098 0.11831
# Poissons Ratio (y) = -0.08931 0.06773
# Poissons Ratio (z) = 0.19199 0.08734
#
# Static dielectric constant tensor:
#      x y z
#    x 2.017410 0.000000 -0.034350 
#    y 0.000000 1.981900 0.000000 
#    z -0.034350 0.000000 2.119580 
# 
# From -- ./inp_files/338692.got.cif
#   From: 2010.05.17/outbox.cif.g08.bks.cpg/sg12_170_cif.got.tgz:338692.got - 2010.06.03 13:09:07.
