data_PCOD9174135
_publ_section_title
;
Structure prediction by ZEFSAII (Michael W. Deem and Ramdas Pophale) SiO2 
 PCOD9174135
Probable space group: C 2/M
;
_chemical_formula_sum "Si O2"
_cell_formula_units_Z 56
_cell_length_a 30.654588
_cell_length_b 9.067026
_cell_length_c 11.971905
_cell_angle_alpha 90.000000
_cell_angle_beta 117.605578
_cell_angle_gamma 90.000000
_cell_volume 2948.729944
_symmetry_space_group_name_H-M "C 2/M"
_symmetry_group_IT_number 12
_symmetry_cell_setting 'monoclinic'
loop_
_space_group_symop_operation_xyz
x,y,z
-x,y,-z
-x,-y,-z
x,-y,z
1/2+x,1/2+y,z
1/2-x,1/2+y,-z
1/2-x,1/2-y,-z
1/2+x,1/2-y,z
loop_
_atom_site_type_symbol
_atom_site_label
_atom_site_fract_x
_atom_site_fract_y
_atom_site_fract_z
Si Si1 0.907663 0.319813 0.126157
Si Si2 0.695705 0.323422 0.419917
Si Si3 0.341805 0.168508 0.249527
Si Si4 0.653384 0.828038 0.150271
Si Si5 0.112470 0.329318 0.464207
Si Si6 0.495293 0.179961 0.624794
Si Si7 0.250815 0.667938 0.118042
O O1 0.906500 0.500000 0.125943
O O2 0.866079 0.270740 0.165796
O O3 0.959290 0.274453 0.242387
O O4 0.892232 0.277518 0.982131
O O5 0.701144 0.500000 0.430220
O O6 0.750000 0.250000 0.500000
O O7 0.670330 0.269529 0.274244
O O8 0.656081 0.265481 0.463328
O O9 0.381332 0.167515 0.394443
O O10 0.294735 0.255429 0.236262
O O11 0.326576 0.000000 0.209075
O O12 0.699877 0.826190 0.121925
O O13 0.645620 0.000000 0.175275
O O14 0.117526 0.500000 0.431563
O O15 0.056737 0.275562 0.381958
O O16 0.500000 0.227990 0.500000
O O17 0.495139 0.000000 0.621538
O O18 0.263870 0.500000 0.114022
O O19 0.250000 0.750000 0.000000
#
# Coordination Sequence:
#
# PCOD9174135 Si02
#       7
#     8   8   8   8   8   8   8
#     4   9  16  30  53  85 121 152 185 233 287 335
#     4  12  26  44  64  84 113 153 200 249 296 351
#     4  10  18  31  52  82 117 150 186 232 286 341
#     4  10  21  38  58  81 116 157 197 243 290 343
#     4  10  20  35  61  92 120 152 195 242 292 348
#     4   9  15  28  56  93 126 154 190 239 289 340
#     4  11  21  32  50  78 112 147 184 231 287 350
#
# _framework density 18.991228
#
# number of rings (size 3 to 8) (size 9 to 14) (size 15 to 20)
#    0.000    1.857    2.857    2.571    0.000    4.000 
#    0.000    0.714    0.000    6.429    0.000    0.000 
#    0.000    0.000    0.000    0.000    0.000    0.000 
#
# Total GULP energy -156093.130765 kJ/mol
# GULP energy per Si atom -5574.754670 kJ/mol
# Density = 1.894800 g / cm^3
# Si number density = 18.991228 Si / 1000 Ang^3
#
#
#
# Elastic Constant Matrix: (Units=GPa)
#
#
# Indices 1 2 3 4 5 6 
#
# 1 85.0003 33.7662 45.8542 0.0000 18.6142 0.0000
# 2 33.7662 67.6102 32.1323 0.0000 3.2745 0.0000
# 3 45.8542 32.1323 129.5817 0.0000 17.0843 0.0000
# 4 0.0000 0.0000 0.0000 18.0490 0.0000 -3.2153
# 5 18.6142 3.2745 17.0843 0.0000 36.6779 0.0000
# 6 0.0000 0.0000 0.0000 -3.2153 0.0000 20.1155
#
#
#
# Elastic Compliance Matrix: (Units=1/GPa)
#
#
# Indices 1 2 3 4 5 6 
#
# 1 0.018016 -0.006874 -0.003778 0.000000 -0.006770 0.000000
# 2 -0.006874 0.019397 -0.002780 0.000000 0.003052 0.000000
# 3 -0.003778 -0.002780 0.010077 0.000000 -0.002528 0.000000
# 4 0.000000 0.000000 0.000000 0.057029 0.000000 0.009116
# 5 -0.006770 0.003052 -0.002528 0.000000 0.031605 0.000000
# 6 0.000000 0.000000 0.000000 0.009116 0.000000 0.051170
#
#
# Mechanical properties :
#
#
# Convention : Reuss Voigt Hill
#
# Bulk Modulus (GPa) = 48.48301 56.18861 52.33581
# Shear Modulus (GPa) = 22.62106 26.33111 24.47609
#
# Velocity S-wave (km/s) = 3.45502 3.72760 3.59389
# Velocity P-wave (km/s) = 6.44211 6.94100 6.69620
#
# Compressibility (1/GPa) = 0.02062578
#
# Stress axis : x y z
#
# Youngs Moduli (GPa) = 55.50597 51.55406 99.23938
#
# Poissons Ratio (x) = 0.35440 0.37494
# Poissons Ratio (y) = 0.38156 0.27585
# Poissons Ratio (z) = 0.20971 0.14330
#
# Static dielectric constant tensor:
#      x y z
#    x 1.663630 0.000000 0.028690 
#    y 0.000000 1.650720 0.000000 
#    z 0.028690 0.000000 1.747220 
# 
# From -- ./inp_files/187686.got.cif
#   From: 2010.05.17/outbox.cif.g08.bks.cpg/sg12_94_cif.got.tgz:187686.got - 2010.06.03 13:09:07.
