data_PCOD9174703
_publ_section_title
;
Structure prediction by ZEFSAII (Michael W. Deem and Ramdas Pophale) SiO2 
 PCOD9174703
Probable space group: C 2/M
;
_chemical_formula_sum "Si O2"
_cell_formula_units_Z 56
_cell_length_a 19.496345
_cell_length_b 7.322503
_cell_length_c 22.404726
_cell_angle_alpha 90.000000
_cell_angle_beta 46.886666
_cell_angle_gamma 90.000000
_cell_volume 2334.947858
_symmetry_space_group_name_H-M "C 2/M"
_symmetry_group_IT_number 12
_symmetry_cell_setting 'monoclinic'
loop_
_space_group_symop_operation_xyz
x,y,z
-x,y,-z
-x,-y,-z
x,-y,z
1/2+x,1/2+y,z
1/2-x,1/2+y,-z
1/2-x,1/2-y,-z
1/2+x,1/2-y,z
loop_
_atom_site_type_symbol
_atom_site_label
_atom_site_fract_x
_atom_site_fract_y
_atom_site_fract_z
Si Si1 0.110041 0.721153 0.649183
Si Si2 0.556707 0.223555 0.025176
Si Si3 0.272243 0.279718 0.884452
Si Si4 0.710998 0.277561 0.381257
Si Si5 0.046334 0.208669 0.558657
Si Si6 0.962428 0.712241 0.833151
Si Si7 0.840905 0.222596 0.714205
O O1 0.108620 0.500000 0.645820
O O2 0.203043 0.779085 0.628764
O O3 0.104892 0.790816 0.585140
O O4 0.021485 0.785538 0.741949
O O5 0.517477 0.285716 0.112727
O O6 0.555068 0.000000 0.026249
O O7 0.500000 0.280891 0.000000
O O8 0.665765 0.279899 0.958162
O O9 0.271716 0.500000 0.885142
O O10 0.351886 0.223558 0.884120
O O11 0.305575 0.215631 0.799272
O O12 0.709153 0.500000 0.384334
O O13 0.612331 0.213240 0.467942
O O14 0.720738 0.226183 0.306466
O O15 0.945934 0.288088 0.636461
O O16 0.026259 0.000000 0.552951
O O17 0.989293 0.500000 0.819773
O O18 0.842362 0.000000 0.716499
#
# Coordination Sequence:
#
# PCOD9174703 Si02
#       7
#     8   8   8   8   8   8   8
#     4  10  20  32  49  73 101 133 166 202 247 297
#     4   9  19  33  53  81 105 126 161 208 249 287
#     4  10  19  33  55  78 100 130 167 205 243 291
#     4   9  18  30  48  73 100 130 166 209 251 289
#     4  10  18  32  52  73  98 129 167 209 249 292
#     4  10  20  34  52  74 103 135 164 200 246 296
#     4   9  17  29  49  76  99 124 164 210 248 283
#
# _framework density 23.983405000000001
#
# number of rings (size 3 to 8) (size 9 to 14) (size 15 to 20)
#    0.000    2.429    1.429    1.286    2.000    1.714 
#    0.000    0.000    0.000    6.000    0.000    0.000 
#    0.000    0.000    0.000    0.000    0.000    0.000 
#
# Total GULP energy -156537.394899 kJ/mol
# GULP energy per Si atom -5590.621246 kJ/mol
# Density = 2.392882 g / cm^3
# Si number density = 23.983405 Si / 1000 Ang^3
#
#
#
# Elastic Constant Matrix: (Units=GPa)
#
#
# Indices 1 2 3 4 5 6 
#
# 1 72.6976 -10.9228 15.3059 -0.0001 33.9653 0.0006
# 2 -10.9228 97.8160 0.8789 -0.0006 1.7356 0.0013
# 3 15.3059 0.8789 85.8415 0.0000 23.1497 0.0001
# 4 -0.0001 -0.0006 0.0000 -3.0330 0.0000 -1.9961
# 5 33.9653 1.7356 23.1497 0.0000 48.4095 -0.0001
# 6 0.0006 0.0013 0.0001 -1.9961 -0.0001 18.4798
#
#
#
# Elastic Compliance Matrix: (Units=1/GPa)
#
#
# Indices 1 2 3 4 5 6 
#
# 1 0.021120 0.002623 0.000263 -0.000001 -0.015038 -0.000001
# 2 0.002623 0.010556 0.000026 -0.000001 -0.002231 -0.000001
# 3 0.000263 0.000026 0.013377 0.000000 -0.006583 0.000000
# 4 -0.000001 -0.000001 0.000000 -0.307826 0.000000 -0.033251
# 5 -0.015038 -0.002231 -0.006583 0.000000 0.034436 0.000001
# 6 -0.000001 -0.000001 0.000000 -0.033251 0.000001 0.050522
#
#
# Mechanical properties :
#
#
# Convention : Reuss Voigt Hill
#
# Bulk Modulus (GPa) = 19.65532 29.65324 24.65428
# Shear Modulus (GPa) = -29.99778 29.51080 -0.24349
#
# Velocity S-wave (km/s) = -3.54046 3.51161 -0.31898
# Velocity P-wave (km/s) = 2.91548 5.36961 3.18848
#
# Compressibility (1/GPa) = 0.05087682
#
# Stress axis : x y z
#
# Youngs Moduli (GPa) = 47.34740 94.73708 74.75286
#
# Poissons Ratio (x) = -0.24849 -0.01965
# Poissons Ratio (y) = -0.12419 -0.00194
# Poissons Ratio (z) = -0.01244 -0.00246
#
# Static dielectric constant tensor:
#      x y z
#    x 1.873250 0.000000 -0.008380 
#    y 0.000000 1.948270 0.000000 
#    z -0.008380 0.000000 1.881590 
# 
# From -- ./inp_files/223160.got.cif
#   From: 2010.05.17/outbox.cif.g08.bks.cpg/sg12_112_cif.got.tgz:223160.got - 2010.06.03 13:09:07.
