data_PCOD9174080
_publ_section_title
;
Structure prediction by ZEFSAII (Michael W. Deem and Ramdas Pophale) SiO2 
 PCOD9174080
Probable space group: C 2/M
;
_chemical_formula_sum "Si O2"
_cell_formula_units_Z 64
_cell_length_a 19.378470
_cell_length_b 13.006015
_cell_length_c 16.263578
_cell_angle_alpha 90.000000
_cell_angle_beta 109.073095
_cell_angle_gamma 90.000000
_cell_volume 3873.992071
_symmetry_space_group_name_H-M "C 2/M"
_symmetry_group_IT_number 12
_symmetry_cell_setting 'monoclinic'
loop_
_space_group_symop_operation_xyz
x,y,z
-x,y,-z
-x,-y,-z
x,-y,z
1/2+x,1/2+y,z
1/2-x,1/2+y,-z
1/2-x,1/2-y,-z
1/2+x,1/2-y,z
loop_
_atom_site_type_symbol
_atom_site_label
_atom_site_fract_x
_atom_site_fract_y
_atom_site_fract_z
Si Si1 0.398102 0.878915 0.164296
Si Si2 0.234066 0.621183 0.589991
Si Si3 0.644023 0.743820 0.435525
Si Si4 0.171109 0.743244 0.714445
Si Si5 0.439484 0.883572 0.702942
Si Si6 0.916652 0.879604 0.438351
Si Si7 0.083044 0.624986 0.014374
Si Si8 0.815559 0.379195 0.794455
O O1 0.353893 0.810662 0.211617
O O2 0.483897 0.872312 0.221035
O O3 0.391547 0.845443 0.066953
O O4 0.377751 0.000000 0.163046
O O5 0.243405 0.500000 0.591046
O O6 0.310269 0.682310 0.614550
O O7 0.191289 0.663660 0.493216
O O8 0.190451 0.657400 0.653442
O O9 0.573025 0.797055 0.370168
O O10 0.629748 0.665315 0.503867
O O11 0.107752 0.813971 0.649940
O O12 0.243182 0.812897 0.753349
O O13 0.372381 0.873697 0.740646
O O14 0.437587 0.000000 0.667755
O O15 0.000000 0.867250 0.500000
O O16 0.902276 0.000000 0.419562
O O17 0.080426 0.500000 0.014578
O O18 0.138904 0.655550 0.107554
O O19 0.000000 0.660066 0.000000
O O20 0.796310 0.500000 0.796410
#
# Coordination Sequence:
#
# PCOD9174080 Si02
#       8
#     8   8   8   8   8   8   8   8
#     4  10  20  33  53  78 106 137 167 206 258 315
#     4  10  20  32  46  68 101 135 166 204 255 307
#     4  10  19  32  49  72  96 132 172 212 251 298
#     4  11  21  34  50  76 106 136 169 214 259 305
#     4  10  18  31  52  78 103 131 171 214 257 305
#     4  10  21  36  52  70  99 137 177 218 256 298
#     4   9  16  31  53  78 105 132 164 206 259 311
#     4  10  19  32  53  78 104 132 169 216 259 302
#
# _framework density 16.520427000000002
#
# number of rings (size 3 to 8) (size 9 to 14) (size 15 to 20)
#    0.000    2.000    2.500    2.250    0.000    0.500 
#    0.000    0.000    0.000    6.000    0.000    0.000 
#    0.000    5.000    0.000    0.000    0.000    0.000 
#
# Total GULP energy -178439.295521 kJ/mol
# GULP energy per Si atom -5576.227985 kJ/mol
# Density = 1.648283 g / cm^3
# Si number density = 16.520427 Si / 1000 Ang^3
#
#
#
# Elastic Constant Matrix: (Units=GPa)
#
#
# Indices 1 2 3 4 5 6 
#
# 1 52.4191 27.8502 10.0418 0.0000 -4.1271 0.0000
# 2 27.8502 80.8862 32.2957 0.0000 -0.7453 0.0000
# 3 10.0418 32.2957 58.5410 0.0000 -4.3991 0.0000
# 4 0.0000 0.0000 0.0000 19.9218 0.0000 -2.7928
# 5 -4.1271 -0.7453 -4.3991 0.0000 28.3439 0.0000
# 6 0.0000 0.0000 0.0000 -2.7928 0.0000 17.5032
#
#
#
# Elastic Compliance Matrix: (Units=1/GPa)
#
#
# Indices 1 2 3 4 5 6 
#
# 1 0.023673 -0.008464 0.000861 0.000000 0.003358 0.000000
# 2 -0.008464 0.018907 -0.009141 0.000000 -0.002154 0.000000
# 3 0.000861 -0.009141 0.022228 0.000000 0.003335 0.000000
# 4 0.000000 0.000000 0.000000 0.051345 0.000000 0.008193
# 5 0.003358 -0.002154 0.003335 0.000000 0.036231 0.000000
# 6 0.000000 0.000000 0.000000 0.008193 0.000000 0.058440
#
#
# Mechanical properties :
#
#
# Convention : Reuss Voigt Hill
#
# Bulk Modulus (GPa) = 31.92763 36.91353 34.42058
# Shear Modulus (GPa) = 19.62705 21.26436 20.44570
#
# Velocity S-wave (km/s) = 3.45055 3.59159 3.52177
# Velocity P-wave (km/s) = 5.93659 6.29222 6.11699
#
# Compressibility (1/GPa) = 0.03132084
#
# Stress axis : x y z
#
# Youngs Moduli (GPa) = 42.24165 52.89052 44.98907
#
# Poissons Ratio (x) = 0.44766 -0.03873
# Poissons Ratio (y) = 0.35753 0.41123
# Poissons Ratio (z) = -0.03636 0.48345
#
# Static dielectric constant tensor:
#      x y z
#    x 1.568610 0.000000 0.003630 
#    y 0.000000 1.530890 0.000000 
#    z 0.003630 0.000000 1.558160 
# 
# From -- ./inp_files/232500.got.cif
#   From: 2010.05.17/outbox.cif.g08.bks.cpg/sg12_117_cif.got.tgz:232500.got - 2010.06.03 13:09:07.
