data_PCOD9174939
_publ_section_title
;
Structure prediction by ZEFSAII (Michael W. Deem and Ramdas Pophale) SiO2 
 PCOD9174939
Probable space group: C 2/M
;
_chemical_formula_sum "Si O2"
_cell_formula_units_Z 64
_cell_length_a 20.615381
_cell_length_b 8.982460
_cell_length_c 25.545860
_cell_angle_alpha 90.000000
_cell_angle_beta 50.158206
_cell_angle_gamma 90.000000
_cell_volume 3632.156618
_symmetry_space_group_name_H-M "C 2/M"
_symmetry_group_IT_number 12
_symmetry_cell_setting 'monoclinic'
loop_
_space_group_symop_operation_xyz
x,y,z
-x,y,-z
-x,-y,-z
x,-y,z
1/2+x,1/2+y,z
1/2-x,1/2+y,-z
1/2-x,1/2-y,-z
1/2+x,1/2-y,z
loop_
_atom_site_type_symbol
_atom_site_label
_atom_site_fract_x
_atom_site_fract_y
_atom_site_fract_z
Si Si1 0.743604 0.322536 0.865159
Si Si2 0.515163 0.677245 0.369695
Si Si3 0.929357 0.178904 0.774523
Si Si4 0.914362 0.671338 0.509117
Si Si5 0.677492 0.822233 0.001448
Si Si6 0.167697 0.176903 0.789249
Si Si7 0.183069 0.177109 0.351059
Si Si8 0.005859 0.677428 0.153500
O O1 0.751206 0.500000 0.869641
O O2 0.835788 0.248526 0.821263
O O3 0.704893 0.295973 0.827963
O O4 0.686701 0.250542 0.939805
O O5 0.501747 0.500000 0.381574
O O6 0.524690 0.715960 0.303980
O O7 0.442571 0.761003 0.439235
O O8 0.604907 0.709831 0.351775
O O9 0.976796 0.245117 0.799879
O O10 0.923006 0.000000 0.781520
O O11 0.888338 0.500000 0.517975
O O12 0.846511 0.764583 0.577060
O O13 0.000000 0.676469 0.500000
O O14 0.587274 0.793765 0.074865
O O15 0.690378 0.000000 0.991812
O O16 0.750000 0.750000 0.000000
O O17 0.234963 0.241127 0.713194
O O18 0.078593 0.256830 0.827760
O O19 0.158465 0.000000 0.787019
O O20 0.195561 0.000000 0.345210
O O21 0.998653 0.500000 0.164131
#
# Coordination Sequence:
#
# PCOD9174939 Si02
#       8
#     8   8   8   8   8   8   8   8
#     4  11  23  38  60  88 117 151 193 239 289 344
#     4   9  18  31  51  82 114 148 190 236 286 338
#     4  11  21  36  60  87 116 152 194 240 289 342
#     4   9  17  28  46  77 114 151 189 234 285 334
#     4  11  23  39  62  88 116 151 191 241 292 344
#     4  11  24  40  59  85 118 155 195 240 289 345
#     4  10  18  32  54  80 114 153 191 235 287 342
#     4  11  25  42  60  85 116 152 194 239 291 349
#
# _framework density 17.620386
#
# number of rings (size 3 to 8) (size 9 to 14) (size 15 to 20)
#    0.000    1.625    2.500    2.625    0.000    6.500 
#    0.000    2.500    0.000    0.750    0.000    0.000 
#    0.000    0.000    0.000    0.000    0.000    0.000 
#
# Total GULP energy -178751.067390 kJ/mol
# GULP energy per Si atom -5585.970856 kJ/mol
# Density = 1.758028 g / cm^3
# Si number density = 17.620386 Si / 1000 Ang^3
#
#
#
# Elastic Constant Matrix: (Units=GPa)
#
#
# Indices 1 2 3 4 5 6 
#
# 1 50.4580 34.5835 25.9291 0.0000 -6.1879 0.0004
# 2 34.5835 70.5553 57.6373 0.0000 -2.4835 0.0006
# 3 25.9291 57.6373 123.2498 0.0000 4.3524 0.0000
# 4 0.0000 0.0000 0.0000 35.6772 0.0000 -0.1733
# 5 -6.1879 -2.4835 4.3524 0.0000 19.9365 0.0000
# 6 0.0004 0.0006 0.0000 -0.1733 0.0000 26.1211
#
#
#
# Elastic Compliance Matrix: (Units=1/GPa)
#
#
# Indices 1 2 3 4 5 6 
#
# 1 0.031003 -0.015174 0.000303 0.000000 0.007666 0.000000
# 2 -0.015174 0.030918 -0.011323 0.000000 0.001614 -0.000001
# 3 0.000303 -0.011323 0.013496 0.000000 -0.004263 0.000000
# 4 0.000000 0.000000 0.000000 0.028030 0.000000 0.000186
# 5 0.007666 0.001614 -0.004263 0.000000 0.053670 0.000000
# 6 0.000000 -0.000001 0.000000 0.000186 0.000000 0.038285
#
#
# Mechanical properties :
#
#
# Convention : Reuss Voigt Hill
#
# Bulk Modulus (GPa) = 43.42571 53.39587 48.41079
# Shear Modulus (GPa) = 19.57199 24.75451 22.16325
#
# Velocity S-wave (km/s) = 3.33642 3.75224 3.55042
# Velocity P-wave (km/s) = 6.28816 7.01011 6.65892
#
# Compressibility (1/GPa) = 0.02302783
#
# Stress axis : x y z
#
# Youngs Moduli (GPa) = 32.25468 32.34350 74.09761
#
# Poissons Ratio (x) = 0.49079 -0.02246
# Poissons Ratio (y) = 0.48944 0.83904
# Poissons Ratio (z) = -0.00978 0.36624
#
# Static dielectric constant tensor:
#      x y z
#    x 1.573830 0.000000 0.008720 
#    y 0.000000 1.586090 0.000000 
#    z 0.008720 0.000000 1.590720 
# 
# From -- ./inp_files/346001.got.cif
#   From: 2010.05.17/outbox.cif.g08.bks.cpg/sg12_174_cif.got.tgz:346001.got - 2010.06.03 13:09:07.
