data_PCOD9174403
_publ_section_title
;
Structure prediction by ZEFSAII (Michael W. Deem and Ramdas Pophale) SiO2 
 PCOD9174403
Probable space group: C 2/M
;
_chemical_formula_sum "Si O2"
_cell_formula_units_Z 40
_cell_length_a 20.885534
_cell_length_b 15.136443
_cell_length_c 14.527463
_cell_angle_alpha 90.000000
_cell_angle_beta 24.937397
_cell_angle_gamma 90.000000
_cell_volume 1936.370156
_symmetry_space_group_name_H-M "C 2/M"
_symmetry_group_IT_number 12
_symmetry_cell_setting 'monoclinic'
loop_
_space_group_symop_operation_xyz
x,y,z
-x,y,-z
-x,-y,-z
x,-y,z
1/2+x,1/2+y,z
1/2-x,1/2+y,-z
1/2-x,1/2-y,-z
1/2+x,1/2-y,z
loop_
_atom_site_type_symbol
_atom_site_label
_atom_site_fract_x
_atom_site_fract_y
_atom_site_fract_z
Si Si1 0.642236 0.392580 0.032546
Si Si2 0.999569 0.600273 0.100596
Si Si3 0.211232 0.394241 0.349059
Si Si4 0.390908 0.108441 0.851237
Si Si5 0.310014 0.651273 0.414662
O O1 0.639588 0.500000 0.034531
O O2 0.274172 0.361706 0.169989
O O3 0.469740 0.361285 0.255112
O O4 0.741578 0.365212 0.990795
O O5 0.058399 0.500000 0.011137
O O6 0.826644 0.596488 0.361587
O O7 0.092228 0.640276 0.065484
O O8 0.000000 0.644979 0.000000
O O9 0.200909 0.500000 0.354442
O O10 0.318433 0.373875 0.296209
O O11 0.042436 0.363397 0.598196
O O12 0.395137 0.000000 0.848913
O O13 0.250000 0.750000 0.500000
#
# Coordination Sequence:
#
# PCOD9174403 Si02
#       5
#     8   8   8   8   8
#     4  10  18  31  55  82 104 127 163 215 263 302
#     4   9  18  35  55  70  93 135 178 211 247 295
#     4   9  17  32  54  78 103 130 162 205 261 314
#     4   8  15  29  52  82 106 125 160 210 260 305
#     4  11  22  33  47  72 104 138 171 207 249 301
#
# _framework density 20.657208000000001
#
# number of rings (size 3 to 8) (size 9 to 14) (size 15 to 20)
#    0.000    2.600    0.000    4.200    0.000    5.600 
#    0.000    5.000    0.000    9.600    0.000    0.000 
#    0.000    0.000    0.000    0.000    0.000    0.400 
#
# Total GULP energy -111594.259766 kJ/mol
# GULP energy per Si atom -5579.712988 kJ/mol
# Density = 2.061019 g / cm^3
# Si number density = 20.657208 Si / 1000 Ang^3
#
#
#
# Elastic Constant Matrix: (Units=GPa)
#
#
# Indices 1 2 3 4 5 6 
#
# 1 193.1028 4.2116 90.2007 -0.0001 -21.3374 0.0000
# 2 4.2116 30.3265 3.9739 0.0000 0.3957 0.0000
# 3 90.2007 3.9739 98.1831 -0.0002 -43.3383 0.0000
# 4 -0.0001 0.0000 -0.0002 5.9584 0.0000 -16.0331
# 5 -21.3374 0.3957 -43.3383 0.0000 35.2220 0.0000
# 6 0.0000 0.0000 0.0000 -16.0331 0.0000 -33.0202
#
#
#
# Elastic Compliance Matrix: (Units=1/GPa)
#
#
# Indices 1 2 3 4 5 6 
#
# 1 0.011249 0.000718 -0.016107 0.000000 -0.013012 0.000000
# 2 0.000718 0.033515 -0.004357 0.000000 -0.005302 0.000000
# 3 -0.016107 -0.004357 0.045686 0.000000 0.046505 0.000000
# 4 0.000000 0.000000 0.000000 0.072762 0.000000 -0.035330
# 5 -0.013012 -0.005302 0.046505 0.000000 0.077790 0.000000
# 6 0.000000 0.000000 0.000000 -0.035330 0.000000 -0.013130
#
#
# Mechanical properties :
#
#
# Convention : Reuss Voigt Hill
#
# Bulk Modulus (GPa) = 19.62344 57.59832 38.61088
# Shear Modulus (GPa) = 17.58399 16.51380 17.04890
#
# Velocity S-wave (km/s) = 2.92075 2.83047 2.87596
# Velocity P-wave (km/s) = 4.57105 6.21494 5.45528
#
# Compressibility (1/GPa) = 0.05095946
#
# Stress axis : x y z
#
# Youngs Moduli (GPa) = 88.89776 29.83753 21.88835
#
# Poissons Ratio (x) = -0.02143 0.35255
# Poissons Ratio (y) = -0.06385 0.09536
# Poissons Ratio (z) = 1.43187 0.12999
#
# Static dielectric constant tensor:
#      x y z
#    x 1.787770 0.000000 0.029780 
#    y 0.000000 1.831760 0.000000 
#    z 0.029780 0.000000 1.744680 
# 
# From -- ./inp_files/284913.got.cif
#   From: 2010.05.17/outbox.cif.g08.bks.cpg/sg12_143_cif.got.tgz:284913.got - 2010.06.03 13:09:07.
