data_PCOD9174385
_publ_section_title
;
Structure prediction by ZEFSAII (Michael W. Deem and Ramdas Pophale) SiO2 
 PCOD9174385
Probable space group: C 2/M
;
_chemical_formula_sum "Si O2"
_cell_formula_units_Z 64
_cell_length_a 9.416970
_cell_length_b 20.627763
_cell_length_c 22.914335
_cell_angle_alpha 90.000000
_cell_angle_beta 120.342107
_cell_angle_gamma 90.000000
_cell_volume 3841.437057
_symmetry_space_group_name_H-M "C 2/M"
_symmetry_group_IT_number 12
_symmetry_cell_setting 'monoclinic'
loop_
_space_group_symop_operation_xyz
x,y,z
-x,y,-z
-x,-y,-z
x,-y,z
1/2+x,1/2+y,z
1/2-x,1/2+y,-z
1/2-x,1/2-y,-z
1/2+x,1/2-y,z
loop_
_atom_site_type_symbol
_atom_site_label
_atom_site_fract_x
_atom_site_fract_y
_atom_site_fract_z
Si Si1 0.110046 0.077209 0.463647
Si Si2 0.978642 0.839800 0.327178
Si Si3 0.414551 0.238202 0.115972
Si Si4 0.247770 0.330434 0.177356
Si Si5 0.180239 0.571511 0.064336
Si Si6 0.145402 0.157995 0.993795
Si Si7 0.296879 0.242293 0.371493
Si Si8 0.156503 0.310693 0.451502
O O1 0.023052 0.110263 0.388770
O O2 0.270533 0.122108 0.509343
O O3 0.000000 0.083984 0.500000
O O4 0.139540 0.000000 0.461108
O O5 0.148249 0.808822 0.338019
O O6 0.867874 0.861428 0.250113
O O7 0.868235 0.781903 0.331805
O O8 0.344986 0.280778 0.154767
O O9 0.589139 0.207639 0.168370
O O10 0.427456 0.282706 0.060213
O O11 0.283281 0.185064 0.066503
O O12 0.178415 0.386256 0.121695
O O13 0.244320 0.500000 0.088996
O O14 0.284258 0.608833 0.037949
O O15 0.000000 0.568178 0.000000
O O16 0.000000 0.127629 0.000000
O O17 0.221120 0.297634 0.398884
O O18 0.463640 0.202539 0.423210
O O19 0.250000 0.250000 0.500000
#
# Coordination Sequence:
#
# PCOD9174385 Si02
#       8
#     8   8   8   8   8   8   8   8
#     4  11  22  36  56  83 110 141 184 229 274 323
#     4  11  22  35  53  83 110 148 173 226 269 332
#     4  10  19  31  51  84 108 135 169 222 274 326
#     4  11  21  35  54  78 114 142 179 216 277 323
#     4  10  21  36  55  77 102 144 191 223 256 317
#     4  10  18  31  55  79 108 134 168 226 278 312
#     4  10  20  32  57  82 108 134 185 217 270 319
#     4  11  17  33  59  81 104 140 176 228 268 318
#
# _framework density 16.660432
#
# number of rings (size 3 to 8) (size 9 to 14) (size 15 to 20)
#    0.000    1.500    6.250    1.125    0.000    0.750 
#    0.000    1.250    0.000    0.000    0.000    1.750 
#    0.000    0.000    0.000    0.000    0.000    0.000 
#
# Total GULP energy -178178.987847 kJ/mol
# GULP energy per Si atom -5568.093370 kJ/mol
# Density = 1.662251 g / cm^3
# Si number density = 16.660432 Si / 1000 Ang^3
#
#
#
# Elastic Constant Matrix: (Units=GPa)
#
#
# Indices 1 2 3 4 5 6 
#
# 1 73.3204 15.6634 26.8194 0.0000 14.5316 0.0000
# 2 15.6634 87.4282 32.6615 0.0000 9.4199 0.0000
# 3 26.8194 32.6615 79.5860 0.0000 16.0298 0.0000
# 4 0.0000 0.0000 0.0000 9.0245 0.0000 -2.2971
# 5 14.5316 9.4199 16.0298 0.0000 19.8060 0.0000
# 6 0.0000 0.0000 0.0000 -2.2971 0.0000 5.9236
#
#
#
# Elastic Compliance Matrix: (Units=1/GPa)
#
#
# Indices 1 2 3 4 5 6 
#
# 1 0.016913 -0.000711 -0.003556 0.000000 -0.009193 0.000000
# 2 -0.000711 0.013628 -0.004962 0.000000 -0.001944 0.000000
# 3 -0.003556 -0.004962 0.017681 0.000000 -0.009341 0.000000
# 4 0.000000 0.000000 0.000000 0.122945 0.000000 0.047677
# 5 -0.009193 -0.001944 -0.009341 0.000000 0.065720 0.000000
# 6 0.000000 0.000000 0.000000 0.047677 0.000000 0.187304
#
#
# Mechanical properties :
#
#
# Convention : Reuss Voigt Hill
#
# Bulk Modulus (GPa) = 33.59666 43.40257 38.49961
# Shear Modulus (GPa) = 11.04798 17.96352 14.50575
#
# Velocity S-wave (km/s) = 2.57792 3.28718 2.95391
# Velocity P-wave (km/s) = 5.39168 6.36516 5.89854
#
# Compressibility (1/GPa) = 0.02976487
#
# Stress axis : x y z
#
# Youngs Moduli (GPa) = 59.12458 73.37584 56.55754
#
# Poissons Ratio (x) = 0.05218 0.20113
# Poissons Ratio (y) = 0.04205 0.28062
# Poissons Ratio (z) = 0.21025 0.36407
#
# Static dielectric constant tensor:
#      x y z
#    x 1.590900 0.000000 -0.028050 
#    y 0.000000 1.558660 0.000000 
#    z -0.028050 0.000000 1.616140 
# 
# From -- ./inp_files/333598.got.cif
#   From: 2010.05.17/outbox.cif.g08.bks.cpg/sg12_167_cif.got.tgz:333598.got - 2010.06.03 13:09:07.
