data_PCOD9174683
_publ_section_title
;
Structure prediction by ZEFSAII (Michael W. Deem and Ramdas Pophale) SiO2 
 PCOD9174683
Probable space group: C 2/M
;
_chemical_formula_sum "Si O2"
_cell_formula_units_Z 56
_cell_length_a 19.530989
_cell_length_b 29.873299
_cell_length_c 9.086532
_cell_angle_alpha 90.000000
_cell_angle_beta 143.792368
_cell_angle_gamma 90.000000
_cell_volume 3131.714926
_symmetry_space_group_name_H-M "C 2/M"
_symmetry_group_IT_number 12
_symmetry_cell_setting 'monoclinic'
loop_
_space_group_symop_operation_xyz
x,y,z
-x,y,-z
-x,-y,-z
x,-y,z
1/2+x,1/2+y,z
1/2-x,1/2+y,-z
1/2-x,1/2-y,-z
1/2+x,1/2-y,z
loop_
_atom_site_type_symbol
_atom_site_label
_atom_site_fract_x
_atom_site_fract_y
_atom_site_fract_z
Si Si1 0.139255 0.135211 0.288473
Si Si2 0.897157 0.885352 0.207120
Si Si3 0.615200 0.550602 0.095633
Si Si4 0.458104 0.791637 0.085986
Si Si5 0.614372 0.756675 0.600149
Si Si6 0.332291 0.302149 0.913483
Si Si7 0.228257 0.840651 0.764042
O O1 0.185074 0.087525 0.309141
O O2 0.197700 0.173267 0.290604
O O3 0.172824 0.140382 0.516075
O O4 0.000000 0.138467 0.000000
O O5 0.790656 0.874951 0.133565
O O6 0.000000 0.891837 0.500000
O O7 0.897958 0.924856 0.086621
O O8 0.905471 0.838743 0.130670
O O9 0.658610 0.500000 0.153494
O O10 0.500000 0.547201 0.000000
O O11 0.570273 0.780296 0.375979
O O12 0.500000 0.805869 0.000000
O O13 0.396001 0.743057 0.978356
O O14 0.362011 0.826047 0.978645
O O15 0.500000 0.758249 0.500000
O O16 0.725880 0.786606 0.831660
O O17 0.657296 0.705921 0.662051
#
# Coordination Sequence:
#
# PCOD9174683 Si02
#       7
#     8   8   8   8   8   8   8
#     4  10  18  32  52  69  95 129 163 197 237 293
#     4  11  20  32  51  73 101 132 163 200 239 286
#     4   9  19  34  51  73 100 129 156 187 239 302
#     4  11  21  32  47  68  98 132 172 216 245 268
#     4  11  21  32  45  65 100 137 171 209 243 274
#     4  10  20  32  47  67  94 136 177 202 235 290
#     4  11  21  32  48  72  98 131 173 206 239 286
#
# _framework density 17.881577
#
# number of rings (size 3 to 8) (size 9 to 14) (size 15 to 20)
#    0.000    1.571    0.000    8.571    0.000    5.429 
#    0.000    0.714    0.000    0.000    0.000    0.000 
#    0.000   72.000    0.000    0.143    0.000    0.000 
#
# Total GULP energy -155942.712506 kJ/mol
# GULP energy per Si atom -5569.382590 kJ/mol
# Density = 1.784088 g / cm^3
# Si number density = 17.881577 Si / 1000 Ang^3
#
#
#
# Elastic Constant Matrix: (Units=GPa)
#
#
# Indices 1 2 3 4 5 6 
#
# 1 109.9005 42.6212 28.2166 0.0000 -12.5379 0.0000
# 2 42.6212 107.6163 28.2056 0.0000 -1.4181 0.0000
# 3 28.2166 28.2056 35.7297 0.0000 -8.1408 0.0000
# 4 0.0000 0.0000 0.0000 5.4305 0.0000 -3.2070
# 5 -12.5379 -1.4181 -8.1408 0.0000 34.3891 0.0000
# 6 0.0000 0.0000 0.0000 -3.2070 0.0000 19.2325
#
#
#
# Elastic Compliance Matrix: (Units=1/GPa)
#
#
# Indices 1 2 3 4 5 6 
#
# 1 0.012329 -0.003103 -0.006650 0.000000 0.002793 0.000000
# 2 -0.003103 0.012604 -0.008074 0.000000 -0.002523 0.000000
# 3 -0.006650 -0.008074 0.041208 0.000000 0.006997 0.000000
# 4 0.000000 0.000000 0.000000 0.204258 0.000000 0.034060
# 5 0.002793 -0.002523 0.006997 0.000000 0.031650 0.000000
# 6 0.000000 0.000000 0.000000 0.034060 0.000000 0.057675
#
#
# Mechanical properties :
#
#
# Convention : Reuss Voigt Hill
#
# Bulk Modulus (GPa) = 32.80225 50.14814 41.47519
# Shear Modulus (GPa) = 12.32924 22.09062 17.20993
#
# Velocity S-wave (km/s) = 2.62867 3.51862 3.10569
# Velocity P-wave (km/s) = 5.25330 6.67930 6.00875
#
# Compressibility (1/GPa) = 0.03048571
#
# Stress axis : x y z
#
# Youngs Moduli (GPa) = 81.11265 79.33892 24.26693
#
# Poissons Ratio (x) = 0.24618 0.16139
# Poissons Ratio (y) = 0.25168 0.19594
# Poissons Ratio (z) = 0.53943 0.64061
#
# Static dielectric constant tensor:
#      x y z
#    x 1.705160 0.000000 0.045870 
#    y 0.000000 1.601660 0.000000 
#    z 0.045870 0.000000 1.465950 
# 
# From -- ./inp_files/80494.got.cif
#   From: 2010.05.17/outbox.cif.g08.bks.cpg/sg12_41_cif.got.tgz:80494.got - 2010.06.03 13:09:07.
