data_PCOD9174138
_publ_section_title
;
Structure prediction by ZEFSAII (Michael W. Deem and Ramdas Pophale) SiO2 
 PCOD9174138
Probable space group: C 2/M
;
_chemical_formula_sum "Si O2"
_cell_formula_units_Z 64
_cell_length_a 21.666715
_cell_length_b 8.250179
_cell_length_c 15.417114
_cell_angle_alpha 90.000000
_cell_angle_beta 68.705391
_cell_angle_gamma 90.000000
_cell_volume 2567.718806
_symmetry_space_group_name_H-M "C 2/M"
_symmetry_group_IT_number 12
_symmetry_cell_setting 'monoclinic'
loop_
_space_group_symop_operation_xyz
x,y,z
-x,y,-z
-x,-y,-z
x,-y,z
1/2+x,1/2+y,z
1/2-x,1/2+y,-z
1/2-x,1/2-y,-z
1/2+x,1/2-y,z
loop_
_atom_site_type_symbol
_atom_site_label
_atom_site_fract_x
_atom_site_fract_y
_atom_site_fract_z
Si Si1 0.086207 0.812773 0.024742
Si Si2 0.703232 0.183374 0.866631
Si Si3 0.668400 0.189577 0.142264
Si Si4 0.023523 0.191139 0.796527
Si Si5 0.627824 0.806199 0.353188
Si Si6 0.661095 0.311578 0.515837
Si Si7 0.181511 0.808042 0.693860
Si Si8 0.514953 0.188963 0.616928
O O1 0.130852 0.790215 0.088705
O O2 0.013768 0.761481 0.096043
O O3 0.083375 0.000000 0.998121
O O4 0.127694 0.715602 0.932840
O O5 0.752177 0.295597 0.896968
O O6 0.711996 0.219784 0.760551
O O7 0.720733 0.000000 0.877896
O O8 0.650450 0.252851 0.247749
O O9 0.650405 0.000000 0.141322
O O10 0.997718 0.293002 0.727757
O O11 0.102499 0.204969 0.752665
O O12 0.007839 0.000000 0.790996
O O13 0.669961 0.761536 0.416109
O O14 0.550513 0.757826 0.400878
O O15 0.628407 0.000000 0.347483
O O16 0.677120 0.500000 0.505280
O O17 0.691629 0.243514 0.590261
O O18 0.581726 0.289324 0.570436
O O19 0.198365 0.000000 0.687991
O O20 0.529430 0.000000 0.589789
#
# Coordination Sequence:
#
# PCOD9174138 Si02
#       8
#     8   8   8   8   8   8   8   8
#     4  11  22  39  64  92 121 153 189 239 296 352
#     4  12  26  42  61  86 113 153 202 246 293 348
#     4  11  23  42  63  87 120 155 194 243 294 346
#     4   9  19  35  59  89 120 154 192 235 290 348
#     4  10  21  35  55  85 118 153 191 236 291 345
#     4  10  21  35  56  85 117 155 196 236 284 346
#     4   9  20  41  61  83 117 156 197 241 288 340
#     4  10  18  31  52  82 121 157 190 233 288 344
#
# _framework density 24.924848000000001
#
# number of rings (size 3 to 8) (size 9 to 14) (size 15 to 20)
#    0.000    1.750    1.250    4.125    0.000    7.000 
#    0.000    3.125    0.000    0.000    0.000    0.000 
#    0.000    0.000    0.000    0.000    0.000    0.000 
#
# Total GULP energy -179058.403540 kJ/mol
# GULP energy per Si atom -5595.575111 kJ/mol
# Density = 2.486812 g / cm^3
# Si number density = 24.924848 Si / 1000 Ang^3
#
#
#
# Elastic Constant Matrix: (Units=GPa)
#
#
# Indices 1 2 3 4 5 6 
#
# 1 79.2377 5.5749 3.1773 0.0000 6.6384 0.0000
# 2 5.5749 33.7046 4.5445 0.0000 2.9818 0.0000
# 3 3.1773 4.5445 138.9781 0.0000 1.7075 0.0000
# 4 0.0000 0.0000 0.0000 35.6878 0.0000 2.0998
# 5 6.6384 2.9818 1.7075 0.0000 44.8377 0.0000
# 6 0.0000 0.0000 0.0000 2.0998 0.0000 20.8339
#
#
#
# Elastic Compliance Matrix: (Units=1/GPa)
#
#
# Indices 1 2 3 4 5 6 
#
# 1 0.012915 -0.001951 -0.000210 0.000000 -0.001774 0.000000
# 2 -0.001951 0.030266 -0.000924 0.000000 -0.001689 0.000000
# 3 -0.000210 -0.000924 0.007233 0.000000 -0.000183 0.000000
# 4 0.000000 0.000000 0.000000 0.028188 0.000000 -0.002841
# 5 -0.001774 -0.001689 -0.000183 0.000000 0.022685 0.000000
# 6 0.000000 0.000000 0.000000 -0.002841 0.000000 0.048285
#
#
# Mechanical properties :
#
#
# Convention : Reuss Voigt Hill
#
# Bulk Modulus (GPa) = 22.60209 30.94599 26.77404
# Shear Modulus (GPa) = 29.32742 36.18011 32.75377
#
# Velocity S-wave (km/s) = 3.43393 3.81408 3.62899
# Velocity P-wave (km/s) = 4.98099 5.64260 5.32209
#
# Compressibility (1/GPa) = 0.04424370
#
# Stress axis : x y z
#
# Youngs Moduli (GPa) = 77.43195 33.04005 138.26207
#
# Poissons Ratio (x) = 0.06446 0.02899
# Poissons Ratio (y) = 0.15106 0.12780
# Poissons Ratio (z) = 0.01623 0.03054
#
# Static dielectric constant tensor:
#      x y z
#    x 1.997870 0.000000 -0.044630 
#    y 0.000000 1.847980 0.000000 
#    z -0.044630 0.000000 2.044680 
# 
# From -- ./inp_files/243878.got.cif
#   From: 2010.05.17/outbox.cif.g08.bks.cpg/sg12_122_cif.got.tgz:243878.got - 2010.06.03 13:09:07.
