data_PCOD9174452
_publ_section_title
;
Structure prediction by ZEFSAII (Michael W. Deem and Ramdas Pophale) SiO2 
 PCOD9174452
Probable space group: C 2/M
;
_chemical_formula_sum "Si O2"
_cell_formula_units_Z 64
_cell_length_a 28.310960
_cell_length_b 14.674160
_cell_length_c 10.317740
_cell_angle_alpha 90.000000
_cell_angle_beta 48.781372
_cell_angle_gamma 90.000000
_cell_volume 3224.231143
_symmetry_space_group_name_H-M "C 2/M"
_symmetry_group_IT_number 12
_symmetry_cell_setting 'monoclinic'
loop_
_space_group_symop_operation_xyz
x,y,z
-x,y,-z
-x,-y,-z
x,-y,z
1/2+x,1/2+y,z
1/2-x,1/2+y,-z
1/2-x,1/2-y,-z
1/2+x,1/2-y,z
loop_
_atom_site_type_symbol
_atom_site_label
_atom_site_fract_x
_atom_site_fract_y
_atom_site_fract_z
Si Si1 0.082925 0.602950 0.171077
Si Si2 0.028201 0.390708 0.807901
Si Si3 0.553741 0.392456 0.794223
Si Si4 0.227503 0.794117 0.237385
Si Si5 0.649513 0.725188 0.128411
Si Si6 0.852162 0.270102 0.384501
Si Si7 0.970887 0.109095 0.692504
Si Si8 0.187250 0.598445 0.760550
O O1 0.079154 0.500000 0.230480
O O2 0.115119 0.676706 0.204470
O O3 0.016752 0.633291 0.231067
O O4 0.126694 0.599374 0.963280
O O5 0.033800 0.500000 0.799159
O O6 0.093456 0.340960 0.677791
O O7 0.000000 0.364098 0.000000
O O8 0.571036 0.500000 0.764050
O O9 0.612259 0.325077 0.709486
O O10 0.520134 0.370275 0.717936
O O11 0.500000 0.378668 0.000000
O O12 0.178393 0.808479 0.210879
O O13 0.193683 0.741408 0.412864
O O14 0.253912 0.886716 0.251717
O O15 0.289451 0.742277 0.071877
O O16 0.595645 0.659652 0.170686
O O17 0.817618 0.316602 0.326053
O O18 0.000000 0.134109 0.500000
O O19 0.960828 0.000000 0.712604
O O20 0.189487 0.500000 0.690033
#
# Coordination Sequence:
#
# PCOD9174452 Si02
#       8
#     8   8   8   8   8   8   8   8
#     4   9  18  34  59  87 114 147 190 237 296 354
#     4  10  18  31  55  89 117 146 187 236 297 356
#     4  10  23  38  57  91 128 157 192 247 316 369
#     4  10  24  39  56  83 115 159 209 238 289 349
#     4  10  21  41  61  81 117 159 199 248 291 349
#     4  12  21  35  60  87 118 156 194 244 293 359
#     4  10  21  39  65  92 115 152 205 250 297 362
#     4  10  21  38  59  85 115 149 196 249 291 345
#
# _framework density 19.849694
#
# number of rings (size 3 to 8) (size 9 to 14) (size 15 to 20)
#    0.000    1.875    1.250    2.625    3.500    1.000 
#    0.000    4.375    0.000    2.625    0.000    0.000 
#    0.000    0.000    0.000    0.000    0.000    0.000 
#
# Total GULP energy -178655.794468 kJ/mol
# GULP energy per Si atom -5582.993577 kJ/mol
# Density = 1.980452 g / cm^3
# Si number density = 19.849694 Si / 1000 Ang^3
#
#
#
# Elastic Constant Matrix: (Units=GPa)
#
#
# Indices 1 2 3 4 5 6 
#
# 1 92.3249 49.9039 22.5458 0.0000 -1.9079 0.0000
# 2 49.9039 76.0998 19.3967 0.0000 -1.7417 0.0000
# 3 22.5458 19.3967 31.1170 0.0000 -4.5744 0.0000
# 4 0.0000 0.0000 0.0000 1.0737 0.0000 7.2738
# 5 -1.9079 -1.7417 -4.5744 0.0000 22.6765 0.0000
# 6 0.0000 0.0000 0.0000 7.2738 0.0000 15.7833
#
#
#
# Elastic Compliance Matrix: (Units=1/GPa)
#
#
# Indices 1 2 3 4 5 6 
#
# 1 0.017895 -0.010011 -0.006819 0.000000 -0.000639 0.000000
# 2 -0.010011 0.021237 -0.006048 0.000000 -0.000431 0.000000
# 3 -0.006819 -0.006048 0.041938 0.000000 0.007422 0.000000
# 4 0.000000 0.000000 0.000000 -0.438905 0.000000 0.202271
# 5 -0.000639 -0.000431 0.007422 0.000000 0.045509 0.000000
# 6 0.000000 0.000000 0.000000 0.202271 0.000000 -0.029859
#
#
# Mechanical properties :
#
#
# Convention : Reuss Voigt Hill
#
# Bulk Modulus (GPa) = 28.31735 42.58160 35.44948
# Shear Modulus (GPa) = -17.56502 15.08640 -1.23931
#
# Velocity S-wave (km/s) = -2.97796 2.75986 -0.79101
# Velocity P-wave (km/s) = 1.57244 5.62622 4.13079
#
# Compressibility (1/GPa) = 0.03531404
#
# Stress axis : x y z
#
# Youngs Moduli (GPa) = 55.88254 47.08668 23.84451
#
# Poissons Ratio (x) = 0.47140 0.16259
# Poissons Ratio (y) = 0.55946 0.14421
# Poissons Ratio (z) = 0.38106 0.28478
#
# Static dielectric constant tensor:
#      x y z
#    x 1.717630 0.000000 -0.000510 
#    y 0.000000 1.708860 0.000000 
#    z -0.000510 0.000000 1.703660 
# 
# From -- ./inp_files/189452.got.cif
#   From: 2010.05.17/outbox.cif.g08.bks.cpg/sg12_95_cif.got.tgz:189452.got - 2010.06.03 13:09:07.
