data_PCOD9174776
_publ_section_title
;
Structure prediction by ZEFSAII (Michael W. Deem and Ramdas Pophale) SiO2 
 PCOD9174776
Probable space group: C 2/M
;
_chemical_formula_sum "Si O2"
_cell_formula_units_Z 64
_cell_length_a 21.072136
_cell_length_b 7.438183
_cell_length_c 19.705174
_cell_angle_alpha 90.000000
_cell_angle_beta 88.745388
_cell_angle_gamma 90.000000
_cell_volume 3087.817092
_symmetry_space_group_name_H-M "C 2/M"
_symmetry_group_IT_number 12
_symmetry_cell_setting 'monoclinic'
loop_
_space_group_symop_operation_xyz
x,y,z
-x,y,-z
-x,-y,-z
x,-y,z
1/2+x,1/2+y,z
1/2-x,1/2+y,-z
1/2-x,1/2-y,-z
1/2+x,1/2-y,z
loop_
_atom_site_type_symbol
_atom_site_label
_atom_site_fract_x
_atom_site_fract_y
_atom_site_fract_z
Si Si1 0.695019 0.714363 0.054842
Si Si2 0.551546 0.715959 0.208460
Si Si3 0.011080 0.288856 0.354227
Si Si4 0.118763 0.279344 0.577161
Si Si5 0.302942 0.719962 0.793174
Si Si6 0.639285 0.218060 0.421155
Si Si7 0.449304 0.280248 0.945343
Si Si8 0.765436 0.708525 0.336256
O O1 0.689010 0.500000 0.060192
O O2 0.712810 0.778087 0.130068
O O3 0.623569 0.778227 0.039075
O O4 0.750000 0.750000 0.000000
O O5 0.552072 0.500000 0.206949
O O6 0.509036 0.770278 0.273060
O O7 0.624068 0.775404 0.221251
O O8 0.534603 0.775152 0.132509
O O9 0.012446 0.500000 0.370202
O O10 0.077842 0.216618 0.380718
O O11 0.949218 0.217230 0.393515
O O12 0.119087 0.500000 0.577374
O O13 0.131839 0.226816 0.499459
O O14 0.174541 0.215230 0.625507
O O15 0.302457 0.500000 0.791057
O O16 0.256862 0.786239 0.735257
O O17 0.704006 0.283306 0.385963
O O18 0.641400 0.000000 0.418567
O O19 0.450002 0.500000 0.946363
O O20 0.500000 0.219666 0.000000
O O21 0.781044 0.500000 0.323008
#
# Coordination Sequence:
#
# PCOD9174776 Si02
#       8
#     8   8   8   8   8   8   8   8
#     4   9  17  31  50  72  97 125 157 193 231 277
#     4   9  16  30  52  73  93 122 162 200 229 272
#     4  10  19  32  49  70  97 127 159 194 235 285
#     4   9  19  33  48  69  96 129 160 189 236 290
#     4   8  15  29  49  69  91 123 159 189 225 276
#     4  10  19  32  51  71  94 124 159 199 238 279
#     4   8  15  30  52  73  94 125 162 193 229 281
#     4  10  18  32  53  71  92 124 163 198 229 281
#
# _framework density 20.726616
#
# number of rings (size 3 to 8) (size 9 to 14) (size 15 to 20)
#    0.000    2.875    1.250    2.250    0.000    1.500 
#    2.250    4.375    0.000    2.250    0.000    0.000 
#    0.000    0.000    0.000    0.000    0.000    0.000 
#
# Total GULP energy -178559.362853 kJ/mol
# GULP energy per Si atom -5579.980089 kJ/mol
# Density = 2.067944 g / cm^3
# Si number density = 20.726616 Si / 1000 Ang^3
#
#
#
# Elastic Constant Matrix: (Units=GPa)
#
#
# Indices 1 2 3 4 5 6 
#
# 1 57.4539 -4.1837 27.6557 0.0000 8.9764 0.0000
# 2 -4.1837 61.2090 -6.8620 0.0000 6.7079 0.0000
# 3 27.6557 -6.8620 110.8821 0.0000 10.5527 0.0000
# 4 0.0000 0.0000 0.0000 12.7141 0.0000 -11.0043
# 5 8.9764 6.7079 10.5527 0.0000 36.5986 0.0000
# 6 0.0000 0.0000 0.0000 -11.0043 0.0000 9.2251
#
#
#
# Elastic Compliance Matrix: (Units=1/GPa)
#
#
# Indices 1 2 3 4 5 6 
#
# 1 0.020332 0.001298 -0.004620 0.000000 -0.003892 0.000000
# 2 0.001298 0.016957 0.001081 0.000000 -0.003738 0.000000
# 3 -0.004620 0.001081 0.010435 0.000000 -0.002074 0.000000
# 4 0.000000 0.000000 0.000000 -2.423495 0.000000 -2.890913
# 5 -0.003892 -0.003738 -0.002074 0.000000 0.029561 0.000000
# 6 0.000000 0.000000 0.000000 -2.890913 0.000000 -3.340083
#
#
# Mechanical properties :
#
#
# Convention : Reuss Voigt Hill
#
# Bulk Modulus (GPa) = 23.12512 29.19610 26.16061
# Shear Modulus (GPa) = -0.88224 25.90323 12.51049
#
# Velocity S-wave (km/s) = -0.65313 3.53902 2.45948
# Velocity P-wave (km/s) = 3.25771 5.55126 4.55133
#
# Compressibility (1/GPa) = 0.04324302
#
# Stress axis : x y z
#
# Youngs Moduli (GPa) = 49.18369 58.97232 95.82903
#
# Poissons Ratio (x) = -0.07656 0.44276
# Poissons Ratio (y) = -0.06386 -0.10362
# Poissons Ratio (z) = 0.22724 -0.06377
#
# Static dielectric constant tensor:
#      x y z
#    x 1.710790 0.000000 0.013610 
#    y 0.000000 1.803410 0.000000 
#    z 0.013610 0.000000 1.734340 
# 
# From -- ./inp_files/281253.got.cif
#   From: 2010.05.17/outbox.cif.g08.bks.cpg/sg12_141_cif.got.tgz:281253.got - 2010.06.03 13:09:07.
