data_PCOD9174298
_publ_section_title
;
Structure prediction by ZEFSAII (Michael W. Deem and Ramdas Pophale) SiO2 
 PCOD9174298
Probable space group: C 2/M
;
_chemical_formula_sum "Si O2"
_cell_formula_units_Z 56
_cell_length_a 20.147862
_cell_length_b 11.163442
_cell_length_c 25.171592
_cell_angle_alpha 90.000000
_cell_angle_beta 150.724310
_cell_angle_gamma 90.000000
_cell_volume 2768.583597
_symmetry_space_group_name_H-M "C 2/M"
_symmetry_group_IT_number 12
_symmetry_cell_setting 'monoclinic'
loop_
_space_group_symop_operation_xyz
x,y,z
-x,y,-z
-x,-y,-z
x,-y,z
1/2+x,1/2+y,z
1/2-x,1/2+y,-z
1/2-x,1/2-y,-z
1/2+x,1/2-y,z
loop_
_atom_site_type_symbol
_atom_site_label
_atom_site_fract_x
_atom_site_fract_y
_atom_site_fract_z
Si Si1 0.850379 0.788986 0.891738
Si Si2 0.727548 0.364944 0.720420
Si Si3 0.922934 0.373030 0.257612
Si Si4 0.034563 0.136610 0.387099
Si Si5 0.934597 0.741344 0.161380
Si Si6 0.280137 0.139787 0.637633
Si Si7 0.686764 0.863418 0.028258
O O1 0.828920 0.724801 0.820400
O O2 0.718743 0.869278 0.809888
O O3 0.834897 0.690957 0.928447
O O4 0.000000 0.842884 0.000000
O O5 0.781183 0.500000 0.763916
O O6 0.586333 0.359530 0.653661
O O7 0.709721 0.342889 0.645677
O O8 0.993612 0.500000 0.317375
O O9 0.888680 0.360887 0.171414
O O10 0.004500 0.252370 0.329813
O O11 0.175078 0.152165 0.516447
O O12 0.030314 0.000000 0.361106
O O13 0.844809 0.850938 0.120467
O O14 0.096043 0.732337 0.278151
O O15 0.892281 0.710525 0.072055
O O16 0.328886 0.000000 0.671064
O O17 0.643436 0.000000 0.997023
#
# Coordination Sequence:
#
# PCOD9174298 Si02
#       7
#     8   8   8   8   8   8   8
#     4  10  20  32  52  81 106 132 171 216 261 312
#     4   9  17  30  50  78 109 135 164 212 272 319
#     4  10  21  37  54  73 106 147 179 212 261 318
#     4   9  19  35  56  81 105 133 175 226 272 310
#     4  10  21  34  51  75 104 141 181 213 255 315
#     4  10  18  31  54  79 104 135 174 220 264 311
#     4  10  20  35  53  75 108 142 172 215 266 311
#
# _framework density 20.226949999999999
#
# number of rings (size 3 to 8) (size 9 to 14) (size 15 to 20)
#    0.000    2.286    0.000    3.000    0.000    8.286 
#    0.000    0.714    0.000   15.429    0.000    0.000 
#    0.000    0.000    0.000    0.000    0.000    0.000 
#
# Total GULP energy -156076.033849 kJ/mol
# GULP energy per Si atom -5574.144066 kJ/mol
# Density = 2.018091 g / cm^3
# Si number density = 20.226950 Si / 1000 Ang^3
#
#
#
# Elastic Constant Matrix: (Units=GPa)
#
#
# Indices 1 2 3 4 5 6 
#
# 1 47.5329 11.4819 4.0411 0.0000 -12.4450 0.0000
# 2 11.4819 71.1908 22.3432 0.0001 -9.6807 0.0001
# 3 4.0411 22.3432 85.0902 0.0000 1.2798 0.0002
# 4 0.0000 0.0001 0.0000 9.1151 0.0001 5.7287
# 5 -12.4450 -9.6807 1.2798 0.0001 26.6504 0.0000
# 6 0.0000 0.0001 0.0002 5.7287 0.0000 2.1219
#
#
#
# Elastic Compliance Matrix: (Units=1/GPa)
#
#
# Indices 1 2 3 4 5 6 
#
# 1 0.024428 -0.002269 -0.000724 0.000000 0.010618 0.000000
# 2 -0.002269 0.016456 -0.004290 0.000000 0.005124 0.000000
# 3 -0.000724 -0.004290 0.012951 -0.000001 -0.002519 0.000002
# 4 0.000000 0.000000 -0.000001 -0.157446 0.000000 0.425079
# 5 0.010618 0.005124 -0.002519 0.000000 0.044463 -0.000001
# 6 0.000000 0.000000 0.000002 0.425079 -0.000001 -0.676358
#
#
# Mechanical properties :
#
#
# Convention : Reuss Voigt Hill
#
# Bulk Modulus (GPa) = 25.46582 31.06070 28.26326
# Shear Modulus (GPa) = -7.06364 18.64066 5.78851
#
# Velocity S-wave (km/s) = -1.87077 3.03904 1.69352
# Velocity P-wave (km/s) = 2.81975 5.26344 4.22225
#
# Compressibility (1/GPa) = 0.03926832
#
# Stress axis : x y z
#
# Youngs Moduli (GPa) = 40.93744 60.76813 77.21365
#
# Poissons Ratio (x) = 0.13786 0.05591
# Poissons Ratio (y) = 0.09287 0.33128
# Poissons Ratio (z) = 0.02964 0.26072
#
# Static dielectric constant tensor:
#      x y z
#    x 1.737140 0.000000 0.030920 
#    y 0.000000 1.738290 0.000000 
#    z 0.030920 0.000000 1.743700 
# 
# From -- ./inp_files/347052.got.cif
#   From: 2010.05.17/outbox.cif.g08.bks.cpg/sg12_174_cif.got.tgz:347052.got - 2010.06.03 13:09:07.
