data_PCOD9174775
_publ_section_title
;
Structure prediction by ZEFSAII (Michael W. Deem and Ramdas Pophale) SiO2 
 PCOD9174775
Probable space group: C 2/M
;
_chemical_formula_sum "Si O2"
_cell_formula_units_Z 56
_cell_length_a 19.491778
_cell_length_b 7.344361
_cell_length_c 20.288905
_cell_angle_alpha 90.000000
_cell_angle_beta 125.595382
_cell_angle_gamma 90.000000
_cell_volume 2361.747729
_symmetry_space_group_name_H-M "C 2/M"
_symmetry_group_IT_number 12
_symmetry_cell_setting 'monoclinic'
loop_
_space_group_symop_operation_xyz
x,y,z
-x,y,-z
-x,-y,-z
x,-y,z
1/2+x,1/2+y,z
1/2-x,1/2+y,-z
1/2-x,1/2-y,-z
1/2+x,1/2-y,z
loop_
_atom_site_type_symbol
_atom_site_label
_atom_site_fract_x
_atom_site_fract_y
_atom_site_fract_z
Si Si1 0.557676 0.782484 0.466903
Si Si2 0.200624 0.792220 0.882047
Si Si3 0.790553 0.721872 0.368067
Si Si4 0.878389 0.205787 0.926503
Si Si5 0.596704 0.220598 0.696420
Si Si6 0.115697 0.777990 0.219158
Si Si7 0.566375 0.277363 0.906170
O O1 0.500000 0.755279 0.500000
O O2 0.650410 0.714434 0.538496
O O3 0.497792 0.715655 0.374766
O O4 0.565114 0.000000 0.462111
O O5 0.284550 0.697816 0.904072
O O6 0.133963 0.789287 0.785023
O O7 0.150047 0.715096 0.915704
O O8 0.224094 0.000000 0.908818
O O9 0.790615 0.500000 0.370322
O O10 0.840075 0.770681 0.328231
O O11 0.693999 0.783332 0.307444
O O12 0.870754 0.284249 0.849163
O O13 0.908664 0.000000 0.932468
O O14 0.932942 0.283694 0.017334
O O15 0.596613 0.000000 0.698614
O O16 0.019339 0.724372 0.178996
O O17 0.118981 0.000000 0.222400
O O18 0.569367 0.500000 0.908413
#
# Coordination Sequence:
#
# PCOD9174775 Si02
#       7
#     8   8   8   8   8   8   8
#     4   7  11  19  37  66  96 112 133 187 238 261
#     4  11  21  31  44  66  98 128 150 180 227 278
#     4   8  12  21  42  73  94 108 141 193 237 258
#     4  10  18  32  53  71  86 113 157 200 231 261
#     4   9  15  27  46  69  91 117 153 189 224 262
#     4   9  15  26  48  74  93 111 148 197 234 263
#     4   9  19  31  44  67  96 122 149 187 233 274
#
# _framework density 23.711254
#
# number of rings (size 3 to 8) (size 9 to 14) (size 15 to 20)
#    0.000    3.000    1.429    3.000    0.000    1.714 
#    0.000    0.714    0.000    8.143    0.000    0.000 
#    0.000    0.000    0.000    0.000    0.000    0.143 
#
# Total GULP energy -156266.494931 kJ/mol
# GULP energy per Si atom -5580.946248 kJ/mol
# Density = 2.365729 g / cm^3
# Si number density = 23.711254 Si / 1000 Ang^3
#
#
#
# Elastic Constant Matrix: (Units=GPa)
#
#
# Indices 1 2 3 4 5 6 
#
# 1 62.9642 3.8939 4.4057 0.0000 25.8406 0.0000
# 2 3.8939 91.4383 6.3328 0.0000 5.5306 0.0000
# 3 4.4057 6.3328 142.6342 0.0000 41.7453 0.0000
# 4 0.0000 0.0000 0.0000 18.1304 0.0000 -11.9883
# 5 25.8406 5.5306 41.7453 0.0000 38.3697 0.0000
# 6 0.0000 0.0000 0.0000 -11.9883 0.0000 1.9034
#
#
#
# Elastic Compliance Matrix: (Units=1/GPa)
#
#
# Indices 1 2 3 4 5 6 
#
# 1 0.025139 -0.000068 0.006131 0.000000 -0.023590 0.000000
# 2 -0.000068 0.011033 -0.000052 0.000000 -0.001487 0.000000
# 3 0.006131 -0.000052 0.011782 0.000000 -0.016939 0.000000
# 4 0.000000 0.000000 0.000000 -0.017428 0.000000 -0.109773
# 5 -0.023590 -0.001487 -0.016939 0.000000 0.060594 0.000000
# 6 0.000000 0.000000 0.000000 -0.109773 0.000000 -0.166014
#
#
# Mechanical properties :
#
#
# Convention : Reuss Voigt Hill
#
# Bulk Modulus (GPa) = 16.67405 36.25572 26.46489
# Shear Modulus (GPa) = -74.71130 30.50764 -22.10183
#
# Velocity S-wave (km/s) = -5.61936 3.59086 -3.05638
# Velocity P-wave (km/s) = 5.92077 5.70228 1.12683
#
# Compressibility (1/GPa) = 0.05997344
#
# Stress axis : x y z
#
# Youngs Moduli (GPa) = 39.77911 90.63858 84.87784
#
# Poissons Ratio (x) = 0.00619 -0.52037
# Poissons Ratio (y) = 0.00272 0.00445
# Poissons Ratio (z) = -0.24388 0.00476
#
# Static dielectric constant tensor:
#      x y z
#    x 1.869590 0.000000 0.032890 
#    y 0.000000 1.912320 0.000000 
#    z 0.032890 0.000000 1.927130 
# 
# From -- ./inp_files/280145.got.cif
#   From: 2010.05.17/outbox.cif.g08.bks.cpg/sg12_141_cif.got.tgz:280145.got - 2010.06.03 13:09:07.
