data_PCOD9174436
_publ_section_title
;
Structure prediction by ZEFSAII (Michael W. Deem and Ramdas Pophale) SiO2 
 PCOD9174436
Probable space group: C 2/M
;
_chemical_formula_sum "Si O2"
_cell_formula_units_Z 56
_cell_length_a 13.940084
_cell_length_b 14.665552
_cell_length_c 18.531266
_cell_angle_alpha 90.000000
_cell_angle_beta 51.907531
_cell_angle_gamma 90.000000
_cell_volume 2981.621573
_symmetry_space_group_name_H-M "C 2/M"
_symmetry_group_IT_number 12
_symmetry_cell_setting 'monoclinic'
loop_
_space_group_symop_operation_xyz
x,y,z
-x,y,-z
-x,-y,-z
x,-y,z
1/2+x,1/2+y,z
1/2-x,1/2+y,-z
1/2-x,1/2-y,-z
1/2+x,1/2-y,z
loop_
_atom_site_type_symbol
_atom_site_label
_atom_site_fract_x
_atom_site_fract_y
_atom_site_fract_z
Si Si1 0.293083 0.603010 0.797583
Si Si2 0.825889 0.694498 0.405116
Si Si3 0.580863 0.749672 0.891259
Si Si4 0.464569 0.140219 0.595209
Si Si5 0.961469 0.245302 0.792467
Si Si6 0.389981 0.351713 0.598871
Si Si7 0.290559 0.896412 0.799973
O O1 0.267625 0.500000 0.831782
O O2 0.172713 0.664523 0.845343
O O3 0.380826 0.657596 0.811008
O O4 0.359180 0.603364 0.688992
O O5 0.750000 0.750000 0.500000
O O6 0.729607 0.649814 0.395711
O O7 0.917464 0.631550 0.408294
O O8 0.916906 0.754362 0.313481
O O9 0.499849 0.749400 0.857193
O O10 0.665438 0.659557 0.854286
O O11 0.500000 0.754572 0.000000
O O12 0.500000 0.105305 0.500000
O O13 0.430237 0.247549 0.600130
O O14 0.351375 0.101644 0.692043
O O15 0.882472 0.333704 0.804700
O O16 0.500000 0.390130 0.500000
O O17 0.278523 0.000000 0.831689
#
# Coordination Sequence:
#
# PCOD9174436 Si02
#       7
#     8   8   8   8   8   8   8
#     4  11  23  40  62  93 126 159 202 256 306 360
#     4  11  16  28  58  85 113 165 204 234 293 363
#     4  11  24  44  67  89 119 163 205 251 311 365
#     4  10  18  31  55  85 121 162 204 244 296 353
#     4  10  21  41  62  88 123 161 199 253 307 360
#     4  11  18  33  55  88 122 165 200 246 294 360
#     4  10  22  40  62  92 123 158 203 255 305 361
#
# _framework density 18.781725999999999
#
# number of rings (size 3 to 8) (size 9 to 14) (size 15 to 20)
#    0.000    1.429    8.571    0.000    0.000    4.571 
#    0.000    1.429    0.000    0.857    0.000    0.000 
#    0.000    0.000    0.000    0.000    0.000    0.000 
#
# Total GULP energy -156260.304318 kJ/mol
# GULP energy per Si atom -5580.725154 kJ/mol
# Density = 1.873898 g / cm^3
# Si number density = 18.781726 Si / 1000 Ang^3
#
#
#
# Elastic Constant Matrix: (Units=GPa)
#
#
# Indices 1 2 3 4 5 6 
#
# 1 138.5530 41.2424 48.1805 0.0000 18.3962 0.0000
# 2 41.2424 131.9464 36.2863 0.0000 -0.6348 0.0000
# 3 48.1805 36.2863 118.2918 0.0000 16.2998 0.0000
# 4 0.0000 0.0000 0.0000 -1.5331 0.0000 2.0720
# 5 18.3962 -0.6348 16.2998 0.0000 25.0816 0.0000
# 6 0.0000 0.0000 0.0000 2.0720 0.0000 -3.0733
#
#
#
# Elastic Compliance Matrix: (Units=1/GPa)
#
#
# Indices 1 2 3 4 5 6 
#
# 1 0.009465 -0.002327 -0.002391 0.000000 -0.005447 0.000000
# 2 -0.002327 0.008946 -0.002266 0.000000 0.003406 0.000000
# 3 -0.002391 -0.002266 0.010861 0.000000 -0.005362 0.000000
# 4 0.000000 0.000000 0.000000 -7.341800 0.000000 -4.949854
# 5 -0.005447 0.003406 -0.005362 0.000000 0.047436 0.000000
# 6 0.000000 0.000000 0.000000 -4.949854 0.000000 -3.662588
#
#
# Mechanical properties :
#
#
# Convention : Reuss Voigt Hill
#
# Bulk Modulus (GPa) = 65.33750 71.13440 68.23595
# Shear Modulus (GPa) = -0.45835 21.63385 10.58775
#
# Velocity S-wave (km/s) = -0.49454 3.39758 2.37687
# Velocity P-wave (km/s) = 5.87684 7.30397 6.62892
#
# Compressibility (1/GPa) = 0.01530515
#
# Stress axis : x y z
#
# Youngs Moduli (GPa) = 105.65562 111.78619 92.07096
#
# Poissons Ratio (x) = 0.26015 0.22010
# Poissons Ratio (y) = 0.24588 0.20859
# Poissons Ratio (z) = 0.25257 0.25325
#
# Static dielectric constant tensor:
#      x y z
#    x 1.647300 0.000000 -0.005730 
#    y 0.000000 1.683300 0.000000 
#    z -0.005730 0.000000 1.641940 
# 
# From -- ./inp_files/270221.got.cif
#   From: 2010.05.17/outbox.cif.g08.bks.cpg/sg12_136_cif.got.tgz:270221.got - 2010.06.03 13:09:07.
