data_PCOD9174586
_publ_section_title
;
Structure prediction by ZEFSAII (Michael W. Deem and Ramdas Pophale) SiO2 
 PCOD9174586
Probable space group: C 2/M
;
_chemical_formula_sum "Si O2"
_cell_formula_units_Z 48
_cell_length_a 11.991547
_cell_length_b 19.124762
_cell_length_c 11.833083
_cell_angle_alpha 90.000000
_cell_angle_beta 87.967508
_cell_angle_gamma 90.000000
_cell_volume 2712.038513
_symmetry_space_group_name_H-M "C 2/M"
_symmetry_group_IT_number 12
_symmetry_cell_setting 'monoclinic'
loop_
_space_group_symop_operation_xyz
x,y,z
-x,y,-z
-x,-y,-z
x,-y,z
1/2+x,1/2+y,z
1/2-x,1/2+y,-z
1/2-x,1/2-y,-z
1/2+x,1/2-y,z
loop_
_atom_site_type_symbol
_atom_site_label
_atom_site_fract_x
_atom_site_fract_y
_atom_site_fract_z
Si Si1 0.585679 0.630494 0.400133
Si Si2 0.656146 0.652745 0.970259
Si Si3 0.813188 0.676958 0.475145
Si Si4 0.401682 0.806337 0.927131
Si Si5 0.479152 0.420605 0.838164
Si Si6 0.966107 0.707749 0.664079
O O1 0.500000 0.607950 0.500000
O O2 0.712991 0.627254 0.439316
O O3 0.564870 0.589809 0.285732
O O4 0.555427 0.711648 0.371290
O O5 0.785949 0.652330 0.938542
O O6 0.580357 0.631868 0.865802
O O7 0.624630 0.729722 0.018275
O O8 0.617234 0.600061 0.069635
O O9 0.750000 0.750000 0.500000
O O10 0.881394 0.662934 0.588234
O O11 0.908217 0.687872 0.376633
O O12 0.440710 0.799457 0.796650
O O13 0.500000 0.837299 0.000000
O O14 0.515570 0.500000 0.854692
#
# Coordination Sequence:
#
# PCOD9174586 Si02
#       6
#     8   8   8   8   8   8
#     4  11  20  32  54  82 110 141 190 230 270 329
#     4  10  21  37  55  82 115 149 180 231 288 338
#     4   9  18  30  50  78 112 154 170 215 287 354
#     4  11  21  31  56  90 117 137 178 235 291 342
#     4  11  23  41  59  77 112 159 197 230 272 327
#     4  10  18  32  49  82 117 149 170 214 301 346
#
# _framework density 17.698862999999999
#
# number of rings (size 3 to 8) (size 9 to 14) (size 15 to 20)
#    0.000    1.667    6.667    1.000    4.667    1.667 
#    0.000    0.000    0.000    2.000    0.000    2.333 
#    0.000    0.000    0.000    0.000    0.000    0.000 
#
# Total GULP energy -133822.028012 kJ/mol
# GULP energy per Si atom -5575.917834 kJ/mol
# Density = 1.765858 g / cm^3
# Si number density = 17.698863 Si / 1000 Ang^3
#
#
#
# Elastic Constant Matrix: (Units=GPa)
#
#
# Indices 1 2 3 4 5 6 
#
# 1 161.4210 22.2315 65.5766 0.0000 -8.6834 0.0000
# 2 22.2315 30.3598 7.2209 0.0000 7.1617 0.0000
# 3 65.5766 7.2209 89.1883 0.0000 7.2298 0.0000
# 4 0.0000 0.0000 0.0000 9.4465 0.0000 0.2947
# 5 -8.6834 7.1617 7.2298 0.0000 20.8096 0.0000
# 6 0.0000 0.0000 0.0000 0.2947 0.0000 8.3064
#
#
#
# Elastic Compliance Matrix: (Units=1/GPa)
#
#
# Indices 1 2 3 4 5 6 
#
# 1 0.011517 -0.008949 -0.008626 0.000000 0.010883 0.000000
# 2 -0.008949 0.043138 0.004727 0.000000 -0.020223 0.000000
# 3 -0.008626 0.004727 0.018105 0.000000 -0.011516 0.000000
# 4 0.000000 0.000000 0.000000 0.105977 0.000000 -0.003759
# 5 0.010883 -0.020223 -0.011516 0.000000 0.063556 0.000000
# 6 0.000000 0.000000 0.000000 -0.003759 0.000000 0.120523
#
#
# Mechanical properties :
#
#
# Convention : Reuss Voigt Hill
#
# Bulk Modulus (GPa) = 21.24775 52.33634 36.79205
# Shear Modulus (GPa) = 12.37010 20.10850 16.23930
#
# Velocity S-wave (km/s) = 2.64658 3.37433 3.03237
# Velocity P-wave (km/s) = 4.62281 6.69449 5.75267
#
# Compressibility (1/GPa) = 0.04706381
#
# Stress axis : x y z
#
# Youngs Moduli (GPa) = 86.82790 23.18157 55.23278
#
# Poissons Ratio (x) = 0.20746 0.47642
# Poissons Ratio (y) = 0.77704 -0.26107
# Poissons Ratio (z) = 0.74895 -0.10957
#
# Static dielectric constant tensor:
#      x y z
#    x 1.632740 0.000000 0.031100 
#    y 0.000000 1.587690 0.000000 
#    z 0.031100 0.000000 1.615610 
# 
# From -- ./inp_files/131036.got.cif
#   From: 2010.05.17/outbox.cif.g08.bks.cpg/sg12_66_cif.got.tgz:131036.got - 2010.06.03 13:09:07.
