data_PCOD9174749
_publ_section_title
;
Structure prediction by ZEFSAII (Michael W. Deem and Ramdas Pophale) SiO2 
 PCOD9174749
Probable space group: C 2/M
;
_chemical_formula_sum "Si O2"
_cell_formula_units_Z 32
_cell_length_a 5.151194
_cell_length_b 23.646941
_cell_length_c 17.174576
_cell_angle_alpha 90.000000
_cell_angle_beta 111.022689
_cell_angle_gamma 90.000000
_cell_volume 1952.785672
_symmetry_space_group_name_H-M "C 2/M"
_symmetry_group_IT_number 12
_symmetry_cell_setting 'monoclinic'
loop_
_space_group_symop_operation_xyz
x,y,z
-x,y,-z
-x,-y,-z
x,-y,z
1/2+x,1/2+y,z
1/2-x,1/2+y,-z
1/2-x,1/2-y,-z
1/2+x,1/2-y,z
loop_
_atom_site_type_symbol
_atom_site_label
_atom_site_fract_x
_atom_site_fract_y
_atom_site_fract_z
Si Si1 0.887749 0.285421 0.400605
Si Si2 0.911669 0.101779 0.688849
Si Si3 0.180562 0.000000 0.441042
Si Si4 0.996315 0.436323 0.221497
Si Si5 0.319415 0.000000 0.057952
O O1 0.655840 0.236134 0.382331
O O2 0.735303 0.340343 0.351563
O O3 0.000000 0.297064 0.500000
O O4 0.240601 0.104256 0.741171
O O5 0.873180 0.055687 0.616471
O O6 0.753651 0.079930 0.748819
O O7 0.500000 0.000000 0.500000
O O8 0.000000 0.000000 0.500000
O O9 0.093013 0.500000 0.256006
O O10 0.893809 0.447017 0.122392
O O11 0.500000 0.000000 0.000000
O O12 0.000000 0.000000 0.000000
#
# Coordination Sequence:
#
# PCOD9174749 Si02
#       5
#     8   8   4   8   4
#     4  10  22  38  54  72  98 140 191 235 269 296
#     4  12  20  37  51  73 109 138 174 220 271 308
#     4  12  22  30  46  72  98 134 174 206 260 318
#     4  10  20  33  52  77 109 142 160 206 260 317
#     4  10  18  32  52  78 116 146 164 194 246 330
#
# _framework density 16.386846999999999
#
# number of rings (size 3 to 8) (size 9 to 14) (size 15 to 20)
#    0.750    0.500    2.500    5.250    0.000    3.000 
#    0.000    0.000    0.000    0.000    0.000    0.000 
#    0.000   70.000    0.000    0.000    0.000    0.000 
#
# Total GULP energy -89245.050948 kJ/mol
# GULP energy per Si atom -5577.815684 kJ/mol
# Density = 1.634955 g / cm^3
# Si number density = 16.386847 Si / 1000 Ang^3
#
#
#
# Elastic Constant Matrix: (Units=GPa)
#
#
# Indices 1 2 3 4 5 6 
#
# 1 118.6957 -3.4724 47.2848 0.0000 -10.3891 0.0000
# 2 -3.4724 48.5346 23.9296 0.0000 -3.7159 0.0000
# 3 47.2848 23.9296 90.6957 0.0000 -7.8501 0.0000
# 4 0.0000 0.0000 0.0000 17.6866 0.0000 10.7179
# 5 -10.3891 -3.7159 -7.8501 0.0000 36.8547 0.0000
# 6 0.0000 0.0000 0.0000 10.7179 0.0000 24.1200
#
#
#
# Elastic Compliance Matrix: (Units=1/GPa)
#
#
# Indices 1 2 3 4 5 6 
#
# 1 0.011535 0.004443 -0.006995 0.000000 0.002210 0.000000
# 2 0.004443 0.025438 -0.008861 0.000000 0.001930 0.000000
# 3 -0.006995 -0.008861 0.017077 0.000000 0.000772 0.000000
# 4 0.000000 0.000000 0.000000 0.077375 0.000000 -0.034382
# 5 0.002210 0.001930 0.000772 0.000000 0.028116 0.000000
# 6 0.000000 0.000000 0.000000 -0.034382 0.000000 0.056737
#
#
# Mechanical properties :
#
#
# Convention : Reuss Voigt Hill
#
# Bulk Modulus (GPa) = 32.02563 43.71223 37.86893
# Shear Modulus (GPa) = 20.03907 28.41119 24.22513
#
# Velocity S-wave (km/s) = 3.50076 4.16839 3.84907
# Velocity P-wave (km/s) = 5.99386 7.06402 6.55083
#
# Compressibility (1/GPa) = 0.03122499
#
# Stress axis : x y z
#
# Youngs Moduli (GPa) = 86.69415 39.31065 58.55664
#
# Poissons Ratio (x) = -0.17466 0.40959
# Poissons Ratio (y) = -0.38519 0.51888
# Poissons Ratio (z) = 0.60641 0.34834
#
# Static dielectric constant tensor:
#      x y z
#    x 1.553030 0.000000 0.008810 
#    y 0.000000 1.546480 0.000000 
#    z 0.008810 0.000000 1.533340 
# 
# From -- ./inp_files/253017.got.cif
#   From: 2010.05.17/outbox.cif.g08.bks.cpg/sg12_127_cif.got.tgz:253017.got - 2010.06.03 13:09:07.
