data_PCOD9174047
_publ_section_title
;
Structure prediction by ZEFSAII (Michael W. Deem and Ramdas Pophale) SiO2 
 PCOD9174047
Probable space group: C 2/M
;
_chemical_formula_sum "Si O2"
_cell_formula_units_Z 56
_cell_length_a 30.510608
_cell_length_b 7.567852
_cell_length_c 12.275660
_cell_angle_alpha 90.000000
_cell_angle_beta 62.827761
_cell_angle_gamma 90.000000
_cell_volume 2521.631047
_symmetry_space_group_name_H-M "C 2/M"
_symmetry_group_IT_number 12
_symmetry_cell_setting 'monoclinic'
loop_
_space_group_symop_operation_xyz
x,y,z
-x,y,-z
-x,-y,-z
x,-y,z
1/2+x,1/2+y,z
1/2-x,1/2+y,-z
1/2-x,1/2-y,-z
1/2+x,1/2-y,z
loop_
_atom_site_type_symbol
_atom_site_label
_atom_site_fract_x
_atom_site_fract_y
_atom_site_fract_z
Si Si1 0.894217 0.794822 0.248164
Si Si2 0.098136 0.716855 0.141694
Si Si3 0.944271 0.707845 0.583405
Si Si4 0.247897 0.787836 0.372512
Si Si5 0.335127 0.202027 0.119969
Si Si6 0.498498 0.212861 0.877910
Si Si7 0.140444 0.213970 0.487739
O O1 0.882010 0.700162 0.149265
O O2 0.862131 0.724942 0.384028
O O3 0.949657 0.774410 0.227077
O O4 0.883993 0.000000 0.240688
O O5 0.100971 0.500000 0.137852
O O6 0.086544 0.777566 0.277364
O O7 0.049136 0.771379 0.132104
O O8 0.144828 0.779151 0.016701
O O9 0.951828 0.500000 0.598065
O O10 0.906943 0.725178 0.525207
O O11 0.000000 0.779767 0.500000
O O12 0.250000 0.750000 0.500000
O O13 0.291910 0.718613 0.244959
O O14 0.194522 0.730630 0.386988
O O15 0.250133 0.000000 0.363945
O O16 0.320711 0.000000 0.112968
O O17 0.498478 0.000000 0.877616
O O18 0.500000 0.276737 0.000000
O O19 0.138598 0.000000 0.491258
#
# Coordination Sequence:
#
# PCOD9174047 Si02
#       7
#     8   8   8   8   8   8   8
#     4  11  21  32  49  77 114 144 174 224 274 325
#     4   9  18  34  54  79 108 137 182 236 274 316
#     4  10  21  38  60  82 106 143 191 237 272 319
#     4  10  20  35  57  83 112 146 183 227 277 332
#     4  10  19  34  56  79 106 143 180 220 275 331
#     4  10  18  31  52  76 105 141 180 221 271 334
#     4  10  22  38  54  79 114 147 182 227 280 332
#
# _framework density 22.207849
#
# number of rings (size 3 to 8) (size 9 to 14) (size 15 to 20)
#    0.000    2.000    2.857    1.286    0.000    3.429 
#    0.000    2.143    0.000    0.000    0.000    0.000 
#    0.000    0.000    0.000    0.000    0.000    0.000 
#
# Total GULP energy -156164.411724 kJ/mol
# GULP energy per Si atom -5577.300419 kJ/mol
# Density = 2.215730 g / cm^3
# Si number density = 22.207849 Si / 1000 Ang^3
#
#
#
# Elastic Constant Matrix: (Units=GPa)
#
#
# Indices 1 2 3 4 5 6 
#
# 1 72.3034 -6.2296 38.9341 0.0000 -20.5563 0.0000
# 2 -6.2296 52.0577 7.4513 0.0000 -2.6444 0.0000
# 3 38.9341 7.4513 167.8703 0.0000 -19.8681 0.0000
# 4 0.0000 0.0000 0.0000 4.7632 0.0000 -4.0676
# 5 -20.5563 -2.6444 -19.8681 0.0000 42.3627 0.0000
# 6 0.0000 0.0000 0.0000 -4.0676 0.0000 9.2886
#
#
#
# Elastic Compliance Matrix: (Units=1/GPa)
#
#
# Indices 1 2 3 4 5 6 
#
# 1 0.018030 0.003023 -0.003449 0.000000 0.007320 0.000000
# 2 0.003023 0.019868 -0.001337 0.000000 0.002080 0.000000
# 3 -0.003449 -0.001337 0.006997 0.000000 0.001524 0.000000
# 4 0.000000 0.000000 0.000000 0.335348 0.000000 0.146852
# 5 0.007320 0.002080 0.001524 0.000000 0.028002 0.000000
# 6 0.000000 0.000000 0.000000 0.146852 0.000000 0.171966
#
#
# Mechanical properties :
#
#
# Convention : Reuss Voigt Hill
#
# Bulk Modulus (GPa) = 24.17321 41.39366 32.78344
# Shear Modulus (GPa) = 8.36783 28.08795 18.22789
#
# Velocity S-wave (km/s) = 1.94323 3.56023 2.86804
# Velocity P-wave (km/s) = 3.99293 5.96489 5.07560
#
# Compressibility (1/GPa) = 0.04136811
#
# Stress axis : x y z
#
# Youngs Moduli (GPa) = 55.46446 50.33157 142.92353
#
# Poissons Ratio (x) = -0.15216 0.49301
# Poissons Ratio (y) = -0.16767 0.19107
# Poissons Ratio (z) = 0.19132 0.06729
#
# Static dielectric constant tensor:
#      x y z
#    x 1.797210 0.000000 -0.063690 
#    y 0.000000 1.837460 0.000000 
#    z -0.063690 0.000000 1.894770 
# 
# From -- ./inp_files/187187.got.cif
#   From: 2010.05.17/outbox.cif.g08.bks.cpg/sg12_94_cif.got.tgz:187187.got - 2010.06.03 13:09:07.
