data_PCOD9174265
_publ_section_title
;
Structure prediction by ZEFSAII (Michael W. Deem and Ramdas Pophale) SiO2 
 PCOD9174265
Probable space group: C 2/M
;
_chemical_formula_sum "Si O2"
_cell_formula_units_Z 52
_cell_length_a 14.962610
_cell_length_b 20.569771
_cell_length_c 11.758871
_cell_angle_alpha 90.000000
_cell_angle_beta 131.842566
_cell_angle_gamma 90.000000
_cell_volume 2696.170867
_symmetry_space_group_name_H-M "C 2/M"
_symmetry_group_IT_number 12
_symmetry_cell_setting 'monoclinic'
loop_
_space_group_symop_operation_xyz
x,y,z
-x,y,-z
-x,-y,-z
x,-y,z
1/2+x,1/2+y,z
1/2-x,1/2+y,-z
1/2-x,1/2-y,-z
1/2+x,1/2-y,z
loop_
_atom_site_type_symbol
_atom_site_label
_atom_site_fract_x
_atom_site_fract_y
_atom_site_fract_z
Si Si1 0.631780 0.575295 0.803710
Si Si2 0.500000 0.340339 0.500000
Si Si3 0.631122 0.920884 0.877996
Si Si4 0.825603 0.811818 0.532155
Si Si5 0.135315 0.578554 0.382935
Si Si6 0.549051 0.381643 0.162167
Si Si7 0.310767 0.925292 0.322565
O O1 0.638550 0.500000 0.775616
O O2 0.567517 0.615186 0.650134
O O3 0.551868 0.580193 0.851543
O O4 0.764888 0.600531 0.947692
O O5 0.406269 0.298942 0.491587
O O6 0.491820 0.906813 0.783752
O O7 0.663190 0.895503 0.778317
O O8 0.640545 0.000000 0.884709
O O9 0.750000 0.750000 0.500000
O O10 0.744698 0.876019 0.436763
O O11 0.906052 0.828341 0.710276
O O12 0.159053 0.500000 0.395690
O O13 0.123243 0.597078 0.506855
O O14 0.669600 0.421288 0.233236
O O15 0.500000 0.357761 0.000000
O O16 0.347021 0.000000 0.341917
#
# Coordination Sequence:
#
# PCOD9174265 Si02
#       7
#     8   4   8   8   8   8   8
#     4  10  19  31  54  86 123 159 193 243 295 347
#     4  10  23  42  60  78 111 152 208 240 286 360
#     4   9  16  27  46  80 121 152 186 230 284 343
#     4  10  23  44  62  84 114 156 198 243 294 353
#     4   9  18  33  55  84 116 149 190 237 289 347
#     4  10  18  31  53  83 117 148 197 245 294 344
#     4   9  15  24  44  77 118 153 182 226 286 343
#
# _framework density 19.28661
#
# number of rings (size 3 to 8) (size 9 to 14) (size 15 to 20)
#    0.000    2.462    1.538    1.154    0.000    6.769 
#    5.538    2.308    0.000    6.462    0.000    0.000 
#    0.000    0.000    0.000    0.000    0.000    0.000 
#
# Total GULP energy -144836.184078 kJ/mol
# GULP energy per Si atom -5570.622465 kJ/mol
# Density = 1.924271 g / cm^3
# Si number density = 19.286610 Si / 1000 Ang^3
#
#
#
# Elastic Constant Matrix: (Units=GPa)
#
#
# Indices 1 2 3 4 5 6 
#
# 1 90.5794 28.6276 40.9382 0.0000 -2.0401 0.0000
# 2 28.6276 40.7517 13.0827 0.0000 1.5806 0.0000
# 3 40.9382 13.0827 113.3110 0.0000 16.1520 0.0000
# 4 0.0000 0.0000 0.0000 7.6807 0.0000 7.6296
# 5 -2.0401 1.5806 16.1520 0.0000 28.1929 0.0000
# 6 0.0000 0.0000 0.0000 7.6296 0.0000 19.3630
#
#
#
# Elastic Compliance Matrix: (Units=1/GPa)
#
#
# Indices 1 2 3 4 5 6 
#
# 1 0.016967 -0.010297 -0.005661 0.000000 0.005048 0.000000
# 2 -0.010297 0.031735 0.000453 0.000000 -0.002784 0.000000
# 3 -0.005661 0.000453 0.011848 0.000000 -0.007223 0.000000
# 4 0.000000 0.000000 0.000000 0.213930 0.000000 -0.084295
# 5 0.005048 -0.002784 -0.007223 0.000000 0.040129 0.000000
# 6 0.000000 0.000000 0.000000 -0.084295 0.000000 0.084860
#
#
# Mechanical properties :
#
#
# Convention : Reuss Voigt Hill
#
# Bulk Modulus (GPa) = 33.85270 45.54879 39.70075
# Shear Modulus (GPa) = 11.35526 21.84690 16.60108
#
# Velocity S-wave (km/s) = 2.42908 3.36929 2.93705
# Velocity P-wave (km/s) = 5.04557 6.22930 5.66842
#
# Compressibility (1/GPa) = 0.02953974
#
# Stress axis : x y z
#
# Youngs Moduli (GPa) = 58.93951 31.51073 84.40533
#
# Poissons Ratio (x) = 0.32448 0.47778
# Poissons Ratio (y) = 0.60692 -0.03824
# Poissons Ratio (z) = 0.33363 -0.01428
#
# Static dielectric constant tensor:
#      x y z
#    x 1.730050 0.000000 0.020270 
#    y 0.000000 1.642840 0.000000 
#    z 0.020270 0.000000 1.704980 
# 
# From -- ./inp_files/147742.got.cif
#   From: 2010.05.17/outbox.cif.g08.bks.cpg/sg12_74_cif.got.tgz:147742.got - 2010.06.03 13:09:07.
