data_PCOD9174868
_publ_section_title
;
Structure prediction by ZEFSAII (Michael W. Deem and Ramdas Pophale) SiO2 
 PCOD9174868
Probable space group: C 2/M
;
_chemical_formula_sum "Si O2"
_cell_formula_units_Z 36
_cell_length_a 5.678981
_cell_length_b 24.955491
_cell_length_c 13.404475
_cell_angle_alpha 90.000000
_cell_angle_beta 61.767929
_cell_angle_gamma 90.000000
_cell_volume 1673.714512
_symmetry_space_group_name_H-M "C 2/M"
_symmetry_group_IT_number 12
_symmetry_cell_setting 'monoclinic'
loop_
_space_group_symop_operation_xyz
x,y,z
-x,y,-z
-x,-y,-z
x,-y,z
1/2+x,1/2+y,z
1/2-x,1/2+y,-z
1/2-x,1/2-y,-z
1/2+x,1/2-y,z
loop_
_atom_site_type_symbol
_atom_site_label
_atom_site_fract_x
_atom_site_fract_y
_atom_site_fract_z
Si Si1 0.018466 0.121025 0.276563
Si Si2 0.500000 0.622524 0.500000
Si Si3 0.810091 0.063907 0.948090
Si Si4 0.509671 0.802022 0.389740
Si Si5 0.779312 0.231023 0.826331
O O1 0.018631 0.095350 0.387356
O O2 0.748054 0.155435 0.328996
O O3 0.045954 0.078369 0.184061
O O4 0.230473 0.168411 0.203494
O O5 0.248088 0.661280 0.557947
O O6 0.794138 0.000000 0.965029
O O7 0.500000 0.082985 0.000000
O O8 0.000000 0.085427 0.000000
O O9 0.500000 0.774997 0.500000
O O10 0.546274 0.759943 0.295305
O O11 0.482054 0.257058 0.878807
#
# Coordination Sequence:
#
# PCOD9174868 Si02
#       5
#     8   4   8   8   8
#     4  10  21  34  59  88 125 154 199 248 299 350
#     4  10  18  32  53  92 126 162 193 236 292 354
#     4  10  24  46  72  91 107 147 208 262 304 353
#     4   9  19  30  49  83 128 167 200 229 273 349
#     4  10  19  30  48  80 122 160 196 231 270 342
#
# _framework density 21.509045
#
# number of rings (size 3 to 8) (size 9 to 14) (size 15 to 20)
#    0.000    2.222    2.222    0.000    4.667    2.667 
#    0.000    0.556    0.000   22.000    0.000    0.000 
#    0.000    0.000    0.000    0.000    0.000    0.000 
#
# Total GULP energy -100272.255549 kJ/mol
# GULP energy per Si atom -5570.680864 kJ/mol
# Density = 2.146009 g / cm^3
# Si number density = 21.509045 Si / 1000 Ang^3
#
#
#
# Elastic Constant Matrix: (Units=GPa)
#
#
# Indices 1 2 3 4 5 6 
#
# 1 127.5083 14.2581 62.6613 0.0000 11.9029 0.0000
# 2 14.2581 -8.1729 6.7477 0.0000 -3.1056 0.0000
# 3 62.6613 6.7477 111.2778 0.0000 5.4272 0.0000
# 4 0.0000 0.0000 0.0000 34.0421 0.0000 4.1479
# 5 11.9029 -3.1056 5.4272 0.0000 31.3776 0.0000
# 6 0.0000 0.0000 0.0000 4.1479 0.0000 4.5072
#
#
#
# Elastic Compliance Matrix: (Units=1/GPa)
#
#
# Indices 1 2 3 4 5 6 
#
# 1 0.009588 0.012235 -0.006074 0.000000 -0.001376 0.000000
# 2 0.012235 -0.095980 -0.000383 0.000000 -0.014074 0.000000
# 3 -0.006074 -0.000383 0.012424 0.000000 0.000117 0.000000
# 4 0.000000 0.000000 0.000000 0.033085 0.000000 -0.030448
# 5 -0.001376 -0.014074 0.000117 0.000000 0.030978 0.000000
# 6 0.000000 0.000000 0.000000 -0.030448 0.000000 0.249889
#
#
# Mechanical properties :
#
#
# Convention : Reuss Voigt Hill
#
# Bulk Modulus (GPa) = -16.02260 44.21639 14.09689
# Shear Modulus (GPa) = 24.08180 23.78178 23.93179
#
# Velocity S-wave (km/s) = 3.34969 3.32876 3.33924
# Velocity P-wave (km/s) = 2.73773 5.94777 4.62985
#
# Compressibility (1/GPa) = -0.06241185
#
# Stress axis : x y z
#
# Youngs Moduli (GPa) = 104.29964 -10.41888 80.48817
#
# Poissons Ratio (x) = 0.12747 0.48886
# Poissons Ratio (y) = -1.27606 0.03082
# Poissons Ratio (z) = 0.63349 -0.00399
#
# Static dielectric constant tensor:
#      x y z
#    x 1.954990 0.000000 0.086380 
#    y 0.000000 1.741760 0.000000 
#    z 0.086380 0.000000 1.818460 
# 
# From -- ./inp_files/115038.got.cif
#   From: 2010.05.17/outbox.cif.g08.bks.cpg/sg12_58_cif.got.tgz:115038.got - 2010.06.03 13:09:07.
