data_PCOD9174281
_publ_section_title
;
Structure prediction by ZEFSAII (Michael W. Deem and Ramdas Pophale) SiO2 
 PCOD9174281
Probable space group: C 2/M
;
_chemical_formula_sum "Si O2"
_cell_formula_units_Z 32
_cell_length_a 21.976590
_cell_length_b 15.000136
_cell_length_c 9.685734
_cell_angle_alpha 90.000000
_cell_angle_beta 27.258151
_cell_angle_gamma 90.000000
_cell_volume 1462.358596
_symmetry_space_group_name_H-M "C 2/M"
_symmetry_group_IT_number 12
_symmetry_cell_setting 'monoclinic'
loop_
_space_group_symop_operation_xyz
x,y,z
-x,y,-z
-x,-y,-z
x,-y,z
1/2+x,1/2+y,z
1/2-x,1/2+y,-z
1/2-x,1/2-y,-z
1/2+x,1/2-y,z
loop_
_atom_site_type_symbol
_atom_site_label
_atom_site_fract_x
_atom_site_fract_y
_atom_site_fract_z
Si Si1 0.725926 0.397684 0.688514
Si Si2 0.815985 0.734230 0.720702
Si Si3 0.692736 0.602950 0.446645
Si Si4 0.999599 0.401951 0.753958
O O1 0.686897 0.500000 0.803673
O O2 0.712302 0.322714 0.832991
O O3 0.666021 0.375214 0.660896
O O4 0.887850 0.399369 0.353321
O O5 0.858549 0.824168 0.556161
O O6 0.945146 0.671502 0.461056
O O7 0.750000 0.750000 0.000000
O O8 0.652873 0.500000 0.502811
O O9 0.851619 0.608749 0.103793
O O10 0.010170 0.500000 0.668283
#
# Coordination Sequence:
#
# PCOD9174281 Si02
#       4
#     8   8   8   8
#     4   8  16  32  51  72  97 125 160 202 241 281
#     4  10  20  30  44  72 105 131 157 194 241 289
#     4  10  18  31  54  76  95 124 164 203 241 282
#     4   8  17  32  52  74  97 125 160 201 241 282
#
# _framework density 21.882456999999999
#
# number of rings (size 3 to 8) (size 9 to 14) (size 15 to 20)
#    1.500    1.500    0.000    1.500    0.000    6.000 
#    0.000    2.500    0.000    3.000    0.000   14.000 
#    0.000    0.000    0.000    0.000    0.000    0.000 
#
# Total GULP energy -89093.689703 kJ/mol
# GULP energy per Si atom -5568.355606 kJ/mol
# Density = 2.183265 g / cm^3
# Si number density = 21.882457 Si / 1000 Ang^3
#
#
#
# Elastic Constant Matrix: (Units=GPa)
#
#
# Indices 1 2 3 4 5 6 
#
# 1 63.4977 62.6841 38.7491 0.0000 28.3733 0.0000
# 2 62.6841 141.7036 44.2203 0.0000 42.7765 0.0000
# 3 38.7491 44.2203 61.0241 0.0000 14.6112 0.0000
# 4 0.0000 0.0000 0.0000 26.0849 0.0000 5.9906
# 5 28.3733 42.7765 14.6112 0.0000 45.6245 0.0000
# 6 0.0000 0.0000 0.0000 5.9906 0.0000 -18.8835
#
#
#
# Elastic Compliance Matrix: (Units=1/GPa)
#
#
# Indices 1 2 3 4 5 6 
#
# 1 0.039173 -0.009217 -0.015630 0.000000 -0.010714 0.000000
# 2 -0.009217 0.013924 -0.002691 0.000000 -0.006462 0.000000
# 3 -0.015630 -0.002691 0.027434 0.000000 0.003457 0.000000
# 4 0.000000 0.000000 0.000000 0.035733 0.000000 0.011336
# 5 -0.010714 -0.006462 0.003457 0.000000 0.033532 0.000000
# 6 0.000000 0.000000 0.000000 0.011336 0.000000 -0.049360
#
#
# Mechanical properties :
#
#
# Convention : Reuss Voigt Hill
#
# Bulk Modulus (GPa) = 39.28259 61.94805 50.61532
# Shear Modulus (GPa) = 30.48869 18.60332 24.54600
#
# Velocity S-wave (km/s) = 3.73673 2.91889 3.35284
# Velocity P-wave (km/s) = 6.05047 6.30324 6.17815
#
# Compressibility (1/GPa) = 0.02545657
#
# Stress axis : x y z
#
# Youngs Moduli (GPa) = 25.52800 71.81686 36.45177
#
# Poissons Ratio (x) = 0.66191 0.56973
# Poissons Ratio (y) = 0.23528 0.09807
# Poissons Ratio (z) = 0.39900 0.19323
#
# Static dielectric constant tensor:
#      x y z
#    x 1.842840 0.000000 -0.037220 
#    y 0.000000 1.833340 0.000000 
#    z -0.037220 0.000000 1.783270 
# 
# From -- ./inp_files/71616.got.cif
#   From: 2010.05.17/outbox.cif.g08.bks.cpg/sg12_36_cif.got.tgz:71616.got - 2010.06.03 13:09:07.
