data_PCOD9174294
_publ_section_title
;
Structure prediction by ZEFSAII (Michael W. Deem and Ramdas Pophale) SiO2 
 PCOD9174294
Probable space group: C 2/M
;
_chemical_formula_sum "Si O2"
_cell_formula_units_Z 48
_cell_length_a 17.638947
_cell_length_b 17.502426
_cell_length_c 14.325547
_cell_angle_alpha 90.000000
_cell_angle_beta 38.669597
_cell_angle_gamma 90.000000
_cell_volume 2763.394652
_symmetry_space_group_name_H-M "C 2/M"
_symmetry_group_IT_number 12
_symmetry_cell_setting 'monoclinic'
loop_
_space_group_symop_operation_xyz
x,y,z
-x,y,-z
-x,-y,-z
x,-y,z
1/2+x,1/2+y,z
1/2-x,1/2+y,-z
1/2-x,1/2-y,-z
1/2+x,1/2-y,z
loop_
_atom_site_type_symbol
_atom_site_label
_atom_site_fract_x
_atom_site_fract_y
_atom_site_fract_z
Si Si1 0.863618 0.910179 0.174238
Si Si2 0.623242 0.175605 0.844801
Si Si3 0.228957 0.196058 0.880005
Si Si4 0.135622 0.090322 0.340702
Si Si5 0.861246 0.785478 0.337192
Si Si6 0.898109 0.814149 0.798389
O O1 0.772742 0.878952 0.181820
O O2 0.843005 0.857798 0.285392
O O3 0.850440 0.000000 0.205838
O O4 0.000000 0.898176 0.000000
O O5 0.654491 0.242470 0.889582
O O6 0.747135 0.126947 0.721842
O O7 0.597058 0.217670 0.772573
O O8 0.500000 0.136132 0.000000
O O9 0.353393 0.238446 0.786665
O O10 0.164119 0.182211 0.040683
O O11 0.143246 0.115673 0.225491
O O12 0.000000 0.117843 0.500000
O O13 0.139254 0.000000 0.349668
O O14 0.750000 0.750000 0.500000
O O15 0.960943 0.810065 0.316185
#
# Coordination Sequence:
#
# PCOD9174294 Si02
#       6
#     8   8   8   8   8   8
#     4  10  19  34  55  80 111 140 174 222 275 323
#     4  10  18  35  57  76 105 140 181 223 259 317
#     4   9  17  32  54  79 103 130 175 223 262 313
#     4  10  22  36  49  73 110 145 174 214 272 325
#     4  11  20  33  55  83 107 138 178 223 268 319
#     4  10  18  31  54  79 101 132 177 224 260 309
#
# _framework density 17.36994
#
# number of rings (size 3 to 8) (size 9 to 14) (size 15 to 20)
#    0.000    2.000    3.333    2.000    0.000    1.667 
#    0.000    0.833    0.000    2.000    0.000    0.000 
#    0.000    0.000    0.000    0.000    0.000    0.000 
#
# Total GULP energy -133650.585310 kJ/mol
# GULP energy per Si atom -5568.774388 kJ/mol
# Density = 1.733041 g / cm^3
# Si number density = 17.369940 Si / 1000 Ang^3
#
#
#
# Elastic Constant Matrix: (Units=GPa)
#
#
# Indices 1 2 3 4 5 6 
#
# 1 61.1090 17.3316 1.0246 0.0000 -3.1282 0.0000
# 2 17.3316 78.5057 32.0577 0.0000 -4.9611 0.0000
# 3 1.0246 32.0577 62.5285 0.0000 -0.3122 0.0000
# 4 0.0000 0.0000 0.0000 23.9081 0.0000 -0.6169
# 5 -3.1282 -4.9611 -0.3122 0.0000 22.2374 0.0000
# 6 0.0000 0.0000 0.0000 -0.6169 0.0000 12.6815
#
#
#
# Elastic Compliance Matrix: (Units=1/GPa)
#
#
# Indices 1 2 3 4 5 6 
#
# 1 0.017734 -0.004687 0.002120 0.000000 0.001479 0.000000
# 2 -0.004687 0.017623 -0.008943 0.000000 0.003147 0.000000
# 3 0.002120 -0.008943 0.020536 0.000000 -0.001409 0.000000
# 4 0.000000 0.000000 0.000000 0.041879 0.000000 0.002037
# 5 0.001479 0.003147 -0.001409 0.000000 0.045860 0.000000
# 6 0.000000 0.000000 0.000000 0.002037 0.000000 0.078954
#
#
# Mechanical properties :
#
#
# Convention : Reuss Voigt Hill
#
# Bulk Modulus (GPa) = 30.42046 33.66343 32.04195
# Shear Modulus (GPa) = 19.48831 21.88068 20.68450
#
# Velocity S-wave (km/s) = 3.35320 3.55306 3.45457
# Velocity P-wave (km/s) = 5.70466 6.02118 5.86506
#
# Compressibility (1/GPa) = 0.03287261
#
# Stress axis : x y z
#
# Youngs Moduli (GPa) = 56.38966 56.74284 48.69540
#
# Poissons Ratio (x) = 0.26597 -0.10323
# Poissons Ratio (y) = 0.26431 0.43547
# Poissons Ratio (z) = -0.11954 0.50744
#
# Static dielectric constant tensor:
#      x y z
#    x 1.598390 0.000000 -0.012600 
#    y 0.000000 1.585900 0.000000 
#    z -0.012600 0.000000 1.641090 
# 
# From -- ./inp_files/75044.got.cif
#   From: 2010.05.17/outbox.cif.g08.bks.cpg/sg12_38_cif.got.tgz:75044.got - 2010.06.03 13:09:07.
