data_PCOD9174019
_publ_section_title
;
Structure prediction by ZEFSAII (Michael W. Deem and Ramdas Pophale) SiO2 
 PCOD9174019
Probable space group: C 2/M
;
_chemical_formula_sum "Si O2"
_cell_formula_units_Z 48
_cell_length_a 18.986373
_cell_length_b 8.589409
_cell_length_c 16.816338
_cell_angle_alpha 90.000000
_cell_angle_beta 89.897899
_cell_angle_gamma 90.000000
_cell_volume 2742.433023
_symmetry_space_group_name_H-M "C 2/M"
_symmetry_group_IT_number 12
_symmetry_cell_setting 'monoclinic'
loop_
_space_group_symop_operation_xyz
x,y,z
-x,y,-z
-x,-y,-z
x,-y,z
1/2+x,1/2+y,z
1/2-x,1/2+y,-z
1/2-x,1/2-y,-z
1/2+x,1/2-y,z
loop_
_atom_site_type_symbol
_atom_site_label
_atom_site_fract_x
_atom_site_fract_y
_atom_site_fract_z
Si Si1 0.712230 0.187140 0.420549
Si Si2 0.662400 0.186409 0.669549
Si Si3 0.579282 0.810575 0.510300
Si Si4 0.208791 0.814218 0.077518
Si Si5 0.163566 0.185106 0.838663
Si Si6 0.081806 0.686711 0.992325
O O1 0.750000 0.250000 0.500000
O O2 0.757725 0.260398 0.350186
O O3 0.631116 0.231257 0.437147
O O4 0.717354 0.000000 0.416707
O O5 0.614801 0.237023 0.594000
O O6 0.638806 0.260027 0.752346
O O7 0.659845 0.000000 0.674534
O O8 0.500000 0.753717 0.500000
O O9 0.577931 0.000000 0.512114
O O10 0.256877 0.748969 0.148063
O O11 0.210145 0.000000 0.078013
O O12 0.250000 0.750000 0.000000
O O13 0.129807 0.754209 0.063638
O O14 0.115140 0.252458 0.909588
O O15 0.164421 0.000000 0.845072
O O16 0.087715 0.500000 0.993329
O O17 0.000000 0.730259 0.000000
#
# Coordination Sequence:
#
# PCOD9174019 Si02
#       6
#     8   8   8   8   8   8
#     4   9  16  28  48  71  95 125 162 202 243 295
#     4  10  19  32  51  73  99 130 167 212 258 304
#     4   8  15  29  50  74  98 128 165 203 246 299
#     4  10  18  31  52  75 100 129 166 207 248 298
#     4  11  21  34  53  75 102 134 172 216 261 307
#     4  10  20  35  55  78 105 137 172 207 250 307
#
# _framework density 17.502707000000001
#
# number of rings (size 3 to 8) (size 9 to 14) (size 15 to 20)
#    0.000    2.333    0.000    7.500    0.000    1.333 
#    0.000    1.667    0.000   26.000    0.000    0.000 
#    0.000    0.000    0.000    0.000    0.000    0.000 
#
# Total GULP energy -133724.467256 kJ/mol
# GULP energy per Si atom -5571.852802 kJ/mol
# Density = 1.746287 g / cm^3
# Si number density = 17.502707 Si / 1000 Ang^3
#
#
#
# Elastic Constant Matrix: (Units=GPa)
#
#
# Indices 1 2 3 4 5 6 
#
# 1 138.4669 36.9368 36.9663 0.0000 -4.4811 0.0000
# 2 36.9368 84.1730 19.0183 0.0000 -0.2297 0.0000
# 3 36.9663 19.0183 74.5631 0.0000 -0.6164 0.0000
# 4 0.0000 0.0000 0.0000 25.4927 0.0000 -2.1944
# 5 -4.4811 -0.2297 -0.6164 0.0000 18.9694 0.0000
# 6 0.0000 0.0000 0.0000 -2.1944 0.0000 22.9580
#
#
#
# Elastic Compliance Matrix: (Units=1/GPa)
#
#
# Indices 1 2 3 4 5 6 
#
# 1 0.009116 -0.003160 -0.003697 0.000000 0.001995 0.000000
# 2 -0.003160 0.013702 -0.001934 0.000000 -0.000643 0.000000
# 3 -0.003697 -0.001934 0.015734 0.000000 -0.000386 0.000000
# 4 0.000000 0.000000 0.000000 0.039552 0.000000 0.003781
# 5 0.001995 -0.000643 -0.000386 0.000000 0.053167 0.000000
# 6 0.000000 0.000000 0.000000 0.003781 0.000000 0.043919
#
#
# Mechanical properties :
#
#
# Convention : Reuss Voigt Hill
#
# Bulk Modulus (GPa) = 47.68350 53.67175 50.67763
# Shear Modulus (GPa) = 25.02958 27.10279 26.06618
#
# Velocity S-wave (km/s) = 3.78569 3.93936 3.86329
# Velocity P-wave (km/s) = 6.81258 7.17097 6.99407
#
# Compressibility (1/GPa) = 0.02097161
#
# Stress axis : x y z
#
# Youngs Moduli (GPa) = 109.69226 72.98223 63.55469
#
# Poissons Ratio (x) = 0.23060 0.23498
# Poissons Ratio (y) = 0.34659 0.12290
# Poissons Ratio (z) = 0.40556 0.14113
#
# Static dielectric constant tensor:
#      x y z
#    x 1.632820 0.000000 0.008340 
#    y 0.000000 1.588070 0.000000 
#    z 0.008340 0.000000 1.586030 
# 
# From -- ./inp_files/273597.got.cif
#   From: 2010.05.17/outbox.cif.g08.bks.cpg/sg12_137_cif.got.tgz:273597.got - 2010.06.03 13:09:07.
