data_PCOD9174486
_publ_section_title
;
Structure prediction by ZEFSAII (Michael W. Deem and Ramdas Pophale) SiO2 
 PCOD9174486
Probable space group: C 2/M
;
_chemical_formula_sum "Si O2"
_cell_formula_units_Z 48
_cell_length_a 19.802092
_cell_length_b 20.637619
_cell_length_c 5.401750
_cell_angle_alpha 90.000000
_cell_angle_beta 121.044709
_cell_angle_gamma 90.000000
_cell_volume 1891.328363
_symmetry_space_group_name_H-M "C 2/M"
_symmetry_group_IT_number 12
_symmetry_cell_setting 'monoclinic'
loop_
_space_group_symop_operation_xyz
x,y,z
-x,y,-z
-x,-y,-z
x,-y,z
1/2+x,1/2+y,z
1/2-x,1/2+y,-z
1/2-x,1/2-y,-z
1/2+x,1/2-y,z
loop_
_atom_site_type_symbol
_atom_site_label
_atom_site_fract_x
_atom_site_fract_y
_atom_site_fract_z
Si Si1 0.223195 0.693091 0.651362
Si Si2 0.172197 0.575353 0.209980
Si Si3 0.607645 0.307806 0.096325
Si Si4 0.570515 0.567830 0.881092
Si Si5 0.414479 0.182370 0.216640
Si Si6 0.653835 0.596344 0.540615
O O1 0.190038 0.627869 0.459183
O O2 0.312013 0.677963 0.910277
O O3 0.158520 0.703378 0.742224
O O4 0.085359 0.734388 0.007597
O O5 0.156969 0.500000 0.244176
O O6 0.256237 0.580327 0.230802
O O7 0.105827 0.610771 0.922086
O O8 0.750000 0.250000 0.500000
O O9 0.542615 0.358196 0.868879
O O10 0.631321 0.330219 0.417870
O O11 0.525943 0.500000 0.815125
O O12 0.631012 0.566153 0.228601
O O13 0.604401 0.570596 0.672328
O O14 0.500000 0.184712 0.500000
#
# Coordination Sequence:
#
# PCOD9174486 Si02
#       6
#     8   8   8   8   8   8
#     4  11  23  41  74  99 132 181 243 306 362 417
#     4  11  24  42  66 103 143 186 238 296 359 433
#     4   9  22  36  65  95 133 177 235 292 354 417
#     4  10  18  31  56  98 138 170 217 287 361 421
#     4  12  27  45  67 100 144 196 239 292 361 438
#     4   9  21  33  61  97 136 172 227 291 358 409
#
# _framework density 25.378986999999999
#
# number of rings (size 3 to 8) (size 9 to 14) (size 15 to 20)
#    1.000    0.667    1.667    3.000    4.667    1.667 
#    0.000    0.833    0.000    0.500    0.000    1.167 
#    0.000    0.000    0.000    0.000    0.000    0.000 
#
# Total GULP energy -133667.138361 kJ/mol
# GULP energy per Si atom -5569.464098 kJ/mol
# Density = 2.532122 g / cm^3
# Si number density = 25.378987 Si / 1000 Ang^3
#
#
#
# Elastic Constant Matrix: (Units=GPa)
#
#
# Indices 1 2 3 4 5 6 
#
# 1 125.5404 31.2213 43.6200 0.0000 -9.3691 0.0000
# 2 31.2213 227.3774 57.6941 0.0000 -11.0434 0.0000
# 3 43.6200 57.6941 112.4533 0.0000 5.1001 0.0000
# 4 0.0000 0.0000 0.0000 42.1202 0.0000 -48.2290
# 5 -9.3691 -11.0434 5.1001 0.0000 51.8849 0.0000
# 6 0.0000 0.0000 0.0000 -48.2290 0.0000 79.4030
#
#
#
# Elastic Compliance Matrix: (Units=1/GPa)
#
#
# Indices 1 2 3 4 5 6 
#
# 1 0.009438 -0.000284 -0.003606 0.000000 0.001998 0.000000
# 2 -0.000284 0.005159 -0.002596 0.000000 0.001302 0.000000
# 3 -0.003606 -0.002596 0.011730 0.000000 -0.002357 0.000000
# 4 0.000000 0.000000 0.000000 0.077966 0.000000 0.047356
# 5 0.001998 0.001302 -0.002357 0.000000 0.020143 0.000000
# 6 0.000000 0.000000 0.000000 0.047356 0.000000 0.041358
#
#
# Mechanical properties :
#
#
# Convention : Reuss Voigt Hill
#
# Bulk Modulus (GPa) = 74.87376 81.16020 78.01698
# Shear Modulus (GPa) = 27.29007 56.87068 42.08038
#
# Velocity S-wave (km/s) = 3.28274 4.73890 4.07637
# Velocity P-wave (km/s) = 6.62833 7.87348 7.27758
#
# Compressibility (1/GPa) = 0.01335581
#
# Stress axis : x y z
#
# Youngs Moduli (GPa) = 105.95185 193.84352 85.25227
#
# Poissons Ratio (x) = 0.05504 0.30742
# Poissons Ratio (y) = 0.03008 0.22128
# Poissons Ratio (z) = 0.38206 0.50315
#
# Static dielectric constant tensor:
#      x y z
#    x 2.116070 0.000000 0.037740 
#    y 0.000000 2.229030 0.000000 
#    z 0.037740 0.000000 2.046760 
# 
# From -- ./inp_files/21730.got.cif
#   From: 2010.05.17/outbox.cif.g08.bks.cpg/sg12_11_cif.got.tgz:21730.got - 2010.06.03 13:09:07.
