data_PCOD9174419
_publ_section_title
;
Structure prediction by ZEFSAII (Michael W. Deem and Ramdas Pophale) SiO2 
 PCOD9174419
Probable space group: C 2/M
;
_chemical_formula_sum "Si O2"
_cell_formula_units_Z 64
_cell_length_a 22.395320
_cell_length_b 12.081641
_cell_length_c 17.473775
_cell_angle_alpha 90.000000
_cell_angle_beta 49.996047
_cell_angle_gamma 90.000000
_cell_volume 3621.585653
_symmetry_space_group_name_H-M "C 2/M"
_symmetry_group_IT_number 12
_symmetry_cell_setting 'monoclinic'
loop_
_space_group_symop_operation_xyz
x,y,z
-x,y,-z
-x,-y,-z
x,-y,z
1/2+x,1/2+y,z
1/2-x,1/2+y,-z
1/2-x,1/2-y,-z
1/2+x,1/2-y,z
loop_
_atom_site_type_symbol
_atom_site_label
_atom_site_fract_x
_atom_site_fract_y
_atom_site_fract_z
Si Si1 0.968625 0.374201 0.359289
Si Si2 0.850681 0.629371 0.587478
Si Si3 0.689728 0.629138 0.933955
Si Si4 0.729094 0.372583 0.554691
Si Si5 0.641529 0.194347 0.250300
Si Si6 0.385205 0.374371 0.849987
Si Si7 0.581986 0.629654 0.887909
Si Si8 0.439531 0.311554 0.263430
O O1 0.944462 0.500000 0.367360
O O2 0.920325 0.334648 0.473395
O O3 0.947675 0.302498 0.302924
O O4 0.060264 0.366870 0.300312
O O5 0.863528 0.500000 0.598823
O O6 0.772883 0.633417 0.600503
O O7 0.847996 0.698076 0.667252
O O8 0.665959 0.500000 0.955207
O O9 0.781622 0.638171 0.847643
O O10 0.646621 0.673402 0.893828
O O11 0.658077 0.676803 0.039935
O O12 0.749976 0.500000 0.507476
O O13 0.750000 0.250000 0.500000
O O14 0.636188 0.370926 0.640135
O O15 0.632524 0.308576 0.212312
O O16 0.359107 0.500000 0.862803
O O17 0.477483 0.370214 0.791453
O O18 0.598612 0.500000 0.854152
O O19 0.574541 0.695635 0.815464
O O20 0.500000 0.631429 0.000000
#
# Coordination Sequence:
#
# PCOD9174419 Si02
#       8
#     8   8   8   8   8   8   8   8
#     4  10  21  36  56  80 110 147 187 230 276 329
#     4  10  20  37  57  80 110 140 184 237 279 320
#     4  10  19  33  54  82 110 137 180 232 277 323
#     4  11  22  37  59  86 115 146 186 234 283 338
#     4  11  21  33  56  82 107 144 188 230 278 324
#     4  10  21  36  53  77 113 148 180 223 274 336
#     4  10  18  31  55  84 110 137 176 226 277 325
#     4  11  20  34  58  83 111 146 182 223 281 341
#
# _framework density 17.671817999999998
#
# number of rings (size 3 to 8) (size 9 to 14) (size 15 to 20)
#    0.000    1.625    2.500    3.750    0.000    3.000 
#    0.000    0.625    0.000    4.125    0.000    0.000 
#    0.000    0.000    0.000    0.000    0.000    0.000 
#
# Total GULP energy -178304.393860 kJ/mol
# GULP energy per Si atom -5572.012308 kJ/mol
# Density = 1.763160 g / cm^3
# Si number density = 17.671818 Si / 1000 Ang^3
#
#
#
# Elastic Constant Matrix: (Units=GPa)
#
#
# Indices 1 2 3 4 5 6 
#
# 1 100.2215 33.7277 48.9948 0.0000 10.3194 0.0000
# 2 33.7277 63.6597 36.0838 0.0000 24.5496 0.0000
# 3 48.9948 36.0838 104.3504 0.0000 9.3055 0.0000
# 4 0.0000 0.0000 0.0000 21.4427 0.0000 -0.5095
# 5 10.3194 24.5496 9.3055 0.0000 41.0794 0.0000
# 6 0.0000 0.0000 0.0000 -0.5095 0.0000 7.1326
#
#
#
# Elastic Compliance Matrix: (Units=1/GPa)
#
#
# Indices 1 2 3 4 5 6 
#
# 1 0.013951 -0.004769 -0.004943 0.000000 0.000465 0.000000
# 2 -0.004769 0.026708 -0.005797 0.000000 -0.013450 0.000000
# 3 -0.004943 -0.005797 0.013767 0.000000 0.001587 0.000000
# 4 0.000000 0.000000 0.000000 0.046715 0.000000 0.003337
# 5 0.000465 -0.013450 0.001587 0.000000 0.031904 0.000000
# 6 0.000000 0.000000 0.000000 0.003337 0.000000 0.140439
#
#
# Mechanical properties :
#
#
# Convention : Reuss Voigt Hill
#
# Bulk Modulus (GPa) = 42.71981 56.20491 49.46236
# Shear Modulus (GPa) = 16.00996 23.89263 19.95129
#
# Velocity S-wave (km/s) = 3.01318 3.68097 3.36369
# Velocity P-wave (km/s) = 6.02762 7.06682 6.56780
#
# Compressibility (1/GPa) = 0.02340835
#
# Stress axis : x y z
#
# Youngs Moduli (GPa) = 71.67762 37.44215 72.63877
#
# Poissons Ratio (x) = 0.17857 0.35903
# Poissons Ratio (y) = 0.34185 0.42107
# Poissons Ratio (z) = 0.35428 0.21704
#
# Static dielectric constant tensor:
#      x y z
#    x 1.603910 0.000000 -0.013840 
#    y 0.000000 1.611500 0.000000 
#    z -0.013840 0.000000 1.629260 
# 
# From -- ./inp_files/283292.got.cif
#   From: 2010.05.17/outbox.cif.g08.bks.cpg/sg12_142_cif.got.tgz:283292.got - 2010.06.03 13:09:07.
