data_PCOD9174193
_publ_section_title
;
Structure prediction by ZEFSAII (Michael W. Deem and Ramdas Pophale) SiO2 
 PCOD9174193
Probable space group: C 2/M
;
_chemical_formula_sum "Si O2"
_cell_formula_units_Z 40
_cell_length_a 9.088691
_cell_length_b 23.806602
_cell_length_c 12.736346
_cell_angle_alpha 90.000000
_cell_angle_beta 127.688787
_cell_angle_gamma 90.000000
_cell_volume 2180.763006
_symmetry_space_group_name_H-M "C 2/M"
_symmetry_group_IT_number 12
_symmetry_cell_setting 'monoclinic'
loop_
_space_group_symop_operation_xyz
x,y,z
-x,y,-z
-x,-y,-z
x,-y,z
1/2+x,1/2+y,z
1/2-x,1/2+y,-z
1/2-x,1/2-y,-z
1/2+x,1/2-y,z
loop_
_atom_site_type_symbol
_atom_site_label
_atom_site_fract_x
_atom_site_fract_y
_atom_site_fract_z
Si Si1 0.429267 0.436392 0.851122
Si Si2 0.304938 0.823793 0.566984
Si Si3 0.677007 0.750221 0.707677
Si Si4 0.971083 0.826213 0.754152
Si Si5 0.993496 0.564007 0.623296
O O1 0.472916 0.500000 0.834850
O O2 0.508507 0.388221 0.810928
O O3 0.205833 0.430738 0.752724
O O4 0.500000 0.429419 0.000000
O O5 0.491699 0.788881 0.619066
O O6 0.164653 0.826975 0.407601
O O7 0.368924 0.887181 0.618129
O O8 0.785890 0.790790 0.375377
O O9 0.850748 0.792137 0.786916
O O10 0.645086 0.710400 0.793379
O O11 0.929301 0.500000 0.613939
O O12 0.000000 0.573145 0.500000
#
# Coordination Sequence:
#
# PCOD9174193 Si02
#       5
#     8   8   8   8   8
#     4  10  21  36  54  75 102 138 176 214 259 307
#     4  11  17  30  50  81 107 137 167 212 254 308
#     4  10  20  29  51  80 113 137 168 205 262 306
#     4  11  18  32  51  77 106 141 169 210 252 311
#     4  10  18  31  53  78 100 130 174 221 256 299
#
# _framework density 18.342203999999999
#
# number of rings (size 3 to 8) (size 9 to 14) (size 15 to 20)
#    0.000    1.600    4.000    4.800    0.000    0.000 
#    0.000    2.000    0.000    2.400    0.000    4.200 
#    0.000    0.000    0.000    0.000    0.000    0.000 
#
# Total GULP energy -111612.540025 kJ/mol
# GULP energy per Si atom -5580.627001 kJ/mol
# Density = 1.830046 g / cm^3
# Si number density = 18.342204 Si / 1000 Ang^3
#
#
#
# Elastic Constant Matrix: (Units=GPa)
#
#
# Indices 1 2 3 4 5 6 
#
# 1 80.3804 41.5119 6.4114 0.0000 -6.1019 0.0000
# 2 41.5119 154.1788 24.3502 0.0000 -12.3058 0.0000
# 3 6.4114 24.3502 52.7030 0.0000 6.0488 0.0000
# 4 0.0000 0.0000 0.0000 19.1005 0.0000 -8.5987
# 5 -6.1019 -12.3058 6.0488 0.0000 8.9557 0.0000
# 6 0.0000 0.0000 0.0000 -8.5987 0.0000 20.3849
#
#
#
# Elastic Compliance Matrix: (Units=1/GPa)
#
#
# Indices 1 2 3 4 5 6 
#
# 1 0.014694 -0.003319 -0.000953 0.000000 0.006095 0.000000
# 2 -0.003319 0.009421 -0.005610 0.000000 0.014472 0.000000
# 3 -0.000953 -0.005610 0.024544 0.000000 -0.024936 0.000000
# 4 0.000000 0.000000 0.000000 0.064627 0.000000 0.027261
# 5 0.006095 0.014472 -0.024936 0.000000 0.152543 0.000000
# 6 0.000000 0.000000 0.000000 0.027261 0.000000 0.060555
#
#
# Mechanical properties :
#
#
# Convention : Reuss Voigt Hill
#
# Bulk Modulus (GPa) = 34.60986 47.97881 41.29433
# Shear Modulus (GPa) = 14.05365 24.02079 19.03722
#
# Velocity S-wave (km/s) = 2.77102 3.62275 3.22513
# Velocity P-wave (km/s) = 5.39889 6.61162 6.03579
#
# Compressibility (1/GPa) = 0.02889350
#
# Stress axis : x y z
#
# Youngs Moduli (GPa) = 68.05623 106.14841 40.74296
#
# Poissons Ratio (x) = 0.35233 0.03885
# Poissons Ratio (y) = 0.22589 0.22856
# Poissons Ratio (z) = 0.06489 0.59548
#
# Static dielectric constant tensor:
#      x y z
#    x 1.635570 0.000000 0.004950 
#    y 0.000000 1.674950 0.000000 
#    z 0.004950 0.000000 1.630170 
# 
# From -- ./inp_files/208106.got.cif
#   From: 2010.05.17/outbox.cif.g08.bks.cpg/sg12_105_cif.got.tgz:208106.got - 2010.06.03 13:09:07.
