data_PCOD9174172
_publ_section_title
;
Structure prediction by ZEFSAII (Michael W. Deem and Ramdas Pophale) SiO2 
 PCOD9174172
Probable space group: C 2/M
;
_chemical_formula_sum "Si O2"
_cell_formula_units_Z 40
_cell_length_a 17.945713
_cell_length_b 13.658433
_cell_length_c 9.859553
_cell_angle_alpha 90.000000
_cell_angle_beta 119.943076
_cell_angle_gamma 90.000000
_cell_volume 2094.104160
_symmetry_space_group_name_H-M "C 2/M"
_symmetry_group_IT_number 12
_symmetry_cell_setting 'monoclinic'
loop_
_space_group_symop_operation_xyz
x,y,z
-x,y,-z
-x,-y,-z
x,-y,z
1/2+x,1/2+y,z
1/2-x,1/2+y,-z
1/2-x,1/2-y,-z
1/2+x,1/2-y,z
loop_
_atom_site_type_symbol
_atom_site_label
_atom_site_fract_x
_atom_site_fract_y
_atom_site_fract_z
Si Si1 0.564711 0.888666 0.743037
Si Si2 0.113012 0.189040 0.685866
Si Si3 0.559200 0.613423 0.347139
Si Si4 0.795254 0.613315 0.888659
Si Si5 0.930028 0.704235 0.816440
O O1 0.587259 0.803256 0.658115
O O2 0.477330 0.859063 0.742748
O O3 0.561474 0.000000 0.690298
O O4 0.639937 0.881855 0.925265
O O5 0.103998 0.140029 0.530600
O O6 0.208171 0.173423 0.827392
O O7 0.041613 0.138009 0.716689
O O8 0.570611 0.500000 0.324659
O O9 0.590453 0.689693 0.263289
O O10 0.771756 0.500000 0.847448
O O11 0.848293 0.652405 0.807927
O O12 0.000000 0.714891 0.000000
#
# Coordination Sequence:
#
# PCOD9174172 Si02
#       5
#     8   8   8   8   8
#     4   9  18  33  52  74 101 130 160 199 244 289
#     4  10  19  33  51  74  99 128 167 202 239 289
#     4  10  20  35  52  70  98 133 165 201 244 289
#     4  10  18  31  53  76  99 129 163 200 242 287
#     4   9  19  34  51  73  99 128 164 202 242 291
#
# _framework density 19.101247000000001
#
# number of rings (size 3 to 8) (size 9 to 14) (size 15 to 20)
#    0.000    2.400    0.000    3.600    0.000    3.600 
#    0.000   10.000    0.000    0.000    0.000    0.000 
#    0.000    0.000    0.000    0.000    0.000    0.000 
#
# Total GULP energy -111640.697342 kJ/mol
# GULP energy per Si atom -5582.034867 kJ/mol
# Density = 1.905777 g / cm^3
# Si number density = 19.101247 Si / 1000 Ang^3
#
#
#
# Elastic Constant Matrix: (Units=GPa)
#
#
# Indices 1 2 3 4 5 6 
#
# 1 25.3878 17.0802 21.5839 0.0000 9.4639 0.0000
# 2 17.0802 152.8999 12.7695 0.0000 2.4565 0.0000
# 3 21.5839 12.7695 29.2532 0.0000 10.3153 0.0000
# 4 0.0000 0.0000 0.0000 28.2105 0.0000 -4.2163
# 5 9.4639 2.4565 10.3153 0.0000 17.1547 0.0000
# 6 0.0000 0.0000 0.0000 -4.2163 0.0000 19.7319
#
#
#
# Elastic Compliance Matrix: (Units=1/GPa)
#
#
# Indices 1 2 3 4 5 6 
#
# 1 0.113897 -0.006151 -0.075518 0.000000 -0.016545 0.000000
# 2 -0.006151 0.007134 0.000746 0.000000 0.001923 0.000000
# 3 -0.075518 0.000746 0.095086 0.000000 -0.015621 0.000000
# 4 0.000000 0.000000 0.000000 0.036617 0.000000 0.007824
# 5 -0.016545 0.001923 -0.015621 0.000000 0.076538 0.000000
# 6 0.000000 0.000000 0.000000 0.007824 0.000000 0.052351
#
#
# Mechanical properties :
#
#
# Convention : Reuss Voigt Hill
#
# Bulk Modulus (GPa) = 18.42560 34.48978 26.45769
# Shear Modulus (GPa) = 8.90377 23.42656 16.16517
#
# Velocity S-wave (km/s) = 2.16136 3.50586 2.91226
# Velocity P-wave (km/s) = 3.98696 5.87227 5.01893
#
# Compressibility (1/GPa) = 0.05427233
#
# Stress axis : x y z
#
# Youngs Moduli (GPa) = 8.77986 140.17154 10.51678
#
# Poissons Ratio (x) = 0.86213 0.79420
# Poissons Ratio (y) = 0.05400 -0.00784
# Poissons Ratio (z) = 0.66303 -0.10454
#
# Static dielectric constant tensor:
#      x y z
#    x 1.634770 0.000000 -0.004690 
#    y 0.000000 1.661730 0.000000 
#    z -0.004690 0.000000 1.676960 
# 
# From -- ./inp_files/58933.got.cif
#   From: 2010.05.17/outbox.cif.g08.bks.cpg/sg12_30_cif.got.tgz:58933.got - 2010.06.03 13:09:07.
