data_PCOD9174850
_publ_section_title
;
Structure prediction by ZEFSAII (Michael W. Deem and Ramdas Pophale) SiO2 
 PCOD9174850
Probable space group: C 2/M
;
_chemical_formula_sum "Si O2"
_cell_formula_units_Z 64
_cell_length_a 11.802118
_cell_length_b 22.252097
_cell_length_c 17.608967
_cell_angle_alpha 90.000000
_cell_angle_beta 54.653028
_cell_angle_gamma 90.000000
_cell_volume 3772.036157
_symmetry_space_group_name_H-M "C 2/M"
_symmetry_group_IT_number 12
_symmetry_cell_setting 'monoclinic'
loop_
_space_group_symop_operation_xyz
x,y,z
-x,y,-z
-x,-y,-z
x,-y,z
1/2+x,1/2+y,z
1/2-x,1/2+y,-z
1/2-x,1/2-y,-z
1/2+x,1/2-y,z
loop_
_atom_site_type_symbol
_atom_site_label
_atom_site_fract_x
_atom_site_fract_y
_atom_site_fract_z
Si Si1 0.865240 0.140241 0.805717
Si Si2 0.846457 0.265148 0.891225
Si Si3 0.517527 0.428186 0.618581
Si Si4 0.504710 0.929150 0.230627
Si Si5 0.047811 0.357352 0.893183
Si Si6 0.568266 0.428471 0.077027
Si Si7 0.792858 0.875645 0.127858
Si Si8 0.224478 0.928406 0.413264
O O1 0.895404 0.205127 0.830445
O O2 0.977515 0.113102 0.704710
O O3 0.713546 0.146413 0.827713
O O4 0.853712 0.091813 0.877897
O O5 0.751103 0.307426 0.874050
O O6 0.972713 0.302470 0.878843
O O7 0.750000 0.250000 0.000000
O O8 0.526963 0.500000 0.634040
O O9 0.654177 0.407947 0.519097
O O10 0.390046 0.422018 0.608501
O O11 0.495647 0.911918 0.145095
O O12 0.649165 0.905709 0.207740
O O13 0.370782 0.903444 0.327153
O O14 0.501527 0.000000 0.237891
O O15 0.000000 0.360407 0.000000
O O16 0.544549 0.500000 0.081865
O O17 0.422814 0.391511 0.130591
O O18 0.657197 0.406122 0.970697
O O19 0.241693 0.000000 0.416738
#
# Coordination Sequence:
#
# PCOD9174850 Si02
#       8
#     8   8   8   8   8   8   8   8
#     4  12  22  33  55  78 108 143 174 234 276 310
#     4  11  22  37  52  72 103 145 195 224 265 311
#     4   9  17  32  52  83 112 134 172 219 278 339
#     4  10  18  32  53  81 110 139 172 220 278 328
#     4  11  22  33  50  78 105 140 182 223 266 325
#     4  11  22  35  53  79 110 149 185 223 277 325
#     4  10  21  36  53  72 104 151 191 225 251 331
#     4   8  15  29  54  80 108 139 168 212 272 342
#
# _framework density 16.966963
#
# number of rings (size 3 to 8) (size 9 to 14) (size 15 to 20)
#    0.000    1.750    3.750    3.375    1.750    0.750 
#    0.000    0.000    0.000    3.750    0.000    3.500 
#    0.000    0.000    0.000    0.000    0.000    0.000 
#
# Total GULP energy -178309.129960 kJ/mol
# GULP energy per Si atom -5572.160311 kJ/mol
# Density = 1.692835 g / cm^3
# Si number density = 16.966963 Si / 1000 Ang^3
#
#
#
# Elastic Constant Matrix: (Units=GPa)
#
#
# Indices 1 2 3 4 5 6 
#
# 1 51.1464 11.4378 12.9498 0.0000 -18.7951 0.0000
# 2 11.4378 80.7656 35.8930 0.0000 2.5561 0.0000
# 3 12.9498 35.8930 80.5154 0.0000 -13.2398 0.0000
# 4 0.0000 0.0000 0.0000 13.8315 0.0000 7.7741
# 5 -18.7951 2.5561 -13.2398 0.0000 23.4800 0.0000
# 6 0.0000 0.0000 0.0000 7.7741 0.0000 11.6053
#
#
#
# Elastic Compliance Matrix: (Units=1/GPa)
#
#
# Indices 1 2 3 4 5 6 
#
# 1 0.029789 -0.005958 0.002086 0.000000 0.025670 0.000000
# 2 -0.005958 0.017477 -0.008740 0.000000 -0.011600 0.000000
# 3 0.002086 -0.008740 0.018089 0.000000 0.012821 0.000000
# 4 0.000000 0.000000 0.000000 0.115957 0.000000 -0.077677
# 5 0.025670 -0.011600 0.012821 0.000000 0.071630 0.000000
# 6 0.000000 0.000000 0.000000 -0.077677 0.000000 0.138201
#
#
# Mechanical properties :
#
#
# Convention : Reuss Voigt Hill
#
# Bulk Modulus (GPa) = 24.91875 36.99873 30.95874
# Shear Modulus (GPa) = 11.63481 19.92649 15.78065
#
# Velocity S-wave (km/s) = 2.62149 3.43071 3.05303
# Velocity P-wave (km/s) = 4.88687 6.12754 5.54203
#
# Compressibility (1/GPa) = 0.04013042
#
# Stress axis : x y z
#
# Youngs Moduli (GPa) = 33.56922 57.21927 55.28204
#
# Poissons Ratio (x) = 0.34092 -0.11532
# Poissons Ratio (y) = 0.20001 0.48317
# Poissons Ratio (z) = -0.07003 0.50011
#
# Static dielectric constant tensor:
#      x y z
#    x 1.588320 0.000000 -0.011400 
#    y 0.000000 1.589950 0.000000 
#    z -0.011400 0.000000 1.581120 
# 
# From -- ./inp_files/265060.got.cif
#   From: 2010.05.17/outbox.cif.g08.bks.cpg/sg12_133_cif.got.tgz:265060.got - 2010.06.03 13:09:07.
