data_PCOD9174104
_publ_section_title
;
Structure prediction by ZEFSAII (Michael W. Deem and Ramdas Pophale) SiO2 
 PCOD9174104
Probable space group: C 2/M
;
_chemical_formula_sum "Si O2"
_cell_formula_units_Z 48
_cell_length_a 16.079728
_cell_length_b 13.011710
_cell_length_c 21.485122
_cell_angle_alpha 90.000000
_cell_angle_beta 34.680811
_cell_angle_gamma 90.000000
_cell_volume 2557.798501
_symmetry_space_group_name_H-M "C 2/M"
_symmetry_group_IT_number 12
_symmetry_cell_setting 'monoclinic'
loop_
_space_group_symop_operation_xyz
x,y,z
-x,y,-z
-x,-y,-z
x,-y,z
1/2+x,1/2+y,z
1/2-x,1/2+y,-z
1/2-x,1/2-y,-z
1/2+x,1/2-y,z
loop_
_atom_site_type_symbol
_atom_site_label
_atom_site_fract_x
_atom_site_fract_y
_atom_site_fract_z
Si Si1 0.110630 0.618282 0.052772
Si Si2 0.488640 0.622256 0.663250
Si Si3 0.645988 0.243427 0.157385
Si Si4 0.155216 0.118009 0.441055
Si Si5 0.341748 0.618929 0.129881
Si Si6 0.301348 0.189251 0.233559
O O1 0.149495 0.500000 0.040452
O O2 0.106625 0.685002 0.118508
O O3 0.947100 0.627002 0.127311
O O4 0.229074 0.672825 0.936130
O O5 0.497930 0.500000 0.670326
O O6 0.479586 0.694348 0.729111
O O7 0.615540 0.650099 0.535506
O O8 0.335463 0.644823 0.721314
O O9 0.719624 0.159975 0.157456
O O10 0.262051 0.179433 0.330376
O O11 0.000000 0.117953 0.500000
O O12 0.207713 0.000000 0.410300
O O13 0.321488 0.500000 0.157641
O O14 0.330719 0.694230 0.195195
O O15 0.500000 0.630968 0.000000
#
# Coordination Sequence:
#
# PCOD9174104 Si02
#       6
#     8   8   8   8   8   8
#     4  11  21  33  49  72 101 130 159 201 250 290
#     4   9  17  31  53  76  99 128 163 202 242 285
#     4  10  21  34  47  71 100 132 165 197 240 295
#     4   8  14  27  49  75 100 126 155 196 247 288
#     4  10  19  34  51  69  96 130 165 198 238 293
#     4  10  18  31  52  78  98 122 162 205 244 287
#
# _framework density 18.766138000000002
#
# number of rings (size 3 to 8) (size 9 to 14) (size 15 to 20)
#    0.000    2.333    1.667    3.500    0.000    0.000 
#    0.000    4.167    0.000   13.500    0.000    0.000 
#    0.000    0.000    0.000    0.000    0.000    0.000 
#
# Total GULP energy -133849.816318 kJ/mol
# GULP energy per Si atom -5577.075680 kJ/mol
# Density = 1.872343 g / cm^3
# Si number density = 18.766138 Si / 1000 Ang^3
#
#
#
# Elastic Constant Matrix: (Units=GPa)
#
#
# Indices 1 2 3 4 5 6 
#
# 1 13.9607 8.8528 11.5933 0.0004 7.9650 -0.0001
# 2 8.8528 117.0603 55.4099 0.0015 20.6343 -0.0004
# 3 11.5933 55.4099 90.2851 0.0024 28.1619 -0.0006
# 4 0.0004 0.0015 0.0024 237.1035 -0.0008 -43.1191
# 5 7.9650 20.6343 28.1619 -0.0008 26.2846 0.0002
# 6 -0.0001 -0.0004 -0.0006 -43.1191 0.0002 30.6764
#
#
#
# Elastic Compliance Matrix: (Units=1/GPa)
#
#
# Indices 1 2 3 4 5 6 
#
# 1 0.087862 -0.000965 -0.003937 0.000000 -0.021649 0.000000
# 2 -0.000965 0.012145 -0.006679 0.000000 -0.002085 0.000000
# 3 -0.003937 -0.006679 0.020536 0.000000 -0.015567 0.000000
# 4 0.000000 0.000000 0.000000 0.005666 0.000000 0.007964
# 5 -0.021649 -0.002085 -0.015567 0.000000 0.062921 0.000000
# 6 0.000000 0.000000 0.000000 0.007964 0.000000 0.043793
#
#
# Mechanical properties :
#
#
# Convention : Reuss Voigt Hill
#
# Bulk Modulus (GPa) = 10.26896 41.44646 25.85771
# Shear Modulus (GPa) = 17.32831 68.50959 42.91895
#
# Velocity S-wave (km/s) = 3.04202 6.04866 4.78749
# Velocity P-wave (km/s) = 4.22166 8.42113 6.66100
#
# Compressibility (1/GPa) = 0.09738086
#
# Stress axis : x y z
#
# Youngs Moduli (GPa) = 11.38146 82.34062 48.69444
#
# Poissons Ratio (x) = 0.07946 0.19171
# Poissons Ratio (y) = 0.01098 0.32523
# Poissons Ratio (z) = 0.04481 0.54995
#
# Static dielectric constant tensor:
#      x y z
#    x 1.682430 0.000000 0.007990 
#    y 0.000000 1.624240 0.000000 
#    z 0.007990 0.000000 1.664540 
# 
# From -- ./inp_files/153636.got.cif
#   From: 2010.05.17/outbox.cif.g08.bks.cpg/sg12_77_cif.got.tgz:153636.got - 2010.06.03 13:09:07.
