data_PCOD9174664
_publ_section_title
;
Structure prediction by ZEFSAII (Michael W. Deem and Ramdas Pophale) SiO2 
 PCOD9174664
Probable space group: C 2/M
;
_chemical_formula_sum "Si O2"
_cell_formula_units_Z 50
_cell_length_a 18.883805
_cell_length_b 7.601013
_cell_length_c 15.993066
_cell_angle_alpha 90.000000
_cell_angle_beta 66.979677
_cell_angle_gamma 90.000000
_cell_volume 2112.775606
_symmetry_space_group_name_H-M "C 2/M"
_symmetry_group_IT_number 12
_symmetry_cell_setting 'monoclinic'
loop_
_space_group_symop_operation_xyz
x,y,z
-x,y,-z
-x,-y,-z
x,-y,z
1/2+x,1/2+y,z
1/2-x,1/2+y,-z
1/2-x,1/2-y,-z
1/2+x,1/2-y,z
loop_
_atom_site_type_symbol
_atom_site_label
_atom_site_fract_x
_atom_site_fract_y
_atom_site_fract_z
Si Si1 0.235356 0.201292 0.325272
Si Si2 0.280183 0.790826 0.861524
Si Si3 0.885534 0.800348 0.023836
Si Si4 0.929704 0.216277 0.590507
Si Si5 0.051999 0.208836 0.227465
Si Si6 0.604208 0.208690 0.791267
Si Si7 0.500000 0.000000 0.000000
O O1 0.224357 0.206085 0.229159
O O2 0.155831 0.278689 0.396371
O O3 0.321749 0.270273 0.296454
O O4 0.238417 0.000000 0.352601
O O5 0.203009 0.736865 0.945958
O O6 0.365985 0.750741 0.853414
O O7 0.273611 0.000000 0.854513
O O8 0.892589 0.807556 0.122514
O O9 0.898460 0.000000 0.986562
O O10 0.948655 0.654175 0.976278
O O11 0.943259 0.275747 0.679373
O O12 0.000000 0.270580 0.500000
O O13 0.927413 0.000000 0.591563
O O14 0.974688 0.273149 0.220680
O O15 0.046558 0.000000 0.234022
O O16 0.611929 0.000000 0.811174
#
# Coordination Sequence:
#
# PCOD9174664 Si02
#       7
#     8   8   8   8   8   8   2
#     4   8  15  27  47  69  96 130 172 220 262 309
#     4   9  17  30  50  76 100 129 173 220 259 300
#     4  10  21  36  57  85 110 140 179 217 260 318
#     4   8  14  27  46  69  98 136 180 222 269 325
#     4  10  19  29  49  76 101 135 178 226 270 319
#     4  10  18  32  51  76 105 135 175 228 274 308
#     4  12  22  36  60  86 112 148 170 210 264 318
#
# _framework density 23.665551000000001
#
# number of rings (size 3 to 8) (size 9 to 14) (size 15 to 20)
#    0.000    2.720    0.800    2.640    2.240    0.640 
#    0.000    0.800    0.000   12.960    0.000    0.000 
#    0.000    0.000    0.000    0.000    0.000    0.000 
#
# Total GULP energy -139386.706072 kJ/mol
# GULP energy per Si atom -5575.468243 kJ/mol
# Density = 2.361169 g / cm^3
# Si number density = 23.665551 Si / 1000 Ang^3
#
#
#
# Elastic Constant Matrix: (Units=GPa)
#
#
# Indices 1 2 3 4 5 6 
#
# 1 218.7127 22.2038 50.4044 0.0000 -38.6692 0.0000
# 2 22.2038 98.2746 9.0777 0.0001 -13.1507 -0.0001
# 3 50.4044 9.0777 92.8670 0.0000 -37.6901 0.0000
# 4 0.0000 0.0001 0.0000 6.2174 0.0000 3.3602
# 5 -38.6692 -13.1507 -37.6901 0.0000 34.8586 0.0000
# 6 0.0000 -0.0001 0.0000 3.3602 0.0000 16.4491
#
#
#
# Elastic Compliance Matrix: (Units=1/GPa)
#
#
# Indices 1 2 3 4 5 6 
#
# 1 0.005759 -0.000525 -0.001002 0.000000 0.005108 0.000000
# 2 -0.000525 0.010823 0.001154 0.000000 0.004749 0.000000
# 3 -0.001002 0.001154 0.019467 0.000000 0.020373 0.000000
# 4 0.000000 0.000000 0.000000 0.180801 0.000000 -0.036933
# 5 0.005108 0.004749 0.020373 0.000000 0.058173 0.000000
# 6 0.000000 0.000000 0.000000 -0.036933 0.000000 0.068338
#
#
# Mechanical properties :
#
#
# Convention : Reuss Voigt Hill
#
# Bulk Modulus (GPa) = 28.32480 63.69178 46.00829
# Shear Modulus (GPa) = 14.04988 33.38290 23.71639
#
# Velocity S-wave (km/s) = 2.43921 3.75989 3.16911
# Velocity P-wave (km/s) = 4.46405 6.76910 5.73361
#
# Compressibility (1/GPa) = 0.03530475
#
# Stress axis : x y z
#
# Youngs Moduli (GPa) = 173.62736 92.39544 51.36830
#
# Poissons Ratio (x) = 0.04853 0.05145
# Poissons Ratio (y) = 0.09119 -0.05930
# Poissons Ratio (z) = 0.17390 -0.10665
#
# Static dielectric constant tensor:
#      x y z
#    x 1.964840 0.000000 -0.071160 
#    y 0.000000 1.874160 0.000000 
#    z -0.071160 0.000000 1.992020 
# 
# From -- ./inp_files/274178.got.cif
#   From: 2010.05.17/outbox.cif.g08.bks.cpg/sg12_138_cif.got.tgz:274178.got - 2010.06.03 13:09:07.
