data_PCOD9174263
_publ_section_title
;
Structure prediction by ZEFSAII (Michael W. Deem and Ramdas Pophale) SiO2 
 PCOD9174263
Probable space group: C 2/M
;
_chemical_formula_sum "Si O2"
_cell_formula_units_Z 64
_cell_length_a 30.948307
_cell_length_b 7.838875
_cell_length_c 15.825767
_cell_angle_alpha 90.000000
_cell_angle_beta 139.081612
_cell_angle_gamma 90.000000
_cell_volume 2514.697023
_symmetry_space_group_name_H-M "C 2/M"
_symmetry_group_IT_number 12
_symmetry_cell_setting 'monoclinic'
loop_
_space_group_symop_operation_xyz
x,y,z
-x,y,-z
-x,-y,-z
x,-y,z
1/2+x,1/2+y,z
1/2-x,1/2+y,-z
1/2-x,1/2-y,-z
1/2+x,1/2-y,z
loop_
_atom_site_type_symbol
_atom_site_label
_atom_site_fract_x
_atom_site_fract_y
_atom_site_fract_z
Si Si1 0.225449 0.294967 0.644298
Si Si2 0.424098 0.206283 0.541418
Si Si3 0.112059 0.699168 0.876573
Si Si4 0.901740 0.292343 0.325484
Si Si5 0.752252 0.795014 0.869594
Si Si6 0.342263 0.797968 0.710611
Si Si7 0.418841 0.196616 0.985987
Si Si8 0.546869 0.693841 0.235135
O O1 0.222985 0.500000 0.639009
O O2 0.150607 0.236668 0.546576
O O3 0.261833 0.243414 0.785311
O O4 0.267288 0.237922 0.625880
O O5 0.437230 0.264147 0.464546
O O6 0.463620 0.261027 0.682298
O O7 0.425898 0.000000 0.541991
O O8 0.092032 0.500000 0.850431
O O9 0.083072 0.771188 0.746378
O O10 0.097407 0.778111 0.946635
O O11 0.191976 0.709108 0.991355
O O12 0.908823 0.500000 0.333373
O O13 0.823874 0.255233 0.223537
O O14 0.759319 0.000000 0.886728
O O15 0.377820 0.723677 0.681363
O O16 0.349923 0.000000 0.714064
O O17 0.384613 0.727204 0.853266
O O18 0.498081 0.199227 0.103905
O O19 0.396435 0.000000 0.955095
O O20 0.529924 0.500000 0.195244
#
# Coordination Sequence:
#
# PCOD9174263 Si02
#       8
#     8   8   8   8   8   8   8   8
#     4   9  18  33  56  85 117 150 183 223 274 329
#     4   9  19  39  61  81 112 153 191 229 271 322
#     4  10  18  31  53  83 114 145 185 226 267 324
#     4   8  16  31  54  82 112 148 187 223 265 321
#     4   9  16  28  48  79 118 152 179 216 270 325
#     4  11  22  38  61  87 114 144 180 227 282 336
#     4  10  22  39  58  83 114 147 184 228 277 330
#     4  12  26  41  59  81 105 144 191 238 286 333
#
# _framework density 25.450382999999999
#
# number of rings (size 3 to 8) (size 9 to 14) (size 15 to 20)
#    0.000    2.250    1.250    3.750    0.000    4.000 
#    0.000    3.125    0.000    3.750    0.000    0.000 
#    0.000    0.000    0.000    0.000    0.000    0.000 
#
# Total GULP energy -178879.187564 kJ/mol
# GULP energy per Si atom -5589.974611 kJ/mol
# Density = 2.539246 g / cm^3
# Si number density = 25.450383 Si / 1000 Ang^3
#
#
#
# Elastic Constant Matrix: (Units=GPa)
#
#
# Indices 1 2 3 4 5 6 
#
# 1 123.3922 7.0836 23.2123 0.0000 -26.3953 0.0000
# 2 7.0836 49.0027 -1.1555 0.0000 -4.9261 0.0000
# 3 23.2123 -1.1555 113.3107 0.0000 -18.1033 0.0000
# 4 0.0000 0.0000 0.0000 12.5198 0.0000 2.5754
# 5 -26.3953 -4.9261 -18.1033 0.0000 49.1220 0.0000
# 6 0.0000 0.0000 0.0000 2.5754 0.0000 8.1035
#
#
#
# Elastic Compliance Matrix: (Units=1/GPa)
#
#
# Indices 1 2 3 4 5 6 
#
# 1 0.009344 -0.000929 -0.001207 0.000000 0.004483 0.000000
# 2 -0.000929 0.020742 0.000695 0.000000 0.001837 0.000000
# 3 -0.001207 0.000695 0.009549 0.000000 0.002940 0.000000
# 4 0.000000 0.000000 0.000000 0.085461 0.000000 -0.027161
# 5 0.004483 0.001837 0.002940 0.000000 0.024034 0.000000
# 6 0.000000 0.000000 0.000000 -0.027161 0.000000 0.132035
#
#
# Mechanical properties :
#
#
# Convention : Reuss Voigt Hill
#
# Bulk Modulus (GPa) = 27.20777 38.22071 32.71424
# Shear Modulus (GPa) = 16.87490 31.05341 23.96416
#
# Velocity S-wave (km/s) = 2.57777 3.49686 3.07188
# Velocity P-wave (km/s) = 4.42421 5.59950 5.04619
#
# Compressibility (1/GPa) = 0.03675421
#
# Stress axis : x y z
#
# Youngs Moduli (GPa) = 107.02552 48.21053 104.71779
#
# Poissons Ratio (x) = 0.04476 0.12643
# Poissons Ratio (y) = 0.09937 -0.07281
# Poissons Ratio (z) = 0.12922 -0.03352
#
# Static dielectric constant tensor:
#      x y z
#    x 2.078440 0.000000 0.024030 
#    y 0.000000 1.908950 0.000000 
#    z 0.024030 0.000000 2.032540 
# 
# From -- ./inp_files/250087.got.cif
#   From: 2010.05.17/outbox.cif.g08.bks.cpg/sg12_126_cif.got.tgz:250087.got - 2010.06.03 13:09:07.
