data_PCOD9174902
_publ_section_title
;
Structure prediction by ZEFSAII (Michael W. Deem and Ramdas Pophale) SiO2 
 PCOD9174902
Probable space group: C 2/M
;
_chemical_formula_sum "Si O2"
_cell_formula_units_Z 56
_cell_length_a 21.097125
_cell_length_b 8.693461
_cell_length_c 18.923627
_cell_angle_alpha 90.000000
_cell_angle_beta 59.182702
_cell_angle_gamma 90.000000
_cell_volume 2980.678022
_symmetry_space_group_name_H-M "C 2/M"
_symmetry_group_IT_number 12
_symmetry_cell_setting 'monoclinic'
loop_
_space_group_symop_operation_xyz
x,y,z
-x,y,-z
-x,-y,-z
x,-y,z
1/2+x,1/2+y,z
1/2-x,1/2+y,-z
1/2-x,1/2-y,-z
1/2+x,1/2-y,z
loop_
_atom_site_type_symbol
_atom_site_label
_atom_site_fract_x
_atom_site_fract_y
_atom_site_fract_z
Si Si1 0.471790 0.318182 0.936213
Si Si2 0.939926 0.316042 0.237612
Si Si3 0.491881 0.182709 0.588816
Si Si4 0.151510 0.673058 0.507076
Si Si5 0.331662 0.814614 0.937531
Si Si6 0.284647 0.172304 0.371215
Si Si7 0.077820 0.817283 0.243372
O O1 0.473008 0.500000 0.916286
O O2 0.528951 0.221797 0.856672
O O3 0.391308 0.253106 0.959915
O O4 0.500000 0.305060 0.000000
O O5 0.939191 0.500000 0.252825
O O6 0.856297 0.256757 0.293396
O O7 0.999723 0.237513 0.254362
O O8 0.500000 0.201406 0.500000
O O9 0.572355 0.246732 0.565410
O O10 0.428882 0.263909 0.671158
O O11 0.485077 0.000000 0.608419
O O12 0.136662 0.500000 0.491010
O O13 0.206241 0.746612 0.419537
O O14 0.190313 0.664805 0.560934
O O15 0.361726 0.760444 0.842996
O O16 0.332361 0.000000 0.940086
O O17 0.250000 0.750000 0.000000
O O18 0.274764 0.000000 0.349459
O O19 0.085721 0.000000 0.234584
#
# Coordination Sequence:
#
# PCOD9174902 Si02
#       7
#     8   8   8   8   8   8   8
#     4  10  21  37  57  85 119 151 187 232 284 344
#     4  10  18  32  54  78 106 140 183 227 271 328
#     4  10  20  36  55  74 103 145 188 230 276 326
#     4   9  17  30  47  70  99 129 168 211 258 310
#     4  11  22  39  64  90 118 150 193 242 292 351
#     4   9  17  29  47  72 100 128 165 212 259 306
#     4  11  21  34  55  82 111 143 186 232 280 335
#
# _framework density 18.787672000000001
#
# number of rings (size 3 to 8) (size 9 to 14) (size 15 to 20)
#    0.000    2.000    1.429    5.143    0.000    3.143 
#    0.000    1.429    0.000    5.143    0.000    0.000 
#    0.000    0.000    0.000    0.000    0.000    0.000 
#
# Total GULP energy -155933.901577 kJ/mol
# GULP energy per Si atom -5569.067913 kJ/mol
# Density = 1.874491 g / cm^3
# Si number density = 18.787672 Si / 1000 Ang^3
#
#
#
# Elastic Constant Matrix: (Units=GPa)
#
#
# Indices 1 2 3 4 5 6 
#
# 1 38.1283 22.6626 48.0321 0.0000 -12.9792 0.0001
# 2 22.6626 84.9660 36.3250 -0.0001 -9.4031 0.0004
# 3 48.0321 36.3250 129.4081 0.0000 -29.2777 0.0000
# 4 0.0000 -0.0001 0.0000 32.9495 0.0000 -3.8875
# 5 -12.9792 -9.4031 -29.2777 0.0000 34.1202 0.0000
# 6 0.0001 0.0004 0.0000 -3.8875 0.0000 19.0373
#
#
#
# Elastic Compliance Matrix: (Units=1/GPa)
#
#
# Indices 1 2 3 4 5 6 
#
# 1 0.052542 -0.006391 -0.016857 0.000000 0.003761 0.000000
# 2 -0.006391 0.014161 -0.001576 0.000000 0.000119 0.000000
# 3 -0.016857 -0.001576 0.015980 0.000000 0.006865 0.000000
# 4 0.000000 0.000000 0.000000 0.031099 0.000000 0.006351
# 5 0.003761 0.000119 0.006865 0.000000 0.036662 0.000000
# 6 0.000000 0.000000 0.000000 0.006351 0.000000 0.053825
#
#
# Mechanical properties :
#
#
# Convention : Reuss Voigt Hill
#
# Bulk Modulus (GPa) = 30.27132 51.83798 41.05465
# Shear Modulus (GPa) = 18.87299 26.92024 22.89662
#
# Velocity S-wave (km/s) = 3.17289 3.78943 3.49478
# Velocity P-wave (km/s) = 5.43786 6.84089 6.17932
#
# Compressibility (1/GPa) = 0.03303457
#
# Stress axis : x y z
#
# Youngs Moduli (GPa) = 19.03246 70.61629 62.57907
#
# Poissons Ratio (x) = 0.45133 1.05489
# Poissons Ratio (y) = 0.12164 0.09861
# Poissons Ratio (z) = 0.32083 0.11128
#
# Static dielectric constant tensor:
#      x y z
#    x 1.709760 0.000000 0.012330 
#    y 0.000000 1.658700 0.000000 
#    z 0.012330 0.000000 1.698010 
# 
# From -- ./inp_files/323554.got.cif
#   From: 2010.05.17/outbox.cif.g08.bks.cpg/sg12_162_cif.got.tgz:323554.got - 2010.06.03 13:09:07.
