data_PCOD9174374
_publ_section_title
;
Structure prediction by ZEFSAII (Michael W. Deem and Ramdas Pophale) SiO2 
 PCOD9174374
Probable space group: C 2/M
;
_chemical_formula_sum "Si O2"
_cell_formula_units_Z 34
_cell_length_a 8.340133
_cell_length_b 17.619193
_cell_length_c 11.203961
_cell_angle_alpha 90.000000
_cell_angle_beta 64.178776
_cell_angle_gamma 90.000000
_cell_volume 1482.002977
_symmetry_space_group_name_H-M "C 2/M"
_symmetry_group_IT_number 12
_symmetry_cell_setting 'monoclinic'
loop_
_space_group_symop_operation_xyz
x,y,z
-x,y,-z
-x,-y,-z
x,-y,z
1/2+x,1/2+y,z
1/2-x,1/2+y,-z
1/2-x,1/2-y,-z
1/2+x,1/2-y,z
loop_
_atom_site_type_symbol
_atom_site_label
_atom_site_fract_x
_atom_site_fract_y
_atom_site_fract_z
Si Si1 0.996473 0.190861 0.639304
Si Si2 0.891468 0.288782 0.174892
Si Si3 0.254819 0.864464 0.897204
Si Si4 0.314376 0.912096 0.608926
Si Si5 0.500000 0.500000 0.000000
O O1 0.797610 0.169568 0.747444
O O2 0.000000 0.212700 0.500000
O O3 0.060961 0.255973 0.708718
O O4 0.141859 0.126308 0.609953
O O5 0.844485 0.213856 0.110954
O O6 0.068435 0.337467 0.091389
O O7 0.306280 0.901734 0.753614
O O8 0.138654 0.930378 0.996234
O O9 0.500000 0.880984 0.500000
O O10 0.307387 0.000000 0.581541
#
# Coordination Sequence:
#
# PCOD9174374 Si02
#       5
#     8   8   8   8   2
#     4  10  18  31  54  86 118 154 190 231 279 342
#     4   9  20  36  58  84 119 147 194 240 282 340
#     4  10  21  40  62  88 113 154 193 237 290 341
#     4  10  20  35  55  83 124 157 186 230 289 348
#     4  12  24  40  66  82 112 154 198 240 290 356
#
# _framework density 22.941922999999999
#
# number of rings (size 3 to 8) (size 9 to 14) (size 15 to 20)
#    0.000    2.118    1.176    2.118    0.000    8.000 
#    2.118    0.000    0.000   12.706    0.000    0.000 
#    0.000    0.000    0.000    0.000    0.000    0.000 
#
# Total GULP energy -94722.998014 kJ/mol
# GULP energy per Si atom -5571.941060 kJ/mol
# Density = 2.288971 g / cm^3
# Si number density = 22.941923 Si / 1000 Ang^3
#
#
#
# Elastic Constant Matrix: (Units=GPa)
#
#
# Indices 1 2 3 4 5 6 
#
# 1 184.5149 80.3370 42.7377 0.0000 -26.1325 0.0000
# 2 80.3370 145.3120 22.9963 0.0000 -34.8031 0.0000
# 3 42.7377 22.9963 44.6030 0.0000 -19.7865 0.0000
# 4 0.0000 0.0000 0.0000 25.6852 0.0000 -19.5916
# 5 -26.1325 -34.8031 -19.7865 0.0000 51.6777 0.0000
# 6 0.0000 0.0000 0.0000 -19.5916 0.0000 7.1625
#
#
#
# Elastic Compliance Matrix: (Units=1/GPa)
#
#
# Indices 1 2 3 4 5 6 
#
# 1 0.008492 -0.003856 -0.006500 0.000000 -0.000791 0.000000
# 2 -0.003856 0.010130 0.000763 0.000000 0.005164 0.000000
# 3 -0.006500 0.000763 0.032554 0.000000 0.009691 0.000000
# 4 0.000000 0.000000 0.000000 -0.035837 0.000000 -0.098026
# 5 -0.000791 0.005164 0.009691 0.000000 0.026139 0.000000
# 6 0.000000 0.000000 0.000000 -0.098026 0.000000 -0.128515
#
#
# Mechanical properties :
#
#
# Convention : Reuss Voigt Hill
#
# Bulk Modulus (GPa) = 31.25987 74.06356 52.66172
# Shear Modulus (GPa) = -87.42824 32.12897 -27.64963
#
# Velocity S-wave (km/s) = -6.17991 3.74632 -3.47537
# Velocity P-wave (km/s) = 6.10462 7.14607 2.62678
#
# Compressibility (1/GPa) = 0.03198989
#
# Stress axis : x y z
#
# Youngs Moduli (GPa) = 117.76104 98.72154 30.71833
#
# Poissons Ratio (x) = 0.38063 0.19966
# Poissons Ratio (y) = 0.45404 -0.02343
# Poissons Ratio (z) = 0.76542 -0.07530
#
# Static dielectric constant tensor:
#      x y z
#    x 1.867680 0.000000 -0.014780 
#    y 0.000000 1.851150 0.000000 
#    z -0.014780 0.000000 2.006150 
# 
# From -- ./inp_files/118486.got.cif
#   From: 2010.05.17/outbox.cif.g08.bks.cpg/sg12_60_cif.got.tgz:118486.got - 2010.06.03 13:09:07.
