data_PCOD9174968
_publ_section_title
;
Structure prediction by ZEFSAII (Michael W. Deem and Ramdas Pophale) SiO2 
 PCOD9174968
Probable space group: C 2/M
;
_chemical_formula_sum "Si O2"
_cell_formula_units_Z 48
_cell_length_a 8.673673
_cell_length_b 18.001940
_cell_length_c 14.628181
_cell_angle_alpha 90.000000
_cell_angle_beta 83.393836
_cell_angle_gamma 90.000000
_cell_volume 2268.921764
_symmetry_space_group_name_H-M "C 2/M"
_symmetry_group_IT_number 12
_symmetry_cell_setting 'monoclinic'
loop_
_space_group_symop_operation_xyz
x,y,z
-x,y,-z
-x,-y,-z
x,-y,z
1/2+x,1/2+y,z
1/2-x,1/2+y,-z
1/2-x,1/2-y,-z
1/2+x,1/2-y,z
loop_
_atom_site_type_symbol
_atom_site_label
_atom_site_fract_x
_atom_site_fract_y
_atom_site_fract_z
Si Si1 0.469850 0.867853 0.286696
Si Si2 0.065951 0.584527 0.097082
Si Si3 0.974271 0.794679 0.780129
Si Si4 0.723891 0.273953 0.899177
Si Si5 0.814776 0.087839 0.335890
Si Si6 0.668363 0.910642 0.526736
O O1 0.446185 0.904475 0.188743
O O2 0.489731 0.779503 0.279465
O O3 0.638715 0.900067 0.308786
O O4 0.335358 0.885728 0.368366
O O5 0.124378 0.500000 0.094470
O O6 0.192332 0.646450 0.112207
O O7 0.000000 0.598759 0.000000
O O8 0.051839 0.784791 0.875078
O O9 0.057633 0.863375 0.725782
O O10 0.796421 0.784223 0.821065
O O11 0.750000 0.250000 0.000000
O O12 0.797320 0.111598 0.443893
O O13 0.849048 0.000000 0.327912
O O14 0.500000 0.885279 0.500000
O O15 0.667710 0.000000 0.526200
#
# Coordination Sequence:
#
# PCOD9174968 Si02
#       6
#     8   8   8   8   8   8
#     4  10  18  32  54  83 116 148 194 241 281 336
#     4  10  19  32  54  82 108 145 192 239 281 329
#     4  11  21  35  58  85 111 153 190 237 293 337
#     4  11  22  38  56  81 118 152 191 235 289 353
#     4  10  19  35  58  85 116 153 194 239 288 346
#     4   8  15  28  52  82 113 150 193 236 284 338
#
# _framework density 21.155422999999999
#
# number of rings (size 3 to 8) (size 9 to 14) (size 15 to 20)
#    0.000    2.000    3.333    5.000    0.000    0.667 
#    0.000    0.833    0.000    8.000    0.000    2.333 
#    0.000    0.000    0.000    0.000    0.000    0.000 
#
# Total GULP energy -133773.699535 kJ/mol
# GULP energy per Si atom -5573.904147 kJ/mol
# Density = 2.110727 g / cm^3
# Si number density = 21.155423 Si / 1000 Ang^3
#
#
#
# Elastic Constant Matrix: (Units=GPa)
#
#
# Indices 1 2 3 4 5 6 
#
# 1 39.8965 20.2974 6.1937 0.0000 -10.9966 0.0000
# 2 20.2974 87.0647 18.4887 0.0000 -17.3380 0.0000
# 3 6.1937 18.4887 137.7832 0.0000 -27.2002 0.0000
# 4 0.0000 0.0000 0.0000 28.9626 0.0000 -3.8337
# 5 -10.9966 -17.3380 -27.2002 0.0000 22.6376 0.0000
# 6 0.0000 0.0000 0.0000 -3.8337 0.0000 23.7856
#
#
#
# Elastic Compliance Matrix: (Units=1/GPa)
#
#
# Indices 1 2 3 4 5 6 
#
# 1 0.031033 -0.004932 0.001963 0.000000 0.013656 0.000000
# 2 -0.004932 0.014346 -0.000009 0.000000 0.008580 0.000000
# 3 0.001963 -0.000009 0.009646 0.000000 0.012536 0.000000
# 4 0.000000 0.000000 0.000000 0.035280 0.000000 0.005686
# 5 0.013656 0.008580 0.012536 0.000000 0.072442 0.000000
# 6 0.000000 0.000000 0.000000 0.005686 0.000000 0.042959
#
#
# Mechanical properties :
#
#
# Convention : Reuss Voigt Hill
#
# Bulk Modulus (GPa) = 20.38033 39.41156 29.89594
# Shear Modulus (GPa) = 21.92796 29.72813 25.82805
#
# Velocity S-wave (km/s) = 3.22299 3.75270 3.49789
# Velocity P-wave (km/s) = 4.84817 6.11939 5.52050
#
# Compressibility (1/GPa) = 0.04906693
#
# Stress axis : x y z
#
# Youngs Moduli (GPa) = 32.22343 69.70456 103.67496
#
# Poissons Ratio (x) = 0.34380 -0.20347
# Poissons Ratio (y) = 0.15893 0.00098
# Poissons Ratio (z) = -0.06324 0.00066
#
# Static dielectric constant tensor:
#      x y z
#    x 1.863700 0.000000 0.006750 
#    y 0.000000 1.745930 0.000000 
#    z 0.006750 0.000000 1.858090 
# 
# From -- ./inp_files/195934.got.cif
#   From: 2010.05.17/outbox.cif.g08.bks.cpg/sg12_98_cif.got.tgz:195934.got - 2010.06.03 13:09:07.
