data_PCOD9174745
_publ_section_title
;
Structure prediction by ZEFSAII (Michael W. Deem and Ramdas Pophale) SiO2 
 PCOD9174745
Probable space group: C 2/M
;
_chemical_formula_sum "Si O2"
_cell_formula_units_Z 56
_cell_length_a 24.714503
_cell_length_b 7.749431
_cell_length_c 14.620816
_cell_angle_alpha 90.000000
_cell_angle_beta 70.280868
_cell_angle_gamma 90.000000
_cell_volume 2636.016319
_symmetry_space_group_name_H-M "C 2/M"
_symmetry_group_IT_number 12
_symmetry_cell_setting 'monoclinic'
loop_
_space_group_symop_operation_xyz
x,y,z
-x,y,-z
-x,-y,-z
x,-y,z
1/2+x,1/2+y,z
1/2-x,1/2+y,-z
1/2-x,1/2-y,-z
1/2+x,1/2-y,z
loop_
_atom_site_type_symbol
_atom_site_label
_atom_site_fract_x
_atom_site_fract_y
_atom_site_fract_z
Si Si1 0.566880 0.795685 0.485160
Si Si2 0.666537 0.302503 0.300978
Si Si3 0.063956 0.705518 0.990698
Si Si4 0.404884 0.700979 0.821095
Si Si5 0.529551 0.792163 0.696739
Si Si6 0.237514 0.291279 0.613637
Si Si7 0.376204 0.209632 0.217133
O O1 0.500000 0.774996 0.500000
O O2 0.609593 0.697398 0.395776
O O3 0.569039 0.740167 0.589088
O O4 0.580497 0.000000 0.469397
O O5 0.684555 0.500000 0.271554
O O6 0.644890 0.223391 0.216804
O O7 0.714556 0.225972 0.341147
O O8 0.060292 0.500000 0.978258
O O9 0.113283 0.769599 0.892524
O O10 0.082523 0.730013 0.084871
O O11 0.000000 0.773862 0.000000
O O12 0.392146 0.500000 0.838678
O O13 0.465735 0.720339 0.734201
O O14 0.564034 0.746953 0.767375
O O15 0.523537 0.000000 0.694685
O O16 0.238193 0.500000 0.616077
O O17 0.250000 0.250000 0.500000
O O18 0.176949 0.229634 0.690955
O O19 0.371104 0.000000 0.220224
#
# Coordination Sequence:
#
# PCOD9174745 Si02
#       7
#     8   8   8   8   8   8   8
#     4  10  19  30  51  80 107 139 184 232 271 318
#     4  10  22  37  53  76 114 155 183 219 280 344
#     4  10  19  35  59  83 108 141 185 233 279 328
#     4  11  22  34  50  78 114 148 177 217 276 338
#     4  10  18  32  52  78 108 139 179 228 276 325
#     4  10  21  40  62  83 110 147 190 231 273 328
#     4   9  18  34  58  81 104 140 185 230 275 323
#
# _framework density 21.244178999999999
#
# number of rings (size 3 to 8) (size 9 to 14) (size 15 to 20)
#    0.000    2.000    2.857    1.286    0.000    3.429 
#    0.000    2.143    0.000    0.000    0.000    0.000 
#    0.000    0.000    0.000    0.000    0.000    0.000 
#
# Total GULP energy -156095.713983 kJ/mol
# GULP energy per Si atom -5574.846928 kJ/mol
# Density = 2.119583 g / cm^3
# Si number density = 21.244179 Si / 1000 Ang^3
#
#
#
# Elastic Constant Matrix: (Units=GPa)
#
#
# Indices 1 2 3 4 5 6 
#
# 1 122.2913 6.3571 62.1422 0.0000 16.8851 0.0000
# 2 6.3571 27.1975 2.7490 0.0000 -2.6747 0.0000
# 3 62.1422 2.7490 126.8086 0.0000 17.1702 0.0000
# 4 0.0000 0.0000 0.0000 11.1433 0.0000 1.4182
# 5 16.8851 -2.6747 17.1702 0.0000 31.6976 0.0000
# 6 0.0000 0.0000 0.0000 1.4182 0.0000 12.1757
#
#
#
# Elastic Compliance Matrix: (Units=1/GPa)
#
#
# Indices 1 2 3 4 5 6 
#
# 1 0.011350 -0.002492 -0.005030 0.000000 -0.003532 0.000000
# 2 -0.002492 0.037830 -0.000228 0.000000 0.004643 0.000000
# 3 -0.005030 -0.000228 0.010787 0.000000 -0.003183 0.000000
# 4 0.000000 0.000000 0.000000 0.091091 0.000000 -0.010610
# 5 -0.003532 0.004643 -0.003183 0.000000 0.035545 0.000000
# 6 0.000000 0.000000 0.000000 -0.010610 0.000000 0.083367
#
#
# Mechanical properties :
#
#
# Convention : Reuss Voigt Hill
#
# Bulk Modulus (GPa) = 22.48795 46.53267 34.51031
# Shear Modulus (GPa) = 16.65046 24.67324 20.66185
#
# Velocity S-wave (km/s) = 2.80262 3.41165 3.12202
# Velocity P-wave (km/s) = 4.59144 6.12131 5.41072
#
# Compressibility (1/GPa) = 0.04446827
#
# Stress axis : x y z
#
# Youngs Moduli (GPa) = 88.10283 26.43391 92.70659
#
# Poissons Ratio (x) = 0.06587 0.46631
# Poissons Ratio (y) = 0.21955 0.02110
# Poissons Ratio (z) = 0.44315 0.00602
#
# Static dielectric constant tensor:
#      x y z
#    x 1.797050 0.000000 0.049170 
#    y 0.000000 1.809930 0.000000 
#    z 0.049170 0.000000 1.795580 
# 
# From -- ./inp_files/238313.got.cif
#   From: 2010.05.17/outbox.cif.g08.bks.cpg/sg12_120_cif.got.tgz:238313.got - 2010.06.03 13:09:07.
