data_PCOD9174943
_publ_section_title
;
Structure prediction by ZEFSAII (Michael W. Deem and Ramdas Pophale) SiO2 
 PCOD9174943
Probable space group: C 2/M
;
_chemical_formula_sum "Si O2"
_cell_formula_units_Z 56
_cell_length_a 10.861136
_cell_length_b 24.097684
_cell_length_c 21.912749
_cell_angle_alpha 90.000000
_cell_angle_beta 154.548538
_cell_angle_gamma 90.000000
_cell_volume 2464.674584
_symmetry_space_group_name_H-M "C 2/M"
_symmetry_group_IT_number 12
_symmetry_cell_setting 'monoclinic'
loop_
_space_group_symop_operation_xyz
x,y,z
-x,y,-z
-x,-y,-z
x,-y,z
1/2+x,1/2+y,z
1/2-x,1/2+y,-z
1/2-x,1/2-y,-z
1/2+x,1/2-y,z
loop_
_atom_site_type_symbol
_atom_site_label
_atom_site_fract_x
_atom_site_fract_y
_atom_site_fract_z
Si Si1 0.312482 0.061282 0.353203
Si Si2 0.392095 0.662842 0.045367
Si Si3 0.062827 0.195537 0.432868
Si Si4 0.059677 0.748093 0.827679
Si Si5 0.478350 0.114466 0.676866
Si Si6 0.320408 0.937431 0.113126
Si Si7 0.845198 0.164547 0.652669
O O1 0.500000 0.059100 0.500000
O O2 0.481807 0.076153 0.366359
O O3 0.114953 0.113935 0.282320
O O4 0.183501 0.000000 0.287528
O O5 0.363600 0.703026 0.090294
O O6 0.723763 0.647980 0.189811
O O7 0.211743 0.605999 0.956678
O O8 0.275518 0.699625 0.937896
O O9 0.250000 0.250000 0.500000
O O10 0.228873 0.159283 0.557103
O O11 0.070430 0.153834 0.378504
O O12 0.749832 0.219725 0.302525
O O13 0.030384 0.781736 0.752514
O O14 0.474648 0.082216 0.739589
O O15 0.389299 0.000000 0.125026
O O16 0.000000 0.937915 0.000000
O O17 0.500000 0.177443 0.500000
#
# Coordination Sequence:
#
# PCOD9174943 Si02
#       7
#     8   8   8   8   8   8   8
#     4  10  18  32  54  81 109 140 178 237 283 312
#     4  10  21  37  55  77 117 147 184 227 277 332
#     4  12  21  34  57  82 112 151 181 229 282 334
#     4  11  23  37  55  85 118 148 186 225 282 341
#     4  11  19  35  56  84 113 141 190 230 280 333
#     4   9  20  35  57  86 112 146 196 242 278 326
#     4  11  19  35  54  82 114 139 183 231 273 336
#
# _framework density 22.721053999999999
#
# number of rings (size 3 to 8) (size 9 to 14) (size 15 to 20)
#    0.000    1.429    7.143    0.429    2.000    1.714 
#    0.000    2.143    0.000    3.429    0.000    1.000 
#    0.000    0.000    0.000    0.000    0.000    0.000 
#
# Total GULP energy -156230.020317 kJ/mol
# GULP energy per Si atom -5579.643583 kJ/mol
# Density = 2.266934 g / cm^3
# Si number density = 22.721054 Si / 1000 Ang^3
#
#
#
# Elastic Constant Matrix: (Units=GPa)
#
#
# Indices 1 2 3 4 5 6 
#
# 1 48.3315 22.6769 30.1023 0.0035 -14.8170 0.0034
# 2 22.6769 148.3532 52.7945 0.0011 -13.7907 0.0020
# 3 30.1023 52.7945 104.7565 0.0733 -16.7935 -0.0068
# 4 0.0035 0.0011 0.0733 21.3445 -0.0004 -16.1275
# 5 -14.8170 -13.7907 -16.7935 -0.0004 19.6052 0.0026
# 6 0.0034 0.0020 -0.0068 -16.1275 0.0026 23.9845
#
#
#
# Elastic Compliance Matrix: (Units=1/GPa)
#
#
# Indices 1 2 3 4 5 6 
#
# 1 0.029743 -0.001080 -0.005241 0.000016 0.017231 0.000003
# 2 -0.001080 0.008368 -0.003587 0.000022 0.001998 0.000013
# 3 -0.005241 -0.003587 0.013702 -0.000087 0.005253 -0.000054
# 4 0.000016 0.000022 -0.000087 0.095237 -0.000053 0.064039
# 5 0.017231 0.001998 0.005253 -0.000053 0.069934 -0.000044
# 6 0.000003 0.000013 -0.000054 0.064039 -0.000044 0.084754
#
#
# Mechanical properties :
#
#
# Convention : Reuss Voigt Hill
#
# Bulk Modulus (GPa) = 31.25107 56.95430 44.10268
# Shear Modulus (GPa) = 15.05034 26.04467 20.54750
#
# Velocity S-wave (km/s) = 2.57650 3.38935 3.01048
# Velocity P-wave (km/s) = 4.75765 6.35909 5.61575
#
# Compressibility (1/GPa) = 0.03199891
#
# Stress axis : x y z
#
# Youngs Moduli (GPa) = 33.62084 119.50564 72.98440
#
# Poissons Ratio (x) = 0.12905 0.38248
# Poissons Ratio (y) = 0.03630 0.26177
# Poissons Ratio (z) = 0.17619 0.42862
#
# Static dielectric constant tensor:
#      x y z
#    x 1.893300 -0.000020 -0.041500 
#    y -0.000020 1.891580 -0.000040 
#    z -0.041500 -0.000040 1.922670 
# 
# From -- ./inp_files/362211.got.cif
#   From: 2010.05.17/outbox.cif.g08.bks.cpg/sg12_182_cif.got.tgz:362211.got - 2010.06.03 13:09:07.
