data_PCOD9174954
_publ_section_title
;
Structure prediction by ZEFSAII (Michael W. Deem and Ramdas Pophale) SiO2 
 PCOD9174954
Probable space group: C 2/M
;
_chemical_formula_sum "Si O2"
_cell_formula_units_Z 64
_cell_length_a 19.510684
_cell_length_b 21.039529
_cell_length_c 11.456705
_cell_angle_alpha 90.000000
_cell_angle_beta 51.516545
_cell_angle_gamma 90.000000
_cell_volume 3681.394288
_symmetry_space_group_name_H-M "C 2/M"
_symmetry_group_IT_number 12
_symmetry_cell_setting 'monoclinic'
loop_
_space_group_symop_operation_xyz
x,y,z
-x,y,-z
-x,-y,-z
x,-y,z
1/2+x,1/2+y,z
1/2-x,1/2+y,-z
1/2-x,1/2-y,-z
1/2+x,1/2-y,z
loop_
_atom_site_type_symbol
_atom_site_label
_atom_site_fract_x
_atom_site_fract_y
_atom_site_fract_z
Si Si1 0.282600 0.924656 0.220789
Si Si2 0.326076 0.313364 0.022461
Si Si3 0.914644 0.071394 0.508499
Si Si4 0.340384 0.163394 0.948720
Si Si5 0.487093 0.182756 0.376079
Si Si6 0.992169 0.821780 0.271236
Si Si7 0.183776 0.340814 0.598394
Si Si8 0.160352 0.797668 0.724255
O O1 0.177101 0.912999 0.331407
O O2 0.315457 0.898607 0.311397
O O3 0.297578 0.000000 0.192412
O O4 0.326409 0.884244 0.070811
O O5 0.238884 0.341436 0.058855
O O6 0.328185 0.321869 0.157925
O O7 0.333224 0.236813 0.998170
O O8 0.409944 0.340328 0.865760
O O9 0.000000 0.071679 0.500000
O O10 0.937838 0.122916 0.388349
O O11 0.904157 0.000000 0.471869
O O12 0.432161 0.155759 0.785012
O O13 0.500000 0.168341 0.500000
O O14 0.491462 0.259459 0.354003
O O15 0.396874 0.161629 0.408114
O O16 0.939432 0.803847 0.210967
O O17 0.181719 0.276780 0.680215
O O18 0.272775 0.335192 0.430228
#
# Coordination Sequence:
#
# PCOD9174954 Si02
#       8
#     8   8   8   8   8   8   8   8
#     4  11  22  39  60  81 114 150 194 238 278 338
#     4  10  19  32  54  81 117 146 176 234 285 336
#     4  10  20  34  54  79 112 149 187 227 264 330
#     4  10  21  35  53  82 111 145 189 231 283 335
#     4  10  21  35  56  83 112 144 183 241 291 342
#     4  10  19  31  53  84 112 149 181 223 280 340
#     4  10  20  34  56  81 110 148 187 233 287 331
#     4  10  18  32  54  81 116 143 179 235 281 335
#
# _framework density 17.384716999999998
#
# number of rings (size 3 to 8) (size 9 to 14) (size 15 to 20)
#    0.000    1.875    2.500    2.250    0.000    2.500 
#    0.000    1.250    0.000    6.750    0.000    0.000 
#    0.000    0.000    0.000    0.000    0.000    0.000 
#
# Total GULP energy -178440.657221 kJ/mol
# GULP energy per Si atom -5576.270538 kJ/mol
# Density = 1.734515 g / cm^3
# Si number density = 17.384717 Si / 1000 Ang^3
#
#
#
# Elastic Constant Matrix: (Units=GPa)
#
#
# Indices 1 2 3 4 5 6 
#
# 1 87.5580 14.7817 41.3107 0.0000 -1.3388 0.0000
# 2 14.7817 51.2326 47.1714 0.0000 4.1516 0.0000
# 3 41.3107 47.1714 83.6060 0.0000 -2.6896 0.0000
# 4 0.0000 0.0000 0.0000 20.9343 0.0000 0.2657
# 5 -1.3388 4.1516 -2.6896 0.0000 33.8841 0.0000
# 6 0.0000 0.0000 0.0000 0.2657 0.0000 14.5911
#
#
#
# Elastic Compliance Matrix: (Units=1/GPa)
#
#
# Indices 1 2 3 4 5 6 
#
# 1 0.015607 0.005621 -0.010913 0.000000 -0.000938 0.000000
# 2 0.005621 0.044278 -0.027998 0.000000 -0.007425 0.000000
# 3 -0.010913 -0.027998 0.033332 0.000000 0.005645 0.000000
# 4 0.000000 0.000000 0.000000 0.047780 0.000000 -0.000870
# 5 -0.000938 -0.007425 0.005645 0.000000 0.030833 0.000000
# 6 0.000000 0.000000 0.000000 -0.000870 0.000000 0.068551
#
#
# Mechanical properties :
#
#
# Convention : Reuss Voigt Hill
#
# Bulk Modulus (GPa) = 37.54383 47.65824 42.60104
# Shear Modulus (GPa) = 15.83089 21.82408 18.82748
#
# Velocity S-wave (km/s) = 3.02092 3.54695 3.29445
# Velocity P-wave (km/s) = 5.81470 6.65191 6.24734
#
# Compressibility (1/GPa) = 0.02663553
#
# Stress axis : x y z
#
# Youngs Moduli (GPa) = 64.07546 22.58482 30.00145
#
# Poissons Ratio (x) = -0.12696 0.32741
# Poissons Ratio (y) = -0.36019 0.83999
# Poissons Ratio (z) = 0.69927 0.63234
#
# Static dielectric constant tensor:
#      x y z
#    x 1.610330 0.000000 -0.007830 
#    y 0.000000 1.585540 0.000000 
#    z -0.007830 0.000000 1.573310 
# 
# From -- ./inp_files/159555.got.cif
#   From: 2010.05.17/outbox.cif.g08.bks.cpg/sg12_80_cif.got.tgz:159555.got - 2010.06.03 13:09:07.
