data_PCOD9174691
_publ_section_title
;
Structure prediction by ZEFSAII (Michael W. Deem and Ramdas Pophale) SiO2 
 PCOD9174691
Probable space group: C 2/M
;
_chemical_formula_sum "Si O2"
_cell_formula_units_Z 64
_cell_length_a 25.950061
_cell_length_b 24.341726
_cell_length_c 12.293066
_cell_angle_alpha 90.000000
_cell_angle_beta 149.663423
_cell_angle_gamma 90.000000
_cell_volume 3922.012944
_symmetry_space_group_name_H-M "C 2/M"
_symmetry_group_IT_number 12
_symmetry_cell_setting 'monoclinic'
loop_
_space_group_symop_operation_xyz
x,y,z
-x,y,-z
-x,-y,-z
x,-y,z
1/2+x,1/2+y,z
1/2-x,1/2+y,-z
1/2-x,1/2-y,-z
1/2+x,1/2-y,z
loop_
_atom_site_type_symbol
_atom_site_label
_atom_site_fract_x
_atom_site_fract_y
_atom_site_fract_z
Si Si1 0.885430 0.222340 0.965388
Si Si2 0.110521 0.233062 0.453461
Si Si3 0.711654 0.214269 0.830759
Si Si4 0.365601 0.938819 0.488892
Si Si5 0.110512 0.437687 0.948610
Si Si6 0.378200 0.098037 0.273535
Si Si7 0.300512 0.838382 0.751671
Si Si8 0.776975 0.335050 0.454060
O O1 0.805651 0.210317 0.917521
O O2 0.872952 0.286229 0.909862
O O3 0.838309 0.185299 0.782788
O O4 0.999780 0.214845 0.213547
O O5 0.121283 0.257870 0.594759
O O6 0.190435 0.183371 0.590409
O O7 0.153420 0.282919 0.456015
O O8 0.675882 0.156250 0.810818
O O9 0.750000 0.250000 0.000000
O O10 0.487319 0.931533 0.729401
O O11 0.350068 0.935606 0.330407
O O12 0.308065 0.888403 0.441076
O O13 0.336845 0.000000 0.475309
O O14 0.135359 0.500000 0.026770
O O15 0.142477 0.428599 0.881003
O O16 0.161471 0.391578 0.115724
O O17 0.500000 0.106373 0.500000
O O18 0.294682 0.846571 0.612273
#
# Coordination Sequence:
#
# PCOD9174691 Si02
#       8
#     8   8   8   8   8   8   8   8
#     4  10  20  34  52  75 106 138 175 210 256 313
#     4  10  20  34  52  77 104 140 172 212 256 311
#     4  10  20  30  48  79 110 136 171 207 258 306
#     4  10  19  33  52  77 104 135 173 212 259 314
#     4  10  21  34  52  77 104 138 174 210 263 316
#     4  10  18  32  52  72 105 135 166 210 254 308
#     4  10  21  34  52  75 107 135 173 216 260 305
#     4  10  20  35  50  78 106 136 172 216 259 307
#
# _framework density 16.318151
#
# number of rings (size 3 to 8) (size 9 to 14) (size 15 to 20)
#    0.000    2.250    2.500    4.125    3.500    5.500 
#    0.000    1.250    0.000    0.750    0.000    2.625 
#    0.000    0.000    0.000    0.000    0.000    0.000 
#
# Total GULP energy -178426.548391 kJ/mol
# GULP energy per Si atom -5575.829637 kJ/mol
# Density = 1.628101 g / cm^3
# Si number density = 16.318151 Si / 1000 Ang^3
#
#
#
# Elastic Constant Matrix: (Units=GPa)
#
#
# Indices 1 2 3 4 5 6 
#
# 1 21.0622 29.5897 23.7987 0.0000 -11.3088 0.0000
# 2 29.5897 133.3028 48.9012 0.0000 -8.6454 0.0000
# 3 23.7987 48.9012 89.2967 0.0000 -8.7427 0.0000
# 4 0.0000 0.0000 0.0000 21.0183 0.0000 1.0964
# 5 -11.3088 -8.6454 -8.7427 0.0000 18.9930 0.0000
# 6 0.0000 0.0000 0.0000 1.0964 0.0000 8.6068
#
#
#
# Elastic Compliance Matrix: (Units=1/GPa)
#
#
# Indices 1 2 3 4 5 6 
#
# 1 0.121285 -0.016806 -0.017592 0.000000 0.056467 0.000000
# 2 -0.016806 0.011789 -0.002546 0.000000 -0.005812 0.000000
# 3 -0.017592 -0.002546 0.016904 0.000000 -0.003852 0.000000
# 4 0.000000 0.000000 0.000000 0.047896 0.000000 -0.006102
# 5 0.056467 -0.005812 -0.003852 0.000000 0.081853 0.000000
# 6 0.000000 0.000000 0.000000 -0.006102 0.000000 0.116965
#
#
# Mechanical properties :
#
#
# Convention : Reuss Voigt Hill
#
# Bulk Modulus (GPa) = 13.14236 49.80455 31.47346
# Shear Modulus (GPa) = 10.08177 19.14844 14.61511
#
# Velocity S-wave (km/s) = 2.48831 3.42927 2.99596
# Velocity P-wave (km/s) = 4.04065 6.80199 5.59437
#
# Compressibility (1/GPa) = 0.07608983
#
# Stress axis : x y z
#
# Youngs Moduli (GPa) = 8.24504 84.82227 59.15685
#
# Poissons Ratio (x) = 1.42556 1.04068
# Poissons Ratio (y) = 0.13857 0.15062
# Poissons Ratio (z) = 0.14505 0.21597
#
# Static dielectric constant tensor:
#      x y z
#    x 1.562460 0.000000 -0.018070 
#    y 0.000000 1.538280 0.000000 
#    z -0.018070 0.000000 1.554600 
# 
# From -- ./inp_files/184991.got.cif
#   From: 2010.05.17/outbox.cif.g08.bks.cpg/sg12_93_cif.got.tgz:184991.got - 2010.06.03 13:09:07.
