data_PCOD9174742
_publ_section_title
;
Structure prediction by ZEFSAII (Michael W. Deem and Ramdas Pophale) SiO2 
 PCOD9174742
Probable space group: C 2/M
;
_chemical_formula_sum "Si O2"
_cell_formula_units_Z 56
_cell_length_a 22.204667
_cell_length_b 8.176472
_cell_length_c 19.708052
_cell_angle_alpha 90.000000
_cell_angle_beta 133.437445
_cell_angle_gamma 90.000000
_cell_volume 2598.158210
_symmetry_space_group_name_H-M "C 2/M"
_symmetry_group_IT_number 12
_symmetry_cell_setting 'monoclinic'
loop_
_space_group_symop_operation_xyz
x,y,z
-x,y,-z
-x,-y,-z
x,-y,z
1/2+x,1/2+y,z
1/2-x,1/2+y,-z
1/2-x,1/2-y,-z
1/2+x,1/2-y,z
loop_
_atom_site_type_symbol
_atom_site_label
_atom_site_fract_x
_atom_site_fract_y
_atom_site_fract_z
Si Si1 0.469328 0.808392 0.053884
Si Si2 0.480638 0.802435 0.278685
Si Si3 0.810638 0.193735 0.106243
Si Si4 0.606734 0.799913 0.269308
Si Si5 0.243313 0.187157 0.695501
Si Si6 0.065009 0.695874 0.606026
Si Si7 0.194520 0.184177 0.125448
O O1 0.539512 0.748988 0.159959
O O2 0.453797 0.000000 0.056578
O O3 0.500000 0.794159 0.000000
O O4 0.381819 0.716962 0.983816
O O5 0.405859 0.743447 0.172521
O O6 0.567104 0.752199 0.310692
O O7 0.459709 0.740613 0.338146
O O8 0.479322 0.000000 0.278451
O O9 0.777358 0.286231 0.146988
O O10 0.803212 0.000000 0.109939
O O11 0.750000 0.250000 0.000000
O O12 0.698333 0.742129 0.318791
O O13 0.610060 0.000000 0.269216
O O14 0.157758 0.269392 0.651592
O O15 0.301908 0.196515 0.807790
O O16 0.223587 0.000000 0.664503
O O17 0.056617 0.500000 0.603503
O O18 0.000000 0.758517 0.500000
O O19 0.190735 0.000000 0.148426
#
# Coordination Sequence:
#
# PCOD9174742 Si02
#       7
#     8   8   8   8   8   8   8
#     4  10  18  32  52  77 114 160 207 251 297 351
#     4  10  20  38  62  87 119 160 204 250 304 370
#     4  12  24  38  57  84 120 162 206 253 303 357
#     4   9  19  35  57  84 116 158 202 247 301 358
#     4  11  21  38  62  87 115 152 200 252 304 364
#     4  10  22  41  65  92 121 155 199 255 318 377
#     4  12  23  35  53  82 118 159 206 253 300 354
#
# _framework density 21.553729000000001
#
# number of rings (size 3 to 8) (size 9 to 14) (size 15 to 20)
#    0.000    1.429    2.857    3.857    0.000    1.714 
#    0.000    2.143    0.000    0.000    0.000    0.000 
#    0.000    0.000    0.000    0.000    0.000    0.000 
#
# Total GULP energy -156377.492799 kJ/mol
# GULP energy per Si atom -5584.910457 kJ/mol
# Density = 2.150467 g / cm^3
# Si number density = 21.553729 Si / 1000 Ang^3
#
#
#
# Elastic Constant Matrix: (Units=GPa)
#
#
# Indices 1 2 3 4 5 6 
#
# 1 158.2213 3.3065 52.2625 0.0000 6.7271 0.0000
# 2 3.3065 32.1541 0.7647 0.0000 -2.0366 0.0000
# 3 52.2625 0.7647 82.9037 0.0000 -0.1960 0.0000
# 4 0.0000 0.0000 0.0000 14.3843 0.0000 5.7616
# 5 6.7271 -2.0366 -0.1960 0.0000 17.9817 0.0000
# 6 0.0000 0.0000 0.0000 5.7616 0.0000 18.1623
#
#
#
# Elastic Compliance Matrix: (Units=1/GPa)
#
#
# Indices 1 2 3 4 5 6 
#
# 1 0.008179 -0.000922 -0.005155 0.000000 -0.003221 0.000000
# 2 -0.000922 0.031436 0.000301 0.000000 0.003909 0.000000
# 3 -0.005155 0.000301 0.015314 0.000000 0.002130 0.000000
# 4 0.000000 0.000000 0.000000 0.079640 0.000000 -0.025264
# 5 -0.003221 0.003909 0.002130 0.000000 0.057283 0.000000
# 6 0.000000 0.000000 0.000000 -0.025264 0.000000 0.063074
#
#
# Mechanical properties :
#
#
# Convention : Reuss Voigt Hill
#
# Bulk Modulus (GPa) = 23.05467 42.88296 32.96882
# Shear Modulus (GPa) = 17.79752 24.56868 21.18310
#
# Velocity S-wave (km/s) = 2.87667 3.37987 3.13837
# Velocity P-wave (km/s) = 4.66403 5.93047 5.33496
#
# Compressibility (1/GPa) = 0.04337516
#
# Stress axis : x y z
#
# Youngs Moduli (GPa) = 122.25899 31.81115 65.29803
#
# Poissons Ratio (x) = 0.02935 0.33664
# Poissons Ratio (y) = 0.11278 -0.01964
# Poissons Ratio (z) = 0.63029 -0.00957
#
# Static dielectric constant tensor:
#      x y z
#    x 1.843200 0.000000 -0.000210 
#    y 0.000000 1.752460 0.000000 
#    z -0.000210 0.000000 1.762400 
# 
# From -- ./inp_files/320208.got.cif
#   From: 2010.05.17/outbox.cif.g08.bks.cpg/sg12_161_cif.got.tgz:320208.got - 2010.06.03 13:09:07.
