data_PCOD9174611
_publ_section_title
;
Structure prediction by ZEFSAII (Michael W. Deem and Ramdas Pophale) SiO2 
 PCOD9174611
Probable space group: C 2/M
;
_chemical_formula_sum "Si O2"
_cell_formula_units_Z 64
_cell_length_a 21.371563
_cell_length_b 14.510049
_cell_length_c 13.799784
_cell_angle_alpha 90.000000
_cell_angle_beta 55.641714
_cell_angle_gamma 90.000000
_cell_volume 3532.705817
_symmetry_space_group_name_H-M "C 2/M"
_symmetry_group_IT_number 12
_symmetry_cell_setting 'monoclinic'
loop_
_space_group_symop_operation_xyz
x,y,z
-x,y,-z
-x,-y,-z
x,-y,z
1/2+x,1/2+y,z
1/2-x,1/2+y,-z
1/2-x,1/2-y,-z
1/2+x,1/2-y,z
loop_
_atom_site_type_symbol
_atom_site_label
_atom_site_fract_x
_atom_site_fract_y
_atom_site_fract_z
Si Si1 0.547989 0.897688 0.257125
Si Si2 0.001790 0.693934 0.111353
Si Si3 0.821856 0.107975 0.613738
Si Si4 0.351535 0.602439 0.362496
Si Si5 0.510699 0.400330 0.107325
Si Si6 0.127796 0.395142 0.519701
Si Si7 0.913285 0.263787 0.613403
Si Si8 0.174078 0.300078 0.673007
O O1 0.542957 0.875410 0.148046
O O2 0.460859 0.897253 0.370861
O O3 0.586670 0.817035 0.285016
O O4 0.578984 0.000000 0.249254
O O5 0.038555 0.795506 0.098183
O O6 0.912463 0.695452 0.215681
O O7 0.000000 0.671414 0.000000
O O8 0.856820 0.118803 0.473810
O O9 0.873083 0.165550 0.642628
O O10 0.737928 0.151385 0.680824
O O11 0.818788 0.000000 0.637494
O O12 0.317880 0.500000 0.379152
O O13 0.432665 0.599333 0.237338
O O14 0.310630 0.691627 0.354631
O O15 0.548815 0.500000 0.097969
O O16 0.500000 0.402514 0.000000
O O17 0.149068 0.500000 0.479027
O O18 0.129945 0.328749 0.425990
O O19 0.171851 0.353859 0.572721
O O20 0.000000 0.254836 0.500000
#
# Coordination Sequence:
#
# PCOD9174611 Si02
#       8
#     8   8   8   8   8   8   8   8
#     4   9  18  32  49  72 102 130 166 212 254 306
#     4   9  18  32  55  83 105 129 164 211 262 311
#     4  11  22  34  48  71 105 139 173 212 257 309
#     4   9  17  28  45  70 102 136 169 205 250 303
#     4   8  14  26  45  70 101 134 165 200 244 292
#     4   9  16  28  48  72  97 130 166 201 250 304
#     4  10  20  33  49  67  96 138 176 210 244 295
#     4  10  18  32  50  74 108 136 164 209 263 312
#
# _framework density 18.116423999999999
#
# number of rings (size 3 to 8) (size 9 to 14) (size 15 to 20)
#    0.000    2.625    1.250    1.125    1.750    2.500 
#    0.000    1.250    0.000    0.750    0.000    0.000 
#    0.000    0.000    0.000    0.000    0.000    0.000 
#
# Total GULP energy -178157.307794 kJ/mol
# GULP energy per Si atom -5567.415869 kJ/mol
# Density = 1.807519 g / cm^3
# Si number density = 18.116424 Si / 1000 Ang^3
#
#
#
# Elastic Constant Matrix: (Units=GPa)
#
#
# Indices 1 2 3 4 5 6 
#
# 1 55.8448 33.8009 9.6156 0.0000 14.6011 0.0000
# 2 33.8009 137.1254 20.7537 0.0000 18.6113 0.0000
# 3 9.6156 20.7537 48.6854 0.0000 8.2473 0.0000
# 4 0.0000 0.0000 0.0000 30.5432 0.0000 9.2054
# 5 14.6011 18.6113 8.2473 0.0000 14.9915 0.0000
# 6 0.0000 0.0000 0.0000 9.2054 0.0000 19.7729
#
#
#
# Elastic Compliance Matrix: (Units=1/GPa)
#
#
# Indices 1 2 3 4 5 6 
#
# 1 0.025337 -0.003476 -0.000081 0.000000 -0.020318 0.000000
# 2 -0.003476 0.009444 -0.002125 0.000000 -0.007171 0.000000
# 3 -0.000081 -0.002125 0.023160 0.000000 -0.010025 0.000000
# 4 0.000000 0.000000 0.000000 0.038084 0.000000 -0.017730
# 5 -0.020318 -0.007171 -0.010025 0.000000 0.100910 0.000000
# 6 0.000000 0.000000 0.000000 -0.017730 0.000000 0.058829
#
#
# Mechanical properties :
#
#
# Convention : Reuss Voigt Hill
#
# Bulk Modulus (GPa) = 21.46908 41.11065 31.28986
# Shear Modulus (GPa) = 17.68959 24.89386 21.29173
#
# Velocity S-wave (km/s) = 3.12819 3.71091 3.43194
# Velocity P-wave (km/s) = 4.99237 6.41116 5.74572
#
# Compressibility (1/GPa) = 0.04657862
#
# Stress axis : x y z
#
# Youngs Moduli (GPa) = 39.46871 105.88623 43.17806
#
# Poissons Ratio (x) = 0.36801 0.00348
# Poissons Ratio (y) = 0.13717 0.09174
# Poissons Ratio (z) = 0.00319 0.22498
#
# Static dielectric constant tensor:
#      x y z
#    x 1.617150 0.000000 -0.018780 
#    y 0.000000 1.673320 0.000000 
#    z -0.018780 0.000000 1.621890 
# 
# From -- ./inp_files/176101.got.cif
#   From: 2010.05.17/outbox.cif.g08.bks.cpg/sg12_89_cif.got.tgz:176101.got - 2010.06.03 13:09:07.
