data_PCOD9174906
_publ_section_title
;
Structure prediction by ZEFSAII (Michael W. Deem and Ramdas Pophale) SiO2 
 PCOD9174906
Probable space group: C 2/M
;
_chemical_formula_sum "Si O2"
_cell_formula_units_Z 56
_cell_length_a 14.640876
_cell_length_b 9.239086
_cell_length_c 21.305366
_cell_angle_alpha 90.000000
_cell_angle_beta 118.481787
_cell_angle_gamma 90.000000
_cell_volume 2533.135984
_symmetry_space_group_name_H-M "C 2/M"
_symmetry_group_IT_number 12
_symmetry_cell_setting 'monoclinic'
loop_
_space_group_symop_operation_xyz
x,y,z
-x,y,-z
-x,-y,-z
x,-y,z
1/2+x,1/2+y,z
1/2-x,1/2+y,-z
1/2-x,1/2-y,-z
1/2+x,1/2-y,z
loop_
_atom_site_type_symbol
_atom_site_label
_atom_site_fract_x
_atom_site_fract_y
_atom_site_fract_z
Si Si1 0.647499 0.667658 0.446327
Si Si2 0.555776 0.173700 0.200278
Si Si3 0.717695 0.333451 0.331288
Si Si4 0.226788 0.166453 0.091161
Si Si5 0.089538 0.333262 0.954769
Si Si6 0.379451 0.669166 0.223140
Si Si7 0.081993 0.830675 0.615154
O O1 0.657436 0.500000 0.467954
O O2 0.750000 0.750000 0.500000
O O3 0.646848 0.671794 0.370277
O O4 0.535939 0.720096 0.434187
O O5 0.662113 0.242672 0.258859
O O6 0.513573 0.210802 0.117107
O O7 0.469122 0.238592 0.218752
O O8 0.559420 0.000000 0.205967
O O9 0.730273 0.500000 0.316627
O O10 0.827904 0.264002 0.385315
O O11 0.318762 0.168716 0.068130
O O12 0.272179 0.265068 0.161595
O O13 0.211969 0.000000 0.105449
O O14 0.127818 0.233031 0.023408
O O15 0.080783 0.500000 0.972483
O O16 0.387391 0.500000 0.207526
O O17 0.394891 0.678060 0.302604
O O18 0.089643 0.000000 0.599732
#
# Coordination Sequence:
#
# PCOD9174906 Si02
#       7
#     8   8   8   8   8   8   8
#     4  10  23  44  66  92 125 158 195 238 290 350
#     4  10  19  32  54  82 113 152 200 246 296 355
#     4  11  23  40  62  91 124 157 199 245 294 350
#     4   9  16  25  41  71 107 145 195 246 295 354
#     4   8  15  26  41  68 105 146 192 241 293 352
#     4  10  18  32  54  78 113 155 196 247 299 349
#     4  10  22  41  62  88 123 160 200 242 292 353
#
# _framework density 22.106985000000002
#
# number of rings (size 3 to 8) (size 9 to 14) (size 15 to 20)
#    0.000    2.286    1.429    2.571    0.000    7.429 
#    0.000    2.857    0.000    0.857    0.000    6.000 
#    0.000    0.000    0.000    0.000    0.000    0.000 
#
# Total GULP energy -156539.908886 kJ/mol
# GULP energy per Si atom -5590.711032 kJ/mol
# Density = 2.205667 g / cm^3
# Si number density = 22.106985 Si / 1000 Ang^3
#
#
#
# Elastic Constant Matrix: (Units=GPa)
#
#
# Indices 1 2 3 4 5 6 
#
# 1 91.3143 23.9628 31.7742 0.0000 16.6361 0.0000
# 2 23.9628 80.8262 53.3874 0.0000 16.2793 0.0000
# 3 31.7742 53.3874 114.3295 0.0000 32.7281 0.0000
# 4 0.0000 0.0000 0.0000 35.0684 0.0000 11.0488
# 5 16.6361 16.2793 32.7281 0.0000 43.8552 0.0000
# 6 0.0000 0.0000 0.0000 11.0488 0.0000 17.1616
#
#
#
# Elastic Compliance Matrix: (Units=1/GPa)
#
#
# Indices 1 2 3 4 5 6 
#
# 1 0.012592 -0.002008 -0.001791 0.000000 -0.002695 0.000000
# 2 -0.002008 0.018220 -0.007925 0.000000 -0.000088 0.000000
# 3 -0.001791 -0.007925 0.015143 0.000000 -0.007680 0.000000
# 4 0.000000 0.000000 0.000000 0.035772 0.000000 -0.023030
# 5 -0.002695 -0.000088 -0.007680 0.000000 0.029589 0.000000
# 6 0.000000 0.000000 0.000000 -0.023030 0.000000 0.073096
#
#
# Mechanical properties :
#
#
# Convention : Reuss Voigt Hill
#
# Bulk Modulus (GPa) = 44.42659 56.07985 50.25322
# Shear Modulus (GPa) = 23.21686 31.04010 27.12848
#
# Velocity S-wave (km/s) = 3.24420 3.75118 3.50686
# Velocity P-wave (km/s) = 5.84576 6.64713 6.25928
#
# Compressibility (1/GPa) = 0.02250904
#
# Stress axis : x y z
#
# Youngs Moduli (GPa) = 79.41477 54.88596 66.03538
#
# Poissons Ratio (x) = 0.11019 0.11824
# Poissons Ratio (y) = 0.15944 0.52332
# Poissons Ratio (z) = 0.14219 0.43496
#
# Static dielectric constant tensor:
#      x y z
#    x 1.851770 0.000000 -0.008760 
#    y 0.000000 1.740080 0.000000 
#    z -0.008760 0.000000 1.826210 
# 
# From -- ./inp_files/339024.got.cif
#   From: 2010.05.17/outbox.cif.g08.bks.cpg/sg12_170_cif.got.tgz:339024.got - 2010.06.03 13:09:07.
