data_PCOD9174755
_publ_section_title
;
Structure prediction by ZEFSAII (Michael W. Deem and Ramdas Pophale) SiO2 
 PCOD9174755
Probable space group: C 2/M
;
_chemical_formula_sum "Si O2"
_cell_formula_units_Z 56
_cell_length_a 13.775115
_cell_length_b 14.322302
_cell_length_c 20.256563
_cell_angle_alpha 90.000000
_cell_angle_beta 38.320938
_cell_angle_gamma 90.000000
_cell_volume 2478.058652
_symmetry_space_group_name_H-M "C 2/M"
_symmetry_group_IT_number 12
_symmetry_cell_setting 'monoclinic'
loop_
_space_group_symop_operation_xyz
x,y,z
-x,y,-z
-x,-y,-z
x,-y,z
1/2+x,1/2+y,z
1/2-x,1/2+y,-z
1/2-x,1/2-y,-z
1/2+x,1/2-y,z
loop_
_atom_site_type_symbol
_atom_site_label
_atom_site_fract_x
_atom_site_fract_y
_atom_site_fract_z
Si Si1 0.735298 0.639629 0.498971
Si Si2 0.025518 0.763183 0.856514
Si Si3 0.941467 0.892830 0.277309
Si Si4 0.891128 0.394472 0.279483
Si Si5 0.687915 0.752468 0.209399
Si Si6 0.933032 0.811677 0.599408
Si Si7 0.339738 0.394903 0.042486
O O1 0.750000 0.750000 0.500000
O O2 0.697962 0.606749 0.593551
O O3 0.861631 0.614450 0.374694
O O4 0.568070 0.619475 0.552842
O O5 0.002761 0.676241 0.819973
O O6 0.136564 0.729400 0.857662
O O7 0.105723 0.840265 0.765041
O O8 0.880186 0.819027 0.964732
O O9 0.088833 0.828934 0.225324
O O10 0.987915 0.000000 0.241070
O O11 0.931349 0.500000 0.243514
O O12 0.721545 0.366488 0.338840
O O13 0.598227 0.760046 0.326034
O O14 0.712845 0.849095 0.158595
O O15 0.000000 0.761601 0.500000
O O16 0.304177 0.500000 0.038945
O O17 0.500000 0.401046 0.000000
#
# Coordination Sequence:
#
# PCOD9174755 Si02
#       7
#     8   8   8   8   8   8   8
#     4  10  18  32  52  79 115 151 186 235 284 339
#     4  10  20  36  57  86 119 151 193 248 294 339
#     4  11  22  37  61  89 116 155 200 239 290 355
#     4  10  19  33  54  81 114 152 191 231 287 349
#     4   9  20  36  58  87 118 152 193 247 291 339
#     4   8  17  30  53  80 108 149 186 229 282 341
#     4   9  18  36  61  84 111 155 202 236 286 355
#
# _framework density 22.598334000000001
#
# number of rings (size 3 to 8) (size 9 to 14) (size 15 to 20)
#    0.000    2.429    1.429    0.857    0.000    8.857 
#    0.000    1.429    0.000    5.571    0.000    0.000 
#    0.000    0.000    0.000    0.000    0.000    0.000 
#
# Total GULP energy -155886.159744 kJ/mol
# GULP energy per Si atom -5567.362848 kJ/mol
# Density = 2.254690 g / cm^3
# Si number density = 22.598334 Si / 1000 Ang^3
#
#
#
# Elastic Constant Matrix: (Units=GPa)
#
#
# Indices 1 2 3 4 5 6 
#
# 1 69.7702 17.5923 -4.6396 -0.0001 -7.9814 0.0000
# 2 17.5923 184.7534 57.5510 -0.0001 10.7107 0.0000
# 3 -4.6396 57.5510 129.8674 -0.0004 16.9763 0.0001
# 4 -0.0001 -0.0001 -0.0004 19.9970 0.0002 -1.6270
# 5 -7.9814 10.7107 16.9763 0.0002 26.8304 -0.0001
# 6 0.0000 0.0000 0.0001 -1.6270 -0.0001 12.5895
#
#
#
# Elastic Compliance Matrix: (Units=1/GPa)
#
#
# Indices 1 2 3 4 5 6 
#
# 1 0.015451 -0.002004 0.000801 0.000000 0.004889 0.000000
# 2 -0.002004 0.006556 -0.002787 0.000000 -0.001450 0.000000
# 3 0.000801 -0.002787 0.009580 0.000000 -0.004710 0.000000
# 4 0.000000 0.000000 0.000000 0.050539 0.000000 0.006531
# 5 0.004889 -0.001450 -0.004710 0.000000 0.042285 0.000000
# 6 0.000000 0.000000 0.000000 0.006531 0.000000 0.080275
#
#
# Mechanical properties :
#
#
# Convention : Reuss Voigt Hill
#
# Bulk Modulus (GPa) = 42.36356 58.37760 50.37058
# Shear Modulus (GPa) = 22.67218 32.80920 27.74069
#
# Velocity S-wave (km/s) = 3.17088 3.81444 3.50745
# Velocity P-wave (km/s) = 5.67388 6.72969 6.22421
#
# Compressibility (1/GPa) = 0.02360519
#
# Stress axis : x y z
#
# Youngs Moduli (GPa) = 64.72198 152.53786 104.38724
#
# Poissons Ratio (x) = 0.30572 -0.08361
# Poissons Ratio (y) = 0.12972 0.29096
# Poissons Ratio (z) = -0.05184 0.42517
#
# Static dielectric constant tensor:
#      x y z
#    x 1.951960 0.000000 -0.035220 
#    y 0.000000 1.788910 0.000000 
#    z -0.035220 0.000000 1.927790 
# 
# From -- ./inp_files/342976.got.cif
#   From: 2010.05.17/outbox.cif.g08.bks.cpg/sg12_172_cif.got.tgz:342976.got - 2010.06.03 13:09:07.
