data_PCOD9174627
_publ_section_title
;
Structure prediction by ZEFSAII (Michael W. Deem and Ramdas Pophale) SiO2 
 PCOD9174627
Probable space group: C 2/M
;
_chemical_formula_sum "Si O2"
_cell_formula_units_Z 52
_cell_length_a 21.366840
_cell_length_b 12.246339
_cell_length_c 23.325643
_cell_angle_alpha 90.000000
_cell_angle_beta 150.763201
_cell_angle_gamma 90.000000
_cell_volume 2981.081304
_symmetry_space_group_name_H-M "C 2/M"
_symmetry_group_IT_number 12
_symmetry_cell_setting 'monoclinic'
loop_
_space_group_symop_operation_xyz
x,y,z
-x,y,-z
-x,-y,-z
x,-y,z
1/2+x,1/2+y,z
1/2-x,1/2+y,-z
1/2-x,1/2-y,-z
1/2+x,1/2-y,z
loop_
_atom_site_type_symbol
_atom_site_label
_atom_site_fract_x
_atom_site_fract_y
_atom_site_fract_z
Si Si1 0.910317 0.000000 0.044971
Si Si2 0.490667 0.871911 0.058535
Si Si3 0.127167 0.719543 0.728307
Si Si4 0.401027 0.815605 0.470337
Si Si5 0.802851 0.000000 0.708184
Si Si6 0.281607 0.269211 0.959481
Si Si7 0.211318 0.872872 0.691966
Si Si8 0.711925 0.500000 0.167621
O O1 0.833084 0.107855 0.998474
O O2 0.047092 0.000000 0.185823
O O3 0.904900 0.000000 0.970831
O O4 0.392643 0.805180 0.019234
O O5 0.636380 0.865180 0.196578
O O6 0.452275 0.000000 0.025463
O O7 0.500000 0.830891 0.000000
O O8 0.178110 0.813303 0.725636
O O9 0.206457 0.609196 0.778980
O O10 0.982174 0.696366 0.593008
O O11 0.159903 0.746195 0.819947
O O12 0.500000 0.858945 0.500000
O O13 0.279945 0.895213 0.376773
O O14 0.358266 0.698169 0.412075
O O15 0.811146 0.000000 0.783660
O O16 0.250000 0.250000 0.000000
O O17 0.175310 0.000000 0.664428
#
# Coordination Sequence:
#
# PCOD9174627 Si02
#       8
#     4   8   8   8   4   8   8   4
#     4  10  25  35  54  84 110 146 191 236 285 338
#     4  10  20  36  60  85 112 151 196 239 287 341
#     4  10  20  34  52  81 113 147 185 226 282 338
#     4  10  19  29  50  81 118 148 181 223 288 337
#     4  12  17  32  57  82 114 146 178 227 282 347
#     4  11  24  40  60  82 118 150 191 238 297 348
#     4  10  19  32  52  83 115 146 190 235 280 335
#     4  10  18  32  50  81 114 140 173 225 281 335
#
# _framework density 17.443335000000001
#
# number of rings (size 3 to 8) (size 9 to 14) (size 15 to 20)
#    0.000    1.692    4.615    1.846    1.077    2.769 
#    0.000    0.000    0.000    3.692    0.000    0.000 
#    0.000    0.000    0.000    0.000    0.000    0.000 
#
# Total GULP energy -144976.142157 kJ/mol
# GULP energy per Si atom -5576.005468 kJ/mol
# Density = 1.740363 g / cm^3
# Si number density = 17.443335 Si / 1000 Ang^3
#
#
#
# Elastic Constant Matrix: (Units=GPa)
#
#
# Indices 1 2 3 4 5 6 
#
# 1 84.2574 39.8895 45.5956 0.0001 -18.4886 0.0001
# 2 39.8895 121.6993 50.5134 0.0001 -1.6290 0.0002
# 3 45.5956 50.5134 156.4657 0.0004 -8.1858 0.0005
# 4 0.0001 0.0001 0.0004 19.9769 0.0001 -12.0638
# 5 -18.4886 -1.6290 -8.1858 0.0001 20.8627 0.0001
# 6 0.0001 0.0002 0.0005 -12.0638 0.0001 -35.1730
#
#
#
# Elastic Compliance Matrix: (Units=1/GPa)
#
#
# Indices 1 2 3 4 5 6 
#
# 1 0.019276 -0.004752 -0.003276 0.000000 0.015426 0.000000
# 2 -0.004752 0.010664 -0.002282 0.000000 -0.004274 0.000000
# 3 -0.003276 -0.002282 0.008087 0.000000 0.000092 0.000000
# 4 0.000000 0.000000 0.000000 0.041469 0.000000 -0.014223
# 5 0.015426 -0.004274 0.000092 0.000000 0.061305 0.000000
# 6 0.000000 0.000000 0.000000 -0.014223 0.000000 -0.023553
#
#
# Mechanical properties :
#
#
# Convention : Reuss Voigt Hill
#
# Bulk Modulus (GPa) = 57.44410 70.49105 63.96758
# Shear Modulus (GPa) = 34.80192 16.22825 25.51509
#
# Velocity S-wave (km/s) = 4.47155 3.05346 3.82873
# Velocity P-wave (km/s) = 7.72418 7.27535 7.50312
#
# Compressibility (1/GPa) = 0.01740823
#
# Stress axis : x y z
#
# Youngs Moduli (GPa) = 51.87885 93.77047 123.65087
#
# Poissons Ratio (x) = 0.44557 0.40508
# Poissons Ratio (y) = 0.24652 0.28214
# Poissons Ratio (z) = 0.16996 0.21396
#
# Static dielectric constant tensor:
#      x y z
#    x 1.576270 0.000000 -0.004320 
#    y 0.000000 1.593820 0.000000 
#    z -0.004320 0.000000 1.640030 
# 
# From -- ./inp_files/321601.got.cif
#   From: 2010.05.17/outbox.cif.g08.bks.cpg/sg12_161_cif.got.tgz:321601.got - 2010.06.03 13:09:07.
