data_PCOD9174378
_publ_section_title
;
Structure prediction by ZEFSAII (Michael W. Deem and Ramdas Pophale) SiO2 
 PCOD9174378
Probable space group: C 2/M
;
_chemical_formula_sum "Si O2"
_cell_formula_units_Z 58
_cell_length_a 30.142462
_cell_length_b 15.257368
_cell_length_c 20.219325
_cell_angle_alpha 90.000000
_cell_angle_beta 162.971941
_cell_angle_gamma 90.000000
_cell_volume 2723.048549
_symmetry_space_group_name_H-M "C 2/M"
_symmetry_group_IT_number 12
_symmetry_cell_setting 'monoclinic'
loop_
_space_group_symop_operation_xyz
x,y,z
-x,y,-z
-x,-y,-z
x,-y,z
1/2+x,1/2+y,z
1/2-x,1/2+y,-z
1/2-x,1/2-y,-z
1/2+x,1/2-y,z
loop_
_atom_site_type_symbol
_atom_site_label
_atom_site_fract_x
_atom_site_fract_y
_atom_site_fract_z
Si Si1 0.351009 0.601442 0.076493
Si Si2 0.798639 0.596389 0.380758
Si Si3 0.000000 0.000000 0.500000
Si Si4 0.352308 0.274611 0.740423
Si Si5 0.401591 0.642208 0.460726
Si Si6 0.970385 0.333627 0.384217
Si Si7 0.514944 0.398997 0.876083
Si Si8 0.319411 0.097102 0.740092
O O1 0.297028 0.500000 0.997023
O O2 0.463103 0.611855 0.297625
O O3 0.209489 0.666335 0.880656
O O4 0.440144 0.617983 0.135469
O O5 0.781477 0.500000 0.386006
O O6 0.772017 0.669314 0.397700
O O7 0.669272 0.605238 0.139974
O O8 0.955937 0.607617 0.567498
O O9 0.904092 0.923066 0.402963
O O10 0.296600 0.175070 0.655472
O O11 0.500000 0.273299 0.000000
O O12 0.406695 0.327110 0.754288
O O13 0.442947 0.740764 0.498582
O O14 0.251877 0.631684 0.292539
O O15 0.000000 0.369141 0.500000
O O16 0.459746 0.500000 0.803972
O O17 0.254588 0.000000 0.634129
O O18 0.500000 0.087739 0.000000
#
# Coordination Sequence:
#
# PCOD9174378 Si02
#       8
#     8   8   2   8   8   8   8   8
#     4  11  23  40  63  91 132 171 212 271 327 381
#     4  10  18  31  54  86 122 160 205 255 300 379
#     4  12  24  44  74  88 120 172 226 268 320 388
#     4   9  17  31  54  84 119 155 203 262 314 370
#     4  12  24  44  65  94 124 167 222 275 328 383
#     4  12  23  36  61  92 128 170 215 260 318 395
#     4   9  18  32  55  88 122 165 208 247 311 390
#     4  10  20  36  63  89 117 158 216 273 326 371
#
# _framework density 21.299658000000001
#
# number of rings (size 3 to 8) (size 9 to 14) (size 15 to 20)
#    0.000    1.517    4.828    1.241    0.000    2.207 
#    0.000    0.690    0.000    0.000    3.586    0.000 
#    0.000    0.000    0.000    0.000    0.000    0.000 
#
# Total GULP energy -161734.120799 kJ/mol
# GULP energy per Si atom -5577.038648 kJ/mol
# Density = 2.125118 g / cm^3
# Si number density = 21.299658 Si / 1000 Ang^3
#
#
#
# Elastic Constant Matrix: (Units=GPa)
#
#
# Indices 1 2 3 4 5 6 
#
# 1 66.9212 32.3612 24.1420 0.0000 32.7170 0.0000
# 2 32.3612 121.7428 -0.4528 0.0000 18.1202 0.0000
# 3 24.1420 -0.4528 49.7388 0.0000 19.2199 0.0000
# 4 0.0000 0.0000 0.0000 17.4904 0.0000 13.9180
# 5 32.7170 18.1202 19.2199 0.0000 33.5083 0.0000
# 6 0.0000 0.0000 0.0000 13.9180 0.0000 30.3230
#
#
#
# Elastic Compliance Matrix: (Units=1/GPa)
#
#
# Indices 1 2 3 4 5 6 
#
# 1 0.031419 -0.004666 -0.005670 0.000000 -0.024901 0.000000
# 2 -0.004666 0.009875 0.003415 0.000000 -0.002743 0.000000
# 3 -0.005670 0.003415 0.027574 0.000000 -0.012126 0.000000
# 4 0.000000 0.000000 0.000000 0.090072 0.000000 -0.041342
# 5 -0.024901 -0.002743 -0.012126 0.000000 0.062595 0.000000
# 6 0.000000 0.000000 0.000000 -0.041342 0.000000 0.051954
#
#
# Mechanical properties :
#
#
# Convention : Reuss Voigt Hill
#
# Bulk Modulus (GPa) = 18.17374 38.94485 28.55930
# Shear Modulus (GPa) = 16.35719 28.42116 22.38918
#
# Velocity S-wave (km/s) = 2.77421 3.65684 3.24566
# Velocity P-wave (km/s) = 4.33735 6.01281 5.24244
#
# Compressibility (1/GPa) = 0.05502444
#
# Stress axis : x y z
#
# Youngs Moduli (GPa) = 31.82785 101.26193 36.26581
#
# Poissons Ratio (x) = 0.47254 0.20564
# Poissons Ratio (y) = 0.14852 -0.12384
# Poissons Ratio (z) = 0.18047 -0.34578
#
# Static dielectric constant tensor:
#      x y z
#    x 1.739160 0.000000 -0.008950 
#    y 0.000000 1.801720 0.000000 
#    z -0.008950 0.000000 1.809860 
# 
# From -- ./inp_files/330288.got.cif
#   From: 2010.05.17/outbox.cif.g08.bks.cpg/sg12_166_cif.got.tgz:330288.got - 2010.06.03 13:09:07.
