data_PCOD9174222
_publ_section_title
;
Structure prediction by ZEFSAII (Michael W. Deem and Ramdas Pophale) SiO2 
 PCOD9174222
Probable space group: C 2/M
;
_chemical_formula_sum "Si O2"
_cell_formula_units_Z 64
_cell_length_a 28.875015
_cell_length_b 7.439209
_cell_length_c 13.547770
_cell_angle_alpha 90.000000
_cell_angle_beta 85.049554
_cell_angle_gamma 90.000000
_cell_volume 2899.303754
_symmetry_space_group_name_H-M "C 2/M"
_symmetry_group_IT_number 12
_symmetry_cell_setting 'monoclinic'
loop_
_space_group_symop_operation_xyz
x,y,z
-x,y,-z
-x,-y,-z
x,-y,z
1/2+x,1/2+y,z
1/2-x,1/2+y,-z
1/2-x,1/2-y,-z
1/2+x,1/2-y,z
loop_
_atom_site_type_symbol
_atom_site_label
_atom_site_fract_x
_atom_site_fract_y
_atom_site_fract_z
Si Si1 0.279061 0.714499 0.895469
Si Si2 0.447962 0.720109 0.302038
Si Si3 0.198327 0.712754 0.546729
Si Si4 0.300662 0.218193 0.229547
Si Si5 0.444587 0.719516 0.701341
Si Si6 0.398053 0.290687 0.115238
Si Si7 0.384753 0.279184 0.900418
Si Si8 0.601381 0.291414 0.490983
O O1 0.282657 0.500000 0.883472
O O2 0.247496 0.780173 0.810568
O O3 0.331568 0.781845 0.894335
O O4 0.250000 0.750000 0.000000
O O5 0.445271 0.500000 0.300528
O O6 0.501548 0.770803 0.304331
O O7 0.426473 0.785548 0.202648
O O8 0.418754 0.783473 0.402527
O O9 0.191999 0.500000 0.551109
O O10 0.250000 0.750000 0.500000
O O11 0.193120 0.782270 0.659625
O O12 0.157044 0.783812 0.485958
O O13 0.343960 0.278246 0.155561
O O14 0.300742 0.000000 0.230031
O O15 0.443215 0.500000 0.701716
O O16 0.416678 0.776585 0.803532
O O17 0.420130 0.784176 0.605306
O O18 0.411329 0.500000 0.106349
O O19 0.402694 0.216655 0.004113
O O20 0.384235 0.500000 0.903011
O O21 0.587243 0.500000 0.493809
#
# Coordination Sequence:
#
# PCOD9174222 Si02
#       8
#     8   8   8   8   8   8   8   8
#     4  10  19  32  51  75 103 136 175 212 256 315
#     4   9  17  30  51  81 107 136 182 228 270 314
#     4  11  24  39  56  81 111 142 178 218 267 322
#     4  10  21  35  53  76 105 140 177 214 261 325
#     4   9  18  31  51  79 111 144 177 221 274 325
#     4  10  18  31  53  79 108 137 176 226 265 307
#     4   9  18  30  47  75 109 141 173 216 270 317
#     4  10  19  34  58  81 108 142 180 224 268 318
#
# _framework density 22.074263999999999
#
# number of rings (size 3 to 8) (size 9 to 14) (size 15 to 20)
#    0.000    2.250    2.500    0.750    1.750    2.500 
#    0.000    2.500    0.000    3.000    0.000    0.875 
#    0.000    0.000    0.000    0.000    0.000    0.000 
#
# Total GULP energy -178796.271597 kJ/mol
# GULP energy per Si atom -5587.383487 kJ/mol
# Density = 2.202402 g / cm^3
# Si number density = 22.074264 Si / 1000 Ang^3
#
#
#
# Elastic Constant Matrix: (Units=GPa)
#
#
# Indices 1 2 3 4 5 6 
#
# 1 153.8219 -8.8069 98.8985 0.0000 12.3704 0.0000
# 2 -8.8069 68.5948 6.7745 0.0000 4.4572 0.0000
# 3 98.8985 6.7745 173.4841 0.0000 30.8004 0.0000
# 4 0.0000 0.0000 0.0000 -5.6174 0.0000 -0.8130
# 5 12.3704 4.4572 30.8004 0.0000 37.6194 0.0000
# 6 0.0000 0.0000 0.0000 -0.8130 0.0000 11.8032
#
#
#
# Elastic Compliance Matrix: (Units=1/GPa)
#
#
# Indices 1 2 3 4 5 6 
#
# 1 0.010589 0.001891 -0.006380 0.000000 0.001517 0.000000
# 2 0.001891 0.015043 -0.001449 0.000000 -0.001218 0.000000
# 3 -0.006380 -0.001449 0.010595 0.000000 -0.006405 0.000000
# 4 0.000000 0.000000 0.000000 -0.176260 0.000000 -0.012141
# 5 0.001517 -0.001218 -0.006405 0.000000 0.031471 0.000000
# 6 0.000000 0.000000 0.000000 -0.012141 0.000000 0.083886
#
#
# Mechanical properties :
#
#
# Convention : Reuss Voigt Hill
#
# Bulk Modulus (GPa) = 41.06561 65.51478 53.29020
# Shear Modulus (GPa) = -1067.94991 28.69668 -519.62661
#
# Velocity S-wave (km/s) = -22.01929 3.60947 -15.35937
# Velocity P-wave (km/s) = 25.05637 6.86402 17.03976
#
# Compressibility (1/GPa) = 0.02435128
#
# Stress axis : x y z
#
# Youngs Moduli (GPa) = 94.43680 66.47434 94.38544
#
# Poissons Ratio (x) = -0.12570 0.60216
# Poissons Ratio (y) = -0.17858 0.13679
# Poissons Ratio (z) = 0.60249 0.09634
#
# Static dielectric constant tensor:
#      x y z
#    x 1.799640 0.000000 0.041700 
#    y 0.000000 1.851520 0.000000 
#    z 0.041700 0.000000 1.793340 
# 
# From -- ./inp_files/182104.got.cif
#   From: 2010.05.17/outbox.cif.g08.bks.cpg/sg12_92_cif.got.tgz:182104.got - 2010.06.03 13:09:07.
