data_PCOD9174043
_publ_section_title
;
Structure prediction by ZEFSAII (Michael W. Deem and Ramdas Pophale) SiO2 
 PCOD9174043
Probable space group: C 2/M
;
_chemical_formula_sum "Si O2"
_cell_formula_units_Z 64
_cell_length_a 30.812614
_cell_length_b 13.279185
_cell_length_c 15.221189
_cell_angle_alpha 90.000000
_cell_angle_beta 35.787935
_cell_angle_gamma 90.000000
_cell_volume 3642.052138
_symmetry_space_group_name_H-M "C 2/M"
_symmetry_group_IT_number 12
_symmetry_cell_setting 'monoclinic'
loop_
_space_group_symop_operation_xyz
x,y,z
-x,y,-z
-x,-y,-z
x,-y,z
1/2+x,1/2+y,z
1/2-x,1/2+y,-z
1/2-x,1/2-y,-z
1/2+x,1/2-y,z
loop_
_atom_site_type_symbol
_atom_site_label
_atom_site_fract_x
_atom_site_fract_y
_atom_site_fract_z
Si Si1 0.689121 0.612366 0.061425
Si Si2 0.724835 0.815709 0.910818
Si Si3 0.007923 0.690867 0.844916
Si Si4 0.613176 0.120524 0.818483
Si Si5 0.522237 0.322569 0.364187
Si Si6 0.434929 0.617466 0.338123
Si Si7 0.442619 0.885810 0.775581
Si Si8 0.267232 0.379185 0.648002
O O1 0.707801 0.500000 0.001913
O O2 0.723013 0.632270 0.102272
O O3 0.600957 0.627180 0.212468
O O4 0.719706 0.698997 0.947446
O O5 0.753363 0.830587 0.765831
O O6 0.642551 0.862650 0.056829
O O7 0.079452 0.652962 0.780822
O O8 0.019209 0.806421 0.798189
O O9 0.991581 0.630025 0.782750
O O10 0.938283 0.672757 0.023381
O O11 0.698483 0.146008 0.697458
O O12 0.603753 0.000000 0.843597
O O13 0.500000 0.343668 0.500000
O O14 0.463077 0.362983 0.391159
O O15 0.533496 0.202665 0.329865
O O16 0.444440 0.500000 0.300664
O O17 0.348023 0.645149 0.477739
O O18 0.448567 0.000000 0.733402
O O19 0.265784 0.500000 0.664185
#
# Coordination Sequence:
#
# PCOD9174043 Si02
#       8
#     8   8   8   8   8   8   8   8
#     4  10  20  32  49  71  98 135 172 216 261 303
#     4  10  19  31  50  75 101 129 172 217 259 307
#     4  10  19  33  54  81 108 134 169 215 263 311
#     4  10  19  33  58  85 105 131 171 218 264 312
#     4  10  21  34  49  73 101 137 180 215 252 306
#     4  10  22  37  53  75 106 143 177 214 260 310
#     4  10  18  31  52  76 104 134 168 214 264 310
#     4  10  19  33  55  79 104 135 172 217 260 305
#
# _framework density 17.572510000000001
#
# number of rings (size 3 to 8) (size 9 to 14) (size 15 to 20)
#    0.000    2.000    1.250    3.750    0.000    2.750 
#    0.000    1.250    0.000    9.750    0.000    0.000 
#    0.000    0.000    0.000    0.000    0.000    0.000 
#
# Total GULP energy -178588.042943 kJ/mol
# GULP energy per Si atom -5580.876342 kJ/mol
# Density = 1.753251 g / cm^3
# Si number density = 17.572510 Si / 1000 Ang^3
#
#
#
# Elastic Constant Matrix: (Units=GPa)
#
#
# Indices 1 2 3 4 5 6 
#
# 1 102.0600 18.9870 19.0728 0.0000 -18.6871 0.0000
# 2 18.9870 95.0764 17.0388 0.0000 -9.6243 0.0000
# 3 19.0728 17.0388 25.1831 0.0000 -9.2139 0.0000
# 4 0.0000 0.0000 0.0000 38.6788 0.0000 5.1669
# 5 -18.6871 -9.6243 -9.2139 0.0000 23.1110 0.0000
# 6 0.0000 0.0000 0.0000 5.1669 0.0000 21.8666
#
#
#
# Elastic Compliance Matrix: (Units=1/GPa)
#
#
# Indices 1 2 3 4 5 6 
#
# 1 0.012427 -0.000610 -0.006341 0.000000 0.007266 0.000000
# 2 -0.000610 0.012083 -0.007087 0.000000 0.001713 0.000000
# 3 -0.006341 -0.007087 0.054266 0.000000 0.013557 0.000000
# 4 0.000000 0.000000 0.000000 0.026697 0.000000 -0.006308
# 5 0.007266 0.001713 0.013557 0.000000 0.055263 0.000000
# 6 0.000000 0.000000 0.000000 -0.006308 0.000000 0.047222
#
#
# Mechanical properties :
#
#
# Convention : Reuss Voigt Hill
#
# Bulk Modulus (GPa) = 19.72292 36.94631 28.33461
# Shear Modulus (GPa) = 19.76802 27.87934 23.82368
#
# Velocity S-wave (km/s) = 3.35765 3.98745 3.68603
# Velocity P-wave (km/s) = 5.12639 6.50157 5.85450
#
# Compressibility (1/GPa) = 0.05070243
#
# Stress axis : x y z
#
# Youngs Moduli (GPa) = 80.47005 82.76019 18.42761
#
# Poissons Ratio (x) = 0.05047 0.11684
# Poissons Ratio (y) = 0.04907 0.13059
# Poissons Ratio (z) = 0.51022 0.58649
#
# Static dielectric constant tensor:
#      x y z
#    x 1.605470 0.000000 -0.024650 
#    y 0.000000 1.601190 0.000000 
#    z -0.024650 0.000000 1.570740 
# 
# From -- ./inp_files/250818.got.cif
#   From: 2010.05.17/outbox.cif.g08.bks.cpg/sg12_126_cif.got.tgz:250818.got - 2010.06.03 13:09:07.
