data_PCOD9174862
_publ_section_title
;
Structure prediction by ZEFSAII (Michael W. Deem and Ramdas Pophale) SiO2 
 PCOD9174862
Probable space group: C 2/M
;
_chemical_formula_sum "Si O2"
_cell_formula_units_Z 44
_cell_length_a 14.786507
_cell_length_b 19.975689
_cell_length_c 23.624523
_cell_angle_alpha 90.000000
_cell_angle_beta 20.100383
_cell_angle_gamma 90.000000
_cell_volume 2398.098086
_symmetry_space_group_name_H-M "C 2/M"
_symmetry_group_IT_number 12
_symmetry_cell_setting 'monoclinic'
loop_
_space_group_symop_operation_xyz
x,y,z
-x,y,-z
-x,-y,-z
x,-y,z
1/2+x,1/2+y,z
1/2-x,1/2+y,-z
1/2-x,1/2-y,-z
1/2+x,1/2-y,z
loop_
_atom_site_type_symbol
_atom_site_label
_atom_site_fract_x
_atom_site_fract_y
_atom_site_fract_z
Si Si1 0.433584 0.320614 0.664430
Si Si2 0.357988 0.821673 0.885163
Si Si3 0.400136 0.319846 0.230750
Si Si4 0.766204 0.574628 0.308713
Si Si5 0.500000 0.748495 0.000000
Si Si6 0.627766 0.178743 0.508970
O O1 0.299239 0.377237 0.705771
O O2 0.568150 0.258597 0.551001
O O3 0.687045 0.346401 0.550171
O O4 0.214243 0.290109 0.836821
O O5 0.540485 0.760248 0.799654
O O6 0.533842 0.885050 0.768646
O O7 0.174302 0.793756 0.942720
O O8 0.174925 0.844403 0.045214
O O9 0.291210 0.336101 0.356313
O O10 0.171408 0.344456 0.322957
O O11 0.500000 0.569449 0.500000
O O12 0.855531 0.500000 0.240493
#
# Coordination Sequence:
#
# PCOD9174862 Si02
#       6
#     8   8   8   8   4   8
#     4  11  21  33  55  87 119 143 186 236 293 336
#     4  11  20  34  54  82 119 145 184 236 289 338
#     4  10  18  32  53  85 115 146 178 231 293 336
#     4  11  25  42  59  77 111 160 199 229 269 346
#     4  12  22  32  56  96 120 140 180 252 302 332
#     4  10  19  30  54  87 116 144 176 237 292 337
#
# _framework density 18.347873
#
# number of rings (size 3 to 8) (size 9 to 14) (size 15 to 20)
#    0.000    1.273    5.455    2.182    2.545    0.000 
#    0.000    0.909    0.000    1.091    0.000    2.545 
#    0.000    0.000    0.000    0.000    0.000    0.000 
#
# Total GULP energy -122486.274403 kJ/mol
# GULP energy per Si atom -5567.557927 kJ/mol
# Density = 1.830611 g / cm^3
# Si number density = 18.347873 Si / 1000 Ang^3
#
#
#
# Elastic Constant Matrix: (Units=GPa)
#
#
# Indices 1 2 3 4 5 6 
#
# 1 79.4969 20.1019 23.4475 0.5778 -21.5001 -0.3899
# 2 20.1019 56.3478 13.9541 0.1721 -6.9846 -0.1174
# 3 23.4475 13.9541 74.0959 1.3874 -3.0961 -0.7635
# 4 0.5778 0.1721 1.3874 -80.3389 -0.5645 64.5690
# 5 -21.5001 -6.9846 -3.0961 -0.5645 35.4071 0.3485
# 6 -0.3899 -0.1174 -0.7635 64.5690 0.3485 -34.6804
#
#
#
# Elastic Compliance Matrix: (Units=1/GPa)
#
#
# Indices 1 2 3 4 5 6 
#
# 1 0.017416 -0.003964 -0.004371 0.000036 0.009411 0.000076
# 2 -0.003964 0.019929 -0.002443 0.000004 0.001310 0.000051
# 3 -0.004371 -0.002443 0.015261 -0.000002 -0.001799 -0.000301
# 4 0.000036 0.000004 -0.000002 0.025077 -0.000037 0.046688
# 5 0.009411 0.001310 -0.001799 -0.000037 0.034056 0.000202
# 6 0.000076 0.000051 -0.000301 0.046688 0.000202 0.058099
#
#
# Mechanical properties :
#
#
# Convention : Reuss Voigt Hill
#
# Bulk Modulus (GPa) = 32.20786 36.10528 34.15657
# Shear Modulus (GPa) = 24.78370 -5.75998 9.51186
#
# Velocity S-wave (km/s) = 3.67927 -1.77373 2.27935
# Velocity P-wave (km/s) = 5.97004 3.94031 5.05804
#
# Compressibility (1/GPa) = 0.03104832
#
# Stress axis : x y z
#
# Youngs Moduli (GPa) = 57.41775 50.17905 65.52523
#
# Poissons Ratio (x) = 0.19891 0.28644
# Poissons Ratio (y) = 0.22760 0.16011
# Poissons Ratio (z) = 0.25100 0.12261
#
# Static dielectric constant tensor:
#      x y z
#    x 1.695350 0.000020 -0.011430 
#    y 0.000020 1.613990 0.000070 
#    z -0.011430 0.000070 1.649750 
# 
# From -- ./inp_files/158393.got.cif
#   From: 2010.05.17/outbox.cif.g08.bks.cpg/sg12_80_cif.got.tgz:158393.got - 2010.06.03 13:09:07.
