data_PCOD9174979
_publ_section_title
;
Structure prediction by ZEFSAII (Michael W. Deem and Ramdas Pophale) SiO2 
 PCOD9174979
Probable space group: C 2/M
;
_chemical_formula_sum "Si O2"
_cell_formula_units_Z 56
_cell_length_a 22.380082
_cell_length_b 26.707780
_cell_length_c 10.695985
_cell_angle_alpha 90.000000
_cell_angle_beta 27.560257
_cell_angle_gamma 90.000000
_cell_volume 2958.026861
_symmetry_space_group_name_H-M "C 2/M"
_symmetry_group_IT_number 12
_symmetry_cell_setting 'monoclinic'
loop_
_space_group_symop_operation_xyz
x,y,z
-x,y,-z
-x,-y,-z
x,-y,z
1/2+x,1/2+y,z
1/2-x,1/2+y,-z
1/2-x,1/2-y,-z
1/2+x,1/2-y,z
loop_
_atom_site_type_symbol
_atom_site_label
_atom_site_fract_x
_atom_site_fract_y
_atom_site_fract_z
Si Si1 0.920056 0.155996 0.528867
Si Si2 0.152727 0.891793 0.745743
Si Si3 0.043379 0.292099 0.063617
Si Si4 0.150741 0.000000 0.757070
Si Si5 0.123238 0.500000 0.864889
Si Si6 0.340581 0.309857 0.074664
Si Si7 0.199075 0.606354 0.793168
Si Si8 0.891595 0.271030 0.598049
O O1 0.810717 0.118239 0.686249
O O2 0.865588 0.211718 0.657754
O O3 0.000000 0.138009 0.500000
O O4 0.025677 0.167786 0.225332
O O5 0.172110 0.945670 0.777083
O O6 0.202851 0.847477 0.738118
O O7 0.229991 0.891652 0.473102
O O8 0.000000 0.885257 0.000000
O O9 0.140241 0.245440 0.904531
O O10 0.102884 0.346711 0.975483
O O11 0.000000 0.289381 0.000000
O O12 0.942703 0.281865 0.362769
O O13 0.246093 0.000000 0.461237
O O14 0.000000 0.000000 0.000000
O O15 0.130698 0.552163 0.926999
O O16 0.000000 0.500000 0.000000
O O17 0.238378 0.302955 0.153191
O O18 0.000000 0.283260 0.500000
#
# Coordination Sequence:
#
# PCOD9174979 Si02
#       8
#     8   8   8   4   4   8   8   8
#     4  10  22  36  56  81 111 156 196 234 281 340
#     4  10  18  32  54  85 113 143 187 230 292 340
#     4  11  23  34  55  86 121 150 184 237 301 343
#     4   8  18  34  56  80 114 151 187 230 280 353
#     4  10  22  38  61  86 115 152 196 237 291 354
#     4  11  21  34  56  83 118 148 188 239 285 352
#     4  11  21  38  58  84 118 150 187 241 288 346
#     4  10  23  38  55  81 115 162 197 227 282 359
#
# _framework density 18.931539000000001
#
# number of rings (size 3 to 8) (size 9 to 14) (size 15 to 20)
#    0.000    1.714    2.857    1.714    4.000    4.000 
#    0.000    0.357    0.000    0.000    0.000    1.000 
#    0.000    0.000    0.000    0.000    0.000    0.000 
#
# Total GULP energy -156147.188991 kJ/mol
# GULP energy per Si atom -5576.685321 kJ/mol
# Density = 1.888845 g / cm^3
# Si number density = 18.931539 Si / 1000 Ang^3
#
#
#
# Elastic Constant Matrix: (Units=GPa)
#
#
# Indices 1 2 3 4 5 6 
#
# 1 125.7164 61.8281 14.7986 -0.0060 -8.0283 -0.0037
# 2 61.8281 149.2061 20.0438 -0.0114 -13.5455 -0.0085
# 3 14.7986 20.0438 42.5702 -0.0039 6.4068 -0.0054
# 4 -0.0060 -0.0114 -0.0039 14.8747 0.0044 -14.8990
# 5 -8.0283 -13.5455 6.4068 0.0044 26.0737 0.0035
# 6 -0.0037 -0.0085 -0.0054 -14.8990 0.0035 15.3027
#
#
#
# Elastic Compliance Matrix: (Units=1/GPa)
#
#
# Indices 1 2 3 4 5 6 
#
# 1 0.010160 -0.003792 -0.001994 -0.000021 0.001648 -0.000021
# 2 -0.003792 0.009177 -0.003680 0.000202 0.004504 0.000198
# 3 -0.001994 -0.003680 0.027307 0.000627 -0.009236 0.000620
# 4 -0.000021 0.000202 0.000627 2.711967 -0.000876 2.640430
# 5 0.001648 0.004504 -0.009236 -0.000876 0.043470 -0.000864
# 6 -0.000021 0.000198 0.000620 2.640430 -0.000864 2.636129
#
#
# Mechanical properties :
#
#
# Convention : Reuss Voigt Hill
#
# Bulk Modulus (GPa) = 36.08870 56.75928 46.42399
# Shear Modulus (GPa) = 0.91468 25.97171 13.44320
#
# Velocity S-wave (km/s) = 0.69585 3.70790 2.66765
# Velocity P-wave (km/s) = 4.44407 6.95542 5.83642
#
# Compressibility (1/GPa) = 0.02770951
#
# Stress axis : x y z
#
# Youngs Moduli (GPa) = 98.42979 108.96842 36.62090
#
# Poissons Ratio (x) = 0.41325 0.07303
# Poissons Ratio (y) = 0.37329 0.13478
# Poissons Ratio (z) = 0.19628 0.40104
#
# Static dielectric constant tensor:
#      x y z
#    x 1.670570 0.000000 -0.013770 
#    y 0.000000 1.669720 0.000000 
#    z -0.013770 0.000000 1.715330 
# 
# From -- ./inp_files/80447.got.cif
#   From: 2010.05.17/outbox.cif.g08.bks.cpg/sg12_41_cif.got.tgz:80447.got - 2010.06.03 13:09:07.
