data_PCOD9174873
_publ_section_title
;
Structure prediction by ZEFSAII (Michael W. Deem and Ramdas Pophale) SiO2 
 PCOD9174873
Probable space group: C 2/M
;
_chemical_formula_sum "Si O2"
_cell_formula_units_Z 64
_cell_length_a 15.140404
_cell_length_b 7.457166
_cell_length_c 31.122004
_cell_angle_alpha 90.000000
_cell_angle_beta 60.069804
_cell_angle_gamma 90.000000
_cell_volume 3045.190807
_symmetry_space_group_name_H-M "C 2/M"
_symmetry_group_IT_number 12
_symmetry_cell_setting 'monoclinic'
loop_
_space_group_symop_operation_xyz
x,y,z
-x,y,-z
-x,-y,-z
x,-y,z
1/2+x,1/2+y,z
1/2-x,1/2+y,-z
1/2-x,1/2-y,-z
1/2+x,1/2-y,z
loop_
_atom_site_type_symbol
_atom_site_label
_atom_site_fract_x
_atom_site_fract_y
_atom_site_fract_z
Si Si1 0.055671 0.708987 0.188337
Si Si2 0.597603 0.787234 0.002896
Si Si3 0.173186 0.216751 0.744573
Si Si4 0.055705 0.716239 0.621479
Si Si5 0.326364 0.216850 0.923223
Si Si6 0.035273 0.719697 0.444613
Si Si7 0.741555 0.290323 0.635162
Si Si8 0.113161 0.718945 0.268596
O O1 0.084668 0.500000 0.183613
O O2 0.117138 0.784480 0.133067
O O3 0.080420 0.784159 0.229553
O O4 0.934601 0.720144 0.211641
O O5 0.706457 0.761838 0.953115
O O6 0.580348 0.000000 0.011640
O O7 0.500000 0.715955 0.000000
O O8 0.619524 0.716880 0.045933
O O9 0.192110 0.282281 0.691052
O O10 0.272191 0.271122 0.747405
O O11 0.168571 0.000000 0.745538
O O12 0.053084 0.500000 0.622290
O O13 0.161607 0.773099 0.616379
O O14 0.036279 0.774821 0.577571
O O15 0.965197 0.777808 0.675309
O O16 0.333072 0.000000 0.922512
O O17 0.035983 0.500000 0.445542
O O18 0.148783 0.782207 0.404768
O O19 0.000000 0.779927 0.500000
O O20 0.759382 0.500000 0.640085
O O21 0.109362 0.500000 0.269923
#
# Coordination Sequence:
#
# PCOD9174873 Si02
#       8
#     8   8   8   8   8   8   8   8
#     4  10  20  34  51  74 105 133 163 208 255 295
#     4   9  18  34  55  75 100 136 172 205 248 297
#     4  10  19  32  50  72  97 130 169 204 243 296
#     4  10  18  32  54  74  95 130 169 200 242 303
#     4   9  19  34  51  75 104 133 167 209 251 293
#     4   9  18  33  53  75  99 131 169 206 247 299
#     4  10  19  32  51  74  99 126 163 210 249 290
#     4   9  17  31  50  70  95 131 167 197 240 300
#
# _framework density 21.016743999999999
#
# number of rings (size 3 to 8) (size 9 to 14) (size 15 to 20)
#    0.000    2.500    2.500    0.000    0.000    2.250 
#    0.000    1.875    0.000    0.750    0.000    0.000 
#    0.000    0.000    0.000    0.000    0.000    0.000 
#
# Total GULP energy -178639.910649 kJ/mol
# GULP energy per Si atom -5582.497208 kJ/mol
# Density = 2.096891 g / cm^3
# Si number density = 21.016744 Si / 1000 Ang^3
#
#
#
# Elastic Constant Matrix: (Units=GPa)
#
#
# Indices 1 2 3 4 5 6 
#
# 1 83.1577 -5.9673 -2.7704 0.0001 -1.2525 0.0001
# 2 -5.9673 58.4299 5.2114 0.0002 5.3176 0.0000
# 3 -2.7704 5.2114 74.3228 0.0001 -1.8759 0.0002
# 4 0.0001 0.0002 0.0001 -12.4316 0.0001 1.9033
# 5 -1.2525 5.3176 -1.8759 0.0001 19.5398 0.0001
# 6 0.0001 0.0000 0.0002 1.9033 0.0001 11.5197
#
#
#
# Elastic Compliance Matrix: (Units=1/GPa)
#
#
# Indices 1 2 3 4 5 6 
#
# 1 0.012129 0.001159 0.000383 0.000000 0.000499 0.000000
# 2 0.001159 0.017797 -0.001328 0.000000 -0.004897 0.000000
# 3 0.000383 -0.001328 0.013605 0.000000 0.001692 0.000000
# 4 0.000000 0.000000 0.000000 -0.078455 0.000000 0.012963
# 5 0.000499 -0.004897 0.001692 0.000000 0.052705 0.000000
# 6 0.000000 0.000000 0.000000 0.012963 0.000000 0.084666
#
#
# Mechanical properties :
#
#
# Convention : Reuss Voigt Hill
#
# Bulk Modulus (GPa) = 22.74835 23.20642 22.97738
# Shear Modulus (GPa) = 42.85565 18.35468 30.60517
#
# Velocity S-wave (km/s) = 4.52056 2.95843 3.82020
# Velocity P-wave (km/s) = 6.17209 4.76819 5.51499
#
# Compressibility (1/GPa) = 0.04395923
#
# Stress axis : x y z
#
# Youngs Moduli (GPa) = 82.44833 56.18928 73.50254
#
# Poissons Ratio (x) = -0.06513 -0.02818
# Poissons Ratio (y) = -0.09557 0.09763
# Poissons Ratio (z) = -0.03161 0.07464
#
# Static dielectric constant tensor:
#      x y z
#    x 1.719500 0.000000 0.021200 
#    y 0.000000 1.804950 0.000000 
#    z 0.021200 0.000000 1.734070 
# 
# From -- ./inp_files/375032.got.cif
#   From: 2010.05.17/outbox.cif.g08.bks.cpg/sg12_188_cif.got.tgz:375032.got - 2010.06.03 13:09:07.
