data_PCOD9174843
_publ_section_title
;
Structure prediction by ZEFSAII (Michael W. Deem and Ramdas Pophale) SiO2 
 PCOD9174843
Probable space group: C 2/M
;
_chemical_formula_sum "Si O2"
_cell_formula_units_Z 50
_cell_length_a 21.553865
_cell_length_b 7.706683
_cell_length_c 15.871271
_cell_angle_alpha 90.000000
_cell_angle_beta 92.688327
_cell_angle_gamma 90.000000
_cell_volume 2633.456419
_symmetry_space_group_name_H-M "C 2/M"
_symmetry_group_IT_number 12
_symmetry_cell_setting 'monoclinic'
loop_
_space_group_symop_operation_xyz
x,y,z
-x,y,-z
-x,-y,-z
x,-y,z
1/2+x,1/2+y,z
1/2-x,1/2+y,-z
1/2-x,1/2-y,-z
1/2+x,1/2-y,z
loop_
_atom_site_type_symbol
_atom_site_label
_atom_site_fract_x
_atom_site_fract_y
_atom_site_fract_z
Si Si1 0.692719 0.209137 0.058695
Si Si2 0.565077 0.791105 0.967176
Si Si3 0.574577 0.192031 0.599194
Si Si4 0.716411 0.707526 0.584852
Si Si5 0.255140 0.710891 0.230401
Si Si6 0.102084 0.793547 0.783056
Si Si7 0.000000 0.000000 0.500000
O O1 0.709587 0.273086 0.153842
O O2 0.688720 0.000000 0.062030
O O3 0.750000 0.250000 0.000000
O O4 0.627356 0.274927 0.017836
O O5 0.571107 0.748663 0.869362
O O6 0.565256 0.000000 0.975980
O O7 0.500000 0.725694 0.000000
O O8 0.647865 0.212684 0.583437
O O9 0.570336 0.209853 0.700101
O O10 0.538495 0.347262 0.553364
O O11 0.554237 0.000000 0.572448
O O12 0.709005 0.500000 0.590153
O O13 0.750000 0.750000 0.500000
O O14 0.752627 0.764414 0.672502
O O15 0.252282 0.500000 0.228832
O O16 0.325505 0.761868 0.210036
O O17 0.102189 0.000000 0.769550
#
# Coordination Sequence:
#
# PCOD9174843 Si02
#       7
#     8   8   8   8   8   8   2
#     4  10  18  32  53  80 109 145 191 246 293 348
#     4  10  21  34  51  80 119 157 197 244 301 368
#     4  11  22  39  65  92 120 161 205 252 314 369
#     4  10  19  36  58  88 125 159 205 258 313 376
#     4   8  16  30  53  80 109 148 193 249 304 351
#     4  10  18  35  58  83 114 148 199 254 296 365
#     4  12  22  44  60  94 126 152 210 266 290 378
#
# _framework density 18.986453999999998
#
# number of rings (size 3 to 8) (size 9 to 14) (size 15 to 20)
#    0.000    2.080    3.200    2.160    0.000    0.320 
#    0.000    2.400    0.000    3.840    0.000    0.000 
#    0.000    0.000    0.000    0.000    0.000    0.000 
#
# Total GULP energy -139236.870637 kJ/mol
# GULP energy per Si atom -5569.474825 kJ/mol
# Density = 1.894324 g / cm^3
# Si number density = 18.986454 Si / 1000 Ang^3
#
#
#
# Elastic Constant Matrix: (Units=GPa)
#
#
# Indices 1 2 3 4 5 6 
#
# 1 94.6462 26.5779 89.9018 0.0000 4.9976 0.0000
# 2 26.5779 95.0792 31.7000 0.0000 15.8099 0.0000
# 3 89.9018 31.7000 179.7659 0.0000 1.7779 0.0000
# 4 0.0000 0.0000 0.0000 17.9285 0.0000 -5.0512
# 5 4.9976 15.8099 1.7779 0.0000 37.3436 0.0000
# 6 0.0000 0.0000 0.0000 -5.0512 0.0000 14.8345
#
#
#
# Elastic Compliance Matrix: (Units=1/GPa)
#
#
# Indices 1 2 3 4 5 6 
#
# 1 0.020724 -0.002250 -0.009954 0.000000 -0.001347 0.000000
# 2 -0.002250 0.012284 -0.000993 0.000000 -0.004852 0.000000
# 3 -0.009954 -0.000993 0.010704 0.000000 0.001243 0.000000
# 4 0.000000 0.000000 0.000000 0.061696 0.000000 0.021008
# 5 -0.001347 -0.004852 0.001243 0.000000 0.028954 0.000000
# 6 0.000000 0.000000 0.000000 0.021008 0.000000 0.074563
#
#
# Mechanical properties :
#
#
# Convention : Reuss Voigt Hill
#
# Bulk Modulus (GPa) = 57.74490 73.98342 65.86416
# Shear Modulus (GPa) = 20.73908 28.77544 24.75726
#
# Velocity S-wave (km/s) = 3.30860 3.89727 3.61493
# Velocity P-wave (km/s) = 6.71383 7.70082 7.22420
#
# Compressibility (1/GPa) = 0.01731755
#
# Stress axis : x y z
#
# Youngs Moduli (GPa) = 48.25435 81.40354 93.42733
#
# Poissons Ratio (x) = 0.18319 0.92995
# Poissons Ratio (y) = 0.10859 0.09276
# Poissons Ratio (z) = 0.48031 0.08082
#
# Static dielectric constant tensor:
#      x y z
#    x 1.633660 0.000000 0.011400 
#    y 0.000000 1.694400 0.000000 
#    z 0.011400 0.000000 1.663810 
# 
# From -- ./inp_files/230304.got.cif
#   From: 2010.05.17/outbox.cif.g08.bks.cpg/sg12_116_cif.got.tgz:230304.got - 2010.06.03 13:09:07.
