data_PCOD9174658
_publ_section_title
;
Structure prediction by ZEFSAII (Michael W. Deem and Ramdas Pophale) SiO2 
 PCOD9174658
Probable space group: C 2/M
;
_chemical_formula_sum "Si O2"
_cell_formula_units_Z 56
_cell_length_a 17.623764
_cell_length_b 23.670895
_cell_length_c 7.460961
_cell_angle_alpha 90.000000
_cell_angle_beta 90.268380
_cell_angle_gamma 90.000000
_cell_volume 3112.456948
_symmetry_space_group_name_H-M "C 2/M"
_symmetry_group_IT_number 12
_symmetry_cell_setting 'monoclinic'
loop_
_space_group_symop_operation_xyz
x,y,z
-x,y,-z
-x,-y,-z
x,-y,z
1/2+x,1/2+y,z
1/2-x,1/2+y,-z
1/2-x,1/2-y,-z
1/2+x,1/2-y,z
loop_
_atom_site_type_symbol
_atom_site_label
_atom_site_fract_x
_atom_site_fract_y
_atom_site_fract_z
Si Si1 0.430031 0.766724 0.609253
Si Si2 0.675210 0.720075 0.126676
Si Si3 0.475035 0.109028 0.704432
Si Si4 0.709026 0.172909 0.587031
Si Si5 0.133766 0.564347 0.747051
Si Si6 0.683441 0.937725 0.150117
Si Si7 0.231745 0.826071 0.792460
O O1 0.500000 0.743300 0.500000
O O2 0.397514 0.721994 0.748651
O O3 0.460210 0.823846 0.707460
O O4 0.363913 0.789890 0.474146
O O5 0.744609 0.690902 0.236681
O O6 0.700279 0.786101 0.129533
O O7 0.667089 0.693861 0.929403
O O8 0.500000 0.095427 0.500000
O O9 0.550773 0.088124 0.801894
O O10 0.398193 0.079593 0.767738
O O11 0.675266 0.110046 0.619557
O O12 0.766645 0.182235 0.420878
O O13 0.127675 0.500000 0.675445
O O14 0.176978 0.561681 0.935422
O O15 0.744934 0.890517 0.191576
O O16 0.703317 0.000000 0.215493
#
# Coordination Sequence:
#
# PCOD9174658 Si02
#       7
#     8   8   8   8   8   8   8
#     4  10  18  32  51  74  96 131 179 212 253 304
#     4  10  20  34  53  70  99 130 170 222 256 300
#     4  11  19  33  45  66 101 137 183 209 242 290
#     4  11  19  35  53  72  99 134 174 215 252 300
#     4  11  22  33  47  71 105 143 177 212 249 295
#     4  11  21  33  47  69 102 137 178 216 250 299
#     4  10  19  32  51  72  91 130 173 207 262 298
#
# _framework density 17.992215999999999
#
# number of rings (size 3 to 8) (size 9 to 14) (size 15 to 20)
#    0.000    1.429    7.143    2.571    0.000    4.000 
#    0.000    0.000    0.000    0.000    0.000    0.000 
#    0.000    2.286    0.000    7.000    0.000    0.286 
#
# Total GULP energy -156022.803375 kJ/mol
# GULP energy per Si atom -5572.242978 kJ/mol
# Density = 1.795126 g / cm^3
# Si number density = 17.992216 Si / 1000 Ang^3
#
#
#
# Elastic Constant Matrix: (Units=GPa)
#
#
# Indices 1 2 3 4 5 6 
#
# 1 48.4768 32.2521 24.8476 0.0000 -26.1538 0.0000
# 2 32.2521 82.3708 22.2507 0.0000 -20.6712 0.0000
# 3 24.8476 22.2507 88.3430 0.0000 -26.9897 0.0000
# 4 0.0000 0.0000 0.0000 19.4442 0.0000 -1.9061
# 5 -26.1538 -20.6712 -26.9897 0.0000 31.8686 0.0000
# 6 0.0000 0.0000 0.0000 -1.9061 0.0000 22.5805
#
#
#
# Elastic Compliance Matrix: (Units=1/GPa)
#
#
# Indices 1 2 3 4 5 6 
#
# 1 0.042405 -0.009327 -0.001071 0.000000 0.027844 0.000000
# 2 -0.009327 0.016625 -0.000820 0.000000 0.002435 0.000000
# 3 -0.001071 -0.000820 0.015374 0.000000 0.011609 0.000000
# 4 0.000000 0.000000 0.000000 0.051858 0.000000 0.004378
# 5 0.027844 0.002435 0.011609 0.000000 0.065640 0.000000
# 6 0.000000 0.000000 0.000000 0.004378 0.000000 0.044656
#
#
# Mechanical properties :
#
#
# Convention : Reuss Voigt Hill
#
# Bulk Modulus (GPa) = 19.24290 41.98793 30.61541
# Shear Modulus (GPa) = 18.09521 24.10135 21.09828
#
# Velocity S-wave (km/s) = 3.17476 3.66395 3.42809
# Velocity P-wave (km/s) = 4.91499 6.42547 5.72031
#
# Compressibility (1/GPa) = 0.05196721
#
# Stress axis : x y z
#
# Youngs Moduli (GPa) = 23.58236 60.15204 65.04433
#
# Poissons Ratio (x) = 0.56101 0.06968
# Poissons Ratio (y) = 0.21994 0.05335
# Poissons Ratio (z) = 0.02526 0.04933
#
# Static dielectric constant tensor:
#      x y z
#    x 1.640500 0.000000 -0.010120 
#    y 0.000000 1.652050 0.000000 
#    z -0.010120 0.000000 1.733290 
# 
# From -- ./inp_files/78471.got.cif
#   From: 2010.05.17/outbox.cif.g08.bks.cpg/sg12_40_cif.got.tgz:78471.got - 2010.06.03 13:09:07.
