data_PCOD9174245
_publ_section_title
;
Structure prediction by ZEFSAII (Michael W. Deem and Ramdas Pophale) SiO2 
 PCOD9174245
Probable space group: C 2/M
;
_chemical_formula_sum "Si O2"
_cell_formula_units_Z 56
_cell_length_a 29.265474
_cell_length_b 7.527284
_cell_length_c 12.037201
_cell_angle_alpha 90.000000
_cell_angle_beta 109.147349
_cell_angle_gamma 90.000000
_cell_volume 2504.974219
_symmetry_space_group_name_H-M "C 2/M"
_symmetry_group_IT_number 12
_symmetry_cell_setting 'monoclinic'
loop_
_space_group_symop_operation_xyz
x,y,z
-x,y,-z
-x,-y,-z
x,-y,z
1/2+x,1/2+y,z
1/2-x,1/2+y,-z
1/2-x,1/2-y,-z
1/2+x,1/2-y,z
loop_
_atom_site_type_symbol
_atom_site_label
_atom_site_fract_x
_atom_site_fract_y
_atom_site_fract_z
Si Si1 0.250033 0.213661 0.367244
Si Si2 0.644768 0.283122 0.259702
Si Si3 0.400173 0.286301 0.553338
Si Si4 0.096568 0.297749 0.846623
Si Si5 0.554750 0.703299 0.046294
Si Si6 0.840679 0.706734 0.298166
Si Si7 0.994585 0.787243 0.365336
O O1 0.250000 0.250000 0.500000
O O2 0.198900 0.274716 0.274182
O O3 0.295175 0.283626 0.330412
O O4 0.251930 0.000000 0.361176
O O5 0.644128 0.500000 0.251285
O O6 0.637454 0.235194 0.382619
O O7 0.597885 0.217750 0.155664
O O8 0.401134 0.500000 0.542990
O O9 0.384194 0.215324 0.422141
O O10 0.453039 0.234046 0.638201
O O11 0.109263 0.500000 0.888085
O O12 0.139198 0.219140 0.802620
O O13 0.049704 0.301217 0.730128
O O14 0.078143 0.202644 0.942402
O O15 0.547822 0.500000 0.081458
O O16 0.500000 0.780950 0.000000
O O17 0.830364 0.500000 0.267415
O O18 0.000000 0.750490 0.500000
O O19 0.987959 0.000000 0.347351
#
# Coordination Sequence:
#
# PCOD9174245 Si02
#       7
#     8   8   8   8   8   8   8
#     4  10  19  34  56  82 113 146 184 227 278 331
#     4   9  18  33  56  82 106 139 183 232 279 325
#     4  10  18  31  53  81 109 138 179 228 273 325
#     4  11  23  37  53  77 115 153 185 224 279 340
#     4  10  21  40  63  82 106 142 190 239 282 328
#     4  10  21  34  50  78 115 149 176 217 277 334
#     4  10  19  31  51  79 108 140 183 229 272 323
#
# _framework density 22.355519000000001
#
# number of rings (size 3 to 8) (size 9 to 14) (size 15 to 20)
#    0.000    2.000    2.857    1.286    0.000    4.000 
#    0.000    2.143    0.000    0.000    0.000    0.000 
#    0.000    0.000    0.000    0.000    0.000    0.000 
#
# Total GULP energy -156196.077314 kJ/mol
# GULP energy per Si atom -5578.431333 kJ/mol
# Density = 2.230464 g / cm^3
# Si number density = 22.355519 Si / 1000 Ang^3
#
#
#
# Elastic Constant Matrix: (Units=GPa)
#
#
# Indices 1 2 3 4 5 6 
#
# 1 158.3072 0.1982 42.7705 0.0000 -8.4181 0.0000
# 2 0.1982 52.4556 -2.5097 0.0000 -0.7504 0.0000
# 3 42.7705 -2.5097 76.2312 0.0000 -2.9828 0.0000
# 4 0.0000 0.0000 0.0000 13.9625 0.0000 -5.7964
# 5 -8.4181 -0.7504 -2.9828 0.0000 36.9132 0.0000
# 6 0.0000 0.0000 0.0000 -5.7964 0.0000 4.3585
#
#
#
# Elastic Compliance Matrix: (Units=1/GPa)
#
#
# Indices 1 2 3 4 5 6 
#
# 1 0.007517 -0.000208 -0.004171 0.000000 0.001373 0.000000
# 2 -0.000208 0.019107 0.000762 0.000000 0.000402 0.000000
# 3 -0.004171 0.000762 0.015495 0.000000 0.000317 0.000000
# 4 0.000000 0.000000 0.000000 0.159900 0.000000 0.212652
# 5 0.001373 0.000402 0.000317 0.000000 0.027437 0.000000
# 6 0.000000 0.000000 0.000000 0.212652 0.000000 0.512244
#
#
# Mechanical properties :
#
#
# Convention : Reuss Voigt Hill
#
# Bulk Modulus (GPa) = 28.66597 40.87911 34.77254
# Shear Modulus (GPa) = 6.57408 27.48252 17.02830
#
# Velocity S-wave (km/s) = 1.71671 3.51000 2.76289
# Velocity P-wave (km/s) = 4.09635 5.89512 5.07604
#
# Compressibility (1/GPa) = 0.03488457
#
# Stress axis : x y z
#
# Youngs Moduli (GPa) = 133.03381 52.33758 64.53525
#
# Poissons Ratio (x) = 0.01090 0.26915
# Poissons Ratio (y) = 0.02771 -0.04915
# Poissons Ratio (z) = 0.55483 -0.03986
#
# Static dielectric constant tensor:
#      x y z
#    x 1.901770 0.000000 -0.020730 
#    y 0.000000 1.947970 0.000000 
#    z -0.020730 0.000000 1.791200 
# 
# From -- ./inp_files/186809.got.cif
#   From: 2010.05.17/outbox.cif.g08.bks.cpg/sg12_94_cif.got.tgz:186809.got - 2010.06.03 13:09:07.
