data_PCOD9174484
_publ_section_title
;
Structure prediction by ZEFSAII (Michael W. Deem and Ramdas Pophale) SiO2 
 PCOD9174484
Probable space group: C 2/M
;
_chemical_formula_sum "Si O2"
_cell_formula_units_Z 64
_cell_length_a 9.299206
_cell_length_b 22.829132
_cell_length_c 30.974481
_cell_angle_alpha 90.000000
_cell_angle_beta 150.118120
_cell_angle_gamma 90.000000
_cell_volume 3276.082620
_symmetry_space_group_name_H-M "C 2/M"
_symmetry_group_IT_number 12
_symmetry_cell_setting 'monoclinic'
loop_
_space_group_symop_operation_xyz
x,y,z
-x,y,-z
-x,-y,-z
x,-y,z
1/2+x,1/2+y,z
1/2-x,1/2+y,-z
1/2-x,1/2-y,-z
1/2+x,1/2-y,z
loop_
_atom_site_type_symbol
_atom_site_label
_atom_site_fract_x
_atom_site_fract_y
_atom_site_fract_z
Si Si1 0.739481 0.773670 0.624216
Si Si2 0.119248 0.765877 0.186296
Si Si3 0.138125 0.931477 0.753356
Si Si4 0.241280 0.346083 0.704698
Si Si5 0.230421 0.309613 0.021929
Si Si6 0.172583 0.115572 0.411255
Si Si7 0.659397 0.855741 0.915607
Si Si8 0.629859 0.356910 0.579115
O O1 0.604464 0.810339 0.628548
O O2 0.794310 0.818039 0.599119
O O3 0.588176 0.713509 0.572774
O O4 0.052519 0.754703 0.724114
O O5 0.067657 0.801338 0.217073
O O6 0.037832 0.810504 0.126476
O O7 0.936941 0.706722 0.130534
O O8 0.454641 0.903698 0.841108
O O9 0.933911 0.896148 0.733677
O O10 0.009793 0.917678 0.672633
O O11 0.136600 0.000000 0.761327
O O12 0.975038 0.366608 0.664857
O O13 0.250000 0.250000 0.000000
O O14 0.126382 0.354987 0.959039
O O15 0.000000 0.306380 0.000000
O O16 0.500000 0.092579 0.500000
O O17 0.016749 0.116120 0.416785
O O18 0.000000 0.863328 0.000000
O O19 0.500000 0.377785 0.500000
#
# Coordination Sequence:
#
# PCOD9174484 Si02
#       8
#     8   8   8   8   8   8   8   8
#     4  10  20  32  56  87 138 174 202 242 314 386
#     4  10  18  31  56  90 132 157 201 254 313 373
#     4  11  25  47  67  86 122 170 222 267 317 382
#     4  10  21  36  61  91 123 173 208 260 319 373
#     4  10  20  31  50  84 124 161 200 247 306 373
#     4  11  23  41  63  91 126 168 216 261 314 376
#     4  11  23  37  63  92 123 165 210 266 323 377
#     4  11  21  34  57  94 131 163 201 255 319 391
#
# _framework density 19.535526000000001
#
# number of rings (size 3 to 8) (size 9 to 14) (size 15 to 20)
#    0.000    1.500    2.500    5.625    3.500    3.000 
#    0.000    0.625    0.000    4.875    0.000    0.000 
#    0.000    0.000    0.000    0.000    0.000    0.000 
#
# Total GULP energy -178611.408149 kJ/mol
# GULP energy per Si atom -5581.606505 kJ/mol
# Density = 1.949106 g / cm^3
# Si number density = 19.535526 Si / 1000 Ang^3
#
#
#
# Elastic Constant Matrix: (Units=GPa)
#
#
# Indices 1 2 3 4 5 6 
#
# 1 147.8193 33.0318 54.6765 0.0136 -9.7067 0.0062
# 2 33.0318 82.5553 38.5658 -0.0049 -4.1721 -0.0037
# 3 54.6765 38.5658 138.2812 0.0286 -3.8073 0.0175
# 4 0.0136 -0.0049 0.0286 5.7940 0.0109 4.7187
# 5 -9.7067 -4.1721 -3.8073 0.0109 36.2177 0.0079
# 6 0.0062 -0.0037 0.0175 4.7187 0.0079 8.9135
#
#
#
# Elastic Compliance Matrix: (Units=1/GPa)
#
#
# Indices 1 2 3 4 5 6 
#
# 1 0.008315 -0.001985 -0.002687 -0.000015 0.001717 0.000005
# 2 -0.001985 0.014454 -0.003224 0.000036 0.000794 -0.000006
# 3 -0.002687 -0.003224 0.009190 -0.000048 -0.000125 0.000008
# 4 -0.000015 0.000036 -0.000048 0.303399 -0.000061 -0.160617
# 5 0.001717 0.000794 -0.000125 -0.000061 0.028149 0.000007
# 6 0.000005 -0.000006 0.000008 -0.160617 0.000007 0.197219
#
#
# Mechanical properties :
#
#
# Convention : Reuss Voigt Hill
#
# Bulk Modulus (GPa) = 61.85751 69.02267 65.44009
# Shear Modulus (GPa) = 8.59242 26.34381 17.46812
#
# Velocity S-wave (km/s) = 2.09950 3.67619 2.99351
# Velocity P-wave (km/s) = 6.13270 7.30943 6.74677
#
# Compressibility (1/GPa) = 0.01616619
#
# Stress axis : x y z
#
# Youngs Moduli (GPa) = 120.26100 69.18634 108.81563
#
# Poissons Ratio (x) = 0.13734 0.29238
# Poissons Ratio (y) = 0.23873 0.35085
# Poissons Ratio (z) = 0.32313 0.22308
#
# Static dielectric constant tensor:
#      x y z
#    x 1.746450 0.000000 0.006100 
#    y 0.000000 1.660540 0.000000 
#    z 0.006100 0.000000 1.749290 
# 
# From -- ./inp_files/373284.got.cif
#   From: 2010.05.17/outbox.cif.g08.bks.cpg/sg12_187_cif.got.tgz:373284.got - 2010.06.03 13:09:07.
