data_PCOD9174599
_publ_section_title
;
Structure prediction by ZEFSAII (Michael W. Deem and Ramdas Pophale) SiO2 
 PCOD9174599
Probable space group: C 2/M
;
_chemical_formula_sum "Si O2"
_cell_formula_units_Z 64
_cell_length_a 18.181042
_cell_length_b 16.677604
_cell_length_c 11.179137
_cell_angle_alpha 90.000000
_cell_angle_beta 90.813061
_cell_angle_gamma 90.000000
_cell_volume 3389.354360
_symmetry_space_group_name_H-M "C 2/M"
_symmetry_group_IT_number 12
_symmetry_cell_setting 'monoclinic'
loop_
_space_group_symop_operation_xyz
x,y,z
-x,y,-z
-x,-y,-z
x,-y,z
1/2+x,1/2+y,z
1/2-x,1/2+y,-z
1/2-x,1/2-y,-z
1/2+x,1/2-y,z
loop_
_atom_site_type_symbol
_atom_site_label
_atom_site_fract_x
_atom_site_fract_y
_atom_site_fract_z
Si Si1 0.950315 0.590313 0.297577
Si Si2 0.567327 0.409935 0.908979
Si Si3 0.887458 0.406612 0.684917
Si Si4 0.600551 0.241245 0.845463
Si Si5 0.695753 0.093290 0.542503
Si Si6 0.731953 0.411976 0.013744
Si Si7 0.347890 0.200844 0.894300
Si Si8 0.246633 0.821053 0.243593
O O1 0.949443 0.500000 0.242528
O O2 0.942238 0.664730 0.207416
O O3 0.880759 0.593595 0.384203
O O4 0.029487 0.598742 0.361755
O O5 0.562935 0.500000 0.853522
O O6 0.568324 0.330379 0.826688
O O7 0.500000 0.403602 0.000000
O O8 0.645940 0.407499 0.979788
O O9 0.870935 0.500000 0.700935
O O10 0.826892 0.376018 0.589247
O O11 0.886624 0.362817 0.810877
O O12 0.680841 0.231284 0.785976
O O13 0.608366 0.229784 0.988741
O O14 0.750011 0.148021 0.621417
O O15 0.719782 0.000000 0.536089
O O16 0.758664 0.500000 0.978487
O O17 0.748695 0.397097 0.153612
O O18 0.775689 0.342865 0.946309
O O19 0.322494 0.271872 0.806581
#
# Coordination Sequence:
#
# PCOD9174599 Si02
#       8
#     8   8   8   8   8   8   8   8
#     4   9  19  33  53  76 101 133 166 203 247 297
#     4  10  20  32  49  71  96 131 169 202 241 290
#     4  10  21  34  48  72 100 133 168 200 244 299
#     4  10  19  33  51  74 104 132 163 201 250 298
#     4   9  18  34  53  70  96 130 170 211 241 281
#     4  10  18  32  50  70  99 129 159 199 248 296
#     4  11  20  31  46  73 103 133 156 200 245 305
#     4  10  18  32  50  74  96 128 169 199 245 294
#
# _framework density 18.882650999999999
#
# number of rings (size 3 to 8) (size 9 to 14) (size 15 to 20)
#    0.000    2.125    2.500    1.875    1.750    5.500 
#    0.000    1.250    0.000    0.000    0.000    0.000 
#    0.000   10.000    0.000    3.750    0.000    0.000 
#
# Total GULP energy -178304.100963 kJ/mol
# GULP energy per Si atom -5572.003155 kJ/mol
# Density = 1.883967 g / cm^3
# Si number density = 18.882651 Si / 1000 Ang^3
#
#
#
# Elastic Constant Matrix: (Units=GPa)
#
#
# Indices 1 2 3 4 5 6 
#
# 1 27.1840 0.5209 -5.6030 0.0000 1.2487 0.0000
# 2 0.5209 109.0916 21.4434 0.0000 9.2680 0.0000
# 3 -5.6030 21.4434 37.3902 0.0000 8.8072 0.0000
# 4 0.0000 0.0000 0.0000 21.0308 0.0000 3.9963
# 5 1.2487 9.2680 8.8072 0.0000 16.4662 0.0000
# 6 0.0000 0.0000 0.0000 3.9963 0.0000 20.2522
#
#
#
# Elastic Compliance Matrix: (Units=1/GPa)
#
#
# Indices 1 2 3 4 5 6 
#
# 1 0.038770 -0.001210 0.008050 0.000000 -0.006565 0.000000
# 2 -0.001210 0.010503 -0.005531 0.000000 -0.002862 0.000000
# 3 0.008050 -0.005531 0.034935 0.000000 -0.016183 0.000000
# 4 0.000000 0.000000 0.000000 0.049402 0.000000 -0.009748
# 5 -0.006565 -0.002862 -0.016183 0.000000 0.071495 0.000000
# 6 0.000000 0.000000 0.000000 -0.009748 0.000000 0.051301
#
#
# Mechanical properties :
#
#
# Convention : Reuss Voigt Hill
#
# Bulk Modulus (GPa) = 11.51712 22.93205 17.22458
# Shear Modulus (GPa) = 17.68484 22.03682 19.86083
#
# Velocity S-wave (km/s) = 3.06366 3.41990 3.24667
# Velocity P-wave (km/s) = 4.31592 5.26927 4.81624
#
# Compressibility (1/GPa) = 0.08682729
#
# Stress axis : x y z
#
# Youngs Moduli (GPa) = 25.79293 95.21462 28.62464
#
# Poissons Ratio (x) = 0.11518 -0.23043
# Poissons Ratio (y) = 0.03120 0.15831
# Poissons Ratio (z) = -0.20763 0.52659
#
# Static dielectric constant tensor:
#      x y z
#    x 1.670460 0.000000 0.008170 
#    y 0.000000 1.704220 0.000000 
#    z 0.008170 0.000000 1.655950 
# 
# From -- ./inp_files/168114.got.cif
#   From: 2010.05.17/outbox.cif.g08.bks.cpg/sg12_85_cif.got.tgz:168114.got - 2010.06.03 13:09:07.
