data_PCOD9174617
_publ_section_title
;
Structure prediction by ZEFSAII (Michael W. Deem and Ramdas Pophale) SiO2 
 PCOD9174617
Probable space group: C 2/M
;
_chemical_formula_sum "Si O2"
_cell_formula_units_Z 56
_cell_length_a 33.530482
_cell_length_b 19.469439
_cell_length_c 10.063720
_cell_angle_alpha 90.000000
_cell_angle_beta 28.172770
_cell_angle_gamma 90.000000
_cell_volume 3101.809315
_symmetry_space_group_name_H-M "C 2/M"
_symmetry_group_IT_number 12
_symmetry_cell_setting 'monoclinic'
loop_
_space_group_symop_operation_xyz
x,y,z
-x,y,-z
-x,-y,-z
x,-y,z
1/2+x,1/2+y,z
1/2-x,1/2+y,-z
1/2-x,1/2-y,-z
1/2+x,1/2-y,z
loop_
_atom_site_type_symbol
_atom_site_label
_atom_site_fract_x
_atom_site_fract_y
_atom_site_fract_z
Si Si1 0.036159 0.363194 0.035585
Si Si2 0.149795 0.716517 0.021587
Si Si3 0.201560 0.080482 0.750140
Si Si4 0.901749 0.257299 0.531994
Si Si5 0.804459 0.296341 0.555995
Si Si6 0.465524 0.335431 0.744197
Si Si7 0.652798 0.073808 0.892437
O O1 0.965003 0.321005 0.320913
O O2 0.113155 0.311271 0.773422
O O3 0.078731 0.420399 0.000500
O O4 0.000000 0.387329 0.000000
O O5 0.238211 0.740650 0.699644
O O6 0.138583 0.636858 0.030922
O O7 0.144747 0.734837 0.191292
O O8 0.078814 0.762930 0.161761
O O9 0.250332 0.131936 0.710593
O O10 0.260758 0.082260 0.445523
O O11 0.196682 0.000000 0.805788
O O12 0.109343 0.113227 0.993521
O O13 0.838411 0.266208 0.595173
O O14 0.958859 0.187777 0.379134
O O15 0.500000 0.361395 0.500000
O O16 0.652602 0.000000 0.959217
#
# Coordination Sequence:
#
# PCOD9174617 Si02
#       7
#     8   8   8   8   8   8   8
#     4   9  18  31  49  73  99 126 164 210 252 302
#     4  10  19  32  51  72 102 134 172 212 245 303
#     4   9  19  34  52  76 103 133 171 210 254 307
#     4  10  18  32  50  77 105 124 168 214 256 299
#     4   9  19  32  53  74  99 136 169 208 257 300
#     4   9  18  30  53  77 101 130 163 215 260 298
#     4  10  20  33  50  71 101 138 172 205 245 303
#
# _framework density 18.053979000000002
#
# number of rings (size 3 to 8) (size 9 to 14) (size 15 to 20)
#    0.000    2.571    1.429    0.429    2.000    2.286 
#    0.000    4.286    0.000    0.857    0.000    2.000 
#    0.000    0.000    0.000    0.000    0.000    0.000 
#
# Total GULP energy -155884.876423 kJ/mol
# GULP energy per Si atom -5567.317015 kJ/mol
# Density = 1.801289 g / cm^3
# Si number density = 18.053979 Si / 1000 Ang^3
#
#
#
# Elastic Constant Matrix: (Units=GPa)
#
#
# Indices 1 2 3 4 5 6 
#
# 1 34.0578 -1.8637 4.6477 0.0000 -7.8040 0.0000
# 2 -1.8637 63.1618 9.3824 0.0000 -10.3369 0.0000
# 3 4.6477 9.3824 54.8282 0.0000 -18.3053 0.0000
# 4 0.0000 0.0000 0.0000 12.7287 0.0000 2.1769
# 5 -7.8040 -10.3369 -18.3053 0.0000 17.1427 0.0000
# 6 0.0000 0.0000 0.0000 2.1769 0.0000 13.0994
#
#
#
# Elastic Compliance Matrix: (Units=1/GPa)
#
#
# Indices 1 2 3 4 5 6 
#
# 1 0.034106 0.004045 0.003753 0.000000 0.021972 0.000000
# 2 0.004045 0.018070 0.001270 0.000000 0.014094 0.000000
# 3 0.003753 0.001270 0.028795 0.000000 0.033222 0.000000
# 4 0.000000 0.000000 0.000000 0.080861 0.000000 -0.013438
# 5 0.021972 0.014094 0.033222 0.000000 0.112310 0.000000
# 6 0.000000 0.000000 0.000000 -0.013438 0.000000 0.078573
#
#
# Mechanical properties :
#
#
# Convention : Reuss Voigt Hill
#
# Bulk Modulus (GPa) = 10.09016 19.59783 14.84399
# Shear Modulus (GPa) = 13.60121 17.91958 15.76040
#
# Velocity S-wave (km/s) = 2.74772 3.15390 2.95779
# Velocity P-wave (km/s) = 3.95824 4.91340 4.46146
#
# Compressibility (1/GPa) = 0.09910648
#
# Stress axis : x y z
#
# Youngs Moduli (GPa) = 29.32045 55.34178 34.72808
#
# Poissons Ratio (x) = -0.22385 -0.13032
# Poissons Ratio (y) = -0.11860 -0.04412
# Poissons Ratio (z) = -0.11003 -0.07031
#
# Static dielectric constant tensor:
#      x y z
#    x 1.641160 0.000000 -0.017810 
#    y 0.000000 1.606300 0.000000 
#    z -0.017810 0.000000 1.643310 
# 
# From -- ./inp_files/113330.got.cif
#   From: 2010.05.17/outbox.cif.g08.bks.cpg/sg12_57_cif.got.tgz:113330.got - 2010.06.03 13:09:07.
