data_PCOD9174964
_publ_section_title
;
Structure prediction by ZEFSAII (Michael W. Deem and Ramdas Pophale) SiO2 
 PCOD9174964
Probable space group: C 2/M
;
_chemical_formula_sum "Si O2"
_cell_formula_units_Z 64
_cell_length_a 24.066602
_cell_length_b 11.758877
_cell_length_c 12.315554
_cell_angle_alpha 90.000000
_cell_angle_beta 102.928864
_cell_angle_gamma 90.000000
_cell_volume 3396.899054
_symmetry_space_group_name_H-M "C 2/M"
_symmetry_group_IT_number 12
_symmetry_cell_setting 'monoclinic'
loop_
_space_group_symop_operation_xyz
x,y,z
-x,y,-z
-x,-y,-z
x,-y,z
1/2+x,1/2+y,z
1/2-x,1/2+y,-z
1/2-x,1/2-y,-z
1/2+x,1/2-y,z
loop_
_atom_site_type_symbol
_atom_site_label
_atom_site_fract_x
_atom_site_fract_y
_atom_site_fract_z
Si Si1 0.542932 0.375738 0.416482
Si Si2 0.045072 0.630988 0.930755
Si Si3 0.749857 0.371432 0.866418
Si Si4 0.502668 0.127871 0.332306
Si Si5 0.213173 0.630457 0.356726
Si Si6 0.838215 0.692354 0.087502
Si Si7 0.126549 0.622668 0.661315
Si Si8 0.666608 0.300648 0.507476
O O1 0.500000 0.376427 0.500000
O O2 0.531729 0.500000 0.355018
O O3 0.533635 0.248487 0.363406
O O4 0.609763 0.374076 0.474049
O O5 0.063141 0.500000 0.964804
O O6 0.014224 0.626343 0.801497
O O7 0.101129 0.707369 0.944302
O O8 0.000000 0.668839 0.000000
O O9 0.731972 0.500000 0.838126
O O10 0.776608 0.331442 0.763681
O O11 0.696002 0.300788 0.884180
O O12 0.796486 0.365521 0.982528
O O13 0.442017 0.135384 0.369189
O O14 0.527215 0.000000 0.368215
O O15 0.191637 0.500000 0.347237
O O16 0.274642 0.634481 0.443645
O O17 0.174928 0.719275 0.406460
O O18 0.853918 0.626209 0.204805
O O19 0.141549 0.500000 0.621085
O O20 0.156122 0.719306 0.605880
#
# Coordination Sequence:
#
# PCOD9174964 Si02
#       8
#     8   8   8   8   8   8   8   8
#     4  11  23  38  57  83 117 154 190 232 292 350
#     4   9  18  34  57  84 113 146 184 234 289 340
#     4  10  20  35  57  83 111 144 187 233 278 338
#     4   9  19  35  57  85 115 147 193 240 283 332
#     4  10  22  38  56  80 111 150 194 236 282 334
#     4  10  19  34  56  82 112 142 181 231 284 337
#     4  10  18  32  54  83 112 145 184 237 286 330
#     4  11  21  37  56  80 114 150 192 233 283 343
#
# _framework density 18.840712
#
# number of rings (size 3 to 8) (size 9 to 14) (size 15 to 20)
#    0.000    2.000    2.500    2.625    0.000    2.250 
#    0.000    5.000    0.000    4.500    0.000    0.000 
#    0.000    0.000    0.000    0.000    0.000    0.000 
#
# Total GULP energy -178262.680935 kJ/mol
# GULP energy per Si atom -5570.708779 kJ/mol
# Density = 1.879783 g / cm^3
# Si number density = 18.840712 Si / 1000 Ang^3
#
#
#
# Elastic Constant Matrix: (Units=GPa)
#
#
# Indices 1 2 3 4 5 6 
#
# 1 89.3385 35.2183 29.7939 0.0000 -13.5959 0.0000
# 2 35.2183 102.2144 29.7908 0.0000 0.3227 0.0000
# 3 29.7939 29.7908 56.1408 0.0000 -14.7029 0.0000
# 4 0.0000 0.0000 0.0000 15.5119 0.0000 2.1281
# 5 -13.5959 0.3227 -14.7029 0.0000 32.5325 0.0000
# 6 0.0000 0.0000 0.0000 2.1281 0.0000 -15.6029
#
#
#
# Elastic Compliance Matrix: (Units=1/GPa)
#
#
# Indices 1 2 3 4 5 6 
#
# 1 0.014906 -0.003731 -0.004866 0.000000 0.004067 0.000000
# 2 -0.003731 0.012824 -0.005974 0.000000 -0.004386 0.000000
# 3 -0.004866 -0.005974 0.026142 0.000000 0.009840 0.000000
# 4 0.000000 0.000000 0.000000 0.063283 0.000000 0.008631
# 5 0.004067 -0.004386 0.009840 0.000000 0.036929 0.000000
# 6 0.000000 0.000000 0.000000 0.008631 0.000000 -0.062913
#
#
# Mechanical properties :
#
#
# Convention : Reuss Voigt Hill
#
# Bulk Modulus (GPa) = 40.43474 48.58885 44.51180
# Shear Modulus (GPa) = 38.89456 16.68099 27.78778
#
# Velocity S-wave (km/s) = 4.54848 2.97874 3.84458
# Velocity P-wave (km/s) = 7.00663 6.13806 6.58668
#
# Compressibility (1/GPa) = 0.02473121
#
# Stress axis : x y z
#
# Youngs Moduli (GPa) = 67.08872 77.98111 38.25320
#
# Poissons Ratio (x) = 0.29091 0.18613
# Poissons Ratio (y) = 0.25028 0.22851
# Poissons Ratio (z) = 0.32643 0.46583
#
# Static dielectric constant tensor:
#      x y z
#    x 1.655890 0.000000 0.014320 
#    y 0.000000 1.682930 0.000000 
#    z 0.014320 0.000000 1.660790 
# 
# From -- ./inp_files/174694.got.cif
#   From: 2010.05.17/outbox.cif.g08.bks.cpg/sg12_88_cif.got.tgz:174694.got - 2010.06.03 13:09:07.
