data_PCOD9174788
_publ_section_title
;
Structure prediction by ZEFSAII (Michael W. Deem and Ramdas Pophale) SiO2 
 PCOD9174788
Probable space group: C 2/M
;
_chemical_formula_sum "Si O2"
_cell_formula_units_Z 56
_cell_length_a 22.849453
_cell_length_b 27.088329
_cell_length_c 14.387336
_cell_angle_alpha 90.000000
_cell_angle_beta 22.917651
_cell_angle_gamma 90.000000
_cell_volume 3467.711559
_symmetry_space_group_name_H-M "C 2/M"
_symmetry_group_IT_number 12
_symmetry_cell_setting 'monoclinic'
loop_
_space_group_symop_operation_xyz
x,y,z
-x,y,-z
-x,-y,-z
x,-y,z
1/2+x,1/2+y,z
1/2-x,1/2+y,-z
1/2-x,1/2-y,-z
1/2+x,1/2-y,z
loop_
_atom_site_type_symbol
_atom_site_label
_atom_site_fract_x
_atom_site_fract_y
_atom_site_fract_z
Si Si1 0.642278 0.861967 0.128084
Si Si2 0.818945 0.556273 0.781253
Si Si3 0.385344 0.284610 0.423487
Si Si4 0.157840 0.178258 0.313109
Si Si5 0.156227 0.195466 0.727385
Si Si6 0.239506 0.785117 0.898801
Si Si7 0.288355 0.130760 0.673167
O O1 0.708222 0.907863 0.091140
O O2 0.686697 0.813088 0.122075
O O3 0.463769 0.868269 0.390076
O O4 0.713028 0.854321 0.923586
O O5 0.770892 0.500000 0.864898
O O6 0.754079 0.582316 0.783779
O O7 0.000000 0.556615 0.500000
O O8 0.341412 0.317607 0.576620
O O9 0.287433 0.234413 0.561876
O O10 0.358390 0.308353 0.361773
O O11 0.563280 0.275227 0.172378
O O12 0.181563 0.234594 0.244211
O O13 0.000000 0.161311 0.500000
O O14 0.193196 0.143731 0.722069
O O15 0.000000 0.214431 0.000000
O O16 0.258177 0.823961 0.787881
#
# Coordination Sequence:
#
# PCOD9174788 Si02
#       7
#     8   8   8   8   8   8   8
#     4  10  20  31  50  77 102 125 161 206 263 301
#     4   8  16  32  55  82 103 118 153 212 268 312
#     4  11  22  33  47  68  98 145 178 200 240 288
#     4  12  21  29  46  72 105 134 166 205 243 298
#     4  11  21  35  47  65 100 142 180 208 236 281
#     4  11  19  32  47  71 101 133 168 213 242 286
#     4  10  18  32  53  74  95 131 169 207 256 293
#
# _framework density 16.148979000000001
#
# number of rings (size 3 to 8) (size 9 to 14) (size 15 to 20)
#    0.000    1.571    4.286    3.429    0.000    1.143 
#    0.000    0.000    0.000    0.857    0.000    1.000 
#    0.000    4.571    0.000    0.000    0.000    2.571 
#
# Total GULP energy -156179.171457 kJ/mol
# GULP energy per Si atom -5577.827552 kJ/mol
# Density = 1.611222 g / cm^3
# Si number density = 16.148979 Si / 1000 Ang^3
#
#
#
# Elastic Constant Matrix: (Units=GPa)
#
#
# Indices 1 2 3 4 5 6 
#
# 1 97.1418 23.1130 19.4486 -0.0055 29.1131 0.0031
# 2 23.1130 64.9293 16.5399 -0.0027 10.5672 0.0015
# 3 19.4486 16.5399 79.4746 -0.0161 14.3926 0.0087
# 4 -0.0055 -0.0027 -0.0161 11.6838 0.0088 -0.9591
# 5 29.1131 10.5672 14.3926 0.0088 28.9762 -0.0034
# 6 0.0031 0.0015 0.0087 -0.9591 -0.0034 15.1254
#
#
#
# Elastic Compliance Matrix: (Units=1/GPa)
#
#
# Indices 1 2 3 4 5 6 
#
# 1 0.015330 -0.003028 -0.000584 0.000016 -0.014008 -0.000005
# 2 -0.003028 0.017458 -0.002517 0.000001 -0.002074 0.000000
# 3 -0.000584 -0.002517 0.014260 0.000022 -0.005578 -0.000008
# 4 0.000016 0.000001 0.000022 0.086037 -0.000053 0.005456
# 5 -0.014008 -0.002074 -0.005578 -0.000053 0.052112 0.000014
# 6 -0.000005 0.000000 -0.000008 0.005456 0.000014 0.066460
#
#
# Mechanical properties :
#
#
# Convention : Reuss Voigt Hill
#
# Bulk Modulus (GPa) = 28.74517 39.97207 34.35862
# Shear Modulus (GPa) = 18.14812 23.32002 20.73407
#
# Velocity S-wave (km/s) = 3.35594 3.80420 3.58708
# Velocity P-wave (km/s) = 5.73194 6.64091 6.20309
#
# Compressibility (1/GPa) = 0.03478845
#
# Stress axis : x y z
#
# Youngs Moduli (GPa) = 65.23239 57.28032 70.12855
#
# Poissons Ratio (x) = 0.17347 0.04099
# Poissons Ratio (y) = 0.19755 0.17649
# Poissons Ratio (z) = 0.03813 0.14415
#
# Static dielectric constant tensor:
#      x y z
#    x 1.587680 0.000000 0.013990 
#    y 0.000000 1.525590 0.000010 
#    z 0.013990 0.000010 1.565790 
# 
# From -- ./inp_files/178471.got.cif
#   From: 2010.05.17/outbox.cif.g08.bks.cpg/sg12_90_cif.got.tgz:178471.got - 2010.06.03 13:09:07.
