data_PCOD9174693
_publ_section_title
;
Structure prediction by ZEFSAII (Michael W. Deem and Ramdas Pophale) SiO2 
 PCOD9174693
Probable space group: C 2/M
;
_chemical_formula_sum "Si O2"
_cell_formula_units_Z 48
_cell_length_a 28.759697
_cell_length_b 15.288728
_cell_length_c 20.893002
_cell_angle_alpha 90.000000
_cell_angle_beta 15.820650
_cell_angle_gamma 90.000000
_cell_volume 2504.525208
_symmetry_space_group_name_H-M "C 2/M"
_symmetry_group_IT_number 12
_symmetry_cell_setting 'monoclinic'
loop_
_space_group_symop_operation_xyz
x,y,z
-x,y,-z
-x,-y,-z
x,-y,z
1/2+x,1/2+y,z
1/2-x,1/2+y,-z
1/2-x,1/2-y,-z
1/2+x,1/2-y,z
loop_
_atom_site_type_symbol
_atom_site_label
_atom_site_fract_x
_atom_site_fract_y
_atom_site_fract_z
Si Si1 0.271266 0.393488 0.630935
Si Si2 0.815026 0.607047 0.720129
Si Si3 0.503982 0.599863 0.215798
Si Si4 0.054609 0.395267 0.028757
Si Si5 0.799020 0.894403 0.269283
Si Si6 0.804199 0.342300 0.456781
O O1 0.284362 0.500000 0.616244
O O2 0.432995 0.360512 0.376230
O O3 0.107845 0.375505 0.802030
O O4 0.218806 0.362751 0.771411
O O5 0.806743 0.500000 0.731373
O O6 0.781548 0.632616 0.691346
O O7 0.000000 0.633018 0.500000
O O8 0.662663 0.639935 0.967818
O O9 0.552662 0.500000 0.166204
O O10 0.342597 0.597117 0.380934
O O11 0.068389 0.500000 0.014770
O O12 0.991271 0.362380 0.181160
O O13 0.714955 0.850869 0.442389
O O14 0.784045 0.000000 0.296174
O O15 0.000000 0.873429 0.000000
O O16 0.750000 0.250000 0.500000
#
# Coordination Sequence:
#
# PCOD9174693 Si02
#       6
#     8   8   8   8   8   8
#     4   7  11  20  37  57  76 107 146 184 226 275
#     4   9  17  29  50  78 100 124 169 218 249 289
#     4   9  15  28  46  65  94 127 160 199 251 298
#     4   8  13  24  39  57  84 119 159 194 233 284
#     4  10  18  32  52  72  98 135 167 199 257 311
#     4  11  20  28  40  69 101 130 161 200 248 301
#
# _framework density 19.165310000000002
#
# number of rings (size 3 to 8) (size 9 to 14) (size 15 to 20)
#    0.000    3.000    1.667    3.500    0.000    0.000 
#    6.000    0.000    0.000    1.000    0.000    1.167 
#    0.000    8.000    0.000    0.000    0.000    3.667 
#
# Total GULP energy -133606.552867 kJ/mol
# GULP energy per Si atom -5566.939703 kJ/mol
# Density = 1.912169 g / cm^3
# Si number density = 19.165310 Si / 1000 Ang^3
#
#
#
# Elastic Constant Matrix: (Units=GPa)
#
#
# Indices 1 2 3 4 5 6 
#
# 1 100.0814 15.1773 94.0841 0.0036 29.6761 0.0002
# 2 15.1773 36.0094 18.5872 0.0040 11.7014 -0.0022
# 3 94.0841 18.5872 181.8419 0.0041 63.9714 -0.0027
# 4 0.0036 0.0040 0.0041 -4.3467 -0.0035 -0.7593
# 5 29.6761 11.7014 63.9714 -0.0035 42.2341 0.0008
# 6 0.0002 -0.0022 -0.0027 -0.7593 0.0008 5.6211
#
#
#
# Elastic Compliance Matrix: (Units=1/GPa)
#
#
# Indices 1 2 3 4 5 6 
#
# 1 0.020187 -0.003978 -0.011636 0.000000 0.004543 -0.000009
# 2 -0.003978 0.031310 0.001983 0.000031 -0.008883 0.000019
# 3 -0.011636 0.001983 0.018483 0.000023 -0.020369 0.000016
# 4 0.000000 0.000031 0.000023 -0.224758 -0.000062 -0.030361
# 5 0.004543 -0.008883 -0.020369 -0.000062 0.053799 -0.000029
# 6 -0.000009 0.000019 0.000016 -0.030361 -0.000029 0.173801
#
#
# Mechanical properties :
#
#
# Convention : Reuss Voigt Hill
#
# Bulk Modulus (GPa) = 23.40985 63.73664 43.57325
# Shear Modulus (GPa) = 43.73530 21.37397 32.55463
#
# Velocity S-wave (km/s) = 4.78221 3.34315 4.12591
# Velocity P-wave (km/s) = 6.53712 6.94483 6.74406
#
# Compressibility (1/GPa) = 0.04271706
#
# Stress axis : x y z
#
# Youngs Moduli (GPa) = 49.53674 31.93829 54.10448
#
# Poissons Ratio (x) = 0.12706 0.62957
# Poissons Ratio (y) = 0.19707 -0.10729
# Poissons Ratio (z) = 0.57642 -0.06333
#
# Static dielectric constant tensor:
#      x y z
#    x 1.652660 0.000000 0.055050 
#    y 0.000000 1.757690 0.000000 
#    z 0.055050 0.000000 1.729170 
# 
# From -- ./inp_files/293767.got.cif
#   From: 2010.05.17/outbox.cif.g08.bks.cpg/sg12_147_cif.got.tgz:293767.got - 2010.06.03 13:09:07.
