data_PCOD9174493
_publ_section_title
;
Structure prediction by ZEFSAII (Michael W. Deem and Ramdas Pophale) SiO2 
 PCOD9174493
Probable space group: C 2/M
;
_chemical_formula_sum "Si O2"
_cell_formula_units_Z 64
_cell_length_a 14.877244
_cell_length_b 7.535203
_cell_length_c 23.055400
_cell_angle_alpha 90.000000
_cell_angle_beta 84.192316
_cell_angle_gamma 90.000000
_cell_volume 2571.314470
_symmetry_space_group_name_H-M "C 2/M"
_symmetry_group_IT_number 12
_symmetry_cell_setting 'monoclinic'
loop_
_space_group_symop_operation_xyz
x,y,z
-x,y,-z
-x,-y,-z
x,-y,z
1/2+x,1/2+y,z
1/2-x,1/2+y,-z
1/2-x,1/2-y,-z
1/2+x,1/2-y,z
loop_
_atom_site_type_symbol
_atom_site_label
_atom_site_fract_x
_atom_site_fract_y
_atom_site_fract_z
Si Si1 0.181682 0.714473 0.344760
Si Si2 0.142589 0.790598 0.220042
Si Si3 0.306082 0.290329 0.438992
Si Si4 0.079308 0.283851 0.870866
Si Si5 0.263547 0.716367 0.905958
Si Si6 0.437179 0.200931 0.252691
Si Si7 0.478221 0.209927 0.371892
Si Si8 0.573018 0.704973 0.038327
O O1 0.182859 0.500000 0.347324
O O2 0.196089 0.764193 0.276830
O O3 0.252537 0.784723 0.386833
O O4 0.080434 0.776930 0.369152
O O5 0.194580 0.731752 0.159124
O O6 0.045778 0.697882 0.234479
O O7 0.124923 0.000000 0.215271
O O8 0.308588 0.500000 0.433122
O O9 0.250000 0.250000 0.500000
O O10 0.410056 0.231615 0.429273
O O11 0.074412 0.500000 0.870065
O O12 0.159076 0.230926 0.909734
O O13 0.100788 0.221045 0.804359
O O14 0.984161 0.209999 0.898195
O O15 0.265587 0.500000 0.908351
O O16 0.329862 0.783997 0.952072
O O17 0.431380 0.286865 0.316416
O O18 0.401416 0.000000 0.258231
O O19 0.486874 0.000000 0.360635
O O20 0.585278 0.500000 0.020230
O O21 0.500000 0.791952 0.000000
#
# Coordination Sequence:
#
# PCOD9174493 Si02
#       8
#     8   8   8   8   8   8   8   8
#     4   9  21  40  58  81 116 153 185 225 283 339
#     4  10  18  31  57  84 112 145 185 230 276 332
#     4  11  24  41  60  84 115 151 192 235 278 329
#     4  10  20  35  56  81 111 146 187 232 277 334
#     4   9  19  34  53  81 112 146 184 228 283 334
#     4   9  18  33  55  81 114 149 180 222 284 340
#     4   9  19  37  59  82 112 149 188 228 277 338
#     4  10  21  39  58  77 111 153 190 234 285 333
#
# _framework density 24.889996
#
# number of rings (size 3 to 8) (size 9 to 14) (size 15 to 20)
#    0.000    2.375    1.250    1.500    1.750    4.250 
#    0.000    4.375    0.000    0.000    0.000    0.000 
#    0.000    0.000    0.000    0.000    0.000    0.000 
#
# Total GULP energy -178844.342854 kJ/mol
# GULP energy per Si atom -5588.885714 kJ/mol
# Density = 2.483335 g / cm^3
# Si number density = 24.889996 Si / 1000 Ang^3
#
#
#
# Elastic Constant Matrix: (Units=GPa)
#
#
# Indices 1 2 3 4 5 6 
#
# 1 110.0066 2.6734 28.3369 0.0000 -0.1076 0.0000
# 2 2.6734 81.4493 -1.6979 0.0000 1.4290 0.0000
# 3 28.3369 -1.6979 50.6586 0.0000 -6.9858 0.0000
# 4 0.0000 0.0000 0.0000 20.1038 0.0000 -6.1474
# 5 -0.1076 1.4290 -6.9858 0.0000 44.8447 0.0000
# 6 0.0000 0.0000 0.0000 -6.1474 0.0000 13.8161
#
#
#
# Elastic Compliance Matrix: (Units=1/GPa)
#
#
# Indices 1 2 3 4 5 6 
#
# 1 0.010675 -0.000462 -0.006113 0.000000 -0.000912 0.000000
# 2 -0.000462 0.012311 0.000630 0.000000 -0.000295 0.000000
# 3 -0.006113 0.000630 0.023684 0.000000 0.003655 0.000000
# 4 0.000000 0.000000 0.000000 0.057575 0.000000 0.025618
# 5 -0.000912 -0.000295 0.003655 0.000000 0.022876 0.000000
# 6 0.000000 0.000000 0.000000 0.025618 0.000000 0.083778
#
#
# Mechanical properties :
#
#
# Convention : Reuss Voigt Hill
#
# Bulk Modulus (GPa) = 28.75035 33.41548 31.08292
# Shear Modulus (GPa) = 21.33266 29.93971 25.63618
#
# Velocity S-wave (km/s) = 2.93076 3.47202 3.21281
# Velocity P-wave (km/s) = 4.79881 5.43393 5.12622
#
# Compressibility (1/GPa) = 0.03478218
#
# Stress axis : x y z
#
# Youngs Moduli (GPa) = 93.67443 81.22781 42.22199
#
# Poissons Ratio (x) = 0.03751 0.25809
# Poissons Ratio (y) = 0.04326 -0.02661
# Poissons Ratio (z) = 0.57260 -0.05119
#
# Static dielectric constant tensor:
#      x y z
#    x 1.791970 0.000000 0.190360 
#    y 0.000000 1.926010 0.000000 
#    z 0.190360 0.000000 1.866320 
# 
# From -- ./inp_files/338893.got.cif
#   From: 2010.05.17/outbox.cif.g08.bks.cpg/sg12_170_cif.got.tgz:338893.got - 2010.06.03 13:09:07.
