data_PCOD9174424
_publ_section_title
;
Structure prediction by ZEFSAII (Michael W. Deem and Ramdas Pophale) SiO2 
 PCOD9174424
Probable space group: C 2/M
;
_chemical_formula_sum "Si O2"
_cell_formula_units_Z 48
_cell_length_a 15.129555
_cell_length_b 26.983009
_cell_length_c 10.358300
_cell_angle_alpha 90.000000
_cell_angle_beta 153.017913
_cell_angle_gamma 90.000000
_cell_volume 1918.603356
_symmetry_space_group_name_H-M "C 2/M"
_symmetry_group_IT_number 12
_symmetry_cell_setting 'monoclinic'
loop_
_space_group_symop_operation_xyz
x,y,z
-x,y,-z
-x,-y,-z
x,-y,z
1/2+x,1/2+y,z
1/2-x,1/2+y,-z
1/2-x,1/2-y,-z
1/2+x,1/2-y,z
loop_
_atom_site_type_symbol
_atom_site_label
_atom_site_fract_x
_atom_site_fract_y
_atom_site_fract_z
Si Si1 0.731273 0.582275 0.806957
Si Si2 0.759316 0.945383 0.466749
Si Si3 0.817444 0.305976 0.863973
Si Si4 0.236062 0.866565 0.309787
Si Si5 0.907590 0.261616 0.594124
Si Si6 0.231835 0.054042 0.089806
O O1 0.500000 0.574161 0.500000
O O2 0.799652 0.561241 0.758974
O O3 0.800946 0.560020 0.032712
O O4 0.774582 0.640332 0.862258
O O5 0.708475 0.898481 0.490176
O O6 0.995571 0.945119 0.778785
O O7 0.696902 0.000000 0.431671
O O8 0.890526 0.269186 0.070622
O O9 0.629292 0.283448 0.549408
O O10 0.000000 0.309456 0.000000
O O11 0.343052 0.814054 0.449477
O O12 0.286254 0.901358 0.254378
O O13 0.000000 0.858318 0.000000
O O14 0.750000 0.250000 0.500000
O O15 0.286078 0.000000 0.212292
#
# Coordination Sequence:
#
# PCOD9174424 Si02
#       6
#     8   8   8   8   8   8
#     4  10  20  35  57  85 118 152 190 239 293 342
#     4   9  16  28  52  84 113 147 195 242 279 332
#     4  10  21  38  61  85 114 152 197 241 289 353
#     4  10  18  31  55  84 114 150 196 243 285 338
#     4  10  20  36  59  84 113 150 195 243 294 346
#     4   9  18  32  52  81 116 152 190 235 286 339
#
# _framework density 25.018198000000002
#
# number of rings (size 3 to 8) (size 9 to 14) (size 15 to 20)
#    0.000    2.333    0.000    4.500    0.000    6.667 
#    0.000    4.167    0.000   12.000    0.000    0.000 
#    0.000    0.000    0.000    0.000    0.000    0.000 
#
# Total GULP energy -134395.178233 kJ/mol
# GULP energy per Si atom -5599.799093 kJ/mol
# Density = 2.496126 g / cm^3
# Si number density = 25.018198 Si / 1000 Ang^3
#
#
#
# Elastic Constant Matrix: (Units=GPa)
#
#
# Indices 1 2 3 4 5 6 
#
# 1 66.6752 1.9026 31.3083 0.0000 -4.9297 0.0000
# 2 1.9026 90.2441 -8.7079 0.0000 -22.8177 0.0000
# 3 31.3083 -8.7079 50.2757 0.0000 -11.6972 0.0000
# 4 0.0000 0.0000 0.0000 104.0582 0.0000 -9.5158
# 5 -4.9297 -22.8177 -11.6972 0.0000 42.2644 0.0000
# 6 0.0000 0.0000 0.0000 -9.5158 0.0000 36.0391
#
#
#
# Elastic Compliance Matrix: (Units=1/GPa)
#
#
# Indices 1 2 3 4 5 6 
#
# 1 0.021749 -0.002619 -0.014682 0.000000 -0.002940 0.000000
# 2 -0.002619 0.013990 0.006135 0.000000 0.008945 0.000000
# 3 -0.014682 0.006135 0.032565 0.000000 0.010612 0.000000
# 4 0.000000 0.000000 0.000000 0.009848 0.000000 0.002600
# 5 -0.002940 0.008945 0.010612 0.000000 0.031084 0.000000
# 6 0.000000 0.000000 0.000000 0.002600 0.000000 0.028434
#
#
# Mechanical properties :
#
#
# Convention : Reuss Voigt Hill
#
# Bulk Modulus (GPa) = 21.75153 28.46679 25.10916
# Shear Modulus (GPa) = 28.51839 48.65180 38.58509
#
# Velocity S-wave (km/s) = 3.37991 4.41461 3.93145
# Velocity P-wave (km/s) = 4.89335 6.11459 5.53774
#
# Compressibility (1/GPa) = 0.04597379
#
# Stress axis : x y z
#
# Youngs Moduli (GPa) = 45.97830 71.47931 30.70804
#
# Poissons Ratio (x) = 0.18718 0.45085
# Poissons Ratio (y) = 0.12040 -0.18840
# Poissons Ratio (z) = 0.67504 -0.43853
#
# Static dielectric constant tensor:
#      x y z
#    x 1.964600 0.000000 0.034140 
#    y 0.000000 1.877410 0.000000 
#    z 0.034140 0.000000 1.990510 
# 
# From -- ./inp_files/52408.got.cif
#   From: 2010.05.17/outbox.cif.g08.bks.cpg/sg12_27_cif.got.tgz:52408.got - 2010.06.03 13:09:07.
