data_PCOD9174115
_publ_section_title
;
Structure prediction by ZEFSAII (Michael W. Deem and Ramdas Pophale) SiO2 
 PCOD9174115
Probable space group: C 2/M
;
_chemical_formula_sum "Si O2"
_cell_formula_units_Z 40
_cell_length_a 11.992035
_cell_length_b 16.896421
_cell_length_c 9.767461
_cell_angle_alpha 90.000000
_cell_angle_beta 105.948089
_cell_angle_gamma 90.000000
_cell_volume 1902.933307
_symmetry_space_group_name_H-M "C 2/M"
_symmetry_group_IT_number 12
_symmetry_cell_setting 'monoclinic'
loop_
_space_group_symop_operation_xyz
x,y,z
-x,y,-z
-x,-y,-z
x,-y,z
1/2+x,1/2+y,z
1/2-x,1/2+y,-z
1/2-x,1/2-y,-z
1/2+x,1/2-y,z
loop_
_atom_site_type_symbol
_atom_site_label
_atom_site_fract_x
_atom_site_fract_y
_atom_site_fract_z
Si Si1 0.896940 0.157979 0.573221
Si Si2 0.461439 0.379053 0.136752
Si Si3 0.708330 0.195583 0.320063
Si Si4 0.349241 0.221368 0.138378
Si Si5 0.313122 0.910072 0.936482
O O1 0.781781 0.139905 0.447088
O O2 0.871245 0.246587 0.619234
O O3 0.000000 0.157755 0.500000
O O4 0.942777 0.104786 0.714735
O O5 0.450222 0.283131 0.138901
O O6 0.329550 0.407612 0.117139
O O7 0.500000 0.404081 0.000000
O O8 0.797789 0.255499 0.269223
O O9 0.651392 0.143070 0.182163
O O10 0.250000 0.250000 0.000000
O O11 0.358998 0.131661 0.091372
O O12 0.350287 0.000000 0.939188
#
# Coordination Sequence:
#
# PCOD9174115 Si02
#       5
#     8   8   8   8   8
#     4  11  17  31  56  83  97 128 172 222 258 297
#     4  10  18  31  52  80 103 129 173 218 253 300
#     4   9  19  32  51  78 107 131 174 215 255 299
#     4   8  15  30  47  71  98 134 167 209 244 290
#     4  10  19  32  49  74 111 141 165 205 264 315
#
# _framework density 21.020178999999999
#
# number of rings (size 3 to 8) (size 9 to 14) (size 15 to 20)
#    0.000    2.800    4.000    3.600    0.000    0.400 
#    0.000    2.000    0.000   13.200    0.000    0.000 
#    0.000    0.000    0.000    0.000    0.000    0.000 
#
# Total GULP energy -111336.813527 kJ/mol
# GULP energy per Si atom -5566.840676 kJ/mol
# Density = 2.097234 g / cm^3
# Si number density = 21.020179 Si / 1000 Ang^3
#
#
#
# Elastic Constant Matrix: (Units=GPa)
#
#
# Indices 1 2 3 4 5 6 
#
# 1 30.4663 -12.7225 18.1028 0.0000 7.4377 0.0000
# 2 -12.7225 94.7846 13.1795 0.0000 -5.5145 0.0000
# 3 18.1028 13.1795 120.1233 0.0000 -4.0256 0.0000
# 4 0.0000 0.0000 0.0000 7.0314 0.0000 -0.4349
# 5 7.4377 -5.5145 -4.0256 0.0000 34.5716 0.0000
# 6 0.0000 0.0000 0.0000 -0.4349 0.0000 2.4167
#
#
#
# Elastic Compliance Matrix: (Units=1/GPa)
#
#
# Indices 1 2 3 4 5 6 
#
# 1 0.041869 0.006115 -0.007278 0.000000 -0.008880 0.000000
# 2 0.006115 0.011693 -0.002195 0.000000 0.000294 0.000000
# 3 -0.007278 -0.002195 0.009741 0.000000 0.002350 0.000000
# 4 0.000000 0.000000 0.000000 0.143820 0.000000 0.025883
# 5 -0.008880 0.000294 0.002350 0.000000 0.031156 0.000000
# 6 0.000000 0.000000 0.000000 0.025883 0.000000 0.418453
#
#
# Mechanical properties :
#
#
# Convention : Reuss Voigt Hill
#
# Bulk Modulus (GPa) = 17.67141 31.38818 24.52980
# Shear Modulus (GPa) = 7.32803 23.92490 15.62646
#
# Velocity S-wave (km/s) = 1.86916 3.37736 2.72950
# Velocity P-wave (km/s) = 3.61711 5.49305 4.65065
#
# Compressibility (1/GPa) = 0.05658857
#
# Stress axis : x y z
#
# Youngs Moduli (GPa) = 23.88381 85.51876 102.65694
#
# Poissons Ratio (x) = -0.52298 0.74717
# Poissons Ratio (y) = -0.14606 0.22530
# Poissons Ratio (z) = 0.17383 0.18769
#
# Static dielectric constant tensor:
#      x y z
#    x 1.841030 0.000000 0.058710 
#    y 0.000000 1.840720 0.000000 
#    z 0.058710 0.000000 1.844870 
# 
# From -- ./inp_files/60387.got.cif
#   From: 2010.05.17/outbox.cif.g08.bks.cpg/sg12_31_cif.got.tgz:60387.got - 2010.06.03 13:09:07.
