data_PCOD9174394
_publ_section_title
;
Structure prediction by ZEFSAII (Michael W. Deem and Ramdas Pophale) SiO2 
 PCOD9174394
Probable space group: C 2/M
;
_chemical_formula_sum "Si O2"
_cell_formula_units_Z 64
_cell_length_a 9.825994
_cell_length_b 19.840544
_cell_length_c 25.512541
_cell_angle_alpha 90.000000
_cell_angle_beta 46.501668
_cell_angle_gamma 90.000000
_cell_volume 3607.929067
_symmetry_space_group_name_H-M "C 2/M"
_symmetry_group_IT_number 12
_symmetry_cell_setting 'monoclinic'
loop_
_space_group_symop_operation_xyz
x,y,z
-x,y,-z
-x,-y,-z
x,-y,z
1/2+x,1/2+y,z
1/2-x,1/2+y,-z
1/2-x,1/2-y,-z
1/2+x,1/2-y,z
loop_
_atom_site_type_symbol
_atom_site_label
_atom_site_fract_x
_atom_site_fract_y
_atom_site_fract_z
Si Si1 0.585244 0.766887 0.127536
Si Si2 0.151816 0.797652 0.569380
Si Si3 0.638721 0.576747 0.204871
Si Si4 0.969734 0.649170 0.255057
Si Si5 0.078241 0.323554 0.925786
Si Si6 0.234485 0.273051 0.347456
Si Si7 0.425893 0.420120 0.656106
Si Si8 0.673877 0.359602 0.772642
O O1 0.526867 0.827566 0.181729
O O2 0.781276 0.735872 0.093675
O O3 0.578759 0.793482 0.070453
O O4 0.433997 0.705713 0.174440
O O5 0.250000 0.750000 0.500000
O O6 0.273126 0.791872 0.589920
O O7 0.946312 0.764664 0.626758
O O8 0.085429 0.876159 0.583673
O O9 0.703626 0.500000 0.191111
O O10 0.799638 0.626157 0.141933
O O11 0.569714 0.595514 0.282138
O O12 0.477494 0.584686 0.203444
O O13 0.906982 0.720714 0.297044
O O14 0.784877 0.602529 0.304936
O O15 0.149982 0.621860 0.238200
O O16 0.000000 0.354875 0.000000
O O17 0.258663 0.334656 0.302156
O O18 0.451133 0.500000 0.642305
#
# Coordination Sequence:
#
# PCOD9174394 Si02
#       8
#     8   8   8   8   8   8   8   8
#     4  10  19  31  50  83 110 139 180 227 283 332
#     4  11  21  35  57  83 115 142 180 224 274 331
#     4  10  21  36  55  78 107 147 190 225 267 330
#     4  10  18  31  56  80 110 140 176 231 275 322
#     4  11  21  34  53  79 113 145 177 230 286 330
#     4  10  19  31  52  86 109 134 178 221 273 324
#     4  10  21  37  58  82 110 148 190 229 272 326
#     4  10  18  31  55  80 110 139 177 232 272 318
#
# _framework density 17.738707000000002
#
# number of rings (size 3 to 8) (size 9 to 14) (size 15 to 20)
#    0.000    1.750    5.000    0.750    0.000    0.750 
#    0.000    0.000    0.000    8.250    0.000    0.875 
#    0.000    0.000    0.000    0.000    0.000    0.000 
#
# Total GULP energy -178175.571777 kJ/mol
# GULP energy per Si atom -5567.986618 kJ/mol
# Density = 1.769833 g / cm^3
# Si number density = 17.738707 Si / 1000 Ang^3
#
#
#
# Elastic Constant Matrix: (Units=GPa)
#
#
# Indices 1 2 3 4 5 6 
#
# 1 97.8546 19.0754 4.2981 -0.0004 7.9279 0.0003
# 2 19.0754 68.4482 23.3202 0.0002 6.2789 0.0001
# 3 4.2981 23.3202 49.8860 0.0007 12.8895 0.0000
# 4 -0.0004 0.0002 0.0007 16.9011 0.0003 6.0657
# 5 7.9279 6.2789 12.8895 0.0003 24.3602 -0.0002
# 6 0.0003 0.0001 0.0000 6.0657 -0.0002 5.8480
#
#
#
# Elastic Compliance Matrix: (Units=1/GPa)
#
#
# Indices 1 2 3 4 5 6 
#
# 1 0.011079 -0.003270 0.001492 0.000001 -0.003552 -0.000002
# 2 -0.003270 0.018343 -0.008510 0.000000 0.000839 0.000000
# 3 0.001492 -0.008510 0.027168 -0.000001 -0.012667 0.000001
# 4 0.000001 0.000000 -0.000001 0.094254 -0.000002 -0.097762
# 5 -0.003552 0.000839 -0.012667 -0.000002 0.048693 0.000004
# 6 -0.000002 0.000000 0.000001 -0.097762 0.000004 0.272399
#
#
# Mechanical properties :
#
#
# Convention : Reuss Voigt Hill
#
# Bulk Modulus (GPa) = 27.76667 34.39734 31.08200
# Shear Modulus (GPa) = 9.91047 20.72153 15.31600
#
# Velocity S-wave (km/s) = 2.36623 3.42153 2.94159
# Velocity P-wave (km/s) = 4.81171 5.91966 5.39421
#
# Compressibility (1/GPa) = 0.03601440
#
# Stress axis : x y z
#
# Youngs Moduli (GPa) = 90.26137 54.51594 36.80751
#
# Poissons Ratio (x) = 0.17826 -0.05491
# Poissons Ratio (y) = 0.29515 0.31323
# Poissons Ratio (z) = -0.13466 0.46393
#
# Static dielectric constant tensor:
#      x y z
#    x 1.616550 0.000000 -0.005980 
#    y 0.000000 1.631130 0.000000 
#    z -0.005980 0.000000 1.648100 
# 
# From -- ./inp_files/333595.got.cif
#   From: 2010.05.17/outbox.cif.g08.bks.cpg/sg12_167_cif.got.tgz:333595.got - 2010.06.03 13:09:07.
