data_PCOD9174064
_publ_section_title
;
Structure prediction by ZEFSAII (Michael W. Deem and Ramdas Pophale) SiO2 
 PCOD9174064
Probable space group: C 2/M
;
_chemical_formula_sum "Si O2"
_cell_formula_units_Z 64
_cell_length_a 10.547419
_cell_length_b 21.538225
_cell_length_c 17.959100
_cell_angle_alpha 90.000000
_cell_angle_beta 135.413535
_cell_angle_gamma 90.000000
_cell_volume 2863.969608
_symmetry_space_group_name_H-M "C 2/M"
_symmetry_group_IT_number 12
_symmetry_cell_setting 'monoclinic'
loop_
_space_group_symop_operation_xyz
x,y,z
-x,y,-z
-x,-y,-z
x,-y,z
1/2+x,1/2+y,z
1/2-x,1/2+y,-z
1/2-x,1/2-y,-z
1/2+x,1/2-y,z
loop_
_atom_site_type_symbol
_atom_site_label
_atom_site_fract_x
_atom_site_fract_y
_atom_site_fract_z
Si Si1 0.812103 0.429688 0.211873
Si Si2 0.792947 0.145925 0.520702
Si Si3 0.294424 0.815760 0.923296
Si Si4 0.519214 0.770501 0.594882
Si Si5 0.755683 0.430858 0.635719
Si Si6 0.275555 0.826994 0.076275
Si Si7 0.210722 0.317553 0.243409
Si Si8 0.295390 0.929944 0.380677
O O1 0.740786 0.500000 0.168846
O O2 0.738062 0.377962 0.123770
O O3 0.788384 0.415742 0.289986
O O4 0.027299 0.433245 0.285930
O O5 0.594843 0.174889 0.415580
O O6 0.915532 0.206027 0.565076
O O7 0.827236 0.091073 0.477271
O O8 0.799130 0.119135 0.605754
O O9 0.296385 0.741047 0.933523
O O10 0.216101 0.827712 0.809322
O O11 0.500000 0.838760 0.000000
O O12 0.212415 0.842421 0.965356
O O13 0.500000 0.783803 0.500000
O O14 0.718896 0.750217 0.700965
O O15 0.698925 0.500000 0.634452
O O16 0.723465 0.374670 0.678834
O O17 0.493460 0.818803 0.158768
O O18 0.500000 0.930840 0.500000
O O19 0.225163 0.000000 0.361268
#
# Coordination Sequence:
#
# PCOD9174064 Si02
#       8
#     8   8   8   8   8   8   8   8
#     4   9  18  31  54  84 108 140 186 230 277 328
#     4  11  22  35  50  75 116 154 187 235 270 322
#     4   9  19  36  58  86 110 137 180 227 284 348
#     4  11  24  36  49  78 118 149 192 222 280 340
#     4  10  19  35  55  78 107 148 197 231 265 324
#     4   9  19  36  59  82 111 141 181 232 279 340
#     4  10  21  36  56  79 110 148 181 234 280 328
#     4  10  18  31  52  77 105 141 190 234 270 318
#
# _framework density 22.346606000000001
#
# number of rings (size 3 to 8) (size 9 to 14) (size 15 to 20)
#    0.000    2.125    2.500    0.750    3.500    0.000 
#    0.000    2.500    0.000    4.125    0.000    0.000 
#    0.000    0.000    0.000    0.000    0.000    0.000 
#
# Total GULP energy -178679.020066 kJ/mol
# GULP energy per Si atom -5583.719377 kJ/mol
# Density = 2.229574 g / cm^3
# Si number density = 22.346606 Si / 1000 Ang^3
#
#
#
# Elastic Constant Matrix: (Units=GPa)
#
#
# Indices 1 2 3 4 5 6 
#
# 1 53.2809 28.0607 26.3273 -0.0002 -27.8396 -0.0001
# 2 28.0607 87.3729 15.7274 0.0000 -21.5241 0.0000
# 3 26.3273 15.7274 76.7597 -0.0002 -37.7670 -0.0001
# 4 -0.0002 0.0000 -0.0002 4.1761 -0.0002 -19.4150
# 5 -27.8396 -21.5241 -37.7670 -0.0002 46.4976 -0.0001
# 6 -0.0001 0.0000 -0.0001 -19.4150 -0.0001 20.9319
#
#
#
# Elastic Compliance Matrix: (Units=1/GPa)
#
#
# Indices 1 2 3 4 5 6 
#
# 1 0.030048 -0.005950 -0.002649 -0.000001 0.013085 -0.000001
# 2 -0.005950 0.014108 0.001017 0.000000 0.003794 0.000000
# 3 -0.002649 0.001017 0.021952 -0.000001 0.016715 -0.000001
# 4 -0.000001 0.000000 -0.000001 -0.072296 -0.000002 -0.067057
# 5 0.013085 0.003794 0.016715 -0.000002 0.044673 -0.000001
# 6 -0.000001 0.000000 -0.000001 -0.067057 -0.000001 -0.014424
#
#
# Mechanical properties :
#
#
# Convention : Reuss Voigt Hill
#
# Bulk Modulus (GPa) = 19.62958 39.73825 29.68392
# Shear Modulus (GPa) = 88.95856 24.14099 56.54977
#
# Velocity S-wave (km/s) = 6.31625 3.29035 5.03594
# Velocity P-wave (km/s) = 7.87378 5.67948 6.86487
#
# Compressibility (1/GPa) = 0.05094351
#
# Stress axis : x y z
#
# Youngs Moduli (GPa) = 33.28032 70.88324 45.55445
#
# Poissons Ratio (x) = 0.42175 0.12067
# Poissons Ratio (y) = 0.19802 -0.04633
# Poissons Ratio (z) = 0.08816 -0.07209
#
# Static dielectric constant tensor:
#      x y z
#    x 1.905120 0.000000 0.054050 
#    y 0.000000 1.780150 0.000000 
#    z 0.054050 0.000000 1.891500 
# 
# From -- ./inp_files/265080.got.cif
#   From: 2010.05.17/outbox.cif.g08.bks.cpg/sg12_133_cif.got.tgz:265080.got - 2010.06.03 13:09:07.
