data_PCOD9174445
_publ_section_title
;
Structure prediction by ZEFSAII (Michael W. Deem and Ramdas Pophale) SiO2 
 PCOD9174445
Probable space group: C 2/M
;
_chemical_formula_sum "Si O2"
_cell_formula_units_Z 56
_cell_length_a 14.414500
_cell_length_b 19.027946
_cell_length_c 18.687518
_cell_angle_alpha 90.000000
_cell_angle_beta 35.013215
_cell_angle_gamma 90.000000
_cell_volume 2940.880906
_symmetry_space_group_name_H-M "C 2/M"
_symmetry_group_IT_number 12
_symmetry_cell_setting 'monoclinic'
loop_
_space_group_symop_operation_xyz
x,y,z
-x,y,-z
-x,-y,-z
x,-y,z
1/2+x,1/2+y,z
1/2-x,1/2+y,-z
1/2-x,1/2-y,-z
1/2+x,1/2-y,z
loop_
_atom_site_type_symbol
_atom_site_label
_atom_site_fract_x
_atom_site_fract_y
_atom_site_fract_z
Si Si1 0.037775 0.858615 0.398949
Si Si2 0.750700 0.500000 0.623840
Si Si3 0.423774 0.750545 0.856561
Si Si4 0.896559 0.707408 0.497102
Si Si5 0.642358 0.227871 0.853944
Si Si6 0.568721 0.368312 0.685629
Si Si7 0.624257 0.150723 0.235138
Si Si8 0.915354 0.500000 0.675455
O O1 0.216178 0.826744 0.263595
O O2 0.000000 0.894707 0.500000
O O3 0.924780 0.789767 0.477953
O O4 0.972534 0.894136 0.367948
O O5 0.636128 0.433043 0.687267
O O6 0.827451 0.500000 0.653986
O O7 0.894410 0.500000 0.471970
O O8 0.554707 0.748193 0.836562
O O9 0.427143 0.680593 0.805105
O O10 0.430545 0.822960 0.807800
O O11 0.250000 0.750000 0.000000
O O12 0.713106 0.687605 0.604405
O O13 0.000000 0.679907 0.500000
O O14 0.980213 0.674282 0.376833
O O15 0.729289 0.296764 0.833895
O O16 0.500000 0.203817 0.000000
O O17 0.637444 0.068692 0.245631
#
# Coordination Sequence:
#
# PCOD9174445 Si02
#       8
#     8   4   8   8   8   8   8   4
#     4  10  21  33  55  89 119 156 200 269 313 352
#     4  11  24  36  62  88 132 176 187 256 309 387
#     4  12  23  39  64  89 117 162 214 264 309 362
#     4  10  18  31  55  87 117 152 189 253 311 358
#     4  11  21  39  59  88 123 155 208 260 317 363
#     4  12  21  37  58  88 122 157 213 244 309 377
#     4  11  22  38  60  92 124 166 198 255 306 376
#     4  11  22  40  56  93 135 163 205 232 328 388
#
# _framework density 19.041913999999998
#
# number of rings (size 3 to 8) (size 9 to 14) (size 15 to 20)
#    0.000    1.000    5.714    4.714    2.000    0.000 
#    0.000    1.429    0.000    0.857    0.000    2.000 
#    0.000    0.000    0.000    0.000    0.000    0.000 
#
# Total GULP energy -155888.809605 kJ/mol
# GULP energy per Si atom -5567.457486 kJ/mol
# Density = 1.899857 g / cm^3
# Si number density = 19.041914 Si / 1000 Ang^3
#
#
#
# Elastic Constant Matrix: (Units=GPa)
#
#
# Indices 1 2 3 4 5 6 
#
# 1 90.3605 18.5225 15.2532 -0.0010 11.4490 -0.0007
# 2 18.5225 61.2482 13.4645 0.0030 1.2806 -0.0004
# 3 15.2532 13.4645 95.6113 0.0063 10.7005 0.0011
# 4 -0.0010 0.0030 0.0063 -3.2936 0.0005 -11.7694
# 5 11.4490 1.2806 10.7005 0.0005 30.5283 0.0003
# 6 -0.0007 -0.0004 0.0011 -11.7694 0.0003 14.8402
#
#
#
# Elastic Compliance Matrix: (Units=1/GPa)
#
#
# Indices 1 2 3 4 5 6 
#
# 1 0.012479 -0.003459 -0.001037 -0.000003 -0.004172 -0.000002
# 2 -0.003459 0.017808 -0.002100 0.000003 0.001286 0.000003
# 3 -0.001037 -0.002100 0.011310 0.000006 -0.003487 0.000004
# 4 -0.000003 0.000003 0.000006 -0.079191 0.000001 -0.062805
# 5 -0.004172 0.001286 -0.003487 0.000001 0.035489 0.000000
# 6 -0.000002 0.000003 0.000004 -0.062805 0.000000 0.017576
#
#
# Mechanical properties :
#
#
# Convention : Reuss Voigt Hill
#
# Bulk Modulus (GPa) = 35.20349 37.96671 36.58510
# Shear Modulus (GPa) = 131.12511 21.74697 76.43604
#
# Velocity S-wave (km/s) = 8.30727 3.38310 6.34256
# Velocity P-wave (km/s) = 10.51389 5.93652 8.53769
#
# Compressibility (1/GPa) = 0.02840627
#
# Stress axis : x y z
#
# Youngs Moduli (GPa) = 80.13229 56.15533 88.41361
#
# Poissons Ratio (x) = 0.19423 0.09168
# Poissons Ratio (y) = 0.27716 0.18566
# Poissons Ratio (z) = 0.08309 0.11792
#
# Static dielectric constant tensor:
#      x y z
#    x 1.732120 0.000000 0.004230 
#    y 0.000000 1.731070 0.000000 
#    z 0.004230 0.000000 1.728860 
# 
# From -- ./inp_files/294082.got.cif
#   From: 2010.05.17/outbox.cif.g08.bks.cpg/sg12_148_cif.got.tgz:294082.got - 2010.06.03 13:09:07.
