data_PCOD9174250
_publ_section_title
;
Structure prediction by ZEFSAII (Michael W. Deem and Ramdas Pophale) SiO2 
 PCOD9174250
Probable space group: C 2/M
;
_chemical_formula_sum "Si O2"
_cell_formula_units_Z 60
_cell_length_a 22.573088
_cell_length_b 10.533148
_cell_length_c 13.644745
_cell_angle_alpha 90.000000
_cell_angle_beta 111.481781
_cell_angle_gamma 90.000000
_cell_volume 3018.887017
_symmetry_space_group_name_H-M "C 2/M"
_symmetry_group_IT_number 12
_symmetry_cell_setting 'monoclinic'
loop_
_space_group_symop_operation_xyz
x,y,z
-x,y,-z
-x,-y,-z
x,-y,z
1/2+x,1/2+y,z
1/2-x,1/2+y,-z
1/2-x,1/2-y,-z
1/2+x,1/2-y,z
loop_
_atom_site_type_symbol
_atom_site_label
_atom_site_fract_x
_atom_site_fract_y
_atom_site_fract_z
Si Si1 0.402061 0.768150 0.155888
Si Si2 0.463144 0.144151 0.684144
Si Si3 0.126861 0.856422 0.658623
Si Si4 0.767706 0.364830 0.080309
Si Si5 0.000000 0.255289 0.500000
Si Si6 0.768202 0.354236 0.306807
Si Si7 0.926518 0.849114 0.964908
Si Si8 0.629227 0.649797 0.283945
O O1 0.472032 0.824025 0.217183
O O2 0.387637 0.668446 0.234709
O O3 0.344286 0.865370 0.132424
O O4 0.398271 0.713211 0.044642
O O5 0.482591 0.160160 0.582898
O O6 0.410681 0.250986 0.676519
O O7 0.442351 0.000000 0.692363
O O8 0.060512 0.829898 0.564439
O O9 0.177529 0.751659 0.652499
O O10 0.149063 0.000000 0.656999
O O11 0.743423 0.500000 0.028037
O O12 0.746083 0.348697 0.179223
O O13 0.750000 0.250000 0.000000
O O14 0.791041 0.500000 0.336612
O O15 0.705351 0.332965 0.333514
O O16 0.892750 0.824581 0.841346
O O17 0.925621 0.000000 0.979903
O O18 0.000000 0.808492 0.000000
O O19 0.614973 0.500000 0.296338
#
# Coordination Sequence:
#
# PCOD9174250 Si02
#       8
#     8   8   8   8   4   8   8   8
#     4  10  20  35  55  83 121 153 191 238 291 337
#     4  11  23  40  62  87 113 148 191 239 293 350
#     4  10  21  37  63  93 117 144 190 247 292 335
#     4  10  20  34  53  77 110 153 199 241 281 331
#     4  10  24  42  64  88 116 146 180 234 304 364
#     4   9  20  38  57  80 117 160 193 228 286 350
#     4  10  18  31  53  81 117 162 201 227 270 339
#     4  10  21  38  59  85 120 160 198 236 279 336
#
# _framework density 19.874873999999998
#
# number of rings (size 3 to 8) (size 9 to 14) (size 15 to 20)
#    0.000    2.000    1.333    2.000    0.000   10.667 
#    0.000    4.000    0.000    0.000    0.000    0.000 
#    0.000    0.000    0.000    0.000    0.000    0.000 
#
# Total GULP energy -167457.424992 kJ/mol
# GULP energy per Si atom -5581.914166 kJ/mol
# Density = 1.982964 g / cm^3
# Si number density = 19.874874 Si / 1000 Ang^3
#
#
#
# Elastic Constant Matrix: (Units=GPa)
#
#
# Indices 1 2 3 4 5 6 
#
# 1 114.9683 67.0930 17.8320 0.0000 -3.0075 0.0000
# 2 67.0930 144.6828 35.7339 0.0000 8.5845 0.0000
# 3 17.8320 35.7339 44.1888 0.0000 -1.4213 0.0000
# 4 0.0000 0.0000 0.0000 2.5737 0.0000 2.6848
# 5 -3.0075 8.5845 -1.4213 0.0000 22.3014 0.0000
# 6 0.0000 0.0000 0.0000 2.6848 0.0000 15.6327
#
#
#
# Elastic Compliance Matrix: (Units=1/GPa)
#
#
# Indices 1 2 3 4 5 6 
#
# 1 0.012253 -0.005904 -0.000044 0.000000 0.003922 0.000000
# 2 -0.005904 0.011811 -0.007356 0.000000 -0.005811 0.000000
# 3 -0.000044 -0.007356 0.028746 0.000000 0.004657 0.000000
# 4 0.000000 0.000000 0.000000 0.473336 0.000000 -0.081291
# 5 0.003922 -0.005811 0.004657 0.000000 0.047903 0.000000
# 6 0.000000 0.000000 0.000000 -0.081291 0.000000 0.077929
#
#
# Mechanical properties :
#
#
# Convention : Reuss Voigt Hill
#
# Bulk Modulus (GPa) = 38.16410 60.57310 49.36860
# Shear Modulus (GPa) = 7.27464 20.31362 13.79413
#
# Velocity S-wave (km/s) = 1.91525 3.20046 2.63734
# Velocity P-wave (km/s) = 4.91271 6.64836 5.84531
#
# Compressibility (1/GPa) = 0.02620264
#
# Stress axis : x y z
#
# Youngs Moduli (GPa) = 81.61408 84.66787 34.78748
#
# Poissons Ratio (x) = 0.49985 0.00154
# Poissons Ratio (y) = 0.48183 0.25588
# Poissons Ratio (z) = 0.00361 0.62278
#
# Static dielectric constant tensor:
#      x y z
#    x 1.727460 0.000000 0.012600 
#    y 0.000000 1.687080 0.000000 
#    z 0.012600 0.000000 1.701970 
# 
# From -- ./inp_files/238859.got.cif
#   From: 2010.05.17/outbox.cif.g08.bks.cpg/sg12_120_cif.got.tgz:238859.got - 2010.06.03 13:09:07.
