data_PCOD9174333
_publ_section_title
;
Structure prediction by ZEFSAII (Michael W. Deem and Ramdas Pophale) SiO2 
 PCOD9174333
Probable space group: C 2/M
;
_chemical_formula_sum "Si O2"
_cell_formula_units_Z 48
_cell_length_a 22.219531
_cell_length_b 20.877685
_cell_length_c 16.488056
_cell_angle_alpha 90.000000
_cell_angle_beta 18.504245
_cell_angle_gamma 90.000000
_cell_volume 2427.500239
_symmetry_space_group_name_H-M "C 2/M"
_symmetry_group_IT_number 12
_symmetry_cell_setting 'monoclinic'
loop_
_space_group_symop_operation_xyz
x,y,z
-x,y,-z
-x,-y,-z
x,-y,z
1/2+x,1/2+y,z
1/2-x,1/2+y,-z
1/2-x,1/2-y,-z
1/2+x,1/2-y,z
loop_
_atom_site_type_symbol
_atom_site_label
_atom_site_fract_x
_atom_site_fract_y
_atom_site_fract_z
Si Si1 0.268650 0.666608 0.551014
Si Si2 0.726413 0.927034 0.734936
Si Si3 0.648131 0.275845 0.005641
Si Si4 0.197971 0.784681 0.756065
Si Si5 0.095815 0.339991 0.196276
Si Si6 0.546605 0.925048 0.123854
O O1 0.340338 0.619160 0.530548
O O2 0.434057 0.697134 0.286206
O O3 0.181182 0.723787 0.717008
O O4 0.121365 0.624403 0.687151
O O5 0.783021 0.000000 0.649716
O O6 0.500000 0.921553 0.000000
O O7 0.716670 0.912885 0.842600
O O8 0.655756 0.211772 0.050336
O O9 0.713945 0.265224 0.829921
O O10 0.776846 0.327119 0.888405
O O11 0.381937 0.823014 0.494576
O O12 0.000000 0.821710 0.000000
O O13 0.104793 0.407567 0.140134
O O14 0.492553 0.000000 0.183044
#
# Coordination Sequence:
#
# PCOD9174333 Si02
#       6
#     8   8   8   8   8   8
#     4  10  18  31  54  81 109 137 175 221 266 317
#     4   8  14  26  47  75 105 135 167 208 256 305
#     4  10  21  35  53  79 110 145 176 217 271 322
#     4  11  20  32  55  81 106 135 175 226 272 315
#     4  10  21  36  53  77 111 145 179 216 267 324
#     4  10  19  34  56  80 109 143 180 222 264 313
#
# _framework density 19.773427999999999
#
# number of rings (size 3 to 8) (size 9 to 14) (size 15 to 20)
#    0.000    2.167    0.000    6.500    0.000    2.667 
#    0.000    4.167    0.000    9.500    0.000    0.000 
#    0.000    0.000    0.000    0.000    0.000    0.000 
#
# Total GULP energy -133902.680163 kJ/mol
# GULP energy per Si atom -5579.278340 kJ/mol
# Density = 1.972842 g / cm^3
# Si number density = 19.773428 Si / 1000 Ang^3
#
#
#
# Elastic Constant Matrix: (Units=GPa)
#
#
# Indices 1 2 3 4 5 6 
#
# 1 99.7768 30.1052 31.3386 -0.0065 14.9021 -0.0005
# 2 30.1052 62.0637 12.3576 -0.0132 10.7090 0.0012
# 3 31.3386 12.3576 44.4543 -0.0115 20.4900 -0.0027
# 4 -0.0065 -0.0132 -0.0115 7.6964 0.0088 3.4422
# 5 14.9021 10.7090 20.4900 0.0088 28.5639 0.0016
# 6 -0.0005 0.0012 -0.0027 3.4422 0.0016 31.2733
#
#
#
# Elastic Compliance Matrix: (Units=1/GPa)
#
#
# Indices 1 2 3 4 5 6 
#
# 1 0.014331 -0.005319 -0.009109 -0.000012 0.001052 0.000001
# 2 -0.005319 0.019422 0.000640 0.000038 -0.004965 -0.000005
# 3 -0.009109 0.000640 0.039827 0.000083 -0.024057 -0.000005
# 4 -0.000012 0.000038 0.000083 0.136659 -0.000108 -0.015042
# 5 0.001052 -0.004965 -0.024057 -0.000108 0.053579 0.000007
# 6 0.000001 -0.000005 -0.000005 -0.015042 0.000007 0.033632
#
#
# Mechanical properties :
#
#
# Convention : Reuss Voigt Hill
#
# Bulk Modulus (GPa) = 21.73780 39.32196 30.52988
# Shear Modulus (GPa) = 14.69018 22.33961 18.51489
#
# Velocity S-wave (km/s) = 2.72862 3.36487 3.06331
# Velocity P-wave (km/s) = 4.57651 5.91826 5.29010
#
# Compressibility (1/GPa) = 0.04600281
#
# Stress axis : x y z
#
# Youngs Moduli (GPa) = 69.77713 51.48749 25.10835
#
# Poissons Ratio (x) = 0.27389 0.22872
# Poissons Ratio (y) = 0.37118 -0.01606
# Poissons Ratio (z) = 0.63561 -0.03293
#
# Static dielectric constant tensor:
#      x y z
#    x 1.786010 -0.000010 -0.022870 
#    y -0.000010 1.696580 0.000010 
#    z -0.022870 0.000010 1.701970 
# 
# From -- ./inp_files/235512.got.cif
#   From: 2010.05.17/outbox.cif.g08.bks.cpg/sg12_118_cif.got.tgz:235512.got - 2010.06.03 13:09:07.
