data_PCOD9174330
_publ_section_title
;
Structure prediction by ZEFSAII (Michael W. Deem and Ramdas Pophale) SiO2 
 PCOD9174330
Probable space group: C 2/M
;
_chemical_formula_sum "Si O2"
_cell_formula_units_Z 48
_cell_length_a 11.490533
_cell_length_b 14.810975
_cell_length_c 30.691024
_cell_angle_alpha 90.000000
_cell_angle_beta 151.372681
_cell_angle_gamma 90.000000
_cell_volume 2502.481230
_symmetry_space_group_name_H-M "C 2/M"
_symmetry_group_IT_number 12
_symmetry_cell_setting 'monoclinic'
loop_
_space_group_symop_operation_xyz
x,y,z
-x,y,-z
-x,-y,-z
x,-y,z
1/2+x,1/2+y,z
1/2-x,1/2+y,-z
1/2-x,1/2-y,-z
1/2+x,1/2-y,z
loop_
_atom_site_type_symbol
_atom_site_label
_atom_site_fract_x
_atom_site_fract_y
_atom_site_fract_z
Si Si1 0.861652 0.806181 0.497721
Si Si2 0.141497 0.893718 0.986664
Si Si3 0.166706 0.698817 0.870014
Si Si4 0.854964 0.103714 0.116076
Si Si5 0.073785 0.397468 0.694116
Si Si6 0.308864 0.105364 0.694368
O O1 0.750000 0.750000 0.500000
O O2 0.616525 0.844879 0.396797
O O3 0.000000 0.766963 0.500000
O O4 0.059586 0.870130 0.587122
O O5 0.876376 0.857552 0.914058
O O6 0.180647 0.886816 0.947748
O O7 0.160151 0.000000 0.003786
O O8 0.321554 0.835595 0.076107
O O9 0.238465 0.804792 0.891941
O O10 0.905177 0.671400 0.763960
O O11 0.142409 0.111908 0.219755
O O12 0.779913 0.000000 0.103727
O O13 0.008343 0.500000 0.663780
O O14 0.012638 0.381632 0.724281
O O15 0.304878 0.000000 0.706718
#
# Coordination Sequence:
#
# PCOD9174330 Si02
#       6
#     8   8   8   8   8   8
#     4  10  20  33  52  81 110 145 184 231 278 332
#     4  10  20  35  53  76 106 136 177 225 275 324
#     4  11  19  31  54  80 101 137 178 225 273 318
#     4  10  20  34  52  76 106 140 178 219 271 331
#     4   9  17  32  52  76 103 135 175 225 271 317
#     4  10  18  31  54  81 105 133 183 236 271 314
#
# _framework density 19.180962999999998
#
# number of rings (size 3 to 8) (size 9 to 14) (size 15 to 20)
#    0.000    2.000    1.667    4.000    0.000    2.000 
#    0.000    1.667    0.000    5.000    0.000    0.000 
#    0.000    0.000    0.000    0.000    0.000    0.000 
#
# Total GULP energy -133602.309223 kJ/mol
# GULP energy per Si atom -5566.762884 kJ/mol
# Density = 1.913731 g / cm^3
# Si number density = 19.180963 Si / 1000 Ang^3
#
#
#
# Elastic Constant Matrix: (Units=GPa)
#
#
# Indices 1 2 3 4 5 6 
#
# 1 42.6743 28.1532 14.9335 0.0001 -1.9882 0.0001
# 2 28.1532 113.7207 27.9361 0.0001 -11.0394 0.0000
# 3 14.9335 27.9361 129.5102 0.0002 -26.3332 -0.0015
# 4 0.0001 0.0001 0.0002 22.3042 0.0000 -7.4825
# 5 -1.9882 -11.0394 -26.3332 0.0000 29.0171 -0.0001
# 6 0.0001 0.0000 -0.0015 -7.4825 -0.0001 52.1605
#
#
#
# Elastic Compliance Matrix: (Units=1/GPa)
#
#
# Indices 1 2 3 4 5 6 
#
# 1 0.028607 -0.006762 -0.002409 0.000000 -0.002799 0.000000
# 2 -0.006762 0.010990 -0.001024 0.000000 0.002789 0.000000
# 3 -0.002409 -0.001024 0.009942 0.000000 0.008468 0.000000
# 4 0.000000 0.000000 0.000000 0.047101 0.000000 0.006757
# 5 -0.002799 0.002789 0.008468 0.000000 0.043016 0.000000
# 6 0.000000 0.000000 0.000000 0.006757 0.000000 0.020141
#
#
# Mechanical properties :
#
#
# Convention : Reuss Voigt Hill
#
# Bulk Modulus (GPa) = 34.30687 47.55009 40.92848
# Shear Modulus (GPa) = 26.32927 35.02185 30.67556
#
# Velocity S-wave (km/s) = 3.70899 4.27765 4.00343
# Velocity P-wave (km/s) = 6.02219 7.01725 6.53868
#
# Compressibility (1/GPa) = 0.02914868
#
# Stress axis : x y z
#
# Youngs Moduli (GPa) = 34.95648 90.99418 100.58581
#
# Poissons Ratio (x) = 0.61530 0.24232
# Poissons Ratio (y) = 0.23637 0.10298
# Poissons Ratio (z) = 0.08421 0.09316
#
# Static dielectric constant tensor:
#      x y z
#    x 1.499060 0.000000 -0.067320 
#    y 0.000000 1.740060 0.000000 
#    z -0.067320 0.000000 1.726880 
# 
# From -- ./inp_files/251413.got.cif
#   From: 2010.05.17/outbox.cif.g08.bks.cpg/sg12_126_cif.got.tgz:251413.got - 2010.06.03 13:09:07.
