data_PCOD9174993
_publ_section_title
;
Structure prediction by ZEFSAII (Michael W. Deem and Ramdas Pophale) SiO2 
 PCOD9174993
Probable space group: C 2/M
;
_chemical_formula_sum "Si O2"
_cell_formula_units_Z 48
_cell_length_a 19.748659
_cell_length_b 7.369438
_cell_length_c 15.312236
_cell_angle_alpha 90.000000
_cell_angle_beta 64.791351
_cell_angle_gamma 90.000000
_cell_volume 2016.254342
_symmetry_space_group_name_H-M "C 2/M"
_symmetry_group_IT_number 12
_symmetry_cell_setting 'monoclinic'
loop_
_space_group_symop_operation_xyz
x,y,z
-x,y,-z
-x,-y,-z
x,-y,z
1/2+x,1/2+y,z
1/2-x,1/2+y,-z
1/2-x,1/2-y,-z
1/2+x,1/2-y,z
loop_
_atom_site_type_symbol
_atom_site_label
_atom_site_fract_x
_atom_site_fract_y
_atom_site_fract_z
Si Si1 0.949947 0.205507 0.411135
Si Si2 0.319389 0.206945 0.355775
Si Si3 0.103005 0.221464 0.242274
Si Si4 0.577704 0.720471 0.065807
Si Si5 0.161542 0.777870 0.388974
Si Si6 0.403619 0.280671 0.136540
O O1 0.881208 0.199313 0.380964
O O2 0.912739 0.283652 0.518979
O O3 0.021410 0.283404 0.322195
O O4 0.972621 0.000000 0.420103
O O5 0.235919 0.283675 0.397625
O O6 0.349042 0.209370 0.240221
O O7 0.316216 0.000000 0.388024
O O8 0.113446 0.282817 0.137099
O O9 0.158843 0.275154 0.289083
O O10 0.103000 0.000000 0.238876
O O11 0.579513 0.500000 0.064012
O O12 0.489536 0.769748 0.112150
O O13 0.611603 0.778936 0.954520
O O14 0.162336 0.000000 0.391719
O O15 0.400306 0.500000 0.141482
#
# Coordination Sequence:
#
# PCOD9174993 Si02
#       6
#     8   8   8   8   8   8
#     4  10  18  32  55  75  91 123 171 211 235 272
#     4  11  21  32  46  71 106 135 156 190 244 298
#     4   9  15  28  52  78  96 118 160 211 247 272
#     4   8  14  26  50  78  96 114 156 213 246 267
#     4   9  19  31  46  73 104 128 157 200 246 287
#     4   9  16  30  51  75  96 120 163 206 238 277
#
# _framework density 23.806519999999999
#
# number of rings (size 3 to 8) (size 9 to 14) (size 15 to 20)
#    0.000    2.667    1.667    2.500    0.000    2.000 
#    0.000    3.333    0.000    4.000    0.000    0.000 
#    0.000    0.000    0.000    0.000    0.000    0.000 
#
# Total GULP energy -134069.687972 kJ/mol
# GULP energy per Si atom -5586.236999 kJ/mol
# Density = 2.375234 g / cm^3
# Si number density = 23.806520 Si / 1000 Ang^3
#
#
#
# Elastic Constant Matrix: (Units=GPa)
#
#
# Indices 1 2 3 4 5 6 
#
# 1 68.0945 2.7720 4.2772 -0.0003 25.8215 0.0002
# 2 2.7720 88.9071 2.3494 -0.0004 3.5790 0.0003
# 3 4.2772 2.3494 116.9063 -0.0002 30.6502 0.0001
# 4 -0.0003 -0.0004 -0.0002 -23.5114 0.0000 5.0361
# 5 25.8215 3.5790 30.6502 0.0000 43.0923 0.0000
# 6 0.0002 0.0003 0.0001 5.0361 0.0000 -1.3389
#
#
#
# Elastic Compliance Matrix: (Units=1/GPa)
#
#
# Indices 1 2 3 4 5 6 
#
# 1 0.019790 -0.000134 0.002931 0.000002 -0.013932 0.000009
# 2 -0.000134 0.011286 0.000003 0.000002 -0.000860 0.000010
# 3 0.002931 0.000003 0.010949 0.000000 -0.009544 0.000003
# 4 0.000002 0.000002 0.000000 -0.218853 -0.000001 -0.823165
# 5 -0.013932 -0.000860 -0.009544 -0.000001 0.038414 -0.000008
# 6 0.000009 0.000010 0.000003 -0.823165 -0.000008 -3.843002
#
#
# Mechanical properties :
#
#
# Convention : Reuss Voigt Hill
#
# Bulk Modulus (GPa) = 20.99625 32.52279 26.75952
# Shear Modulus (GPa) = -1.25908 21.28235 10.01163
#
# Velocity S-wave (km/s) = -0.72803 2.99318 2.05294
# Velocity P-wave (km/s) = 2.85166 5.06324 4.10904
#
# Compressibility (1/GPa) = 0.04762756
#
# Stress axis : x y z
#
# Youngs Moduli (GPa) = 50.53080 88.60241 91.33373
#
# Poissons Ratio (x) = 0.01184 -0.26773
# Poissons Ratio (y) = 0.00675 -0.00032
# Poissons Ratio (z) = -0.14812 -0.00031
#
# Static dielectric constant tensor:
#      x y z
#    x 1.875810 0.000000 0.025280 
#    y 0.000000 1.928220 0.000000 
#    z 0.025280 0.000000 1.904070 
# 
# From -- ./inp_files/229814.got.cif
#   From: 2010.05.17/outbox.cif.g08.bks.cpg/sg12_115_cif.got.tgz:229814.got - 2010.06.03 13:09:07.
