data_PCOD9174071
_publ_section_title
;
Structure prediction by ZEFSAII (Michael W. Deem and Ramdas Pophale) SiO2 
 PCOD9174071
Probable space group: C 2/M
;
_chemical_formula_sum "Si O2"
_cell_formula_units_Z 50
_cell_length_a 24.898512
_cell_length_b 7.249938
_cell_length_c 12.595705
_cell_angle_alpha 90.000000
_cell_angle_beta 76.204259
_cell_angle_gamma 90.000000
_cell_volume 2208.093092
_symmetry_space_group_name_H-M "C 2/M"
_symmetry_group_IT_number 12
_symmetry_cell_setting 'monoclinic'
loop_
_space_group_symop_operation_xyz
x,y,z
-x,y,-z
-x,-y,-z
x,-y,z
1/2+x,1/2+y,z
1/2-x,1/2+y,-z
1/2-x,1/2-y,-z
1/2+x,1/2-y,z
loop_
_atom_site_type_symbol
_atom_site_label
_atom_site_fract_x
_atom_site_fract_y
_atom_site_fract_z
Si Si1 0.375010 0.723102 0.894785
Si Si2 0.803680 0.780814 0.547742
Si Si3 0.774643 0.776307 0.797119
Si Si4 0.500000 0.000000 0.000000
Si Si5 0.606809 0.276530 0.656902
Si Si6 0.503945 0.721417 0.193966
Si Si7 0.146713 0.788832 0.866367
O O1 0.370979 0.500000 0.902589
O O2 0.320307 0.785350 0.860204
O O3 0.432325 0.766042 0.809594
O O4 0.378214 0.794592 0.014328
O O5 0.750000 0.750000 0.500000
O O6 0.792120 0.711996 0.671441
O O7 0.856811 0.709339 0.458540
O O8 0.810781 0.000000 0.556177
O O9 0.712667 0.713777 0.850129
O O10 0.773251 0.000000 0.798678
O O11 0.509430 0.838583 0.903844
O O12 0.612156 0.500000 0.652650
O O13 0.541987 0.234840 0.695880
O O14 0.632784 0.211496 0.757168
O O15 0.501023 0.500000 0.174877
O O16 0.126937 0.000000 0.872035
#
# Coordination Sequence:
#
# PCOD9174071 Si02
#       7
#     8   8   8   2   8   8   8
#     4   9  19  36  55  75 110 154 187 220 288 352
#     4  10  19  34  54  80 109 141 187 242 287 338
#     4  10  20  34  52  80 110 142 188 237 279 343
#     4  12  22  36  60  94 118 144 210 236 272 356
#     4   9  18  34  57  79 109 147 190 227 291 350
#     4  10  21  40  59  82 121 159 185 243 294 333
#     4  10  18  31  52  77 107 144 181 223 278 353
#
# _framework density 22.643972999999999
#
# number of rings (size 3 to 8) (size 9 to 14) (size 15 to 20)
#    0.000    2.240    1.600    1.680    0.000    2.560 
#    8.640    0.800    0.000    4.800    0.000    1.120 
#    0.000    0.000    0.000    0.000    0.000    0.320 
#
# Total GULP energy -139427.410196 kJ/mol
# GULP energy per Si atom -5577.096408 kJ/mol
# Density = 2.259243 g / cm^3
# Si number density = 22.643973 Si / 1000 Ang^3
#
#
#
# Elastic Constant Matrix: (Units=GPa)
#
#
# Indices 1 2 3 4 5 6 
#
# 1 94.0957 -17.7532 15.5180 0.0000 -25.0593 0.0000
# 2 -17.7532 113.8855 -8.2647 0.0000 -1.3729 0.0000
# 3 15.5180 -8.2647 78.8172 0.0000 -25.2101 0.0000
# 4 0.0000 0.0000 0.0000 -1.2664 0.0000 -1.1939
# 5 -25.0593 -1.3729 -25.2101 0.0000 44.6164 0.0000
# 6 0.0000 0.0000 0.0000 -1.1939 0.0000 11.3100
#
#
#
# Elastic Compliance Matrix: (Units=1/GPa)
#
#
# Indices 1 2 3 4 5 6 
#
# 1 0.012986 0.002115 0.000023 0.000000 0.007372 0.000000
# 2 0.002115 0.009227 0.001247 0.000000 0.002177 0.000000
# 3 0.000023 0.001247 0.015661 0.000000 0.008900 0.000000
# 4 0.000000 0.000000 0.000000 -0.718168 0.000000 -0.075808
# 5 0.007372 0.002177 0.008900 0.000000 0.031650 0.000000
# 6 0.000000 0.000000 0.000000 -0.075808 0.000000 0.080415
#
#
# Mechanical properties :
#
#
# Convention : Reuss Voigt Hill
#
# Bulk Modulus (GPa) = 22.39948 29.53318 25.96633
# Shear Modulus (GPa) = -8.92668 30.75189 10.91260
#
# Velocity S-wave (km/s) = -1.98765 3.68919 2.19765
# Velocity P-wave (km/s) = 2.15542 5.58726 4.23458
#
# Compressibility (1/GPa) = 0.04464389
#
# Stress axis : x y z
#
# Youngs Moduli (GPa) = 77.00652 108.37544 63.85442
#
# Poissons Ratio (x) = -0.22920 -0.00146
# Poissons Ratio (y) = -0.16286 -0.07965
# Poissons Ratio (z) = -0.00176 -0.13518
#
# Static dielectric constant tensor:
#      x y z
#    x 1.844560 0.000000 -0.030900 
#    y 0.000000 2.000470 0.000000 
#    z -0.030900 0.000000 1.784070 
# 
# From -- ./inp_files/179854.got.cif
#   From: 2010.05.17/outbox.cif.g08.bks.cpg/sg12_90_cif.got.tgz:179854.got - 2010.06.03 13:09:07.
