data_PCOD9174490
_publ_section_title
;
Structure prediction by ZEFSAII (Michael W. Deem and Ramdas Pophale) SiO2 
 PCOD9174490
Probable space group: C 2/M
;
_chemical_formula_sum "Si O2"
_cell_formula_units_Z 56
_cell_length_a 7.767390
_cell_length_b 18.303972
_cell_length_c 21.206326
_cell_angle_alpha 90.000000
_cell_angle_beta 49.359530
_cell_angle_gamma 90.000000
_cell_volume 2287.809006
_symmetry_space_group_name_H-M "C 2/M"
_symmetry_group_IT_number 12
_symmetry_cell_setting 'monoclinic'
loop_
_space_group_symop_operation_xyz
x,y,z
-x,y,-z
-x,-y,-z
x,-y,z
1/2+x,1/2+y,z
1/2-x,1/2+y,-z
1/2-x,1/2-y,-z
1/2+x,1/2-y,z
loop_
_atom_site_type_symbol
_atom_site_label
_atom_site_fract_x
_atom_site_fract_y
_atom_site_fract_z
Si Si1 0.368938 0.000000 0.130290
Si Si2 0.831345 0.138097 0.115817
Si Si3 0.358131 0.500000 0.953146
Si Si4 0.828961 0.148014 0.774387
Si Si5 0.810183 0.588972 0.613035
Si Si6 0.961933 0.251892 0.855176
Si Si7 0.539495 0.588109 0.561023
Si Si8 0.474020 0.912372 0.306299
O O1 0.305926 0.927515 0.183661
O O2 0.220688 0.000000 0.101308
O O3 0.630687 0.000000 0.048316
O O4 0.680746 0.175048 0.098125
O O5 0.658815 0.123418 0.215930
O O6 0.983167 0.068621 0.071918
O O7 0.988191 0.205902 0.095941
O O8 0.862640 0.191348 0.832163
O O9 0.691582 0.212033 0.771199
O O10 0.075478 0.122466 0.694878
O O11 0.810722 0.500000 0.611653
O O12 0.760308 0.609796 0.550298
O O13 0.981238 0.607286 0.630373
O O14 0.500000 0.617890 0.500000
O O15 0.561421 0.500000 0.550228
O O16 0.288418 0.601676 0.650323
O O17 0.506955 0.000000 0.293778
#
# Coordination Sequence:
#
# PCOD9174490 Si02
#       8
#     4   8   4   8   8   8   8   8
#     4  11  22  39  63  85 115 158 196 237 292 355
#     4  11  20  40  57  89 115 151 199 246 287 354
#     4  11  22  39  63  85 115 158 196 237 292 355
#     4  11  20  40  57  89 115 151 199 246 287 354
#     4  10  18  31  57  82 109 153 198 245 287 341
#     4  10  23  34  60  84 122 147 189 255 299 331
#     4   9  19  32  47  82 125 151 183 236 301 354
#     4  10  18  31  57  82 109 153 198 245 287 341
#
# _framework density 24.477565999999999
#
# number of rings (size 3 to 8) (size 9 to 14) (size 15 to 20)
#    0.000    1.714    4.286    0.857    0.000    1.143 
#    0.000    8.571    0.000    0.000    0.000   16.000 
#    0.000    0.000    0.000    0.000    0.000    0.000 
#
# Total GULP energy -156157.611058 kJ/mol
# GULP energy per Si atom -5577.057538 kJ/mol
# Density = 2.442185 g / cm^3
# Si number density = 24.477566 Si / 1000 Ang^3
#
#
#
# Elastic Constant Matrix: (Units=GPa)
#
#
# Indices 1 2 3 4 5 6 
#
# 1 140.2785 14.8786 9.7298 0.0001 -16.3904 0.0000
# 2 14.8786 74.7471 -20.7622 0.0002 -10.1170 0.0000
# 3 9.7298 -20.7622 20.3886 0.0001 19.7401 0.0001
# 4 0.0001 0.0002 0.0001 5.4888 -0.0001 -18.3208
# 5 -16.3904 -10.1170 19.7401 -0.0001 26.7953 0.0000
# 6 0.0000 0.0000 0.0001 -18.3208 0.0000 29.4299
#
#
#
# Elastic Compliance Matrix: (Units=1/GPa)
#
#
# Indices 1 2 3 4 5 6 
#
# 1 -0.028725 0.041239 0.201019 0.000010 -0.150090 0.000005
# 2 0.041239 -0.034593 -0.232563 -0.000011 0.183493 -0.000006
# 3 0.201019 -0.232563 -1.108130 -0.000054 0.851510 -0.000028
# 4 0.000010 -0.000011 -0.000054 -0.169023 0.000041 -0.105221
# 5 -0.150090 0.183493 0.851510 0.000041 -0.612513 0.000021
# 6 0.000005 -0.000006 -0.000028 -0.105221 0.000021 -0.031524
#
#
# Mechanical properties :
#
#
# Convention : Reuss Voigt Hill
#
# Bulk Modulus (GPa) = -0.86801 27.01185 13.07192
# Shear Modulus (GPa) = -2.09388 27.78068 12.84340
#
# Velocity S-wave (km/s) = -0.92590 3.37255 2.29312
# Velocity P-wave (km/s) = 1.22410 5.12101 3.51613
#
# Compressibility (1/GPa) = -1.15205615
#
# Stress axis : x y z
#
# Youngs Moduli (GPa) = -34.81298 -28.90787 -0.90242
#
# Poissons Ratio (x) = 1.19214 0.18140
# Poissons Ratio (y) = 1.43566 -0.20987
# Poissons Ratio (z) = 6.99807 -6.72289
#
# Static dielectric constant tensor:
#      x y z
#    x 2.096440 0.000000 -0.001640 
#    y 0.000000 1.852800 0.000000 
#    z -0.001640 0.000000 2.097980 
# 
# From -- ./inp_files/356690.got.cif
#   From: 2010.05.17/outbox.cif.g08.bks.cpg/sg12_179_cif.got.tgz:356690.got - 2010.06.03 13:09:07.
