data_PCOD9174211
_publ_section_title
;
Structure prediction by ZEFSAII (Michael W. Deem and Ramdas Pophale) SiO2 
 PCOD9174211
Probable space group: C 2/M
;
_chemical_formula_sum "Si O2"
_cell_formula_units_Z 64
_cell_length_a 23.550003
_cell_length_b 7.634709
_cell_length_c 17.508901
_cell_angle_alpha 90.000000
_cell_angle_beta 93.990850
_cell_angle_gamma 90.000000
_cell_volume 3140.421749
_symmetry_space_group_name_H-M "C 2/M"
_symmetry_group_IT_number 12
_symmetry_cell_setting 'monoclinic'
loop_
_space_group_symop_operation_xyz
x,y,z
-x,y,-z
-x,-y,-z
x,-y,z
1/2+x,1/2+y,z
1/2-x,1/2+y,-z
1/2-x,1/2-y,-z
1/2+x,1/2-y,z
loop_
_atom_site_type_symbol
_atom_site_label
_atom_site_fract_x
_atom_site_fract_y
_atom_site_fract_z
Si Si1 0.462309 0.296377 0.275047
Si Si2 0.589859 0.788448 0.997024
Si Si3 0.967527 0.785461 0.574420
Si Si4 0.794402 0.805200 0.068172
Si Si5 0.484313 0.210411 0.875801
Si Si6 0.338456 0.289949 0.542996
Si Si7 0.775223 0.789806 0.384616
Si Si8 0.833877 0.215964 0.233510
O O1 0.451954 0.500000 0.292530
O O2 0.495443 0.220690 0.350563
O O3 0.503116 0.285007 0.205605
O O4 0.399739 0.224569 0.248313
O O5 0.570205 0.733424 0.079841
O O6 0.597184 0.000000 0.997922
O O7 0.645502 0.702169 0.969210
O O8 0.538396 0.748243 0.934415
O O9 0.901873 0.725418 0.567049
O O10 0.000000 0.738138 0.500000
O O11 0.965990 0.000000 0.577788
O O12 0.806007 0.718184 0.151743
O O13 0.776239 0.000000 0.086632
O O14 0.750000 0.750000 0.000000
O O15 0.481777 0.000000 0.868863
O O16 0.342337 0.500000 0.536555
O O17 0.290097 0.251989 0.601295
O O18 0.313377 0.223342 0.459539
O O19 0.798831 0.729913 0.305269
O O20 0.780360 0.000000 0.384863
O O21 0.835065 0.000000 0.230643
#
# Coordination Sequence:
#
# PCOD9174211 Si02
#       8
#     8   8   8   8   8   8   8   8
#     4  10  18  31  53  79 104 131 173 220 257 302
#     4   9  18  35  56  76 102 136 172 210 258 317
#     4   9  17  30  51  78 107 137 166 206 258 304
#     4  11  22  37  55  77 105 136 175 220 265 311
#     4   9  18  33  54  78 104 135 170 210 261 314
#     4   9  17  31  51  77 105 131 168 210 249 297
#     4   9  17  32  54  74  98 137 175 206 248 301
#     4   9  18  33  53  76  99 129 173 215 251 304
#
# _framework density 20.379428000000001
#
# number of rings (size 3 to 8) (size 9 to 14) (size 15 to 20)
#    0.000    2.625    1.250    1.875    0.000    3.500 
#    2.250    3.750    0.000    3.000    0.000    0.000 
#    0.000    0.000    0.000    0.000    0.000    0.000 
#
# Total GULP energy -178438.852929 kJ/mol
# GULP energy per Si atom -5576.214154 kJ/mol
# Density = 2.033304 g / cm^3
# Si number density = 20.379428 Si / 1000 Ang^3
#
#
#
# Elastic Constant Matrix: (Units=GPa)
#
#
# Indices 1 2 3 4 5 6 
#
# 1 86.5138 3.2666 88.8593 0.0000 3.0664 0.0000
# 2 3.2666 31.7778 6.1506 0.0000 7.7897 0.0000
# 3 88.8593 6.1506 183.3842 0.0000 -0.4292 0.0000
# 4 0.0000 0.0000 0.0000 15.1137 0.0000 -8.6914
# 5 3.0664 7.7897 -0.4292 0.0000 29.1866 0.0000
# 6 0.0000 0.0000 0.0000 -8.6914 0.0000 24.1311
#
#
#
# Elastic Compliance Matrix: (Units=1/GPa)
#
#
# Indices 1 2 3 4 5 6 
#
# 1 0.023214 0.000464 -0.011270 0.000000 -0.002728 0.000000
# 2 0.000464 0.033925 -0.001384 0.000000 -0.009123 0.000000
# 3 -0.011270 -0.001384 0.010965 0.000000 0.001715 0.000000
# 4 0.000000 0.000000 0.000000 0.083449 0.000000 0.030056
# 5 -0.002728 -0.009123 0.001715 0.000000 0.037009 0.000000
# 6 0.000000 0.000000 0.000000 0.030056 0.000000 0.052266
#
#
# Mechanical properties :
#
#
# Convention : Reuss Voigt Hill
#
# Bulk Modulus (GPa) = 22.87134 55.35876 39.11505
# Shear Modulus (GPa) = 17.87102 27.24624 22.55863
#
# Velocity S-wave (km/s) = 2.96449 3.66040 3.33067
# Velocity P-wave (km/s) = 4.79215 6.71474 5.83320
#
# Compressibility (1/GPa) = 0.04372284
#
# Stress axis : x y z
#
# Youngs Moduli (GPa) = 43.07771 29.47668 91.20338
#
# Poissons Ratio (x) = -0.01368 1.02789
# Poissons Ratio (y) = -0.01999 0.12623
# Poissons Ratio (z) = 0.48550 0.04080
#
# Static dielectric constant tensor:
#      x y z
#    x 1.702590 0.000000 0.012140 
#    y 0.000000 1.808310 0.000000 
#    z 0.012140 0.000000 1.728460 
# 
# From -- ./inp_files/281426.got.cif
#   From: 2010.05.17/outbox.cif.g08.bks.cpg/sg12_141_cif.got.tgz:281426.got - 2010.06.03 13:09:07.
