data_PCOD9174438
_publ_section_title
;
Structure prediction by ZEFSAII (Michael W. Deem and Ramdas Pophale) SiO2 
 PCOD9174438
Probable space group: C 2/M
;
_chemical_formula_sum "Si O2"
_cell_formula_units_Z 64
_cell_length_a 24.631595
_cell_length_b 10.677425
_cell_length_c 28.512549
_cell_angle_alpha 90.000000
_cell_angle_beta 152.774193
_cell_angle_gamma 90.000000
_cell_volume 3430.716043
_symmetry_space_group_name_H-M "C 2/M"
_symmetry_group_IT_number 12
_symmetry_cell_setting 'monoclinic'
loop_
_space_group_symop_operation_xyz
x,y,z
-x,y,-z
-x,-y,-z
x,-y,z
1/2+x,1/2+y,z
1/2-x,1/2+y,-z
1/2-x,1/2-y,-z
1/2+x,1/2-y,z
loop_
_atom_site_type_symbol
_atom_site_label
_atom_site_fract_x
_atom_site_fract_y
_atom_site_fract_z
Si Si1 0.071618 0.273345 0.269570
Si Si2 0.169279 0.849596 0.064490
Si Si3 0.737041 0.847704 0.763900
Si Si4 0.654445 0.639976 0.421741
Si Si5 0.422078 0.348498 0.827977
Si Si6 0.308026 0.143804 0.077455
Si Si7 0.665899 0.364901 0.533988
Si Si8 0.974507 0.641653 0.535564
O O1 0.076565 0.177136 0.317218
O O2 0.075611 0.205330 0.222413
O O3 0.192475 0.353785 0.364995
O O4 0.949316 0.347704 0.180383
O O5 0.205264 0.801343 0.143334
O O6 0.266193 0.827715 0.098448
O O7 0.159646 0.000000 0.062197
O O8 0.041935 0.807935 0.947098
O O9 0.810986 0.808152 0.774838
O O10 0.598313 0.818172 0.654250
O O11 0.742467 0.000000 0.767929
O O12 0.704497 0.500000 0.452459
O O13 0.750000 0.750000 0.500000
O O14 0.602134 0.638423 0.434011
O O15 0.421036 0.500000 0.824217
O O16 0.268409 0.000000 0.036481
O O17 0.250000 0.250000 0.000000
O O18 0.639749 0.500000 0.536093
O O19 0.624294 0.243210 0.529404
O O20 0.941834 0.500000 0.525738
O O21 0.000000 0.636793 0.500000
#
# Coordination Sequence:
#
# PCOD9174438 Si02
#       8
#     8   8   8   8   8   8   8   8
#     4  11  21  35  58  83 114 154 192 237 287 345
#     4   9  18  33  53  82 115 148 187 229 282 341
#     4   9  18  32  54  83 116 149 185 237 292 336
#     4   9  20  36  55  81 114 150 193 238 285 344
#     4  10  18  31  55  86 116 145 186 238 287 340
#     4  11  23  39  59  87 120 153 193 239 288 349
#     4  10  22  39  55  79 114 152 193 234 284 348
#     4  10  21  37  57  85 115 146 192 244 289 336
#
# _framework density 18.654997000000002
#
# number of rings (size 3 to 8) (size 9 to 14) (size 15 to 20)
#    0.000    2.125    1.250    1.875    1.750    6.250 
#    0.000    0.000    0.000    0.000    0.000    0.875 
#    0.000    0.000    0.000    0.000    0.000    0.000 
#
# Total GULP energy -178306.815718 kJ/mol
# GULP energy per Si atom -5572.087991 kJ/mol
# Density = 1.861254 g / cm^3
# Si number density = 18.654997 Si / 1000 Ang^3
#
#
#
# Elastic Constant Matrix: (Units=GPa)
#
#
# Indices 1 2 3 4 5 6 
#
# 1 56.2812 28.1401 22.9791 -0.0001 6.1824 -0.0001
# 2 28.1401 88.1856 24.0229 0.0000 5.4458 0.0000
# 3 22.9791 24.0229 81.1703 0.0002 -6.5224 0.0001
# 4 -0.0001 0.0000 0.0002 16.5835 0.0002 -0.0691
# 5 6.1824 5.4458 -6.5224 0.0002 36.4588 0.0001
# 6 -0.0001 0.0000 0.0001 -0.0691 0.0001 25.2064
#
#
#
# Elastic Compliance Matrix: (Units=1/GPa)
#
#
# Indices 1 2 3 4 5 6 
#
# 1 0.023197 -0.005741 -0.005190 0.000000 -0.004004 0.000000
# 2 -0.005741 0.013990 -0.002643 0.000000 -0.001589 0.000000
# 3 -0.005190 -0.002643 0.014888 0.000000 0.003938 0.000000
# 4 0.000000 0.000000 0.000000 0.060302 0.000000 0.000165
# 5 -0.004004 -0.001589 0.003938 0.000000 0.029049 0.000000
# 6 0.000000 0.000000 0.000000 0.000165 0.000000 0.039673
#
#
# Mechanical properties :
#
#
# Convention : Reuss Voigt Hill
#
# Bulk Modulus (GPa) = 40.11669 41.76904 40.94286
# Shear Modulus (GPa) = 23.08884 25.68273 24.38578
#
# Velocity S-wave (km/s) = 3.52188 3.71444 3.61944
# Velocity P-wave (km/s) = 6.17166 6.39023 6.28189
#
# Compressibility (1/GPa) = 0.02492728
#
# Stress axis : x y z
#
# Youngs Moduli (GPa) = 43.10847 71.48075 67.17023
#
# Poissons Ratio (x) = 0.41039 0.34860
# Poissons Ratio (y) = 0.24750 0.17751
# Poissons Ratio (z) = 0.22372 0.18890
#
# Static dielectric constant tensor:
#      x y z
#    x 1.654010 0.000000 -0.002710 
#    y 0.000000 1.645540 0.000000 
#    z -0.002710 0.000000 1.678430 
# 
# From -- ./inp_files/367825.got.cif
#   From: 2010.05.17/outbox.cif.g08.bks.cpg/sg12_184_cif.got.tgz:367825.got - 2010.06.03 13:09:07.
