data_PCOD9174739
_publ_section_title
;
Structure prediction by ZEFSAII (Michael W. Deem and Ramdas Pophale) SiO2 
 PCOD9174739
Probable space group: C 2/M
;
_chemical_formula_sum "Si O2"
_cell_formula_units_Z 48
_cell_length_a 14.292694
_cell_length_b 14.719069
_cell_length_c 12.375503
_cell_angle_alpha 90.000000
_cell_angle_beta 117.257981
_cell_angle_gamma 90.000000
_cell_volume 2314.388535
_symmetry_space_group_name_H-M "C 2/M"
_symmetry_group_IT_number 12
_symmetry_cell_setting 'monoclinic'
loop_
_space_group_symop_operation_xyz
x,y,z
-x,y,-z
-x,-y,-z
x,-y,z
1/2+x,1/2+y,z
1/2-x,1/2+y,-z
1/2-x,1/2-y,-z
1/2+x,1/2-y,z
loop_
_atom_site_type_symbol
_atom_site_label
_atom_site_fract_x
_atom_site_fract_y
_atom_site_fract_z
Si Si1 0.104175 0.862690 0.612826
Si Si2 0.744223 0.646886 0.133104
Si Si3 0.894703 0.653188 0.397709
Si Si4 0.050602 0.107929 0.187073
Si Si5 0.827381 0.847218 0.125145
Si Si6 0.283539 0.393116 0.540962
O O1 0.079070 0.756682 0.620862
O O2 0.144899 0.898326 0.748940
O O3 0.194239 0.870557 0.570623
O O4 0.000000 0.901980 0.500000
O O5 0.834087 0.611646 0.262831
O O6 0.634832 0.631270 0.138755
O O7 0.768749 0.754130 0.128012
O O8 0.737038 0.609050 0.007870
O O9 0.811597 0.657410 0.451551
O O10 0.000000 0.609412 0.500000
O O11 0.112472 0.124158 0.332209
O O12 0.943723 0.165185 0.134030
O O13 0.025420 0.000000 0.165083
O O14 0.260962 0.500000 0.539532
#
# Coordination Sequence:
#
# PCOD9174739 Si02
#       6
#     8   8   8   8   8   8
#     4  10  18  32  52  77 105 138 171 213 267 322
#     4   9  20  35  52  81 110 140 184 226 271 322
#     4   9  19  35  55  76  99 137 180 224 260 313
#     4  10  20  35  58  85 112 142 181 231 277 321
#     4  10  19  34  53  79 113 145 176 222 276 327
#     4  10  20  33  52  80 109 136 173 220 269 318
#
# _framework density 20.739820000000002
#
# number of rings (size 3 to 8) (size 9 to 14) (size 15 to 20)
#    0.000    2.333    1.667    1.000    0.000    2.667 
#    0.000    0.000    0.000    0.000    0.000    1.167 
#    0.000    0.000    0.000    0.000    0.000    0.000 
#
# Total GULP energy -133772.859813 kJ/mol
# GULP energy per Si atom -5573.869159 kJ/mol
# Density = 2.069262 g / cm^3
# Si number density = 20.739820 Si / 1000 Ang^3
#
#
#
# Elastic Constant Matrix: (Units=GPa)
#
#
# Indices 1 2 3 4 5 6 
#
# 1 73.3261 17.5423 48.7111 0.0000 -0.5105 0.0000
# 2 17.5423 69.1218 -2.3116 0.0000 -0.6964 0.0000
# 3 48.7111 -2.3116 198.6793 0.0000 -28.3054 0.0000
# 4 0.0000 0.0000 0.0000 -234.0556 0.0000 529.7656
# 5 -0.5105 -0.6964 -28.3054 0.0000 26.3996 0.0000
# 6 0.0000 0.0000 0.0000 529.7656 0.0000-1241.8530
#
#
#
# Elastic Compliance Matrix: (Units=1/GPa)
#
#
# Indices 1 2 3 4 5 6 
#
# 1 0.018305 -0.004879 -0.005326 0.000000 -0.005485 0.000000
# 2 -0.004879 0.015783 0.001683 0.000000 0.002126 0.000000
# 3 -0.005326 0.001683 0.007495 0.000000 0.007978 0.000000
# 4 0.000000 0.000000 0.000000 -0.124047 0.000000 -0.052918
# 5 -0.005485 0.002126 0.007978 0.000000 0.046383 0.000000
# 6 0.000000 0.000000 0.000000 -0.052918 0.000000 -0.023380
#
#
# Mechanical properties :
#
#
# Convention : Reuss Voigt Hill
#
# Bulk Modulus (GPa) = 40.75223 52.11232 46.43228
# Shear Modulus (GPa) = -146.04346 -271.42279 -208.73312
#
# Velocity S-wave (km/s) = -8.40058 -11.45227 -10.04301
# Velocity P-wave (km/s) = 8.62561 12.23484 10.58519
#
# Compressibility (1/GPa) = 0.02453853
#
# Stress axis : x y z
#
# Youngs Moduli (GPa) = 54.62995 63.35875 133.41824
#
# Poissons Ratio (x) = 0.30913 0.71061
# Poissons Ratio (y) = 0.26654 -0.22451
# Poissons Ratio (z) = 0.29097 -0.10662
#
# Static dielectric constant tensor:
#      x y z
#    x 1.724970 0.000000 0.013160 
#    y 0.000000 1.741410 0.000000 
#    z 0.013160 0.000000 1.828610 
# 
# From -- ./inp_files/131651.got.cif
#   From: 2010.05.17/outbox.cif.g08.bks.cpg/sg12_66_cif.got.tgz:131651.got - 2010.06.03 13:09:07.
