data_PCOD9174447
_publ_section_title
;
Structure prediction by ZEFSAII (Michael W. Deem and Ramdas Pophale) SiO2 
 PCOD9174447
Probable space group: C 2/M
;
_chemical_formula_sum "Si O2"
_cell_formula_units_Z 56
_cell_length_a 13.129337
_cell_length_b 25.294964
_cell_length_c 10.172493
_cell_angle_alpha 90.000000
_cell_angle_beta 60.464193
_cell_angle_gamma 90.000000
_cell_volume 2939.323367
_symmetry_space_group_name_H-M "C 2/M"
_symmetry_group_IT_number 12
_symmetry_cell_setting 'monoclinic'
loop_
_space_group_symop_operation_xyz
x,y,z
-x,y,-z
-x,-y,-z
x,-y,z
1/2+x,1/2+y,z
1/2-x,1/2+y,-z
1/2-x,1/2-y,-z
1/2+x,1/2-y,z
loop_
_atom_site_type_symbol
_atom_site_label
_atom_site_fract_x
_atom_site_fract_y
_atom_site_fract_z
Si Si1 0.895008 0.666022 0.168722
Si Si2 0.526726 0.793354 0.328752
Si Si3 0.272587 0.875266 0.885063
Si Si4 0.184781 0.793618 0.129144
Si Si5 0.038786 0.063103 0.336753
Si Si6 0.316337 0.938431 0.110180
Si Si7 0.600389 0.561372 0.824920
O O1 0.774837 0.689154 0.186010
O O2 0.881785 0.602474 0.164471
O O3 0.925751 0.687859 0.292323
O O4 0.000000 0.681188 0.000000
O O5 0.500000 0.795040 0.500000
O O6 0.631882 0.834403 0.229155
O O7 0.571132 0.734915 0.258274
O O8 0.207888 0.905514 0.810874
O O9 0.178050 0.842555 0.032921
O O10 0.329975 0.915701 0.953528
O O11 0.250000 0.750000 0.000000
O O12 0.177295 0.066900 0.227220
O O13 0.000000 0.086498 0.500000
O O14 0.959342 0.083171 0.268519
O O15 0.015409 0.000000 0.353647
O O16 0.348391 0.000000 0.101158
O O17 0.635426 0.500000 0.784692
O O18 0.500000 0.561468 0.000000
#
# Coordination Sequence:
#
# PCOD9174447 Si02
#       7
#     8   8   8   8   8   8   8
#     4  11  20  39  62  87 116 152 193 241 285 345
#     4  11  24  43  61  85 121 147 184 250 306 340
#     4  10  19  36  58  90 113 151 198 240 283 350
#     4   9  19  39  62  85 105 146 192 232 293 349
#     4   9  18  32  50  77 118 157 189 238 287 322
#     4  10  19  34  59  88 118 158 206 234 272 344
#     4  10  18  31  55  87 121 156 196 238 284 335
#
# _framework density 19.052004
#
# number of rings (size 3 to 8) (size 9 to 14) (size 15 to 20)
#    0.000    2.000    5.714    0.429    0.000    2.000 
#    5.143    2.857    0.000    3.000    0.000    0.000 
#    0.000    0.000    0.000    0.000    0.000    0.000 
#
# Total GULP energy -156123.523328 kJ/mol
# GULP energy per Si atom -5575.840119 kJ/mol
# Density = 1.900864 g / cm^3
# Si number density = 19.052004 Si / 1000 Ang^3
#
#
#
# Elastic Constant Matrix: (Units=GPa)
#
#
# Indices 1 2 3 4 5 6 
#
# 1 88.2044 32.4242 34.5559 0.0000 25.7491 0.0000
# 2 32.4242 89.6844 29.7139 0.0000 9.2541 0.0000
# 3 34.5559 29.7139 106.7803 0.0000 28.3777 0.0000
# 4 0.0000 0.0000 0.0000 8.6971 0.0000 2.3805
# 5 25.7491 9.2541 28.3777 0.0000 27.5488 0.0000
# 6 0.0000 0.0000 0.0000 2.3805 0.0000 36.5765
#
#
#
# Elastic Compliance Matrix: (Units=1/GPa)
#
#
# Indices 1 2 3 4 5 6 
#
# 1 0.017384 -0.004635 -0.000594 0.000000 -0.014079 0.000000
# 2 -0.004635 0.013533 -0.003042 0.000000 0.002920 0.000000
# 3 -0.000594 -0.003042 0.013748 0.000000 -0.012585 0.000000
# 4 0.000000 0.000000 0.000000 0.117066 0.000000 -0.007619
# 5 -0.014079 0.002920 -0.012585 0.000000 0.061441 0.000000
# 6 0.000000 0.000000 0.000000 -0.007619 0.000000 0.027836
#
#
# Mechanical properties :
#
#
# Convention : Reuss Voigt Hill
#
# Bulk Modulus (GPa) = 35.55867 53.11742 44.33805
# Shear Modulus (GPa) = 18.05546 27.09616 22.57581
#
# Velocity S-wave (km/s) = 3.08180 3.77533 3.44606
# Velocity P-wave (km/s) = 5.60070 6.85163 6.25750
#
# Compressibility (1/GPa) = 0.02812253
#
# Stress axis : x y z
#
# Youngs Moduli (GPa) = 57.52356 73.89611 72.73670
#
# Poissons Ratio (x) = 0.34253 0.04322
# Poissons Ratio (y) = 0.26664 0.22124
# Poissons Ratio (z) = 0.03418 0.22476
#
# Static dielectric constant tensor:
#      x y z
#    x 1.664920 0.000000 -0.007540 
#    y 0.000000 1.701100 0.000000 
#    z -0.007540 0.000000 1.667980 
# 
# From -- ./inp_files/53163.got.cif
#   From: 2010.05.17/outbox.cif.g08.bks.cpg/sg12_27_cif.got.tgz:53163.got - 2010.06.03 13:09:07.
