data_PCOD9174908
_publ_section_title
;
Structure prediction by ZEFSAII (Michael W. Deem and Ramdas Pophale) SiO2 
 PCOD9174908
Probable space group: C 2/M
;
_chemical_formula_sum "Si O2"
_cell_formula_units_Z 48
_cell_length_a 22.404799
_cell_length_b 16.641085
_cell_length_c 21.115873
_cell_angle_alpha 90.000000
_cell_angle_beta 20.522227
_cell_angle_gamma 90.000000
_cell_volume 2759.989155
_symmetry_space_group_name_H-M "C 2/M"
_symmetry_group_IT_number 12
_symmetry_cell_setting 'monoclinic'
loop_
_space_group_symop_operation_xyz
x,y,z
-x,y,-z
-x,-y,-z
x,-y,z
1/2+x,1/2+y,z
1/2-x,1/2+y,-z
1/2-x,1/2-y,-z
1/2+x,1/2-y,z
loop_
_atom_site_type_symbol
_atom_site_label
_atom_site_fract_x
_atom_site_fract_y
_atom_site_fract_z
Si Si1 0.462130 0.500000 0.112370
Si Si2 0.278663 0.095481 0.448657
Si Si3 0.465013 0.324553 0.109387
Si Si4 0.948157 0.500000 0.478596
Si Si5 0.926540 0.699489 0.898172
Si Si6 0.105995 0.341912 0.528304
Si Si7 0.551630 0.307244 0.249782
O O1 0.524716 0.413509 0.074346
O O2 0.257746 0.500000 0.323184
O O3 0.500000 0.500000 0.000000
O O4 0.424345 0.135521 0.260588
O O5 0.313430 0.128751 0.485054
O O6 0.096577 0.127650 0.606671
O O7 0.287596 0.000000 0.440638
O O8 0.550130 0.252171 0.062398
O O9 0.263130 0.322133 0.325723
O O10 0.500000 0.320409 0.000000
O O11 0.000850 0.416770 0.393201
O O12 0.000000 0.500000 0.500000
O O13 0.942982 0.762633 0.823631
O O14 0.739453 0.662035 0.078679
O O15 0.999112 0.262907 0.650407
#
# Coordination Sequence:
#
# PCOD9174908 Si02
#       7
#     4   8   8   4   8   8   8
#     4   8  18  30  46  72 108 156 190 210 258 321
#     4  11  20  36  62  80 110 149 187 248 292 327
#     4  10  18  32  54  78 115 156 189 224 273 342
#     4  10  20  30  50  78 120 152 187 221 256 336
#     4  10  20  36  54  84 112 142 192 238 285 343
#     4  10  18  35  52  78 114 155 191 224 279 339
#     4  10  20  34  58  81 111 146 190 244 286 329
#
# _framework density 17.391373999999999
#
# number of rings (size 3 to 8) (size 9 to 14) (size 15 to 20)
#    0.000    2.000    4.167    1.000    0.000    4.667 
#    0.000    0.000    0.000    0.500    0.000    1.167 
#    0.000    0.000    0.000    0.000    0.000    0.000 
#
# Total GULP energy -133850.142775 kJ/mol
# GULP energy per Si atom -5577.089282 kJ/mol
# Density = 1.735179 g / cm^3
# Si number density = 17.391374 Si / 1000 Ang^3
#
#
#
# Elastic Constant Matrix: (Units=GPa)
#
#
# Indices 1 2 3 4 5 6 
#
# 1 55.9777 20.8179 30.0353 0.0004 10.0176 -0.0002
# 2 20.8179 50.9640 46.6398 0.0019 0.6889 -0.0011
# 3 30.0353 46.6398 104.0075 0.0038 -5.8803 -0.0008
# 4 0.0004 0.0019 0.0038 4.8509 0.0014 6.3163
# 5 10.0176 0.6889 -5.8803 0.0014 25.8627 0.0000
# 6 -0.0002 -0.0011 -0.0008 6.3163 0.0000 24.0663
#
#
#
# Elastic Compliance Matrix: (Units=1/GPa)
#
#
# Indices 1 2 3 4 5 6 
#
# 1 0.024520 -0.004821 -0.005520 0.000012 -0.010624 -0.000003
# 2 -0.004821 0.034713 -0.014305 -0.000005 -0.002310 0.000002
# 3 -0.005520 -0.014305 0.017997 -0.000015 0.006611 0.000004
# 4 0.000012 -0.000005 -0.000015 0.313166 -0.000025 -0.082192
# 5 -0.010624 -0.002310 0.006611 -0.000025 0.044345 0.000007
# 6 -0.000003 0.000002 0.000004 -0.082192 0.000007 0.063124
#
#
# Mechanical properties :
#
#
# Convention : Reuss Voigt Hill
#
# Bulk Modulus (GPa) = 35.79171 45.10394 40.44782
# Shear Modulus (GPa) = 8.98522 18.51972 13.75247
#
# Velocity S-wave (km/s) = 2.27546 3.26679 2.81510
# Velocity P-wave (km/s) = 5.24675 6.34194 5.82016
#
# Compressibility (1/GPa) = 0.02793943
#
# Stress axis : x y z
#
# Youngs Moduli (GPa) = 40.78283 28.80747 55.56468
#
# Poissons Ratio (x) = 0.13888 0.30670
# Poissons Ratio (y) = 0.19662 0.79484
# Poissons Ratio (z) = 0.22511 0.41208
#
# Static dielectric constant tensor:
#      x y z
#    x 1.591600 -0.000010 0.005520 
#    y -0.000010 1.599380 0.000000 
#    z 0.005520 0.000000 1.641620 
# 
# From -- ./inp_files/95708.got.cif
#   From: 2010.05.17/outbox.cif.g08.bks.cpg/sg12_48_cif.got.tgz:95708.got - 2010.06.03 13:09:07.
