data_PCOD9174271
_publ_section_title
;
Structure prediction by ZEFSAII (Michael W. Deem and Ramdas Pophale) SiO2 
 PCOD9174271
Probable space group: C 2/M
;
_chemical_formula_sum "Si O2"
_cell_formula_units_Z 48
_cell_length_a 18.317666
_cell_length_b 13.967546
_cell_length_c 14.917446
_cell_angle_alpha 90.000000
_cell_angle_beta 137.392177
_cell_angle_gamma 90.000000
_cell_volume 2583.796427
_symmetry_space_group_name_H-M "C 2/M"
_symmetry_group_IT_number 12
_symmetry_cell_setting 'monoclinic'
loop_
_space_group_symop_operation_xyz
x,y,z
-x,y,-z
-x,-y,-z
x,-y,z
1/2+x,1/2+y,z
1/2-x,1/2+y,-z
1/2-x,1/2-y,-z
1/2+x,1/2-y,z
loop_
_atom_site_type_symbol
_atom_site_label
_atom_site_fract_x
_atom_site_fract_y
_atom_site_fract_z
Si Si1 0.229403 0.116951 0.608138
Si Si2 0.318000 0.213756 0.977670
Si Si3 0.135101 0.886221 0.708714
Si Si4 0.066325 0.108708 0.968712
Si Si5 0.548900 0.384042 0.321127
Si Si6 0.972718 0.384917 0.871074
O O1 0.154064 0.147240 0.624207
O O2 0.166580 0.147144 0.461546
O O3 0.352667 0.147787 0.735279
O O4 0.233245 0.000000 0.613531
O O5 0.246088 0.138723 0.858603
O O6 0.250000 0.250000 0.000000
O O7 0.343658 0.310109 0.945775
O O8 0.431857 0.162814 0.099515
O O9 0.039790 0.848816 0.686483
O O10 0.119478 0.000000 0.689056
O O11 0.991264 0.135334 0.815516
O O12 0.106849 0.000000 0.989855
O O13 0.000000 0.109298 0.000000
O O14 0.549207 0.500000 0.326812
O O15 0.977140 0.500000 0.867310
O O16 0.000000 0.361113 0.000000
#
# Coordination Sequence:
#
# PCOD9174271 Si02
#       6
#     8   8   8   8   8   8
#     4   9  17  30  54  83 111 142 169 215 284 336
#     4  12  22  33  54  77 109 143 182 221 269 314
#     4  10  18  31  53  84 116 142 170 217 278 336
#     4  10  22  38  55  75 105 146 191 228 258 302
#     4   9  17  32  53  79 110 143 182 219 263 325
#     4  10  19  33  54  83 113 139 170 217 280 336
#
# _framework density 18.577316
#
# number of rings (size 3 to 8) (size 9 to 14) (size 15 to 20)
#    0.000    2.000    3.333    1.500    0.000    2.667 
#    0.000    0.833    0.000    0.000    0.000    0.000 
#    0.000    9.333    0.000    0.000    0.000    0.000 
#
# Total GULP energy -133746.487090 kJ/mol
# GULP energy per Si atom -5572.770295 kJ/mol
# Density = 1.853503 g / cm^3
# Si number density = 18.577316 Si / 1000 Ang^3
#
#
#
# Elastic Constant Matrix: (Units=GPa)
#
#
# Indices 1 2 3 4 5 6 
#
# 1 88.4208 9.4935 37.7491 0.0000 7.4857 0.0000
# 2 9.4935 26.4629 -6.4784 0.0000 7.5856 0.0000
# 3 37.7491 -6.4784 95.3734 0.0000 13.7538 0.0000
# 4 0.0000 0.0000 0.0000 8.9282 0.0000 8.3787
# 5 7.4857 7.5856 13.7538 0.0000 23.5359 0.0000
# 6 0.0000 0.0000 0.0000 8.3787 0.0000 23.3085
#
#
#
# Elastic Compliance Matrix: (Units=1/GPa)
#
#
# Indices 1 2 3 4 5 6 
#
# 1 0.014771 -0.007335 -0.006561 0.000000 0.001500 0.000000
# 2 -0.007335 0.047783 0.008773 0.000000 -0.018194 0.000000
# 3 -0.006561 0.008773 0.015053 0.000000 -0.009538 0.000000
# 4 0.000000 0.000000 0.000000 0.169024 0.000000 -0.060759
# 5 0.001500 -0.018194 -0.009538 0.000000 0.053449 0.000000
# 6 0.000000 0.000000 0.000000 -0.060759 0.000000 0.064744
#
#
# Mechanical properties :
#
#
# Convention : Reuss Voigt Hill
#
# Bulk Modulus (GPa) = 14.84544 32.42062 23.63303
# Shear Modulus (GPa) = 12.57780 22.45406 17.51593
#
# Velocity S-wave (km/s) = 2.60484 3.48038 3.07394
# Velocity P-wave (km/s) = 4.12983 5.80003 5.03467
#
# Compressibility (1/GPa) = 0.06736075
#
# Stress axis : x y z
#
# Youngs Moduli (GPa) = 67.69911 20.92778 66.43034
#
# Poissons Ratio (x) = 0.15351 0.43586
# Poissons Ratio (y) = 0.49660 -0.58279
# Poissons Ratio (z) = 0.44418 -0.18360
#
# Static dielectric constant tensor:
#      x y z
#    x 1.645960 0.000000 0.031480 
#    y 0.000000 1.654960 0.000000 
#    z 0.031480 0.000000 1.639540 
# 
# From -- ./inp_files/143899.got.cif
#   From: 2010.05.17/outbox.cif.g08.bks.cpg/sg12_72_cif.got.tgz:143899.got - 2010.06.03 13:09:07.
