data_PCOD9174441
_publ_section_title
;
Structure prediction by ZEFSAII (Michael W. Deem and Ramdas Pophale) SiO2 
 PCOD9174441
Probable space group: C 2/M
;
_chemical_formula_sum "Si O2"
_cell_formula_units_Z 64
_cell_length_a 20.996005
_cell_length_b 12.098092
_cell_length_c 14.311060
_cell_angle_alpha 90.000000
_cell_angle_beta 112.601494
_cell_angle_gamma 90.000000
_cell_volume 3355.994504
_symmetry_space_group_name_H-M "C 2/M"
_symmetry_group_IT_number 12
_symmetry_cell_setting 'monoclinic'
loop_
_space_group_symop_operation_xyz
x,y,z
-x,y,-z
-x,-y,-z
x,-y,z
1/2+x,1/2+y,z
1/2-x,1/2+y,-z
1/2-x,1/2-y,-z
1/2+x,1/2-y,z
loop_
_atom_site_type_symbol
_atom_site_label
_atom_site_fract_x
_atom_site_fract_y
_atom_site_fract_z
Si Si1 0.788360 0.871234 0.024782
Si Si2 0.675322 0.618534 0.515073
Si Si3 0.649873 0.376830 0.147291
Si Si4 0.726673 0.714876 0.359291
Si Si5 0.567327 0.627575 0.812879
Si Si6 0.525466 0.297293 0.409055
Si Si7 0.976591 0.287049 0.887689
Si Si8 0.097845 0.623538 0.325423
O O1 0.850079 0.861751 0.135113
O O2 0.757512 0.000000 0.019986
O O3 0.750000 0.750000 0.000000
O O4 0.823615 0.876337 0.942918
O O5 0.690633 0.500000 0.567029
O O6 0.716086 0.632345 0.440115
O O7 0.701822 0.720305 0.592063
O O8 0.594482 0.628257 0.448154
O O9 0.626953 0.500000 0.159997
O O10 0.710142 0.341027 0.252247
O O11 0.586576 0.294963 0.125302
O O12 0.666237 0.805091 0.344117
O O13 0.551023 0.500000 0.828348
O O14 0.532137 0.654983 0.693709
O O15 0.534146 0.711823 0.869098
O O16 0.500000 0.286978 0.500000
O O17 0.553155 0.183685 0.379578
O O18 0.947721 0.370548 0.794418
O O19 0.000000 0.334786 0.000000
O O20 0.116075 0.500000 0.360913
#
# Coordination Sequence:
#
# PCOD9174441 Si02
#       8
#     8   8   8   8   8   8   8   8
#     4  10  22  40  59  81 112 151 191 231 278 336
#     4  10  19  33  54  79 110 144 176 224 285 331
#     4  10  19  33  57  84 112 143 180 226 278 336
#     4   9  19  33  53  81 110 139 178 226 272 336
#     4  10  20  35  58  84 113 143 178 233 289 337
#     4  10  22  37  54  79 108 142 191 236 275 326
#     4  10  18  31  55  87 114 135 174 227 282 340
#     4   9  19  35  53  76 110 147 182 224 275 332
#
# _framework density 19.070353000000001
#
# number of rings (size 3 to 8) (size 9 to 14) (size 15 to 20)
#    0.000    2.250    1.250    2.250    0.000    3.000 
#    0.000    7.500    0.000    0.000    0.000    0.000 
#    0.000    0.000    0.000    0.000    0.000    0.000 
#
# Total GULP energy -178299.102579 kJ/mol
# GULP energy per Si atom -5571.846956 kJ/mol
# Density = 1.902695 g / cm^3
# Si number density = 19.070353 Si / 1000 Ang^3
#
#
#
# Elastic Constant Matrix: (Units=GPa)
#
#
# Indices 1 2 3 4 5 6 
#
# 1 37.9529 24.7691 23.4249 0.0000 6.1830 0.0000
# 2 24.7691 83.9899 -6.9008 0.0000 -1.9495 0.0000
# 3 23.4249 -6.9008 85.8709 0.0000 4.6916 0.0000
# 4 0.0000 0.0000 0.0000 12.9524 0.0000 1.7616
# 5 6.1830 -1.9495 4.6916 0.0000 23.9131 0.0000
# 6 0.0000 0.0000 0.0000 1.7616 0.0000 10.2519
#
#
#
# Elastic Compliance Matrix: (Units=1/GPa)
#
#
# Indices 1 2 3 4 5 6 
#
# 1 0.045844 -0.014842 -0.013126 0.000000 -0.010488 0.000000
# 2 -0.014842 0.016805 0.005170 0.000000 0.004193 0.000000
# 3 -0.013126 0.005170 0.015600 0.000000 0.000755 0.000000
# 4 0.000000 0.000000 0.000000 0.079054 0.000000 -0.013584
# 5 -0.010488 0.004193 0.000755 0.000000 0.044724 0.000000
# 6 0.000000 0.000000 0.000000 -0.013584 0.000000 0.099877
#
#
# Mechanical properties :
#
#
# Convention : Reuss Voigt Hill
#
# Bulk Modulus (GPa) = 30.62282 32.26667 31.44474
# Shear Modulus (GPa) = 13.95153 20.52483 17.23818
#
# Velocity S-wave (km/s) = 2.70771 3.28421 3.00980
# Velocity P-wave (km/s) = 5.08609 5.59803 5.34819
#
# Compressibility (1/GPa) = 0.03265539
#
# Stress axis : x y z
#
# Youngs Moduli (GPa) = 21.81294 59.50542 64.10170
#
# Poissons Ratio (x) = 0.88316 0.84138
# Poissons Ratio (y) = 0.32374 -0.33141
# Poissons Ratio (z) = 0.28631 -0.30765
#
# Static dielectric constant tensor:
#      x y z
#    x 1.650170 0.000000 0.030390 
#    y 0.000000 1.679910 0.000000 
#    z 0.030390 0.000000 1.691820 
# 
# From -- ./inp_files/232504.got.cif
#   From: 2010.05.17/outbox.cif.g08.bks.cpg/sg12_117_cif.got.tgz:232504.got - 2010.06.03 13:09:07.
