data_PCOD9174634
_publ_section_title
;
Structure prediction by ZEFSAII (Michael W. Deem and Ramdas Pophale) SiO2 
 PCOD9174634
Probable space group: C 2/M
;
_chemical_formula_sum "Si O2"
_cell_formula_units_Z 64
_cell_length_a 25.114185
_cell_length_b 9.135342
_cell_length_c 17.870439
_cell_angle_alpha 90.000000
_cell_angle_beta 77.297902
_cell_angle_gamma 90.000000
_cell_volume 3999.615010
_symmetry_space_group_name_H-M "C 2/M"
_symmetry_group_IT_number 12
_symmetry_cell_setting 'monoclinic'
loop_
_space_group_symop_operation_xyz
x,y,z
-x,y,-z
-x,-y,-z
x,-y,z
1/2+x,1/2+y,z
1/2-x,1/2+y,-z
1/2-x,1/2-y,-z
1/2+x,1/2-y,z
loop_
_atom_site_type_symbol
_atom_site_label
_atom_site_fract_x
_atom_site_fract_y
_atom_site_fract_z
Si Si1 0.615465 0.826435 0.417260
Si Si2 0.740088 0.825475 0.423133
Si Si3 0.160511 0.674638 0.683250
Si Si4 0.063687 0.326654 0.594751
Si Si5 0.935911 0.168293 0.996360
Si Si6 0.545614 0.674349 0.314788
Si Si7 0.963712 0.674009 0.839626
Si Si8 0.910557 0.673925 0.152019
O O1 0.678732 0.795038 0.414551
O O2 0.581778 0.799077 0.504090
O O3 0.591106 0.732721 0.357815
O O4 0.610031 0.000000 0.402171
O O5 0.750000 0.750000 0.500000
O O6 0.785425 0.762724 0.353190
O O7 0.745503 0.000000 0.429738
O O8 0.171499 0.500000 0.678739
O O9 0.115016 0.701995 0.633230
O O10 0.133140 0.712648 0.770993
O O11 0.050126 0.500000 0.606544
O O12 0.012155 0.232859 0.635574
O O13 0.905436 0.239234 0.076323
O O14 0.920169 0.000000 0.989060
O O15 0.933087 0.261335 0.921410
O O16 0.000000 0.170515 0.000000
O O17 0.545582 0.500000 0.310034
O O18 0.552821 0.745368 0.230966
O O19 0.955880 0.500000 0.836060
O O20 0.028676 0.700097 0.833307
O O21 0.907191 0.500000 0.138335
#
# Coordination Sequence:
#
# PCOD9174634 Si02
#       8
#     8   8   8   8   8   8   8   8
#     4  10  22  39  55  70  97 139 180 212 255 314
#     4  11  22  37  56  77 100 132 174 219 265 308
#     4  10  19  34  54  78 104 136 176 214 255 304
#     4  10  19  36  55  72 100 140 176 207 254 313
#     4   9  17  28  44  71 105 134 165 208 254 295
#     4  12  24  34  49  77 107 133 172 220 262 300
#     4  10  18  32  51  70  99 140 176 202 247 311
#     4   9  17  30  49  72 101 137 174 204 244 308
#
# _framework density 16.001539000000001
#
# number of rings (size 3 to 8) (size 9 to 14) (size 15 to 20)
#    0.000    1.875    2.500    2.625    0.000    6.000 
#    0.000    0.000    0.000    0.000    0.000    0.875 
#    0.000    0.000    0.000    0.000    0.000    0.000 
#
# Total GULP energy -178649.132277 kJ/mol
# GULP energy per Si atom -5582.785384 kJ/mol
# Density = 1.596512 g / cm^3
# Si number density = 16.001539 Si / 1000 Ang^3
#
#
#
# Elastic Constant Matrix: (Units=GPa)
#
#
# Indices 1 2 3 4 5 6 
#
# 1 55.6375 52.7835 53.2711 0.0000 8.3140 0.0000
# 2 52.7835 93.1468 85.5641 0.0000 10.4369 0.0000
# 3 53.2711 85.5641 146.0586 0.0000 3.8919 0.0000
# 4 0.0000 0.0000 0.0000 27.0829 0.0000 -2.5734
# 5 8.3140 10.4369 3.8919 0.0000 15.7702 0.0000
# 6 0.0000 0.0000 0.0000 -2.5734 0.0000 23.7351
#
#
#
# Elastic Compliance Matrix: (Units=1/GPa)
#
#
# Indices 1 2 3 4 5 6 
#
# 1 0.040273 -0.018682 -0.003531 0.000000 -0.007997 0.000000
# 2 -0.018682 0.034456 -0.013112 0.000000 -0.009718 0.000000
# 3 -0.003531 -0.013112 0.015638 0.000000 0.006680 0.000000
# 4 0.000000 0.000000 0.000000 0.037308 0.000000 0.004045
# 5 -0.007997 -0.009718 0.006680 0.000000 0.072410 0.000000
# 6 0.000000 0.000000 0.000000 0.004045 0.000000 0.042570
#
#
# Mechanical properties :
#
#
# Convention : Reuss Voigt Hill
#
# Bulk Modulus (GPa) = 50.71969 75.34225 63.03097
# Shear Modulus (GPa) = 15.63097 20.19926 17.91512
#
# Velocity S-wave (km/s) = 3.12884 3.55679 3.34965
# Velocity P-wave (km/s) = 6.69465 8.00339 7.37810
#
# Compressibility (1/GPa) = 0.01971621
#
# Stress axis : x y z
#
# Youngs Moduli (GPa) = 24.83057 29.02250 63.94652
#
# Poissons Ratio (x) = 0.54219 0.22582
# Poissons Ratio (y) = 0.46387 0.83850
# Poissons Ratio (z) = 0.08769 0.38056
#
# Static dielectric constant tensor:
#      x y z
#    x 1.510170 0.000000 -0.001870 
#    y 0.000000 1.530510 0.000000 
#    z -0.001870 0.000000 1.529210 
# 
# From -- ./inp_files/287586.got.cif
#   From: 2010.05.17/outbox.cif.g08.bks.cpg/sg12_144_cif.got.tgz:287586.got - 2010.06.03 13:09:07.
