data_PCOD9174903
_publ_section_title
;
Structure prediction by ZEFSAII (Michael W. Deem and Ramdas Pophale) SiO2 
 PCOD9174903
Probable space group: C 2/M
;
_chemical_formula_sum "Si O2"
_cell_formula_units_Z 56
_cell_length_a 24.551969
_cell_length_b 7.948409
_cell_length_c 15.723709
_cell_angle_alpha 90.000000
_cell_angle_beta 63.558325
_cell_angle_gamma 90.000000
_cell_volume 2747.469340
_symmetry_space_group_name_H-M "C 2/M"
_symmetry_group_IT_number 12
_symmetry_cell_setting 'monoclinic'
loop_
_space_group_symop_operation_xyz
x,y,z
-x,y,-z
-x,-y,-z
x,-y,z
1/2+x,1/2+y,z
1/2-x,1/2+y,-z
1/2-x,1/2-y,-z
1/2+x,1/2-y,z
loop_
_atom_site_type_symbol
_atom_site_label
_atom_site_fract_x
_atom_site_fract_y
_atom_site_fract_z
Si Si1 0.148691 0.195404 0.571964
Si Si2 0.970197 0.300393 0.262352
Si Si3 0.106660 0.294109 0.181490
Si Si4 0.718522 0.198112 0.209884
Si Si5 0.663656 0.796190 0.960596
Si Si6 0.749300 0.197708 0.626115
Si Si7 0.559927 0.794695 0.904628
O O1 0.083160 0.273946 0.633190
O O2 0.191805 0.263854 0.466661
O O3 0.189731 0.217303 0.628115
O O4 0.138841 0.000000 0.561876
O O5 0.977713 0.500000 0.245318
O O6 0.947935 0.233040 0.186121
O O7 0.037223 0.235223 0.238689
O O8 0.107192 0.500000 0.183285
O O9 0.154003 0.236968 0.220235
O O10 0.133116 0.246098 0.070763
O O11 0.769413 0.227051 0.102585
O O12 0.741228 0.280930 0.280893
O O13 0.713324 0.000000 0.230063
O O14 0.619561 0.739853 0.914255
O O15 0.666654 0.000000 0.957377
O O16 0.742702 0.000000 0.611041
O O17 0.562570 0.000000 0.901007
O O18 0.500000 0.749765 0.000000
#
# Coordination Sequence:
#
# PCOD9174903 Si02
#       7
#     8   8   8   8   8   8   8
#     4  10  21  37  59  86 112 133 164 220 281 328
#     4  10  18  32  55  81 110 146 185 217 259 321
#     4   9  19  34  52  76 109 151 191 223 258 316
#     4  11  22  35  52  77 110 144 184 233 275 307
#     4  10  18  32  54  78 106 143 187 226 268 324
#     4  10  21  39  60  81 105 139 179 216 266 332
#     4   9  15  26  49  77 101 130 172 217 253 300
#
# _framework density 20.382391999999999
#
# number of rings (size 3 to 8) (size 9 to 14) (size 15 to 20)
#    0.000    2.143    1.429    2.571    0.000    2.857 
#    0.000    3.571    0.000    5.143    0.000    0.000 
#    0.000    0.000    0.000    0.000    0.000    0.000 
#
# Total GULP energy -156348.543535 kJ/mol
# GULP energy per Si atom -5583.876555 kJ/mol
# Density = 2.033600 g / cm^3
# Si number density = 20.382392 Si / 1000 Ang^3
#
#
#
# Elastic Constant Matrix: (Units=GPa)
#
#
# Indices 1 2 3 4 5 6 
#
# 1 83.8463 -7.2192 30.6434 0.0000 -19.3078 0.0000
# 2 -7.2192 12.2896 -7.2420 0.0000 2.4915 0.0000
# 3 30.6434 -7.2420 66.9744 0.0000 -21.0207 0.0000
# 4 0.0000 0.0000 0.0000 20.9129 0.0000 -8.9071
# 5 -19.3078 2.4915 -21.0207 0.0000 27.2332 0.0000
# 6 0.0000 0.0000 0.0000 -8.9071 0.0000 3.7753
#
#
#
# Elastic Compliance Matrix: (Units=1/GPa)
#
#
# Indices 1 2 3 4 5 6 
#
# 1 0.015621 0.005164 -0.004304 0.000005 0.007280 0.000011
# 2 0.005164 0.088632 0.007688 0.000068 0.001486 0.000160
# 3 -0.004304 0.007688 0.021845 0.000005 0.013107 0.000012
# 4 0.000005 0.000068 0.000005 -9.832164 0.000006-23.197040
# 5 0.007280 0.001486 0.013107 0.000006 0.051863 0.000013
# 6 0.000011 0.000160 0.000012-23.197040 0.000013-54.463935
#
#
# Mechanical properties :
#
#
# Convention : Reuss Voigt Hill
#
# Bulk Modulus (GPa) = 6.98356 21.71940 14.35148
# Shear Modulus (GPa) = -0.07802 20.17951 10.05074
#
# Velocity S-wave (km/s) = -0.19586 3.14991 2.22302
# Velocity P-wave (km/s) = 1.83917 4.88962 3.69398
#
# Compressibility (1/GPa) = 0.14319347
#
# Stress axis : x y z
#
# Youngs Moduli (GPa) = 64.01833 11.28265 45.77634
#
# Poissons Ratio (x) = -0.05826 0.19700
# Poissons Ratio (y) = -0.33058 -0.35191
# Poissons Ratio (z) = 0.27551 -0.08674
#
# Static dielectric constant tensor:
#      x y z
#    x 1.718980 0.000000 -0.006590 
#    y 0.000000 1.744390 0.000000 
#    z -0.006590 0.000000 1.718020 
# 
# From -- ./inp_files/238275.got.cif
#   From: 2010.05.17/outbox.cif.g08.bks.cpg/sg12_120_cif.got.tgz:238275.got - 2010.06.03 13:09:07.
