data_PCOD9174910
_publ_section_title
;
Structure prediction by ZEFSAII (Michael W. Deem and Ramdas Pophale) SiO2 
 PCOD9174910
Probable space group: C 2/M
;
_chemical_formula_sum "Si O2"
_cell_formula_units_Z 56
_cell_length_a 9.912816
_cell_length_b 14.076221
_cell_length_c 22.788952
_cell_angle_alpha 90.000000
_cell_angle_beta 44.811124
_cell_angle_gamma 90.000000
_cell_volume 2241.073459
_symmetry_space_group_name_H-M "C 2/M"
_symmetry_group_IT_number 12
_symmetry_cell_setting 'monoclinic'
loop_
_space_group_symop_operation_xyz
x,y,z
-x,y,-z
-x,-y,-z
x,-y,z
1/2+x,1/2+y,z
1/2-x,1/2+y,-z
1/2-x,1/2-y,-z
1/2+x,1/2-y,z
loop_
_atom_site_type_symbol
_atom_site_label
_atom_site_fract_x
_atom_site_fract_y
_atom_site_fract_z
Si Si1 0.076970 0.691196 0.331383
Si Si2 0.406116 0.107510 0.794054
Si Si3 0.984996 0.814657 0.917561
Si Si4 0.079695 0.391868 0.076084
Si Si5 0.017841 0.106092 0.786424
Si Si6 0.580391 0.604439 0.317428
Si Si7 0.847594 0.610258 0.499300
O O1 0.025995 0.676007 0.278877
O O2 0.254603 0.622521 0.291516
O O3 0.159011 0.796466 0.316052
O O4 0.892901 0.668791 0.427100
O O5 0.483141 0.110074 0.836397
O O6 0.181007 0.131485 0.868274
O O7 0.428804 0.000000 0.765130
O O8 0.005986 0.703247 0.926847
O O9 0.949937 0.822656 0.857878
O O10 0.805775 0.866560 0.002325
O O11 0.044040 0.500000 0.065180
O O12 0.921619 0.109559 0.752618
O O13 0.984555 0.000000 0.820275
O O14 0.652140 0.500000 0.313600
O O15 0.361402 0.610588 0.408246
O O16 0.892472 0.500000 0.472021
O O17 0.000000 0.644995 0.500000
#
# Coordination Sequence:
#
# PCOD9174910 Si02
#       7
#     8   8   8   8   8   8   8
#     4  11  19  32  54  78 101 131 169 209 252 295
#     4  10  20  34  54  78 102 130 171 213 250 295
#     4  10  19  32  54  77 101 135 171 210 252 297
#     4  10  20  34  52  76 105 134 169 209 254 302
#     4  10  19  34  54  77 101 130 173 214 247 292
#     4  10  21  34  51  76 105 134 166 207 252 299
#     4  10  18  32  54  79 101 127 168 212 250 292
#
# _framework density 24.988023999999999
#
# number of rings (size 3 to 8) (size 9 to 14) (size 15 to 20)
#    0.000    1.857    1.429    5.143    0.000    1.143 
#    0.000    2.857    0.000   11.571    0.000    0.000 
#    0.000    0.000    0.000    0.000    0.000    0.000 
#
# Total GULP energy -156642.013809 kJ/mol
# GULP energy per Si atom -5594.357636 kJ/mol
# Density = 2.493115 g / cm^3
# Si number density = 24.988024 Si / 1000 Ang^3
#
#
#
# Elastic Constant Matrix: (Units=GPa)
#
#
# Indices 1 2 3 4 5 6 
#
# 1 58.2844 -1.7088 13.0604 0.0000 -6.8978 0.0000
# 2 -1.7088 168.2315 15.4190 0.0000 0.6957 0.0000
# 3 13.0604 15.4190 130.7681 0.0000 5.3285 0.0000
# 4 0.0000 0.0000 0.0000 34.9949 0.0000 -3.5019
# 5 -6.8978 0.6957 5.3285 0.0000 26.5812 0.0000
# 6 0.0000 0.0000 0.0000 -3.5019 0.0000 9.6964
#
#
#
# Elastic Compliance Matrix: (Units=1/GPa)
#
#
# Indices 1 2 3 4 5 6 
#
# 1 0.018240 0.000354 -0.002073 0.000000 0.005140 0.000000
# 2 0.000354 0.006016 -0.000748 0.000000 0.000084 0.000000
# 3 -0.002073 -0.000748 0.008029 0.000000 -0.002128 0.000000
# 4 0.000000 0.000000 0.000000 0.029647 0.000000 0.010707
# 5 0.005140 0.000084 -0.002128 0.000000 0.039379 0.000000
# 6 0.000000 0.000000 0.000000 0.010707 0.000000 0.106999
#
#
# Mechanical properties :
#
#
# Convention : Reuss Voigt Hill
#
# Bulk Modulus (GPa) = 36.56126 45.64725 41.10425
# Shear Modulus (GPa) = 22.48595 36.28871 29.38733
#
# Velocity S-wave (km/s) = 3.00304 3.81497 3.43309
# Velocity P-wave (km/s) = 5.16600 6.14106 5.67451
#
# Compressibility (1/GPa) = 0.02735135
#
# Stress axis : x y z
#
# Youngs Moduli (GPa) = 54.82340 166.22315 124.54728
#
# Poissons Ratio (x) = -0.05885 0.25818
# Poissons Ratio (y) = -0.01941 0.09318
# Poissons Ratio (z) = 0.11364 0.12436
#
# Static dielectric constant tensor:
#      x y z
#    x 2.002690 0.000000 0.005240 
#    y 0.000000 1.952680 0.000000 
#    z 0.005240 0.000000 1.955330 
# 
# From -- ./inp_files/262823.got.cif
#   From: 2010.05.17/outbox.cif.g08.bks.cpg/sg12_132_cif.got.tgz:262823.got - 2010.06.03 13:09:07.
