data_PCOD9174559
_publ_section_title
;
Structure prediction by ZEFSAII (Michael W. Deem and Ramdas Pophale) SiO2 
 PCOD9174559
Probable space group: C 2/M
;
_chemical_formula_sum "Si O2"
_cell_formula_units_Z 44
_cell_length_a 5.610506
_cell_length_b 35.752180
_cell_length_c 13.724770
_cell_angle_alpha 90.000000
_cell_angle_beta 124.906989
_cell_angle_gamma 90.000000
_cell_volume 2257.703759
_symmetry_space_group_name_H-M "C 2/M"
_symmetry_group_IT_number 12
_symmetry_cell_setting 'monoclinic'
loop_
_space_group_symop_operation_xyz
x,y,z
-x,y,-z
-x,-y,-z
x,-y,z
1/2+x,1/2+y,z
1/2-x,1/2+y,-z
1/2-x,1/2-y,-z
1/2+x,1/2-y,z
loop_
_atom_site_type_symbol
_atom_site_label
_atom_site_fract_x
_atom_site_fract_y
_atom_site_fract_z
Si Si1 0.277156 0.215047 0.617682
Si Si2 0.500000 0.162302 0.500000
Si Si3 0.067149 0.159620 0.736971
Si Si4 0.197881 0.956457 0.144538
Si Si5 0.194774 0.418111 0.143032
Si Si6 0.134270 0.764699 0.842419
O O1 0.401302 0.189063 0.563134
O O2 0.207308 0.185125 0.685768
O O3 0.486913 0.245516 0.712213
O O4 0.000000 0.232845 0.500000
O O5 0.776195 0.143316 0.616634
O O6 0.250590 0.124739 0.815533
O O7 0.048307 0.191318 0.818280
O O8 0.503385 0.937740 0.183308
O O9 0.002591 0.936783 0.182699
O O10 0.241944 0.000000 0.179008
O O11 0.000000 0.954963 0.000000
O O12 0.000000 0.420029 0.000000
O O13 0.471418 0.756284 0.893530
#
# Coordination Sequence:
#
# PCOD9174559 Si02
#       6
#     8   4   8   8   8   8
#     4   9  19  30  46  70 101 137 183 232 275 303
#     4  10  18  32  48  74 101 140 182 228 271 312
#     4  10  21  31  49  74 110 139 179 218 272 314
#     4   9  18  35  60  87 109 131 167 213 262 314
#     4  10  21  35  56  83 114 143 165 206 264 320
#     4  10  19  30  45  67  97 135 177 225 267 307
#
# _framework density 19.488827000000001
#
# number of rings (size 3 to 8) (size 9 to 14) (size 15 to 20)
#    0.000    2.364    1.818    0.545    3.818    4.364 
#    0.000    0.000    0.000    4.364    0.000    3.818 
#    0.000    0.000    0.000    0.000    0.000    0.000 
#
# Total GULP energy -122524.184828 kJ/mol
# GULP energy per Si atom -5569.281129 kJ/mol
# Density = 1.944447 g / cm^3
# Si number density = 19.488827 Si / 1000 Ang^3
#
#
#
# Elastic Constant Matrix: (Units=GPa)
#
#
# Indices 1 2 3 4 5 6 
#
# 1 124.7388 45.3599 25.7372 0.0000 7.0718 0.0000
# 2 45.3599 114.2400 9.3816 0.0000 6.1957 0.0000
# 3 25.7372 9.3816 24.2463 0.0000 8.4674 0.0000
# 4 0.0000 0.0000 0.0000 31.1805 0.0000 13.9021
# 5 7.0718 6.1957 8.4674 0.0000 28.7899 0.0000
# 6 0.0000 0.0000 0.0000 13.9021 0.0000 25.0056
#
#
#
# Elastic Compliance Matrix: (Units=1/GPa)
#
#
# Indices 1 2 3 4 5 6 
#
# 1 0.011659 -0.003765 -0.011369 0.000000 0.001290 0.000000
# 2 -0.003765 0.010284 0.000521 0.000000 -0.001442 0.000000
# 3 -0.011369 0.000521 0.058146 0.000000 -0.014421 0.000000
# 4 0.000000 0.000000 0.000000 0.042641 0.000000 -0.023707
# 5 0.001290 -0.001442 -0.014421 0.000000 0.038969 0.000000
# 6 0.000000 0.000000 0.000000 -0.023707 0.000000 0.053171
#
#
# Mechanical properties :
#
#
# Convention : Reuss Voigt Hill
#
# Bulk Modulus (GPa) = 19.66103 47.13139 33.39621
# Shear Modulus (GPa) = 19.15334 29.17831 24.16582
#
# Velocity S-wave (km/s) = 3.13834 3.87354 3.52516
# Velocity P-wave (km/s) = 4.82105 6.65147 5.80881
#
# Compressibility (1/GPa) = 0.05086204
#
# Stress axis : x y z
#
# Youngs Moduli (GPa) = 85.77299 97.23859 17.19800
#
# Poissons Ratio (x) = 0.36615 0.19553
# Poissons Ratio (y) = 0.32298 -0.00896
# Poissons Ratio (z) = 0.97518 -0.05069
#
# Static dielectric constant tensor:
#      x y z
#    x 1.841590 0.000000 0.064130 
#    y 0.000000 1.630480 0.000000 
#    z 0.064130 0.000000 1.749860 
# 
# From -- ./inp_files/191976.got.cif
#   From: 2010.05.17/outbox.cif.g08.bks.cpg/sg12_96_cif.got.tgz:191976.got - 2010.06.03 13:09:07.
