data_PCOD9174570
_publ_section_title
;
Structure prediction by ZEFSAII (Michael W. Deem and Ramdas Pophale) SiO2 
 PCOD9174570
Probable space group: C 2/M
;
_chemical_formula_sum "Si O2"
_cell_formula_units_Z 56
_cell_length_a 29.302028
_cell_length_b 24.461141
_cell_length_c 5.259690
_cell_angle_alpha 90.000000
_cell_angle_beta 55.530144
_cell_angle_gamma 90.000000
_cell_volume 3108.029984
_symmetry_space_group_name_H-M "C 2/M"
_symmetry_group_IT_number 12
_symmetry_cell_setting 'monoclinic'
loop_
_space_group_symop_operation_xyz
x,y,z
-x,y,-z
-x,-y,-z
x,-y,z
1/2+x,1/2+y,z
1/2-x,1/2+y,-z
1/2-x,1/2-y,-z
1/2+x,1/2-y,z
loop_
_atom_site_type_symbol
_atom_site_label
_atom_site_fract_x
_atom_site_fract_y
_atom_site_fract_z
Si Si1 0.379821 0.249970 0.784030
Si Si2 0.500000 0.722179 0.500000
Si Si3 0.687691 0.226098 0.483579
Si Si4 0.732392 0.337504 0.453508
Si Si5 0.084652 0.938891 0.889494
Si Si6 0.793694 0.938583 0.740342
Si Si7 0.500000 0.646551 0.000000
Si Si8 0.361246 0.628274 0.912218
O O1 0.444893 0.242682 0.625670
O O2 0.351146 0.219822 0.637814
O O3 0.375712 0.315281 0.728726
O O4 0.348072 0.235372 0.145274
O O5 0.507411 0.684299 0.225424
O O6 0.726252 0.280339 0.321842
O O7 0.728547 0.176983 0.432455
O O8 0.745566 0.393394 0.266617
O O9 0.669909 0.347740 0.743590
O O10 0.147898 0.944074 0.595233
O O11 0.051476 0.895498 0.826440
O O12 0.061009 0.000000 0.970900
O O13 0.089490 0.910402 0.149967
O O14 0.815877 0.909835 0.924176
O O15 0.771593 0.000000 0.841369
#
# Coordination Sequence:
#
# PCOD9174570 Si02
#       8
#     8   4   8   8   8   8   4   8
#     4  11  21  35  53  73  98 129 165 211 254 304
#     4  12  24  36  55  72  98 130 169 210 268 312
#     4  10  21  34  54  77  98 129 167 212 256 296
#     4   9  20  31  50  73 101 126 170 209 251 305
#     4  10  21  34  45  66  93 131 181 225 263 293
#     4  10  19  32  50  70 100 136 172 212 257 304
#     4  12  23  36  52  68  92 134 174 230 263 296
#     4  10  18  32  49  68  96 132 168 214 252 303
#
# _framework density 18.017844
#
# number of rings (size 3 to 8) (size 9 to 14) (size 15 to 20)
#    0.000    1.714    2.857    2.357    4.000    2.286 
#    0.000    0.714    0.000    0.000    0.000    0.000 
#    0.000    0.000    0.000    3.857    0.000    0.000 
#
# Total GULP energy -155999.639464 kJ/mol
# GULP energy per Si atom -5571.415695 kJ/mol
# Density = 1.797683 g / cm^3
# Si number density = 18.017844 Si / 1000 Ang^3
#
#
#
# Elastic Constant Matrix: (Units=GPa)
#
#
# Indices 1 2 3 4 5 6 
#
# 1 101.2564 25.4676 17.2568 0.0000 9.7708 0.0000
# 2 25.4676 58.5658 2.2687 0.0000 2.2331 0.0000
# 3 17.2568 2.2687 41.3346 0.0000 10.1449 0.0000
# 4 0.0000 0.0000 0.0000 29.4212 0.0000 23.3095
# 5 9.7708 2.2331 10.1449 0.0000 28.5998 0.0000
# 6 0.0000 0.0000 0.0000 23.3095 0.0000 61.0812
#
#
#
# Elastic Compliance Matrix: (Units=1/GPa)
#
#
# Indices 1 2 3 4 5 6 
#
# 1 0.012067 -0.004999 -0.004215 0.000000 -0.002237 0.000000
# 2 -0.004999 0.019214 0.001075 0.000000 -0.000174 0.000000
# 3 -0.004215 0.001075 0.027998 0.000000 -0.008576 0.000000
# 4 0.000000 0.000000 0.000000 0.048719 0.000000 -0.018592
# 5 -0.002237 -0.000174 -0.008576 0.000000 0.038785 0.000000
# 6 0.000000 0.000000 0.000000 -0.018592 0.000000 0.023467
#
#
# Mechanical properties :
#
#
# Convention : Reuss Voigt Hill
#
# Bulk Modulus (GPa) = 23.25459 32.34922 27.80191
# Shear Modulus (GPa) = 24.89292 34.23137 29.56214
#
# Velocity S-wave (km/s) = 3.72098 4.36347 4.05497
# Velocity P-wave (km/s) = 5.60316 6.58631 6.11452
#
# Compressibility (1/GPa) = 0.04300226
#
# Stress axis : x y z
#
# Youngs Moduli (GPa) = 82.86781 52.04644 35.71677
#
# Poissons Ratio (x) = 0.26018 0.15053
# Poissons Ratio (y) = 0.41426 -0.03840
# Poissons Ratio (z) = 0.34925 -0.05595
#
# Static dielectric constant tensor:
#      x y z
#    x 1.668590 0.000000 0.025560 
#    y 0.000000 1.658430 0.000000 
#    z 0.025560 0.000000 1.755390 
# 
# From -- ./inp_files/29692.got.cif
#   From: 2010.05.17/outbox.cif.g08.bks.cpg/sg12_15_cif.got.tgz:29692.got - 2010.06.03 13:09:07.
