data_PCOD9174949
_publ_section_title
;
Structure prediction by ZEFSAII (Michael W. Deem and Ramdas Pophale) SiO2 
 PCOD9174949
Probable space group: C 2/M
;
_chemical_formula_sum "Si O2"
_cell_formula_units_Z 48
_cell_length_a 12.711111
_cell_length_b 25.893418
_cell_length_c 17.485713
_cell_angle_alpha 90.000000
_cell_angle_beta 24.479514
_cell_angle_gamma 90.000000
_cell_volume 2384.746956
_symmetry_space_group_name_H-M "C 2/M"
_symmetry_group_IT_number 12
_symmetry_cell_setting 'monoclinic'
loop_
_space_group_symop_operation_xyz
x,y,z
-x,y,-z
-x,-y,-z
x,-y,z
1/2+x,1/2+y,z
1/2-x,1/2+y,-z
1/2-x,1/2-y,-z
1/2+x,1/2-y,z
loop_
_atom_site_type_symbol
_atom_site_label
_atom_site_fract_x
_atom_site_fract_y
_atom_site_fract_z
Si Si1 0.942268 0.109864 0.155251
Si Si2 0.268209 0.294017 0.553368
Si Si3 0.431734 0.894431 0.739834
Si Si4 0.910162 0.939702 0.342303
Si Si5 0.494726 0.716604 0.821558
Si Si6 0.204098 0.845953 0.193638
O O1 0.745236 0.099860 0.217945
O O2 0.862595 0.083647 0.288172
O O3 0.940833 0.172261 0.161642
O O4 0.230471 0.093706 0.940958
O O5 0.250000 0.250000 0.500000
O O6 0.207994 0.259086 0.666091
O O7 0.535563 0.323399 0.373780
O O8 0.054325 0.337858 0.676737
O O9 0.674910 0.928656 0.555476
O O10 0.141853 0.905958 0.222370
O O11 0.958662 0.000000 0.304273
O O12 0.421242 0.682987 0.795714
O O13 0.250000 0.750000 0.000000
O O14 0.500000 0.835250 0.000000
#
# Coordination Sequence:
#
# PCOD9174949 Si02
#       6
#     8   8   8   8   8   8
#     4  10  21  35  57  84 114 145 185 226 277 337
#     4   9  18  33  52  76 112 148 183 220 263 316
#     4  10  20  36  56  81 114 147 179 230 279 335
#     4  10  22  39  59  80 109 142 184 241 291 334
#     4  10  18  32  54  81 114 147 182 222 267 320
#     4   9  20  37  55  79 109 144 190 232 271 324
#
# _framework density 20.127921000000001
#
# number of rings (size 3 to 8) (size 9 to 14) (size 15 to 20)
#    0.000    2.333    1.667    1.500    0.000    5.000 
#    0.000    7.500    0.000    0.000    0.000    4.667 
#    0.000    0.000    0.000    0.000    0.000    0.000 
#
# Total GULP energy -133699.683612 kJ/mol
# GULP energy per Si atom -5570.820150 kJ/mol
# Density = 2.008211 g / cm^3
# Si number density = 20.127921 Si / 1000 Ang^3
#
#
#
# Elastic Constant Matrix: (Units=GPa)
#
#
# Indices 1 2 3 4 5 6 
#
# 1 21.3273 8.9468 11.3448 0.0254 -2.0072 -0.0069
# 2 8.9468 122.1482 31.9748 0.0006 5.9202 -0.0602
# 3 11.3448 31.9748 118.5059 0.0293 -4.3266 -0.1557
# 4 0.0254 0.0006 0.0293 19.2583 -0.1390 3.4321
# 5 -2.0072 5.9202 -4.3266 -0.1390 28.1370 0.0272
# 6 -0.0069 -0.0602 -0.1557 3.4321 0.0272 9.0662
#
#
#
# Elastic Compliance Matrix: (Units=1/GPa)
#
#
# Indices 1 2 3 4 5 6 
#
# 1 0.050514 -0.002844 -0.003937 -0.000026 0.003596 -0.000049
# 2 -0.002844 0.009111 -0.002276 -0.000017 -0.002470 0.000033
# 3 -0.003937 -0.002276 0.009490 -0.000024 0.001657 0.000149
# 4 -0.000026 -0.000017 -0.000024 0.055685 0.000293 -0.021082
# 5 0.003596 -0.002470 0.001657 0.000293 0.036573 -0.000206
# 6 -0.000049 0.000033 0.000149 -0.021082 -0.000206 0.118284
#
#
# Mechanical properties :
#
#
# Convention : Reuss Voigt Hill
#
# Bulk Modulus (GPa) = 19.60755 40.72380 30.16568
# Shear Modulus (GPa) = 15.88455 25.27329 20.57892
#
# Velocity S-wave (km/s) = 2.81228 3.54734 3.20098
# Velocity P-wave (km/s) = 4.50642 6.08724 5.35548
#
# Compressibility (1/GPa) = 0.05100075
#
# Stress axis : x y z
#
# Youngs Moduli (GPa) = 19.79651 109.76239 105.37238
#
# Poissons Ratio (x) = 0.31212 0.41489
# Poissons Ratio (y) = 0.05629 0.23984
# Poissons Ratio (z) = 0.07795 0.24983
#
# Static dielectric constant tensor:
#      x y z
#    x 1.728940 -0.000050 0.023530 
#    y -0.000050 1.662720 0.000110 
#    z 0.023530 0.000110 1.734270 
# 
# From -- ./inp_files/312426.got.cif
#   From: 2010.05.17/outbox.cif.g08.bks.cpg/sg12_157_cif.got.tgz:312426.got - 2010.06.03 13:09:07.
