data_PCOD9174063
_publ_section_title
;
Structure prediction by ZEFSAII (Michael W. Deem and Ramdas Pophale) SiO2 
 PCOD9174063
Probable space group: C 2/M
;
_chemical_formula_sum "Si O2"
_cell_formula_units_Z 56
_cell_length_a 24.456571
_cell_length_b 10.770754
_cell_length_c 27.603746
_cell_angle_alpha 90.000000
_cell_angle_beta 157.793448
_cell_angle_gamma 90.000000
_cell_volume 2748.148573
_symmetry_space_group_name_H-M "C 2/M"
_symmetry_group_IT_number 12
_symmetry_cell_setting 'monoclinic'
loop_
_space_group_symop_operation_xyz
x,y,z
-x,y,-z
-x,-y,-z
x,-y,z
1/2+x,1/2+y,z
1/2-x,1/2+y,-z
1/2-x,1/2-y,-z
1/2+x,1/2-y,z
loop_
_atom_site_type_symbol
_atom_site_label
_atom_site_fract_x
_atom_site_fract_y
_atom_site_fract_z
Si Si1 0.575253 0.856643 0.108362
Si Si2 0.360642 0.637521 0.588610
Si Si3 0.972944 0.142155 0.378192
Si Si4 0.002928 0.768443 0.801297
Si Si5 0.250228 0.652474 0.341244
Si Si6 0.741695 0.142712 0.120521
Si Si7 0.726781 0.134855 0.924806
O O1 0.702787 0.811843 0.247829
O O2 0.610611 0.000000 0.123547
O O3 0.500000 0.793530 0.000000
O O4 0.431291 0.861008 0.023828
O O5 0.292813 0.500000 0.532878
O O6 0.250000 0.750000 0.500000
O O7 0.447823 0.647052 0.609558
O O8 0.451571 0.655364 0.712191
O O9 0.089383 0.196064 0.511127
O O10 0.810110 0.178605 0.229293
O O11 0.958655 0.000000 0.382535
O O12 0.107925 0.657444 0.868984
O O13 0.866578 0.713264 0.718211
O O14 0.111861 0.852206 0.921825
O O15 0.242477 0.500000 0.338361
O O16 0.791117 0.250146 0.125669
O O17 0.789498 0.000000 0.149368
O O18 0.705517 0.000000 0.884906
#
# Coordination Sequence:
#
# PCOD9174063 Si02
#       7
#     8   8   8   8   8   8   8
#     4   9  18  33  55  80 103 133 177 225 271 322
#     4  11  21  33  49  71 106 146 184 218 255 303
#     4   9  18  31  48  73 106 141 173 208 259 315
#     4  11  21  33  48  71 107 148 177 217 260 308
#     4  10  18  31  52  77 105 139 178 218 261 317
#     4  10  19  35  56  77 106 142 174 216 272 318
#     4  11  23  33  49  78 108 138 181 224 259 307
#
# _framework density 20.377355000000001
#
# number of rings (size 3 to 8) (size 9 to 14) (size 15 to 20)
#    0.000    1.857    4.286    0.857    0.000    2.857 
#    0.000    0.714    0.000    4.714    0.000    0.000 
#    0.000    1.143    0.000    0.000    0.000    0.000 
#
# Total GULP energy -155944.903421 kJ/mol
# GULP energy per Si atom -5569.460836 kJ/mol
# Density = 2.033098 g / cm^3
# Si number density = 20.377355 Si / 1000 Ang^3
#
#
#
# Elastic Constant Matrix: (Units=GPa)
#
#
# Indices 1 2 3 4 5 6 
#
# 1 38.1664 14.3960 9.2497 0.0007 -23.0537 -0.0004
# 2 14.3960 86.2224 13.8052 -0.0040 -3.6249 -0.0008
# 3 9.2497 13.8052 140.0423 -0.0046 -34.9136 -0.0010
# 4 0.0007 -0.0040 -0.0046 8.6368 -0.0019 -3.7843
# 5 -23.0537 -3.6249 -34.9136 -0.0019 38.6148 0.0000
# 6 -0.0004 -0.0008 -0.0010 -3.7843 0.0000 15.4265
#
#
#
# Elastic Compliance Matrix: (Units=1/GPa)
#
#
# Indices 1 2 3 4 5 6 
#
# 1 0.047480 -0.007473 0.005800 0.000004 0.032889 0.000002
# 2 -0.007473 0.012960 -0.002057 0.000005 -0.005105 0.000002
# 3 0.005800 -0.002057 0.010038 0.000008 0.012346 0.000003
# 4 0.000004 0.000005 0.000008 0.129727 0.000016 0.031824
# 5 0.032889 -0.005105 0.012346 0.000016 0.056216 0.000005
# 6 0.000002 0.000002 0.000003 0.031824 0.000005 0.072630
#
#
# Mechanical properties :
#
#
# Convention : Reuss Voigt Hill
#
# Bulk Modulus (GPa) = 15.86813 37.70364 26.78589
# Shear Modulus (GPa) = 13.98531 27.66764 20.82647
#
# Velocity S-wave (km/s) = 2.62261 3.68878 3.20040
# Velocity P-wave (km/s) = 4.12005 6.05687 5.17979
#
# Compressibility (1/GPa) = 0.06301939
#
# Stress axis : x y z
#
# Youngs Moduli (GPa) = 21.06134 77.15821 99.61879
#
# Poissons Ratio (x) = 0.57664 -0.57781
# Poissons Ratio (y) = 0.15740 0.20488
# Poissons Ratio (z) = -0.12216 0.15869
#
# Static dielectric constant tensor:
#      x y z
#    x 1.816400 0.000000 -0.000730 
#    y 0.000000 1.691240 0.000000 
#    z -0.000730 0.000000 1.816480 
# 
# From -- ./inp_files/383873.got.cif
#   From: 2010.05.17/outbox.cif.g08.bks.cpg/sg12_192_cif.got.tgz:383873.got - 2010.06.03 13:09:07.
