data_PCOD9174592
_publ_section_title
;
Structure prediction by ZEFSAII (Michael W. Deem and Ramdas Pophale) SiO2 
 PCOD9174592
Probable space group: C 2/M
;
_chemical_formula_sum "Si O2"
_cell_formula_units_Z 64
_cell_length_a 25.944344
_cell_length_b 8.946717
_cell_length_c 21.910092
_cell_angle_alpha 90.000000
_cell_angle_beta 52.632392
_cell_angle_gamma 90.000000
_cell_volume 4041.898780
_symmetry_space_group_name_H-M "C 2/M"
_symmetry_group_IT_number 12
_symmetry_cell_setting 'monoclinic'
loop_
_space_group_symop_operation_xyz
x,y,z
-x,y,-z
-x,-y,-z
x,-y,z
1/2+x,1/2+y,z
1/2-x,1/2+y,-z
1/2-x,1/2-y,-z
1/2+x,1/2-y,z
loop_
_atom_site_type_symbol
_atom_site_label
_atom_site_fract_x
_atom_site_fract_y
_atom_site_fract_z
Si Si1 0.986706 0.678393 0.653407
Si Si2 0.358217 0.822936 0.663890
Si Si3 0.289668 0.819896 0.915568
Si Si4 0.244503 0.678300 0.820203
Si Si5 0.434785 0.672007 0.505233
Si Si6 0.057919 0.320345 0.182545
Si Si7 0.894274 0.819888 0.090534
Si Si8 0.515125 0.320847 0.087793
O O1 0.997960 0.500000 0.643839
O O2 0.042676 0.759343 0.575052
O O3 0.918374 0.703565 0.667323
O O4 0.977217 0.728586 0.729785
O O5 0.296786 0.734787 0.733432
O O6 0.382451 0.766126 0.580732
O O7 0.345526 0.000000 0.672443
O O8 0.263883 0.753242 0.870732
O O9 0.365789 0.782345 0.867881
O O10 0.283046 0.000000 0.919678
O O11 0.250000 0.750000 0.000000
O O12 0.246040 0.500000 0.824495
O O13 0.173099 0.735951 0.854674
O O14 0.500000 0.676081 0.500000
O O15 0.414710 0.500000 0.513822
O O16 0.054034 0.500000 0.183064
O O17 0.027625 0.253276 0.143471
O O18 0.946866 0.782151 0.104853
O O19 0.884581 0.000000 0.098266
O O20 0.928626 0.781189 0.001366
O O21 0.516611 0.500000 0.093053
#
# Coordination Sequence:
#
# PCOD9174592 Si02
#       8
#     8   8   8   8   8   8   8   8
#     4   9  17  31  47  67  96 135 170 197 240 299
#     4  10  18  32  50  68  97 137 170 201 243 297
#     4  11  22  36  49  69 100 137 171 203 247 301
#     4  12  23  33  49  75 102 132 169 210 252 296
#     4   9  17  28  44  70  99 127 162 206 246 286
#     4  10  20  33  49  71 101 132 166 205 247 296
#     4   9  19  37  55  71  96 129 168 213 257 304
#     4   9  19  35  55  75  94 125 169 214 258 298
#
# _framework density 15.834142
#
# number of rings (size 3 to 8) (size 9 to 14) (size 15 to 20)
#    0.000    2.125    1.250    3.750    0.000    6.500 
#    0.000    1.250    0.000    0.000    0.000    0.875 
#    0.000    0.000    0.000    0.000    0.000    0.000 
#
# Total GULP energy -178567.858814 kJ/mol
# GULP energy per Si atom -5580.245588 kJ/mol
# Density = 1.579810 g / cm^3
# Si number density = 15.834142 Si / 1000 Ang^3
#
#
#
# Elastic Constant Matrix: (Units=GPa)
#
#
# Indices 1 2 3 4 5 6 
#
# 1 63.6434 40.4959 57.2079 -0.0017 1.3806 0.0029
# 2 40.4959 62.3877 56.0796 -0.0006 -0.1130 0.0015
# 3 57.2079 56.0796 137.3877 -0.0007 5.8065 0.0013
# 4 -0.0017 -0.0006 -0.0007 30.9228 -0.0005 3.2109
# 5 1.3806 -0.1130 5.8065 -0.0005 15.4807 0.0010
# 6 0.0029 0.0015 0.0013 3.2109 0.0010 23.9777
#
#
#
# Elastic Compliance Matrix: (Units=1/GPa)
#
#
# Indices 1 2 3 4 5 6 
#
# 1 0.030883 -0.013411 -0.007382 0.000002 -0.000083 -0.000003
# 2 -0.013411 0.031404 -0.007412 0.000000 0.004206 0.000000
# 3 -0.007382 -0.007412 0.013568 0.000000 -0.004485 0.000001
# 4 0.000002 0.000000 0.000000 0.032795 0.000001 -0.004392
# 5 -0.000083 0.004206 -0.004485 0.000001 0.066317 -0.000003
# 6 -0.000003 0.000000 0.000001 -0.004392 -0.000003 0.042294
#
#
# Mechanical properties :
#
#
# Convention : Reuss Voigt Hill
#
# Bulk Modulus (GPa) = 51.42763 63.44284 57.43524
# Shear Modulus (GPa) = 17.84745 21.38526 19.61635
#
# Velocity S-wave (km/s) = 3.36095 3.67901 3.52357
# Velocity P-wave (km/s) = 6.90005 7.62895 7.27364
#
# Compressibility (1/GPa) = 0.01944480
#
# Stress axis : x y z
#
# Youngs Moduli (GPa) = 32.38002 31.84287 73.70480
#
# Poissons Ratio (x) = 0.42704 0.54409
# Poissons Ratio (y) = 0.43424 0.54632
# Poissons Ratio (z) = 0.23903 0.23603
#
# Static dielectric constant tensor:
#      x y z
#    x 1.504340 0.000000 0.002060 
#    y 0.000000 1.527990 0.000000 
#    z 0.002060 0.000000 1.523380 
# 
# From -- ./inp_files/324094.got.cif
#   From: 2010.05.17/outbox.cif.g08.bks.cpg/sg12_163_cif.got.tgz:324094.got - 2010.06.03 13:09:07.
