data_PCOD9174151
_publ_section_title
;
Structure prediction by ZEFSAII (Michael W. Deem and Ramdas Pophale) SiO2 
 PCOD9174151
Probable space group: C 2/M
;
_chemical_formula_sum "Si O2"
_cell_formula_units_Z 64
_cell_length_a 20.139949
_cell_length_b 20.344315
_cell_length_c 19.400176
_cell_angle_alpha 90.000000
_cell_angle_beta 31.340822
_cell_angle_gamma 90.000000
_cell_volume 4134.444288
_symmetry_space_group_name_H-M "C 2/M"
_symmetry_group_IT_number 12
_symmetry_cell_setting 'monoclinic'
loop_
_space_group_symop_operation_xyz
x,y,z
-x,y,-z
-x,-y,-z
x,-y,z
1/2+x,1/2+y,z
1/2-x,1/2+y,-z
1/2-x,1/2-y,-z
1/2+x,1/2-y,z
loop_
_atom_site_type_symbol
_atom_site_label
_atom_site_fract_x
_atom_site_fract_y
_atom_site_fract_z
Si Si1 0.400145 0.763994 0.876483
Si Si2 0.367549 0.701305 0.415385
Si Si3 0.732195 0.072964 0.482963
Si Si4 0.021567 0.802520 0.058103
Si Si5 0.735067 0.379570 0.693187
Si Si6 0.046149 0.274481 0.532152
Si Si7 0.207305 0.926940 0.871064
Si Si8 0.054540 0.372285 0.268783
O O1 0.505006 0.719314 0.741753
O O2 0.431041 0.750201 0.928821
O O3 0.420400 0.835548 0.825320
O O4 0.250000 0.750000 0.000000
O O5 0.250000 0.750000 0.500000
O O6 0.316069 0.628778 0.445672
O O7 0.397416 0.719004 0.468003
O O8 0.769483 0.074805 0.369333
O O9 0.583483 0.094349 0.614828
O O10 0.748314 0.000000 0.496999
O O11 0.887919 0.833172 0.199345
O O12 0.116332 0.865529 0.970066
O O13 0.000000 0.776410 0.000000
O O14 0.853211 0.330601 0.578411
O O15 0.740832 0.416703 0.760685
O O16 0.000000 0.247687 0.500000
O O17 0.950275 0.315225 0.667305
O O18 0.333505 0.919670 0.805585
O O19 0.150404 0.000000 0.930507
#
# Coordination Sequence:
#
# PCOD9174151 Si02
#       8
#     8   8   8   8   8   8   8   8
#     4  11  19  34  54  72 101 137 174 218 262 293
#     4  11  19  34  55  77 103 135 173 221 256 299
#     4  11  21  33  52  77 103 136 175 213 260 313
#     4  10  21  32  48  71 100 135 173 212 250 300
#     4  10  19  32  48  71 101 140 169 202 246 305
#     4  10  18  31  53  73 100 127 165 209 259 299
#     4  11  21  32  44  69 108 143 169 200 250 310
#     4  10  20  32  50  73 101 135 169 213 255 302
#
# _framework density 15.479710000000001
#
# number of rings (size 3 to 8) (size 9 to 14) (size 15 to 20)
#    0.000    1.500    7.500    0.750    0.000    2.750 
#    0.000    1.875    0.000    0.375    0.000    0.000 
#    0.000    2.000    0.000    0.000    0.000    0.000 
#
# Total GULP energy -178268.471529 kJ/mol
# GULP energy per Si atom -5570.889735 kJ/mol
# Density = 1.544448 g / cm^3
# Si number density = 15.479710 Si / 1000 Ang^3
#
#
#
# Elastic Constant Matrix: (Units=GPa)
#
#
# Indices 1 2 3 4 5 6 
#
# 1 114.4680 43.5475 18.5409 -0.0005 8.5212 0.0002
# 2 43.5475 65.1524 -1.9809 -0.0002 10.8112 0.0001
# 3 18.5409 -1.9809 45.3453 -0.0008 3.5008 0.0004
# 4 -0.0005 -0.0002 -0.0008 9.3575 0.0006 -1.3240
# 5 8.5212 10.8112 3.5008 0.0006 21.2624 -0.0003
# 6 0.0002 0.0001 0.0004 -1.3240 -0.0003 14.4951
#
#
#
# Elastic Compliance Matrix: (Units=1/GPa)
#
#
# Indices 1 2 3 4 5 6 
#
# 1 0.013048 -0.008940 -0.005746 0.000000 0.000262 0.000000
# 2 -0.008940 0.022977 0.005352 0.000001 -0.008982 0.000000
# 3 -0.005746 0.005352 0.024986 0.000002 -0.004533 -0.000001
# 4 0.000000 0.000001 0.000002 0.108265 -0.000004 0.009889
# 5 0.000262 -0.008982 -0.004533 -0.000004 0.052239 0.000001
# 6 0.000000 0.000000 -0.000001 0.009889 0.000001 0.069892
#
#
# Mechanical properties :
#
#
# Convention : Reuss Voigt Hill
#
# Bulk Modulus (GPa) = 23.61557 38.35341 30.98449
# Shear Modulus (GPa) = 15.42309 20.01354 17.71831
#
# Velocity S-wave (km/s) = 3.15991 3.59958 3.38689
# Velocity P-wave (km/s) = 5.34812 6.48894 5.94595
#
# Compressibility (1/GPa) = 0.04234495
#
# Stress axis : x y z
#
# Youngs Moduli (GPa) = 76.63934 43.52209 40.02216
#
# Poissons Ratio (x) = 0.38907 0.22996
# Poissons Ratio (y) = 0.68512 -0.21421
# Poissons Ratio (z) = 0.44036 -0.23294
#
# Static dielectric constant tensor:
#      x y z
#    x 1.531650 -0.000020 -0.004400 
#    y -0.000020 -4.653380 0.000040 
#    z -0.004400 0.000040 1.555050 
# 
# From -- ./inp_files/322862.got.cif
#   From: 2010.05.17/outbox.cif.g08.bks.cpg/sg12_162_cif.got.tgz:322862.got - 2010.06.03 13:09:07.
