data_PCOD9174660
_publ_section_title
;
Structure prediction by ZEFSAII (Michael W. Deem and Ramdas Pophale) SiO2 
 PCOD9174660
Probable space group: C 2/M
;
_chemical_formula_sum "Si O2"
_cell_formula_units_Z 56
_cell_length_a 10.128043
_cell_length_b 27.793681
_cell_length_c 14.784966
_cell_angle_alpha 90.000000
_cell_angle_beta 57.451123
_cell_angle_gamma 90.000000
_cell_volume 3508.204347
_symmetry_space_group_name_H-M "C 2/M"
_symmetry_group_IT_number 12
_symmetry_cell_setting 'monoclinic'
loop_
_space_group_symop_operation_xyz
x,y,z
-x,y,-z
-x,-y,-z
x,-y,z
1/2+x,1/2+y,z
1/2-x,1/2+y,-z
1/2-x,1/2-y,-z
1/2+x,1/2-y,z
loop_
_atom_site_type_symbol
_atom_site_label
_atom_site_fract_x
_atom_site_fract_y
_atom_site_fract_z
Si Si1 0.349969 0.000000 0.697180
Si Si2 0.058225 0.247892 0.238502
Si Si3 0.283081 0.604711 0.436926
Si Si4 0.390232 0.845715 0.341928
Si Si5 0.390657 0.301424 0.127730
Si Si6 0.304076 0.000000 0.495103
Si Si7 0.211463 0.604933 0.253612
Si Si8 0.073127 0.161705 0.373527
O O1 0.325840 0.000000 0.596798
O O2 0.539820 0.000000 0.624195
O O3 0.277236 0.952077 0.767366
O O4 0.231114 0.271449 0.165541
O O5 0.984851 0.223381 0.175999
O O6 0.067521 0.208303 0.313330
O O7 0.943980 0.290900 0.311426
O O8 0.184002 0.641598 0.533976
O O9 0.273890 0.552253 0.487185
O O10 0.212908 0.606659 0.362555
O O11 0.461470 0.621960 0.370552
O O12 0.544886 0.877692 0.276573
O O13 0.250678 0.855030 0.323073
O O14 0.336661 0.355756 0.173896
O O15 0.500000 0.302026 0.000000
O O16 0.000000 0.171708 0.500000
#
# Coordination Sequence:
#
# PCOD9174660 Si02
#       8
#     4   8   8   8   8   4   8   8
#     4   9  16  30  52  82 103 137 170 213 261 314
#     4  11  21  38  54  73 108 138 174 220 265 311
#     4  10  18  32  51  75 107 141 174 210 250 311
#     4  10  20  31  49  76 105 138 172 207 251 317
#     4  11  23  38  57  79 100 135 183 228 270 309
#     4   9  16  28  50  77 106 137 177 205 252 311
#     4  10  19  33  56  76 106 136 176 218 260 310
#     4  10  21  33  47  75 112 141 171 206 251 315
#
# _framework density 15.962581999999999
#
# number of rings (size 3 to 8) (size 9 to 14) (size 15 to 20)
#    0.000    1.857    4.286    0.857    0.000    4.571 
#    0.000    4.286    0.000    0.000    0.000    0.000 
#    0.000    1.143    0.000    0.000    0.000    0.000 
#
# Total GULP energy -155905.634473 kJ/mol
# GULP energy per Si atom -5568.058374 kJ/mol
# Density = 1.592625 g / cm^3
# Si number density = 15.962582 Si / 1000 Ang^3
#
#
#
# Elastic Constant Matrix: (Units=GPa)
#
#
# Indices 1 2 3 4 5 6 
#
# 1 77.3722 44.7491 25.0021 0.0000 -6.3675 0.0000
# 2 44.7491 130.3899 43.9030 0.0000 -2.1231 0.0000
# 3 25.0021 43.9030 47.1374 0.0000 -3.0439 0.0000
# 4 0.0000 0.0000 0.0000 6.4868 0.0000 -10.4205
# 5 -6.3675 -2.1231 -3.0439 0.0000 17.0069 0.0000
# 6 0.0000 0.0000 0.0000 -10.4205 0.0000 -0.5605
#
#
#
# Elastic Compliance Matrix: (Units=1/GPa)
#
#
# Indices 1 2 3 4 5 6 
#
# 1 0.017385 -0.004210 -0.004971 0.000000 0.005094 0.000000
# 2 -0.004210 0.012196 -0.009237 0.000000 -0.001707 0.000000
# 3 -0.004971 -0.009237 0.032637 0.000000 0.002827 0.000000
# 4 0.000000 0.000000 0.000000 0.004994 0.000000 -0.092856
# 5 0.005094 -0.001707 0.002827 0.000000 0.061000 0.000000
# 6 0.000000 0.000000 0.000000 -0.092856 0.000000 -0.057803
#
#
# Mechanical properties :
#
#
# Convention : Reuss Voigt Hill
#
# Bulk Modulus (GPa) = 39.39720 53.57865 46.48793
# Shear Modulus (GPa) = 43.21296 14.00300 28.60798
#
# Velocity S-wave (km/s) = 5.20866 2.96503 4.23802
# Velocity P-wave (km/s) = 7.80437 6.73498 7.28931
#
# Compressibility (1/GPa) = 0.02538251
#
# Stress axis : x y z
#
# Youngs Moduli (GPa) = 57.52139 81.99202 30.63994
#
# Poissons Ratio (x) = 0.34515 0.15233
# Poissons Ratio (y) = 0.24214 0.28302
# Poissons Ratio (z) = 0.28597 0.75735
#
# Static dielectric constant tensor:
#      x y z
#    x 1.559010 0.000000 -0.017650 
#    y 0.000000 1.552020 0.000000 
#    z -0.017650 0.000000 1.503270 
# 
# From -- ./inp_files/200883.got.cif
#   From: 2010.05.17/outbox.cif.g08.bks.cpg/sg12_101_cif.got.tgz:200883.got - 2010.06.03 13:09:07.
