data_PCOD9174609
_publ_section_title
;
Structure prediction by ZEFSAII (Michael W. Deem and Ramdas Pophale) SiO2 
 PCOD9174609
Probable space group: C 2/M
;
_chemical_formula_sum "Si O2"
_cell_formula_units_Z 36
_cell_length_a 26.690852
_cell_length_b 7.596388
_cell_length_c 26.134117
_cell_angle_alpha 90.000000
_cell_angle_beta 155.375472
_cell_angle_gamma 90.000000
_cell_volume 2207.850347
_symmetry_space_group_name_H-M "C 2/M"
_symmetry_group_IT_number 12
_symmetry_cell_setting 'monoclinic'
loop_
_space_group_symop_operation_xyz
x,y,z
-x,y,-z
-x,-y,-z
x,-y,z
1/2+x,1/2+y,z
1/2-x,1/2+y,-z
1/2-x,1/2-y,-z
1/2+x,1/2-y,z
loop_
_atom_site_type_symbol
_atom_site_label
_atom_site_fract_x
_atom_site_fract_y
_atom_site_fract_z
Si Si1 0.796302 0.794086 0.486568
Si Si2 0.784781 0.500000 0.214656
Si Si3 0.308384 0.000000 0.352205
Si Si4 0.145204 0.294304 0.247007
Si Si5 0.917950 0.707632 0.974111
Si Si6 0.036197 0.500000 0.402452
O O1 0.750000 0.750000 0.500000
O O2 0.689980 0.761288 0.346278
O O3 0.906093 0.669066 0.572065
O O4 0.827986 0.000000 0.512790
O O5 0.842164 0.500000 0.324679
O O6 0.697146 0.331480 0.129914
O O7 0.893092 0.500000 0.274828
O O8 0.226367 0.829799 0.287302
O O9 0.409171 0.000000 0.489357
O O10 0.166721 0.500000 0.255217
O O11 0.007015 0.259691 0.104787
O O12 0.887514 0.500000 0.943739
O O13 0.000000 0.746638 0.000000
#
# Coordination Sequence:
#
# PCOD9174609 Si02
#       6
#     8   4   4   8   8   4
#     4  10  19  36  59  80  98 127 171 228 272 302
#     4  12  21  32  51  76 114 147 172 205 253 309
#     4  10  18  32  50  73 110 143 170 208 251 305
#     4   9  18  31  51  80 103 129 178 216 251 304
#     4  10  19  32  51  76 106 143 178 210 248 299
#     4  10  23  35  50  80 109 138 173 210 264 321
#
# _framework density 16.305454000000001
#
# number of rings (size 3 to 8) (size 9 to 14) (size 15 to 20)
#    0.000    2.000    3.333    1.333    0.000    0.889 
#    0.000    0.000    0.000    8.000    0.000    0.000 
#    0.000    0.000    0.000    0.000    0.000    0.000 
#
# Total GULP energy -100357.743759 kJ/mol
# GULP energy per Si atom -5575.430209 kJ/mol
# Density = 1.626834 g / cm^3
# Si number density = 16.305454 Si / 1000 Ang^3
#
#
#
# Elastic Constant Matrix: (Units=GPa)
#
#
# Indices 1 2 3 4 5 6 
#
# 1 102.1035 51.0080 56.6571 0.0000 8.1521 0.0000
# 2 51.0080 87.5101 61.0912 0.0000 13.5479 0.0000
# 3 56.6571 61.0912 99.2488 0.0000 21.9033 0.0000
# 4 0.0000 0.0000 0.0000 16.7942 0.0000 -4.6160
# 5 8.1521 13.5479 21.9033 0.0000 19.3970 0.0000
# 6 0.0000 0.0000 0.0000 -4.6160 0.0000 11.9436
#
#
#
# Elastic Compliance Matrix: (Units=1/GPa)
#
#
# Indices 1 2 3 4 5 6 
#
# 1 0.015815 -0.005119 -0.006925 0.000000 0.004749 0.000000
# 2 -0.005119 0.021695 -0.010072 0.000000 -0.001627 0.000000
# 3 -0.006925 -0.010072 0.024020 0.000000 -0.017178 0.000000
# 4 0.000000 0.000000 0.000000 0.066621 0.000000 0.025748
# 5 0.004749 -0.001627 -0.017178 0.000000 0.070093 0.000000
# 6 0.000000 0.000000 0.000000 0.025748 0.000000 0.093678
#
#
# Mechanical properties :
#
#
# Convention : Reuss Voigt Hill
#
# Bulk Modulus (GPa) = 57.81579 69.59721 63.70650
# Shear Modulus (GPa) = 14.62329 17.63403 16.12866
#
# Velocity S-wave (km/s) = 2.99797 3.29215 3.14850
# Velocity P-wave (km/s) = 6.89338 7.56486 7.23691
#
# Compressibility (1/GPa) = 0.01729631
#
# Stress axis : x y z
#
# Youngs Moduli (GPa) = 63.23164 46.09462 41.63190
#
# Poissons Ratio (x) = 0.23595 0.28831
# Poissons Ratio (y) = 0.32367 0.41934
# Poissons Ratio (z) = 0.43789 0.46429
#
# Static dielectric constant tensor:
#      x y z
#    x 1.534910 0.000000 -0.043140 
#    y 0.000000 1.566350 0.000000 
#    z -0.043140 0.000000 1.543010 
# 
# From -- ./inp_files/320414.got.cif
#   From: 2010.05.17/outbox.cif.g08.bks.cpg/sg12_161_cif.got.tgz:320414.got - 2010.06.03 13:09:07.
