data_PCOD9174829
_publ_section_title
;
Structure prediction by ZEFSAII (Michael W. Deem and Ramdas Pophale) SiO2 
 PCOD9174829
Probable space group: C 2/M
;
_chemical_formula_sum "Si O2"
_cell_formula_units_Z 40
_cell_length_a 8.740323
_cell_length_b 26.914333
_cell_length_c 9.841943
_cell_angle_alpha 90.000000
_cell_angle_beta 63.638604
_cell_angle_gamma 90.000000
_cell_volume 2074.461395
_symmetry_space_group_name_H-M "C 2/M"
_symmetry_group_IT_number 12
_symmetry_cell_setting 'monoclinic'
loop_
_space_group_symop_operation_xyz
x,y,z
-x,y,-z
-x,-y,-z
x,-y,z
1/2+x,1/2+y,z
1/2-x,1/2+y,-z
1/2-x,1/2-y,-z
1/2+x,1/2-y,z
loop_
_atom_site_type_symbol
_atom_site_label
_atom_site_fract_x
_atom_site_fract_y
_atom_site_fract_z
Si Si1 0.731966 0.302094 0.682854
Si Si2 0.518931 0.000000 0.828149
Si Si3 0.847293 0.601689 0.169401
Si Si4 0.085180 0.697906 0.682854
Si Si5 0.652920 0.500000 0.828149
Si Si6 0.016694 0.898311 0.830599
O O1 0.821167 0.302237 0.500000
O O2 0.632948 0.250000 0.734105
O O3 0.609436 0.349185 0.741717
O O4 0.883541 0.305589 0.732919
O O5 0.615172 0.051454 0.760417
O O6 0.333873 0.000000 0.832254
O O7 0.500000 0.000000 0.000000
O O8 0.851153 0.650815 0.258283
O O9 0.669262 0.596251 0.161476
O O10 0.000000 0.606576 0.000000
O O11 0.624410 0.448546 0.760417
O O12 0.500000 0.500000 0.000000
O O13 0.000000 0.893424 0.000000
#
# Coordination Sequence:
#
# PCOD9174829 Si02
#       6
#     8   4   8   8   4   8
#     4  10  21  38  58  80 108 142 179 220 269 322
#     4  10  18  32  53  78 109 142 177 217 267 319
#     4  11  21  35  56  82 111 142 180 222 266 316
#     4  10  21  38  58  80 108 142 179 220 269 322
#     4  10  18  32  53  78 109 142 177 217 267 319
#     4  11  21  35  56  82 111 142 180 222 266 316
#
# _framework density 19.282115000000001
#
# number of rings (size 3 to 8) (size 9 to 14) (size 15 to 20)
#    0.000    1.600    0.000    9.000    0.000    3.200 
#    0.000    5.000    0.000    6.000    0.000    0.000 
#    0.000    0.000    0.000    0.000    0.000    0.000 
#
# Total GULP energy -111717.835130 kJ/mol
# GULP energy per Si atom -5585.891757 kJ/mol
# Density = 1.923823 g / cm^3
# Si number density = 19.282115 Si / 1000 Ang^3
#
#
#
# Elastic Constant Matrix: (Units=GPa)
#
#
# Indices 1 2 3 4 5 6 
#
# 1 214.3663 85.5789 18.3044 0.0000 -11.7285 0.0000
# 2 85.5789 198.5133 21.2205 0.0000 -4.9870 0.0000
# 3 18.3044 21.2205 4.4958 0.0000 -4.5348 0.0000
# 4 0.0000 0.0000 0.0000 26.3432 0.0000 -1.1744
# 5 -11.7285 -4.9870 -4.5348 0.0000 22.9136 0.0000
# 6 0.0000 0.0000 0.0000 -1.1744 0.0000 41.5024
#
#
#
# Elastic Compliance Matrix: (Units=1/GPa)
#
#
# Indices 1 2 3 4 5 6 
#
# 1 0.007310 0.000598 -0.035832 0.000000 -0.003220 0.000000
# 2 0.000598 0.012003 -0.070151 0.000000 -0.010965 0.000000
# 3 -0.035832 -0.070151 0.831526 0.000000 0.130959 0.000000
# 4 0.000000 0.000000 0.000000 0.038008 0.000000 0.001076
# 5 -0.003220 -0.010965 0.130959 0.000000 0.065526 0.000000
# 6 0.000000 0.000000 0.000000 0.001076 0.000000 0.024125
#
#
# Mechanical properties :
#
#
# Convention : Reuss Voigt Hill
#
# Bulk Modulus (GPa) = 1.56233 74.17588 37.86911
# Shear Modulus (GPa) = 3.56475 37.63659 20.60067
#
# Velocity S-wave (km/s) = 1.36116 4.42281 3.27216
# Velocity P-wave (km/s) = 1.81172 8.03953 5.82736
#
# Compressibility (1/GPa) = 0.64006912
#
# Stress axis : x y z
#
# Youngs Moduli (GPa) = 136.80789 83.31276 1.20261
#
# Poissons Ratio (x) = -0.04985 0.04309
# Poissons Ratio (y) = -0.08186 0.08436
# Poissons Ratio (z) = 4.90211 5.84445
#
# Static dielectric constant tensor:
#      x y z
#    x 1.645890 0.000000 0.001240 
#    y 0.000000 1.698450 0.000000 
#    z 0.001240 0.000000 1.661940 
# 
# From -- ./inp_files/121694.got.cif
#   From: 2010.05.17/outbox.cif.g08.bks.cpg/sg12_61_cif.got.tgz:121694.got - 2010.06.03 13:09:07.
