data_PCOD9174287
_publ_section_title
;
Structure prediction by ZEFSAII (Michael W. Deem and Ramdas Pophale) SiO2 
 PCOD9174287
Probable space group: C 2/M
;
_chemical_formula_sum "Si O2"
_cell_formula_units_Z 40
_cell_length_a 9.705172
_cell_length_b 15.511505
_cell_length_c 11.263276
_cell_angle_alpha 90.000000
_cell_angle_beta 100.275236
_cell_angle_gamma 90.000000
_cell_volume 1668.400559
_symmetry_space_group_name_H-M "C 2/M"
_symmetry_group_IT_number 12
_symmetry_cell_setting 'monoclinic'
loop_
_space_group_symop_operation_xyz
x,y,z
-x,y,-z
-x,-y,-z
x,-y,z
1/2+x,1/2+y,z
1/2-x,1/2+y,-z
1/2-x,1/2-y,-z
1/2+x,1/2-y,z
loop_
_atom_site_type_symbol
_atom_site_label
_atom_site_fract_x
_atom_site_fract_y
_atom_site_fract_z
Si Si1 0.823264 0.594764 0.775735
Si Si2 0.576753 0.291188 0.636657
Si Si3 0.060739 0.899409 0.188661
Si Si4 0.776316 0.148277 0.004031
Si Si5 0.421752 0.093834 0.360711
O O1 0.761367 0.500000 0.754689
O O2 0.715843 0.655786 0.690130
O O3 0.835209 0.613645 0.917805
O O4 0.969022 0.594843 0.730880
O O5 0.500000 0.305141 0.500000
O O6 0.461735 0.328254 0.712692
O O7 0.628463 0.192339 0.649956
O O8 0.921213 0.879484 0.089937
O O9 0.054878 0.000000 0.223138
O O10 0.196416 0.884462 0.125193
O O11 0.750000 0.250000 0.000000
O O12 0.500000 0.090565 0.500000
O O13 0.345191 0.000000 0.344247
#
# Coordination Sequence:
#
# PCOD9174287 Si02
#       5
#     8   8   8   8   8
#     4  10  20  35  55  79 107 140 177 215 264 321
#     4  10  20  33  55  81 108 140 179 220 262 314
#     4  10  20  35  54  80 111 141 177 220 267 317
#     4  10  18  31  54  78 102 136 178 217 258 310
#     4   9  19  35  53  73 102 141 179 216 262 314
#
# _framework density 23.975057
#
# number of rings (size 3 to 8) (size 9 to 14) (size 15 to 20)
#    0.000    2.200    0.000    5.400    0.000    4.800 
#    0.000    0.000    0.000   26.400    0.000   29.400 
#    0.000    0.000    0.000    0.000    0.000    0.000 
#
# Total GULP energy -111534.820476 kJ/mol
# GULP energy per Si atom -5576.741024 kJ/mol
# Density = 2.392049 g / cm^3
# Si number density = 23.975057 Si / 1000 Ang^3
#
#
#
# Elastic Constant Matrix: (Units=GPa)
#
#
# Indices 1 2 3 4 5 6 
#
# 1 51.1880 -5.5648 11.9163 0.0000 11.7702 0.0000
# 2 -5.5648 205.3205 2.6097 0.0000 32.7947 0.0000
# 3 11.9163 2.6097 94.5234 0.0000 -5.1642 0.0000
# 4 0.0000 0.0000 0.0000 45.1316 0.0000 -8.6408
# 5 11.7702 32.7947 -5.1642 0.0000 28.8196 0.0000
# 6 0.0000 0.0000 0.0000 -8.6408 0.0000 15.8382
#
#
#
# Elastic Compliance Matrix: (Units=1/GPa)
#
#
# Indices 1 2 3 4 5 6 
#
# 1 0.023905 0.002892 -0.003844 0.000000 -0.013743 0.000000
# 2 0.002892 0.006329 -0.001007 0.000000 -0.008564 0.000000
# 3 -0.003844 -0.001007 0.011351 0.000000 0.004750 0.000000
# 4 0.000000 0.000000 0.000000 0.024742 0.000000 0.013498
# 5 -0.013743 -0.008564 0.004750 0.000000 0.050908 0.000000
# 6 0.000000 0.000000 0.000000 0.013498 0.000000 0.070503
#
#
# Mechanical properties :
#
#
# Convention : Reuss Voigt Hill
#
# Bulk Modulus (GPa) = 26.54874 40.99492 33.77183
# Shear Modulus (GPa) = 24.48422 40.76258 32.62340
#
# Velocity S-wave (km/s) = 3.19915 4.12783 3.69280
# Velocity P-wave (km/s) = 4.97429 6.31306 5.68324
#
# Compressibility (1/GPa) = 0.03766657
#
# Stress axis : x y z
#
# Youngs Moduli (GPa) = 41.83201 157.99045 88.09517
#
# Poissons Ratio (x) = -0.45688 0.33866
# Poissons Ratio (y) = -0.12097 0.08873
# Poissons Ratio (z) = 0.16081 0.15913
#
# Static dielectric constant tensor:
#      x y z
#    x 1.927870 0.000000 -0.093990 
#    y 0.000000 1.975400 0.000000 
#    z -0.093990 0.000000 1.893090 
# 
# From -- ./inp_files/129301.got.cif
#   From: 2010.05.17/outbox.cif.g08.bks.cpg/sg12_65_cif.got.tgz:129301.got - 2010.06.03 13:09:07.
