data_PCOD9174264
_publ_section_title
;
Structure prediction by ZEFSAII (Michael W. Deem and Ramdas Pophale) SiO2 
 PCOD9174264
Probable space group: C 2/M
;
_chemical_formula_sum "Si O2"
_cell_formula_units_Z 48
_cell_length_a 17.974265
_cell_length_b 20.131249
_cell_length_c 8.953136
_cell_angle_alpha 90.000000
_cell_angle_beta 122.113165
_cell_angle_gamma 90.000000
_cell_volume 2743.976258
_symmetry_space_group_name_H-M "C 2/M"
_symmetry_group_IT_number 12
_symmetry_cell_setting 'monoclinic'
loop_
_space_group_symop_operation_xyz
x,y,z
-x,y,-z
-x,-y,-z
x,-y,z
1/2+x,1/2+y,z
1/2-x,1/2+y,-z
1/2-x,1/2-y,-z
1/2+x,1/2-y,z
loop_
_atom_site_type_symbol
_atom_site_label
_atom_site_fract_x
_atom_site_fract_y
_atom_site_fract_z
Si Si1 0.641764 0.926400 0.368388
Si Si2 0.680530 0.292528 0.023771
Si Si3 0.277567 0.072549 0.208868
Si Si4 0.334817 0.777422 0.676357
Si Si5 0.487976 0.253950 0.316298
Si Si6 0.459622 0.901301 0.295728
O O1 0.682058 0.919744 0.580040
O O2 0.668059 0.857730 0.318176
O O3 0.535352 0.923761 0.264506
O O4 0.667554 0.000000 0.340040
O O5 0.719349 0.364449 0.105822
O O6 0.664086 0.252958 0.158828
O O7 0.750000 0.250000 0.000000
O O8 0.587233 0.296672 0.841438
O O9 0.361657 0.072368 0.188318
O O10 0.234169 0.000000 0.155995
O O11 0.250000 0.750000 0.500000
O O12 0.420757 0.753585 0.675603
O O13 0.500000 0.275444 0.500000
O O14 0.452631 0.178199 0.284047
O O15 0.500000 0.920004 0.500000
#
# Coordination Sequence:
#
# PCOD9174264 Si02
#       6
#     8   8   8   8   8   8
#     4   9  17  31  54  82 117 151 184 228 290 350
#     4  12  22  36  57  85 117 155 193 235 280 338
#     4  10  18  31  53  83 116 151 192 232 279 343
#     4  11  21  36  57  85 117 149 191 238 286 339
#     4  10  20  36  59  83 113 147 193 241 288 336
#     4   8  14  27  50  81 110 143 178 221 278 345
#
# _framework density 17.492861999999999
#
# number of rings (size 3 to 8) (size 9 to 14) (size 15 to 20)
#    0.000    2.000    3.333    3.000    0.000    2.000 
#    0.000    0.833    0.000    5.500    0.000    0.000 
#    0.000    0.000    0.000    0.000    0.000    0.000 
#
# Total GULP energy -133795.758465 kJ/mol
# GULP energy per Si atom -5574.823269 kJ/mol
# Density = 1.745305 g / cm^3
# Si number density = 17.492862 Si / 1000 Ang^3
#
#
#
# Elastic Constant Matrix: (Units=GPa)
#
#
# Indices 1 2 3 4 5 6 
#
# 1 86.0901 50.6962 46.0300 0.0000 1.6788 0.0000
# 2 50.6962 156.4447 52.6615 0.0000 8.8879 0.0000
# 3 46.0300 52.6615 84.9066 0.0000 3.9840 0.0000
# 4 0.0000 0.0000 0.0000 19.7337 0.0000 1.7293
# 5 1.6788 8.8879 3.9840 0.0000 27.1925 0.0000
# 6 0.0000 0.0000 0.0000 1.7293 0.0000 15.5109
#
#
#
# Elastic Compliance Matrix: (Units=1/GPa)
#
#
# Indices 1 2 3 4 5 6 
#
# 1 0.017521 -0.003190 -0.007570 0.000000 0.001070 0.000000
# 2 -0.003190 0.008760 -0.003604 0.000000 -0.002138 0.000000
# 3 -0.007570 -0.003604 0.018164 0.000000 -0.001016 0.000000
# 4 0.000000 0.000000 0.000000 0.051175 0.000000 -0.005706
# 5 0.001070 -0.002138 -0.001016 0.000000 0.037557 0.000000
# 6 0.000000 0.000000 0.000000 -0.005706 0.000000 0.065107
#
#
# Mechanical properties :
#
#
# Convention : Reuss Voigt Hill
#
# Bulk Modulus (GPa) = 63.62211 69.57963 66.60087
# Shear Modulus (GPa) = 21.52841 24.35766 22.94304
#
# Velocity S-wave (km/s) = 3.51193 3.73558 3.62548
# Velocity P-wave (km/s) = 7.27284 7.64647 7.46199
#
# Compressibility (1/GPa) = 0.01571781
#
# Stress axis : x y z
#
# Youngs Moduli (GPa) = 57.07398 114.15061 55.05306
#
# Poissons Ratio (x) = 0.36418 0.41676
# Poissons Ratio (y) = 0.18209 0.19838
# Poissons Ratio (z) = 0.43206 0.41134
#
# Static dielectric constant tensor:
#      x y z
#    x 1.603800 0.000000 -0.010380 
#    y 0.000000 1.612530 0.000000 
#    z -0.010380 0.000000 1.623620 
# 
# From -- ./inp_files/63637.got.cif
#   From: 2010.05.17/outbox.cif.g08.bks.cpg/sg12_32_cif.got.tgz:63637.got - 2010.06.03 13:09:07.
