data_PCOD9174198
_publ_section_title
;
Structure prediction by ZEFSAII (Michael W. Deem and Ramdas Pophale) SiO2 
 PCOD9174198
Probable space group: C 2/M
;
_chemical_formula_sum "Si O2"
_cell_formula_units_Z 64
_cell_length_a 28.872821
_cell_length_b 13.946636
_cell_length_c 9.573910
_cell_angle_alpha 90.000000
_cell_angle_beta 93.874813
_cell_angle_gamma 90.000000
_cell_volume 3846.397175
_symmetry_space_group_name_H-M "C 2/M"
_symmetry_group_IT_number 12
_symmetry_cell_setting 'monoclinic'
loop_
_space_group_symop_operation_xyz
x,y,z
-x,y,-z
-x,-y,-z
x,-y,z
1/2+x,1/2+y,z
1/2-x,1/2+y,-z
1/2-x,1/2-y,-z
1/2+x,1/2-y,z
loop_
_atom_site_type_symbol
_atom_site_label
_atom_site_fract_x
_atom_site_fract_y
_atom_site_fract_z
Si Si1 0.932597 0.614722 0.095885
Si Si2 0.119490 0.384017 0.385173
Si Si3 0.287034 0.611752 0.583236
Si Si4 0.530792 0.113848 0.214346
Si Si5 0.816258 0.611862 0.359431
Si Si6 0.161454 0.731339 0.891045
Si Si7 0.796063 0.886362 0.267915
Si Si8 0.696010 0.787220 0.211431
O O1 0.923336 0.500000 0.117423
O O2 0.888629 0.680967 0.114886
O O3 0.977552 0.646470 0.194929
O O4 0.947447 0.624358 0.936324
O O5 0.118852 0.500000 0.386111
O O6 0.068327 0.348162 0.332439
O O7 0.140687 0.353349 0.538226
O O8 0.156096 0.350981 0.275720
O O9 0.296373 0.500000 0.621029
O O10 0.230977 0.621555 0.562106
O O11 0.306652 0.632741 0.433607
O O12 0.302497 0.688240 0.700865
O O13 0.527192 0.000000 0.238232
O O14 0.823080 0.500000 0.331147
O O15 0.810396 0.666756 0.214268
O O16 0.166646 0.836003 0.824509
O O17 0.182947 0.729946 0.048541
O O18 0.745451 0.840582 0.229036
O O19 0.793690 0.000000 0.248120
#
# Coordination Sequence:
#
# PCOD9174198 Si02
#       8
#     8   8   8   8   8   8   8   8
#     4   9  17  31  51  77 108 137 168 209 259 310
#     4  10  18  31  53  78 102 138 179 210 245 303
#     4  10  21  38  55  70  97 141 182 215 249 295
#     4   8  15  30  52  76 103 136 172 210 252 306
#     4  10  20  33  50  73 104 139 175 212 251 299
#     4  12  23  33  48  78 107 141 167 211 264 305
#     4  11  23  37  51  71 103 141 176 212 253 300
#     4  12  21  34  52  77 103 136 176 214 253 301
#
# _framework density 16.638947000000002
#
# number of rings (size 3 to 8) (size 9 to 14) (size 15 to 20)
#    0.000    1.750    3.750    3.000    0.000    2.000 
#    0.000    0.625    0.000    3.000    0.000    2.625 
#    0.000    3.000    0.000    0.000    0.000    0.000 
#
# Total GULP energy -178444.089760 kJ/mol
# GULP energy per Si atom -5576.377805 kJ/mol
# Density = 1.660108 g / cm^3
# Si number density = 16.638947 Si / 1000 Ang^3
#
#
#
# Elastic Constant Matrix: (Units=GPa)
#
#
# Indices 1 2 3 4 5 6 
#
# 1 75.8537 42.5266 30.4580 0.0000 8.9744 0.0000
# 2 42.5266 77.6405 48.0927 0.0000 4.6296 0.0000
# 3 30.4580 48.0927 102.9045 0.0000 13.9632 0.0000
# 4 0.0000 0.0000 0.0000 23.0481 0.0000 -7.7101
# 5 8.9744 4.6296 13.9632 0.0000 21.6754 0.0000
# 6 0.0000 0.0000 0.0000 -7.7101 0.0000 20.8694
#
#
#
# Elastic Compliance Matrix: (Units=1/GPa)
#
#
# Indices 1 2 3 4 5 6 
#
# 1 0.019757 -0.010333 -0.000228 0.000000 -0.005826 0.000000
# 2 -0.010333 0.023592 -0.008617 0.000000 0.004791 0.000000
# 3 -0.000228 -0.008617 0.014848 0.000000 -0.007630 0.000000
# 4 0.000000 0.000000 0.000000 0.049506 0.000000 0.018290
# 5 -0.005826 0.004791 -0.007630 0.000000 0.052439 0.000000
# 6 0.000000 0.000000 0.000000 0.018290 0.000000 0.054674
#
#
# Mechanical properties :
#
#
# Convention : Reuss Voigt Hill
#
# Bulk Modulus (GPa) = 50.40304 55.39481 52.89892
# Shear Modulus (GPa) = 19.24655 22.14003 20.69329
#
# Velocity S-wave (km/s) = 3.40474 3.65172 3.53039
# Velocity P-wave (km/s) = 6.76863 7.15154 6.96272
#
# Compressibility (1/GPa) = 0.01984007
#
# Stress axis : x y z
#
# Youngs Moduli (GPa) = 50.61413 42.38744 67.34957
#
# Poissons Ratio (x) = 0.43800 0.01536
# Poissons Ratio (y) = 0.52300 0.58037
# Poissons Ratio (z) = 0.01154 0.36527
#
# Static dielectric constant tensor:
#      x y z
#    x 1.585550 0.000000 0.007630 
#    y 0.000000 1.567420 0.000000 
#    z 0.007630 0.000000 1.583200 
# 
# From -- ./inp_files/111208.got.cif
#   From: 2010.05.17/outbox.cif.g08.bks.cpg/sg12_56_cif.got.tgz:111208.got - 2010.06.03 13:09:07.
