data_PCOD9174242
_publ_section_title
;
Structure prediction by ZEFSAII (Michael W. Deem and Ramdas Pophale) SiO2 
 PCOD9174242
Probable space group: C 2/M
;
_chemical_formula_sum "Si O2"
_cell_formula_units_Z 64
_cell_length_a 21.082594
_cell_length_b 7.563291
_cell_length_c 20.304072
_cell_angle_alpha 90.000000
_cell_angle_beta 104.368702
_cell_angle_gamma 90.000000
_cell_volume 3136.286708
_symmetry_space_group_name_H-M "C 2/M"
_symmetry_group_IT_number 12
_symmetry_cell_setting 'monoclinic'
loop_
_space_group_symop_operation_xyz
x,y,z
-x,y,-z
-x,-y,-z
x,-y,z
1/2+x,1/2+y,z
1/2-x,1/2+y,-z
1/2-x,1/2-y,-z
1/2+x,1/2-y,z
loop_
_atom_site_type_symbol
_atom_site_label
_atom_site_fract_x
_atom_site_fract_y
_atom_site_fract_z
Si Si1 0.905572 0.216392 0.156604
Si Si2 0.433037 0.204651 0.454793
Si Si3 0.902817 0.206619 0.301015
Si Si4 0.154339 0.205236 0.159150
Si Si5 0.760347 0.789505 0.079263
Si Si6 0.253391 0.785071 0.292080
Si Si7 0.288843 0.211900 0.443876
Si Si8 0.513328 0.716784 0.078201
O O1 0.924528 0.274617 0.235198
O O2 0.831924 0.274466 0.120405
O O3 0.956342 0.270965 0.113650
O O4 0.904814 0.000000 0.157321
O O5 0.500000 0.284963 0.500000
O O6 0.430364 0.208883 0.374691
O O7 0.363497 0.282505 0.460870
O O8 0.432626 0.000000 0.476527
O O9 0.824011 0.227101 0.282895
O O10 0.919082 0.000000 0.309426
O O11 0.202801 0.212698 0.109251
O O12 0.195021 0.281733 0.230972
O O13 0.083939 0.280075 0.121831
O O14 0.142265 0.000000 0.172523
O O15 0.758642 0.000000 0.088363
O O16 0.750000 0.750000 0.000000
O O17 0.252348 0.727358 0.367932
O O18 0.253050 0.000000 0.289577
O O19 0.250000 0.250000 0.500000
O O20 0.293705 0.000000 0.438890
O O21 0.513981 0.500000 0.077357
O O22 0.500000 0.773575 0.000000
#
# Coordination Sequence:
#
# PCOD9174242 Si02
#       8
#     8   8   8   8   8   8   8   8
#     4   9  18  32  50  76 106 134 170 216 261 307
#     4   9  19  37  57  76 105 142 177 211 254 312
#     4  10  18  31  53  81 107 134 171 219 267 302
#     4  10  19  33  55  78 100 134 177 215 257 311
#     4  11  21  34  53  78 106 134 171 218 262 309
#     4   9  18  33  52  76 105 138 175 209 255 316
#     4   9  18  33  52  76 104 137 172 212 256 305
#     4   9  17  31  51  73 101 137 174 210 255 311
#
# _framework density 20.406298
#
# number of rings (size 3 to 8) (size 9 to 14) (size 15 to 20)
#    0.000    2.500    1.250    2.250    0.000    4.250 
#    2.250    0.000    0.000    5.625    0.000    0.000 
#    0.000    0.000    0.000    0.000    0.000    0.000 
#
# Total GULP energy -178581.915892 kJ/mol
# GULP energy per Si atom -5580.684872 kJ/mol
# Density = 2.035985 g / cm^3
# Si number density = 20.406298 Si / 1000 Ang^3
#
#
#
# Elastic Constant Matrix: (Units=GPa)
#
#
# Indices 1 2 3 4 5 6 
#
# 1 90.8413 -4.4789 56.8539 0.0000 5.9494 0.0000
# 2 -4.4789 47.7819 -10.3920 0.0000 4.3777 0.0000
# 3 56.8539 -10.3920 138.9807 0.0000 -4.5467 0.0000
# 4 0.0000 0.0000 0.0000 14.5082 0.0000 -6.4694
# 5 5.9494 4.3777 -4.5467 0.0000 41.4449 0.0000
# 6 0.0000 0.0000 0.0000 -6.4694 0.0000 7.7775
#
#
#
# Elastic Compliance Matrix: (Units=1/GPa)
#
#
# Indices 1 2 3 4 5 6 
#
# 1 0.015132 0.000322 -0.006261 0.000000 -0.002893 0.000000
# 2 0.000322 0.021461 0.001402 0.000000 -0.002159 0.000000
# 3 -0.006261 0.001402 0.009921 0.000000 0.001839 0.000000
# 4 0.000000 0.000000 0.000000 0.109567 0.000000 0.091139
# 5 -0.002893 -0.002159 0.001839 0.000000 0.024974 0.000000
# 6 0.000000 0.000000 0.000000 0.091139 0.000000 0.204388
#
#
# Mechanical properties :
#
#
# Convention : Reuss Voigt Hill
#
# Bulk Modulus (GPa) = 26.70807 40.17443 33.44125
# Shear Modulus (GPa) = 12.28513 28.45417 20.36965
#
# Velocity S-wave (km/s) = 2.45628 3.73819 3.16286
# Velocity P-wave (km/s) = 4.60011 6.19372 5.45542
#
# Compressibility (1/GPa) = 0.03744186
#
# Stress axis : x y z
#
# Youngs Moduli (GPa) = 66.08579 46.59516 100.79246
#
# Poissons Ratio (x) = -0.01499 0.63103
# Poissons Ratio (y) = -0.02127 -0.14136
# Poissons Ratio (z) = 0.41374 -0.06535
#
# Static dielectric constant tensor:
#      x y z
#    x 1.705890 0.000000 0.015720 
#    y 0.000000 1.758350 0.000000 
#    z 0.015720 0.000000 1.715850 
# 
# From -- ./inp_files/314105.got.cif
#   From: 2010.05.17/outbox.cif.g08.bks.cpg/sg12_158_cif.got.tgz:314105.got - 2010.06.03 13:09:07.
