data_PCOD9174969
_publ_section_title
;
Structure prediction by ZEFSAII (Michael W. Deem and Ramdas Pophale) SiO2 
 PCOD9174969
Probable space group: C 2/M
;
_chemical_formula_sum "Si O2"
_cell_formula_units_Z 64
_cell_length_a 23.959556
_cell_length_b 19.296754
_cell_length_c 19.544526
_cell_angle_alpha 90.000000
_cell_angle_beta 157.239015
_cell_angle_gamma 90.000000
_cell_volume 3496.013990
_symmetry_space_group_name_H-M "C 2/M"
_symmetry_group_IT_number 12
_symmetry_cell_setting 'monoclinic'
loop_
_space_group_symop_operation_xyz
x,y,z
-x,y,-z
-x,-y,-z
x,-y,z
1/2+x,1/2+y,z
1/2-x,1/2+y,-z
1/2-x,1/2-y,-z
1/2+x,1/2-y,z
loop_
_atom_site_type_symbol
_atom_site_label
_atom_site_fract_x
_atom_site_fract_y
_atom_site_fract_z
Si Si1 0.307630 0.206485 0.388112
Si Si2 0.350204 0.417218 0.290048
Si Si3 0.435481 0.422937 0.101567
Si Si4 0.532471 0.218475 0.751307
Si Si5 0.805191 0.864390 0.086762
Si Si6 0.932645 0.775828 0.770163
Si Si7 0.635579 0.194864 0.100912
Si Si8 0.838155 0.079431 0.841276
O O1 0.461282 0.206642 0.597446
O O2 0.197578 0.226354 0.324539
O O3 0.263989 0.260975 0.280789
O O4 0.269912 0.131647 0.315817
O O5 0.500000 0.400879 0.500000
O O6 0.330053 0.500000 0.271437
O O7 0.354639 0.393939 0.215525
O O8 0.213121 0.375523 0.165475
O O9 0.502693 0.500000 0.174436
O O10 0.348565 0.413952 0.073357
O O11 0.540239 0.356855 0.215162
O O12 0.338154 0.416880 0.923353
O O13 0.616567 0.291105 0.839400
O O14 0.421508 0.232702 0.687825
O O15 0.637661 0.156605 0.892553
O O16 0.069493 0.741305 0.964649
O O17 0.500000 0.184970 0.000000
O O18 0.817148 0.000000 0.796478
O O19 0.000000 0.100511 0.000000
#
# Coordination Sequence:
#
# PCOD9174969 Si02
#       8
#     8   8   8   8   8   8   8   8
#     4  11  19  32  56  89 112 145 183 237 278 331
#     4  11  23  40  63  86 109 145 197 246 286 339
#     4  10  19  33  57  82 111 151 187 225 273 331
#     4  10  21  34  56  81 114 145 189 231 279 333
#     4  10  21  39  55  80 111 151 187 230 281 341
#     4  10  18  34  55  84 114 146 185 230 280 338
#     4  10  20  36  59  86 117 147 186 233 291 340
#     4  10  18  32  54  83 116 149 184 224 273 333
#
# _framework density 18.306563000000001
#
# number of rings (size 3 to 8) (size 9 to 14) (size 15 to 20)
#    0.000    1.750    3.750    1.875    0.000    0.250 
#    0.000    1.875    0.000    1.500    0.000    0.000 
#    0.000    0.000    0.000    0.000    0.000    0.000 
#
# Total GULP energy -178377.397681 kJ/mol
# GULP energy per Si atom -5574.293678 kJ/mol
# Density = 1.826490 g / cm^3
# Si number density = 18.306563 Si / 1000 Ang^3
#
#
#
# Elastic Constant Matrix: (Units=GPa)
#
#
# Indices 1 2 3 4 5 6 
#
# 1 64.8535 13.8936 20.5117 0.0020 -22.2398 0.0006
# 2 13.8936 67.6467 21.6980 0.0028 -8.2145 0.0015
# 3 20.5117 21.6980 68.1015 0.0027 -26.6241 0.0018
# 4 0.0020 0.0028 0.0027 18.8286 0.0018 -6.6596
# 5 -22.2398 -8.2145 -26.6241 0.0018 27.2351 0.0008
# 6 0.0006 0.0015 0.0018 -6.6596 0.0008 23.4743
#
#
#
# Elastic Compliance Matrix: (Units=1/GPa)
#
#
# Indices 1 2 3 4 5 6 
#
# 1 0.021877 -0.002732 0.001527 -0.000005 0.018533 -0.000002
# 2 -0.002732 0.016808 -0.005540 -0.000002 -0.002577 -0.000001
# 3 0.001527 -0.005540 0.025611 -0.000007 0.024613 -0.000004
# 4 -0.000005 -0.000002 -0.000007 0.059035 -0.000015 0.016748
# 5 0.018533 -0.002577 0.024613 -0.000015 0.075134 -0.000009
# 6 -0.000002 -0.000001 -0.000004 0.016748 -0.000009 0.047351
#
#
# Mechanical properties :
#
#
# Convention : Reuss Voigt Hill
#
# Bulk Modulus (GPa) = 19.68289 34.75645 27.21967
# Shear Modulus (GPa) = 18.10005 23.54083 20.82044
#
# Velocity S-wave (km/s) = 3.14780 3.58987 3.37608
# Velocity P-wave (km/s) = 4.89762 6.01746 5.48619
#
# Compressibility (1/GPa) = 0.05080555
#
# Stress axis : x y z
#
# Youngs Moduli (GPa) = 45.70956 59.49613 39.04513
#
# Poissons Ratio (x) = 0.16257 -0.05961
# Poissons Ratio (y) = 0.12490 0.21630
# Poissons Ratio (z) = -0.06979 0.32959
#
# Static dielectric constant tensor:
#      x y z
#    x 1.658840 0.000000 0.004610 
#    y 0.000000 1.611800 0.000000 
#    z 0.004610 0.000000 1.641820 
# 
# From -- ./inp_files/328640.got.cif
#   From: 2010.05.17/outbox.cif.g08.bks.cpg/sg12_165_cif.got.tgz:328640.got - 2010.06.03 13:09:07.
