data_PCOD9174163
_publ_section_title
;
Structure prediction by ZEFSAII (Michael W. Deem and Ramdas Pophale) SiO2 
 PCOD9174163
Probable space group: C 2/M
;
_chemical_formula_sum "Si O2"
_cell_formula_units_Z 48
_cell_length_a 14.636901
_cell_length_b 7.627139
_cell_length_c 18.310834
_cell_angle_alpha 90.000000
_cell_angle_beta 100.534803
_cell_angle_gamma 90.000000
_cell_volume 2009.722381
_symmetry_space_group_name_H-M "C 2/M"
_symmetry_group_IT_number 12
_symmetry_cell_setting 'monoclinic'
loop_
_space_group_symop_operation_xyz
x,y,z
-x,y,-z
-x,-y,-z
x,-y,z
1/2+x,1/2+y,z
1/2-x,1/2+y,-z
1/2-x,1/2-y,-z
1/2+x,1/2-y,z
loop_
_atom_site_type_symbol
_atom_site_label
_atom_site_fract_x
_atom_site_fract_y
_atom_site_fract_z
Si Si1 0.525287 0.801338 0.616572
Si Si2 0.143032 0.199850 0.497529
Si Si3 0.428781 0.712432 0.140416
Si Si4 0.680342 0.202061 0.741430
Si Si5 0.631642 0.284961 0.182704
Si Si6 0.350237 0.709472 0.980710
O O1 0.590354 0.804059 0.553601
O O2 0.426938 0.715861 0.581570
O O3 0.594477 0.715339 0.685548
O O4 0.503430 0.000000 0.635619
O O5 0.250000 0.250000 0.500000
O O6 0.141682 0.000000 0.521998
O O7 0.420506 0.500000 0.141134
O O8 0.348298 0.792126 0.177925
O O9 0.527650 0.763891 0.188432
O O10 0.420603 0.767909 0.054763
O O11 0.783761 0.278164 0.754742
O O12 0.685554 0.000000 0.716845
O O13 0.636499 0.500000 0.183537
O O14 0.642787 0.222976 0.100459
O O15 0.362613 0.500000 0.976577
O O16 0.250000 0.750000 0.000000
#
# Coordination Sequence:
#
# PCOD9174163 Si02
#       6
#     8   8   8   8   8   8
#     4  10  21  38  59  87 120 153 193 234 278 336
#     4  11  22  39  64  91 118 151 188 230 282 333
#     4  10  20  33  53  79 104 141 191 235 276 331
#     4  10  21  37  56  79 112 149 179 222 280 331
#     4   9  18  34  53  74 105 144 183 226 279 334
#     4  10  18  31  53  75 101 138 185 236 284 331
#
# _framework density 23.883896
#
# number of rings (size 3 to 8) (size 9 to 14) (size 15 to 20)
#    0.000    2.000    1.667    3.500    0.000    4.667 
#    0.000    3.333    0.000    2.000    0.000    0.000 
#    0.000    0.000    0.000    0.000    0.000    0.000 
#
# Total GULP energy -134003.061246 kJ/mol
# GULP energy per Si atom -5583.460885 kJ/mol
# Density = 2.382954 g / cm^3
# Si number density = 23.883896 Si / 1000 Ang^3
#
#
#
# Elastic Constant Matrix: (Units=GPa)
#
#
# Indices 1 2 3 4 5 6 
#
# 1 129.1910 -1.7359 26.6378 0.0000 47.2915 0.0000
# 2 -1.7359 66.0158 1.5394 0.0000 7.5074 0.0000
# 3 26.6378 1.5394 82.3507 0.0000 40.5807 0.0000
# 4 0.0000 0.0000 0.0000 11.1660 0.0000 -1.7516
# 5 47.2915 7.5074 40.5807 0.0000 42.6631 0.0000
# 6 0.0000 0.0000 0.0000 -1.7516 0.0000 -2.5833
#
#
#
# Elastic Compliance Matrix: (Units=1/GPa)
#
#
# Indices 1 2 3 4 5 6 
#
# 1 0.014999 0.002909 0.006662 0.000000 -0.023475 0.000000
# 2 0.002909 0.016195 0.003293 0.000000 -0.009206 0.000000
# 3 0.006662 0.003293 0.026072 0.000000 -0.032763 0.000000
# 4 0.000000 0.000000 0.000000 0.080947 0.000000 -0.054888
# 5 -0.023475 -0.009206 -0.032763 0.000000 0.082245 0.000000
# 6 0.000000 0.000000 0.000000 -0.054888 0.000000 -0.349888
#
#
# Mechanical properties :
#
#
# Convention : Reuss Voigt Hill
#
# Bulk Modulus (GPa) = 12.04926 36.71556 24.38241
# Shear Modulus (GPa) = -39.21775 26.99025 -6.11375
#
# Velocity S-wave (km/s) = -4.05658 3.36528 -1.60167
# Velocity P-wave (km/s) = 4.10916 5.52323 2.60968
#
# Compressibility (1/GPa) = 0.08299264
#
# Stress axis : x y z
#
# Youngs Moduli (GPa) = 66.67049 61.74915 38.35565
#
# Poissons Ratio (x) = -0.17961 -0.25552
# Poissons Ratio (y) = -0.19392 -0.12631
# Poissons Ratio (z) = -0.44414 -0.20335
#
# Static dielectric constant tensor:
#      x y z
#    x 1.903960 0.000000 0.042350 
#    y 0.000000 1.920240 0.000000 
#    z 0.042350 0.000000 1.970000 
# 
# From -- ./inp_files/308286.got.cif
#   From: 2010.05.17/outbox.cif.g08.bks.cpg/sg12_155_cif.got.tgz:308286.got - 2010.06.03 13:09:07.
