data_PCOD9174865
_publ_section_title
;
Structure prediction by ZEFSAII (Michael W. Deem and Ramdas Pophale) SiO2 
 PCOD9174865
Probable space group: C 2/M
;
_chemical_formula_sum "Si O2"
_cell_formula_units_Z 34
_cell_length_a 18.968158
_cell_length_b 7.577145
_cell_length_c 10.273066
_cell_angle_alpha 90.000000
_cell_angle_beta 89.247738
_cell_angle_gamma 90.000000
_cell_volume 1476.363847
_symmetry_space_group_name_H-M "C 2/M"
_symmetry_group_IT_number 12
_symmetry_cell_setting 'monoclinic'
loop_
_space_group_symop_operation_xyz
x,y,z
-x,y,-z
-x,-y,-z
x,-y,z
1/2+x,1/2+y,z
1/2-x,1/2+y,-z
1/2-x,1/2-y,-z
1/2+x,1/2-y,z
loop_
_atom_site_type_symbol
_atom_site_label
_atom_site_fract_x
_atom_site_fract_y
_atom_site_fract_z
Si Si1 0.945967 0.703880 0.158910
Si Si2 0.500000 0.500000 0.000000
Si Si3 0.170628 0.710277 0.043930
Si Si4 0.192165 0.713533 0.328653
Si Si5 0.149159 0.207217 0.611105
O O1 0.964847 0.500000 0.132987
O O2 0.913914 0.712586 0.303948
O O3 0.881781 0.773248 0.066931
O O4 0.003803 0.843048 0.113943
O O5 0.160967 0.500000 0.046907
O O6 0.163456 0.777025 0.191182
O O7 0.250000 0.750000 0.000000
O O8 0.194536 0.500000 0.325995
O O9 0.148226 0.765573 0.456488
O O10 0.273394 0.776280 0.346026
O O11 0.147954 0.000000 0.639053
#
# Coordination Sequence:
#
# PCOD9174865 Si02
#       5
#     8   2   8   8   8
#     4  11  23  40  63  88 118 158 208 256 298 350
#     4  12  26  44  64  84 120 168 218 252 290 356
#     4  10  20  33  56  88 123 156 191 246 313 365
#     4   9  18  31  51  83 126 159 188 235 306 372
#     4  10  18  32  53  85 121 160 195 238 295 366
#
# _framework density 23.029553
#
# number of rings (size 3 to 8) (size 9 to 14) (size 15 to 20)
#    0.000    1.882    3.529    1.059    1.647    1.882 
#    0.000    0.000    0.000    2.824    0.000    6.588 
#    0.000    0.000    0.000    0.000    0.000    0.000 
#
# Total GULP energy -94730.775142 kJ/mol
# GULP energy per Si atom -5572.398538 kJ/mol
# Density = 2.297714 g / cm^3
# Si number density = 23.029553 Si / 1000 Ang^3
#
#
#
# Elastic Constant Matrix: (Units=GPa)
#
#
# Indices 1 2 3 4 5 6 
#
# 1 35.0940 2.6321 22.8659 0.0000 -12.0686 0.0000
# 2 2.6321 118.5699 20.6928 0.0000 -15.9221 0.0000
# 3 22.8659 20.6928 163.0900 0.0000 -30.2816 0.0000
# 4 0.0000 0.0000 0.0000 30.6687 0.0000 -11.5692
# 5 -12.0686 -15.9221 -30.2816 0.0000 44.2788 0.0000
# 6 0.0000 0.0000 0.0000 -11.5692 0.0000 1.8902
#
#
#
# Elastic Compliance Matrix: (Units=1/GPa)
#
#
# Indices 1 2 3 4 5 6 
#
# 1 0.033070 0.000800 -0.003449 0.000000 0.006942 0.000000
# 2 0.000800 0.008934 -0.000697 0.000000 0.002954 0.000000
# 3 -0.003449 -0.000697 0.007425 0.000000 0.003887 0.000000
# 4 0.000000 0.000000 0.000000 -0.024911 0.000000 -0.152471
# 5 0.006942 0.002954 0.003887 0.000000 0.028197 0.000000
# 6 0.000000 0.000000 0.000000 -0.152471 0.000000 -0.404183
#
#
# Mechanical properties :
#
#
# Convention : Reuss Voigt Hill
#
# Bulk Modulus (GPa) = 23.39892 45.45948 34.42920
# Shear Modulus (GPa) = -15.12728 33.40506 9.13889
#
# Velocity S-wave (km/s) = -2.56572 3.81271 1.99423
# Velocity P-wave (km/s) = 1.18543 6.25818 4.50389
#
# Compressibility (1/GPa) = 0.04273702
#
# Stress axis : x y z
#
# Youngs Moduli (GPa) = 30.23925 111.92641 134.67299
#
# Poissons Ratio (x) = -0.08955 0.46448
# Poissons Ratio (y) = -0.02419 0.09391
# Poissons Ratio (z) = 0.10429 0.07805
#
# Static dielectric constant tensor:
#      x y z
#    x 1.937450 0.000000 -0.027520 
#    y 0.000000 1.856450 0.000000 
#    z -0.027520 0.000000 1.847210 
# 
# From -- ./inp_files/92401.got.cif
#   From: 2010.05.17/outbox.cif.g08.bks.cpg/sg12_47_cif.got.tgz:92401.got - 2010.06.03 13:09:07.
