data_PCOD9174023
_publ_section_title
;
Structure prediction by ZEFSAII (Michael W. Deem and Ramdas Pophale) SiO2 
 PCOD9174023
Probable space group: C 2/M
;
_chemical_formula_sum "Si O2"
_cell_formula_units_Z 48
_cell_length_a 22.688483
_cell_length_b 7.916713
_cell_length_c 25.257930
_cell_angle_alpha 90.000000
_cell_angle_beta 141.651107
_cell_angle_gamma 90.000000
_cell_volume 2814.840865
_symmetry_space_group_name_H-M "C 2/M"
_symmetry_group_IT_number 12
_symmetry_cell_setting 'monoclinic'
loop_
_space_group_symop_operation_xyz
x,y,z
-x,y,-z
-x,-y,-z
x,-y,z
1/2+x,1/2+y,z
1/2-x,1/2+y,-z
1/2-x,1/2-y,-z
1/2+x,1/2-y,z
loop_
_atom_site_type_symbol
_atom_site_label
_atom_site_fract_x
_atom_site_fract_y
_atom_site_fract_z
Si Si1 0.374032 0.800068 0.549039
Si Si2 0.658170 0.500000 0.111881
Si Si3 0.080373 0.688172 0.197666
Si Si4 0.964250 0.796311 0.417685
Si Si5 0.989459 0.000000 0.080984
Si Si6 0.170439 0.196733 0.367004
Si Si7 0.751485 0.197515 0.234412
O O1 0.465642 0.767559 0.578356
O O2 0.278777 0.740064 0.451342
O O3 0.376084 0.715183 0.607948
O O4 0.361595 0.000000 0.549124
O O5 0.572099 0.500000 0.094198
O O6 0.717846 0.331307 0.166766
O O7 0.608969 0.500000 0.020078
O O8 0.042428 0.500000 0.161571
O O9 0.113954 0.708995 0.281553
O O10 0.174759 0.707811 0.227824
O O11 0.008528 0.833876 0.129203
O O12 0.855182 0.753237 0.328959
O O13 0.000000 0.733847 0.500000
O O14 0.970044 0.000000 0.422271
O O15 0.174063 0.000000 0.354062
O O16 0.753749 0.000000 0.218713
#
# Coordination Sequence:
#
# PCOD9174023 Si02
#       7
#     8   4   8   8   4   8   8
#     4  10  21  32  47  72  99 135 175 207 248 293
#     4   9  18  32  51  70 106 134 161 212 253 306
#     4  10  18  31  52  75 103 133 166 207 255 301
#     4  10  20  34  49  70 103 137 175 209 244 292
#     4   9  18  32  48  78 102 128 167 206 259 307
#     4  10  19  33  49  69 103 135 168 212 252 293
#     4   9  19  32  49  74 103 138 172 203 250 301
#
# _framework density 17.052472999999999
#
# number of rings (size 3 to 8) (size 9 to 14) (size 15 to 20)
#    0.000    2.333    0.833    2.000    1.167    4.333 
#    0.000    3.333    0.000    0.000    0.000    1.167 
#    0.000    0.000    0.000    0.000    0.000    0.000 
#
# Total GULP energy -133873.039599 kJ/mol
# GULP energy per Si atom -5578.043317 kJ/mol
# Density = 1.701366 g / cm^3
# Si number density = 17.052473 Si / 1000 Ang^3
#
#
#
# Elastic Constant Matrix: (Units=GPa)
#
#
# Indices 1 2 3 4 5 6 
#
# 1 33.2937 19.3953 28.7276 0.0000 -1.3856 0.0000
# 2 19.3953 85.6009 68.7090 0.0000 -4.7212 0.0001
# 3 28.7276 68.7090 132.3032 0.0000 -12.1163 0.0000
# 4 0.0000 0.0000 0.0000 19.5382 0.0000 -0.8033
# 5 -1.3856 -4.7212 -12.1163 0.0000 18.2741 0.0000
# 6 0.0000 0.0001 0.0000 -0.8033 0.0000 18.2615
#
#
#
# Elastic Compliance Matrix: (Units=1/GPa)
#
#
# Indices 1 2 3 4 5 6 
#
# 1 0.037618 -0.003297 -0.006678 0.000000 -0.002427 0.000000
# 2 -0.003297 0.020380 -0.010017 0.000000 -0.001626 0.000000
# 3 -0.006678 -0.010017 0.014827 0.000000 0.006737 0.000000
# 4 0.000000 0.000000 0.000000 0.051274 0.000000 0.002255
# 5 -0.002427 -0.001626 0.006737 0.000000 0.058585 0.000000
# 6 0.000000 0.000000 0.000000 0.002255 0.000000 0.054859
#
#
# Mechanical properties :
#
#
# Convention : Reuss Voigt Hill
#
# Bulk Modulus (GPa) = 30.44986 53.87351 42.16168
# Shear Modulus (GPa) = 17.33261 20.17250 18.75255
#
# Velocity S-wave (km/s) = 3.19161 3.44316 3.31977
# Velocity P-wave (km/s) = 5.61045 6.88974 6.28274
#
# Compressibility (1/GPa) = 0.03284088
#
# Stress axis : x y z
#
# Youngs Moduli (GPa) = 26.58333 49.06880 67.44251
#
# Poissons Ratio (x) = 0.16177 0.45040
# Poissons Ratio (y) = 0.08764 0.67556
# Poissons Ratio (z) = 0.17753 0.49151
#
# Static dielectric constant tensor:
#      x y z
#    x 1.548110 0.000000 -0.000130 
#    y 0.000000 1.608820 0.000000 
#    z -0.000130 0.000000 1.559180 
# 
# From -- ./inp_files/345718.got.cif
#   From: 2010.05.17/outbox.cif.g08.bks.cpg/sg12_173_cif.got.tgz:345718.got - 2010.06.03 13:09:07.
