data_PCOD9174674
_publ_section_title
;
Structure prediction by ZEFSAII (Michael W. Deem and Ramdas Pophale) SiO2 
 PCOD9174674
Probable space group: C 2/M
;
_chemical_formula_sum "Si O2"
_cell_formula_units_Z 42
_cell_length_a 17.900313
_cell_length_b 13.809844
_cell_length_c 7.461761
_cell_angle_alpha 90.000000
_cell_angle_beta 66.347596
_cell_angle_gamma 90.000000
_cell_volume 1689.601918
_symmetry_space_group_name_H-M "C 2/M"
_symmetry_group_IT_number 12
_symmetry_cell_setting 'monoclinic'
loop_
_space_group_symop_operation_xyz
x,y,z
-x,y,-z
-x,-y,-z
x,-y,z
1/2+x,1/2+y,z
1/2-x,1/2+y,-z
1/2-x,1/2-y,-z
1/2+x,1/2-y,z
loop_
_atom_site_type_symbol
_atom_site_label
_atom_site_fract_x
_atom_site_fract_y
_atom_site_fract_z
Si Si1 0.797093 0.000000 0.325054
Si Si2 0.899608 0.165504 0.395917
Si Si3 0.205884 0.000000 0.071093
Si Si4 0.599623 0.840686 0.813620
Si Si5 0.597291 0.000000 0.107096
Si Si6 0.779141 0.801429 0.786229
Si Si7 0.398024 0.000000 0.485654
Si Si8 0.500000 0.500000 0.500000
O O1 0.828031 0.097327 0.386658
O O2 0.700369 0.000000 0.407747
O O3 0.828663 0.000000 0.092331
O O4 0.934371 0.236781 0.211230
O O5 0.852654 0.234562 0.588916
O O6 0.963106 0.086982 0.405280
O O7 0.181665 0.095870 0.195386
O O8 0.303923 0.000000 0.980005
O O9 0.696025 0.818747 0.756877
O O10 0.583628 0.909891 0.660476
O O11 0.576495 0.903764 0.012249
O O12 0.571398 0.000000 0.338622
O O13 0.750000 0.750000 0.000000
#
# Coordination Sequence:
#
# PCOD9174674 Si02
#       8
#     4   8   4   8   4   8   4   2
#     4  10  18  32  51  79 127 165 206 259 318 389
#     4  11  22  38  61  85 124 183 229 263 312 395
#     4   9  18  30  46  80 127 159 179 252 333 396
#     4  10  20  33  56  93 127 165 209 269 346 396
#     4   8  19  31  50  86 131 148 189 257 340 410
#     4  11  21  32  56  96 129 164 210 274 340 393
#     4  10  18  33  54  91 129 156 186 265 356 407
#     4  10  26  46  66  86 128 194 238 254 298 388
#
# _framework density 24.857927
#
# number of rings (size 3 to 8) (size 9 to 14) (size 15 to 20)
#    0.000    1.905    1.905    3.429    8.000    0.000 
#    0.000    0.000    0.000   22.857    0.000    1.333 
#    0.000    0.000    0.000    0.000    0.000    0.000 
#
# Total GULP energy -117085.507045 kJ/mol
# GULP energy per Si atom -5575.500335 kJ/mol
# Density = 2.480135 g / cm^3
# Si number density = 24.857927 Si / 1000 Ang^3
#
#
#
# Elastic Constant Matrix: (Units=GPa)
#
#
# Indices 1 2 3 4 5 6 
#
# 1 77.0285 42.8152 47.3798 0.0000 32.7641 0.0000
# 2 42.8152 168.5489 77.8893 0.0000 21.5252 0.0000
# 3 47.3798 77.8893 173.0587 0.0000 24.6132 0.0000
# 4 0.0000 0.0000 0.0000 10.4668 0.0000 9.9069
# 5 32.7641 21.5252 24.6132 0.0000 43.5375 0.0000
# 6 0.0000 0.0000 0.0000 9.9069 0.0000 8.7276
#
#
#
# Elastic Compliance Matrix: (Units=1/GPa)
#
#
# Indices 1 2 3 4 5 6 
#
# 1 0.021984 -0.002471 -0.002966 0.000000 -0.013646 0.000000
# 2 -0.002471 0.007925 -0.002825 0.000000 -0.000462 0.000000
# 3 -0.002966 -0.002825 0.007988 0.000000 -0.000887 0.000000
# 4 0.000000 0.000000 0.000000 -1.284043 0.000000 1.457554
# 5 -0.013646 -0.000462 -0.000887 0.000000 0.033968 0.000000
# 6 0.000000 0.000000 0.000000 1.457554 0.000000 -1.539933
#
#
# Mechanical properties :
#
#
# Convention : Reuss Voigt Hill
#
# Bulk Modulus (GPa) = 46.78635 83.86719 65.32677
# Shear Modulus (GPa) = -1.83253 29.24984 13.70865
#
# Velocity S-wave (km/s) = -0.85954 3.43400 2.35091
# Velocity P-wave (km/s) = 4.22815 7.03811 5.80570
#
# Compressibility (1/GPa) = 0.02137376
#
# Stress axis : x y z
#
# Youngs Moduli (GPa) = 45.48700 126.18300 125.19007
#
# Poissons Ratio (x) = 0.31183 0.37129
# Poissons Ratio (y) = 0.11241 0.35361
# Poissons Ratio (z) = 0.13491 0.35642
#
# Static dielectric constant tensor:
#      x y z
#    x 1.963520 0.000000 -0.045790 
#    y 0.000000 1.972410 0.000000 
#    z -0.045790 0.000000 2.079440 
# 
# From -- ./inp_files/85047.got.cif
#   From: 2010.05.17/outbox.cif.g08.bks.cpg/sg12_43_cif.got.tgz:85047.got - 2010.06.03 13:09:07.
