data_PCOD9174254
_publ_section_title
;
Structure prediction by ZEFSAII (Michael W. Deem and Ramdas Pophale) SiO2 
 PCOD9174254
Probable space group: C 2/M
;
_chemical_formula_sum "Si O2"
_cell_formula_units_Z 32
_cell_length_a 11.727854
_cell_length_b 19.925995
_cell_length_c 8.037711
_cell_angle_alpha 90.000000
_cell_angle_beta 47.293309
_cell_angle_gamma 90.000000
_cell_volume 1380.260378
_symmetry_space_group_name_H-M "C 2/M"
_symmetry_group_IT_number 12
_symmetry_cell_setting 'monoclinic'
loop_
_space_group_symop_operation_xyz
x,y,z
-x,y,-z
-x,-y,-z
x,-y,z
1/2+x,1/2+y,z
1/2-x,1/2+y,-z
1/2-x,1/2-y,-z
1/2+x,1/2-y,z
loop_
_atom_site_type_symbol
_atom_site_label
_atom_site_fract_x
_atom_site_fract_y
_atom_site_fract_z
Si Si1 0.650715 0.500000 0.094614
Si Si2 0.186407 0.772534 0.815840
Si Si3 0.706310 0.500000 0.640924
Si Si4 0.782834 0.357457 0.046881
Si Si5 0.400913 0.870365 0.427500
O O1 0.465455 0.500000 0.262926
O O2 0.702872 0.500000 0.847555
O O3 0.712181 0.431803 0.118942
O O4 0.223114 0.819247 0.940259
O O5 0.284960 0.809092 0.575826
O O6 0.249367 0.697149 0.779691
O O7 0.000000 0.772838 0.000000
O O8 0.798166 0.434737 0.495353
O O9 0.967774 0.361470 0.839237
O O10 0.500000 0.881318 0.500000
#
# Coordination Sequence:
#
# PCOD9174254 Si02
#       5
#     4   8   4   8   8
#     4  11  19  32  54  77 108 134 171 221 264 312
#     4  10  20  35  52  77 109 141 174 210 258 311
#     4  11  18  29  56  82 105 131 165 226 281 302
#     4  10  21  34  54  81 106 139 173 213 265 308
#     4  10  18  31  53  82 108 133 168 217 266 314
#
# _framework density 23.184032999999999
#
# number of rings (size 3 to 8) (size 9 to 14) (size 15 to 20)
#    0.000    1.750    5.000    2.625    0.000    1.000 
#    0.000    5.625    0.000    0.000    0.000   25.375 
#    0.000    0.000    0.000    0.000    0.000    0.000 
#
# Total GULP energy -89510.049056 kJ/mol
# GULP energy per Si atom -5594.378066 kJ/mol
# Density = 2.313126 g / cm^3
# Si number density = 23.184033 Si / 1000 Ang^3
#
#
#
# Elastic Constant Matrix: (Units=GPa)
#
#
# Indices 1 2 3 4 5 6 
#
# 1 74.9535 66.9973 49.9550 0.0000 -12.7953 0.0000
# 2 66.9973 271.8126 81.4904 0.0000 -25.0017 0.0000
# 3 49.9550 81.4904 84.6771 0.0000 -31.9064 0.0000
# 4 0.0000 0.0000 0.0000 31.1111 0.0000 -35.1345
# 5 -12.7953 -25.0017 -31.9064 0.0000 32.5873 0.0000
# 6 0.0000 0.0000 0.0000 -35.1345 0.0000 39.2491
#
#
#
# Elastic Compliance Matrix: (Units=1/GPa)
#
#
# Indices 1 2 3 4 5 6 
#
# 1 0.023717 -0.002133 -0.014335 0.000000 -0.006360 0.000000
# 2 -0.002133 0.005405 -0.004273 0.000000 -0.000874 0.000000
# 3 -0.014335 -0.004273 0.033313 0.000000 0.023709 0.000000
# 4 0.000000 0.000000 0.000000 -2.940565 0.000000 -2.632296
# 5 -0.006360 -0.000874 0.023709 0.000000 0.050733 0.000000
# 6 0.000000 0.000000 0.000000 -2.632296 0.000000 -2.330865
#
#
# Mechanical properties :
#
#
# Convention : Reuss Voigt Hill
#
# Bulk Modulus (GPa) = 47.72796 92.03651 69.88224
# Shear Modulus (GPa) = -0.97851 36.12287 17.57218
#
# Velocity S-wave (km/s) = -0.65037 3.95155 2.75606
# Velocity P-wave (km/s) = 4.47965 7.78486 6.35104
#
# Compressibility (1/GPa) = 0.02095208
#
# Stress axis : x y z
#
# Youngs Moduli (GPa) = 42.16446 184.99995 30.01876
#
# Poissons Ratio (x) = 0.39460 0.43033
# Poissons Ratio (y) = 0.08994 0.12827
# Poissons Ratio (z) = 0.60444 0.79050
#
# Static dielectric constant tensor:
#      x y z
#    x 1.903620 0.000000 0.033700 
#    y 0.000000 1.823870 0.000000 
#    z 0.033700 0.000000 1.833560 
# 
# From -- ./inp_files/46477.got.cif
#   From: 2010.05.17/outbox.cif.g08.bks.cpg/sg12_24_cif.got.tgz:46477.got - 2010.06.03 13:09:07.
