data_PCOD9174315
_publ_section_title
;
Structure prediction by ZEFSAII (Michael W. Deem and Ramdas Pophale) SiO2 
 PCOD9174315
Probable space group: C 2/M
;
_chemical_formula_sum "Si O2"
_cell_formula_units_Z 64
_cell_length_a 14.701046
_cell_length_b 13.876534
_cell_length_c 14.706152
_cell_angle_alpha 90.000000
_cell_angle_beta 86.353102
_cell_angle_gamma 90.000000
_cell_volume 2993.973503
_symmetry_space_group_name_H-M "C 2/M"
_symmetry_group_IT_number 12
_symmetry_cell_setting 'monoclinic'
loop_
_space_group_symop_operation_xyz
x,y,z
-x,y,-z
-x,-y,-z
x,-y,z
1/2+x,1/2+y,z
1/2-x,1/2+y,-z
1/2-x,1/2-y,-z
1/2+x,1/2-y,z
loop_
_atom_site_type_symbol
_atom_site_label
_atom_site_fract_x
_atom_site_fract_y
_atom_site_fract_z
Si Si1 0.958855 0.613233 0.781422
Si Si2 0.349285 0.107503 0.414297
Si Si3 0.329265 0.685963 0.340017
Si Si4 0.367660 0.605000 0.529733
Si Si5 0.686711 0.888022 0.059014
Si Si6 0.927042 0.690969 0.078272
Si Si7 0.613087 0.807660 0.396155
Si Si8 0.117080 0.108834 0.860648
O O1 0.946044 0.500000 0.773195
O O2 0.877644 0.649075 0.854308
O O3 0.947151 0.657048 0.683013
O O4 0.050913 0.636500 0.830254
O O5 0.357853 0.202467 0.351747
O O6 0.240261 0.104100 0.439968
O O7 0.393322 0.132874 0.509532
O O8 0.377436 0.000000 0.381172
O O9 0.370395 0.627761 0.422529
O O10 0.219175 0.683001 0.358445
O O11 0.358544 0.639036 0.243895
O O12 0.405065 0.500000 0.550237
O O13 0.407454 0.696648 0.579173
O O14 0.789233 0.887854 0.088131
O O15 0.661384 0.000000 0.043473
O O16 0.667204 0.831199 0.966929
O O17 0.941805 0.803613 0.096611
O O18 0.000000 0.654849 0.000000
O O19 0.080302 0.000000 0.866842
#
# Coordination Sequence:
#
# PCOD9174315 Si02
#       8
#     8   8   8   8   8   8   8   8
#     4  10  18  31  54  80 105 132 170 214 256 308
#     4   8  14  24  41  69 109 143 164 201 256 305
#     4   9  16  27  46  76 106 132 170 216 256 293
#     4   8  14  24  41  68 107 143 169 204 251 297
#     4   9  18  34  58  82 100 124 164 217 267 307
#     4  10  22  38  53  74 105 137 166 207 265 320
#     4   9  15  25  46  77 106 136 172 209 250 298
#     4  11  21  34  56  79 101 133 175 218 254 302
#
# _framework density 21.376275
#
# number of rings (size 3 to 8) (size 9 to 14) (size 15 to 20)
#    0.000    2.750    1.250    3.000    0.000    2.750 
#    0.000    1.875    0.000    4.500    0.000    8.750 
#    0.000    0.000    0.000    0.000    0.000    0.000 
#
# Total GULP energy -178653.824887 kJ/mol
# GULP energy per Si atom -5582.932028 kJ/mol
# Density = 2.132762 g / cm^3
# Si number density = 21.376275 Si / 1000 Ang^3
#
#
#
# Elastic Constant Matrix: (Units=GPa)
#
#
# Indices 1 2 3 4 5 6 
#
# 1 36.5342 -9.8900 7.5361 0.0000 3.9133 0.0000
# 2 -9.8900 119.0133 23.5668 0.0000 23.0246 0.0000
# 3 7.5361 23.5668 87.9811 0.0000 31.9805 0.0000
# 4 0.0000 0.0000 0.0000 22.2527 0.0000 4.2762
# 5 3.9133 23.0246 31.9805 0.0000 24.3786 0.0000
# 6 0.0000 0.0000 0.0000 4.2762 0.0000 15.1878
#
#
#
# Elastic Compliance Matrix: (Units=1/GPa)
#
#
# Indices 1 2 3 4 5 6 
#
# 1 0.029446 0.004048 -0.000953 0.000000 -0.007299 0.000000
# 2 0.004048 0.010940 0.001366 0.000000 -0.012774 0.000000
# 3 -0.000953 0.001366 0.021973 0.000000 -0.029962 0.000000
# 4 0.000000 0.000000 0.000000 0.047509 0.000000 -0.013376
# 5 -0.007299 -0.012774 -0.029962 0.000000 0.093560 0.000000
# 6 0.000000 0.000000 0.000000 -0.013376 0.000000 0.069608
#
#
# Mechanical properties :
#
#
# Convention : Reuss Voigt Hill
#
# Bulk Modulus (GPa) = 14.02923 31.77269 22.90096
# Shear Modulus (GPa) = 17.36872 27.18488 22.27680
#
# Velocity S-wave (km/s) = 2.85357 3.57000 3.23170
# Velocity P-wave (km/s) = 4.17545 5.64704 4.96606
#
# Compressibility (1/GPa) = 0.07127977
#
# Stress axis : x y z
#
# Youngs Moduli (GPa) = 33.96060 91.41143 45.51120
#
# Poissons Ratio (x) = -0.37002 0.04338
# Poissons Ratio (y) = -0.13747 -0.06218
# Poissons Ratio (z) = 0.03237 -0.12489
#
# Static dielectric constant tensor:
#      x y z
#    x 1.824980 0.000000 -0.009530 
#    y 0.000000 1.771760 0.000000 
#    z -0.009530 0.000000 1.755370 
# 
# From -- ./inp_files/224820.got.cif
#   From: 2010.05.17/outbox.cif.g08.bks.cpg/sg12_113_cif.got.tgz:224820.got - 2010.06.03 13:09:07.
