data_PCOD9174644
_publ_section_title
;
Structure prediction by ZEFSAII (Michael W. Deem and Ramdas Pophale) SiO2 
 PCOD9174644
Probable space group: C 2/M
;
_chemical_formula_sum "Si O2"
_cell_formula_units_Z 64
_cell_length_a 24.152798
_cell_length_b 8.521365
_cell_length_c 19.980034
_cell_angle_alpha 90.000000
_cell_angle_beta 120.010672
_cell_angle_gamma 90.000000
_cell_volume 3560.875246
_symmetry_space_group_name_H-M "C 2/M"
_symmetry_group_IT_number 12
_symmetry_cell_setting 'monoclinic'
loop_
_space_group_symop_operation_xyz
x,y,z
-x,y,-z
-x,-y,-z
x,-y,z
1/2+x,1/2+y,z
1/2-x,1/2+y,-z
1/2-x,1/2-y,-z
1/2+x,1/2-y,z
loop_
_atom_site_type_symbol
_atom_site_label
_atom_site_fract_x
_atom_site_fract_y
_atom_site_fract_z
Si Si1 0.814089 0.314457 0.672749
Si Si2 0.055236 0.809738 0.081966
Si Si3 0.949691 0.812801 0.765589
Si Si4 0.044661 0.316535 0.716402
Si Si5 0.694193 0.686713 0.182432
Si Si6 0.038597 0.187300 0.453959
Si Si7 0.174425 0.808974 0.586783
Si Si8 0.174629 0.186249 0.743039
O O1 0.819982 0.500000 0.664887
O O2 0.880350 0.233108 0.693126
O O3 0.807807 0.279161 0.748399
O O4 0.744727 0.258717 0.603882
O O5 0.048280 0.761428 0.155361
O O6 0.128211 0.772334 0.105323
O O7 0.050698 0.000000 0.079211
O O8 0.000000 0.748590 0.000000
O O9 0.006589 0.736875 0.758753
O O10 0.955115 0.000000 0.766645
O O11 0.057752 0.500000 0.725851
O O12 0.110997 0.227646 0.744250
O O13 0.998290 0.274930 0.626566
O O14 0.692827 0.500000 0.195981
O O15 0.761391 0.732210 0.190880
O O16 0.111725 0.240856 0.508661
O O17 0.000000 0.207526 0.500000
O O18 0.038271 0.000000 0.438970
O O19 0.166165 0.761873 0.659902
O O20 0.174454 0.000000 0.586503
O O21 0.184302 0.000000 0.748185
#
# Coordination Sequence:
#
# PCOD9174644 Si02
#       8
#     8   8   8   8   8   8   8   8
#     4   9  16  29  49  72 100 133 169 210 256 301
#     4   8  15  30  55  84 109 132 162 203 251 302
#     4  10  20  35  54  75 101 135 173 208 253 310
#     4  12  24  35  49  73 104 136 172 215 262 308
#     4   9  16  27  47  78 108 133 166 207 250 297
#     4  10  18  33  53  72  99 134 175 214 257 309
#     4   8  15  28  49  73  95 126 166 212 256 299
#     4  10  18  32  51  72  99 135 175 213 257 301
#
# _framework density 17.973109000000001
#
# number of rings (size 3 to 8) (size 9 to 14) (size 15 to 20)
#    0.000    2.500    1.250    4.125    0.000    0.250 
#    0.000    1.875    0.000   14.250    0.000    0.000 
#    0.000    0.000    0.000    0.000    0.000    0.000 
#
# Total GULP energy -178353.105431 kJ/mol
# GULP energy per Si atom -5573.534545 kJ/mol
# Density = 1.793220 g / cm^3
# Si number density = 17.973109 Si / 1000 Ang^3
#
#
#
# Elastic Constant Matrix: (Units=GPa)
#
#
# Indices 1 2 3 4 5 6 
#
# 1 84.2999 -1.7237 37.7808 0.0000 23.2765 0.0000
# 2 -1.7237 26.7988 10.7895 0.0000 0.2438 0.0000
# 3 37.7808 10.7895 63.4248 0.0000 29.0560 0.0000
# 4 0.0000 0.0000 0.0000 8.9069 0.0000 -0.3218
# 5 23.2765 0.2438 29.0560 0.0000 27.8843 0.0000
# 6 0.0000 0.0000 0.0000 -0.3218 0.0000 17.8019
#
#
#
# Elastic Compliance Matrix: (Units=1/GPa)
#
#
# Indices 1 2 3 4 5 6 
#
# 1 0.017332 0.004602 -0.008535 0.000000 -0.005614 0.000000
# 2 0.004602 0.043869 -0.015821 0.000000 0.012260 0.000000
# 3 -0.008535 -0.015821 0.038679 0.000000 -0.033041 0.000000
# 4 0.000000 0.000000 0.000000 0.112346 0.000000 0.002031
# 5 -0.005614 0.012260 -0.033041 0.000000 0.074871 0.000000
# 6 0.000000 0.000000 0.000000 0.002031 0.000000 0.056211
#
#
# Mechanical properties :
#
#
# Convention : Reuss Voigt Hill
#
# Bulk Modulus (GPa) = 16.56383 29.80185 23.18284
# Shear Modulus (GPa) = 12.40878 19.43041 15.91960
#
# Velocity S-wave (km/s) = 2.63041 3.29155 2.97938
# Velocity P-wave (km/s) = 4.29667 5.57343 4.97616
#
# Compressibility (1/GPa) = 0.06037249
#
# Stress axis : x y z
#
# Youngs Moduli (GPa) = 57.69703 22.79496 25.85378
#
# Poissons Ratio (x) = -0.10491 0.22067
# Poissons Ratio (y) = -0.26553 0.40903
# Poissons Ratio (z) = 0.49245 0.36064
#
# Static dielectric constant tensor:
#      x y z
#    x 1.641950 0.000000 0.027100 
#    y 0.000000 1.610320 0.000000 
#    z 0.027100 0.000000 1.620940 
# 
# From -- ./inp_files/320013.got.cif
#   From: 2010.05.17/outbox.cif.g08.bks.cpg/sg12_161_cif.got.tgz:320013.got - 2010.06.03 13:09:07.
