data_PCOD9174794
_publ_section_title
;
Structure prediction by ZEFSAII (Michael W. Deem and Ramdas Pophale) SiO2 
 PCOD9174794
Probable space group: C 2/M
;
_chemical_formula_sum "Si O2"
_cell_formula_units_Z 56
_cell_length_a 19.264071
_cell_length_b 7.615704
_cell_length_c 25.111566
_cell_angle_alpha 90.000000
_cell_angle_beta 36.908035
_cell_angle_gamma 90.000000
_cell_volume 2212.423899
_symmetry_space_group_name_H-M "C 2/M"
_symmetry_group_IT_number 12
_symmetry_cell_setting 'monoclinic'
loop_
_space_group_symop_operation_xyz
x,y,z
-x,y,-z
-x,-y,-z
x,-y,z
1/2+x,1/2+y,z
1/2-x,1/2+y,-z
1/2-x,1/2-y,-z
1/2+x,1/2-y,z
loop_
_atom_site_type_symbol
_atom_site_label
_atom_site_fract_x
_atom_site_fract_y
_atom_site_fract_z
Si Si1 0.751151 0.715650 0.226448
Si Si2 0.756778 0.700189 0.933761
Si Si3 0.470569 0.715293 0.694745
Si Si4 0.330591 0.709278 0.499960
Si Si5 0.633999 0.285829 0.408633
Si Si6 0.002150 0.703633 0.090398
Si Si7 0.496213 0.304069 0.216924
O O1 0.754005 0.500000 0.223962
O O2 0.660518 0.772552 0.237150
O O3 0.698757 0.771625 0.315596
O O4 0.882968 0.776693 0.140162
O O5 0.793426 0.500000 0.905270
O O6 0.624667 0.719581 0.996670
O O7 0.750000 0.750000 0.000000
O O8 0.866881 0.814553 0.850871
O O9 0.474975 0.500000 0.693887
O O10 0.543305 0.767524 0.597976
O O11 0.539286 0.781206 0.705225
O O12 0.335426 0.500000 0.502363
O O13 0.250000 0.750000 0.500000
O O14 0.302927 0.775210 0.575955
O O15 0.500000 0.236541 0.500000
O O16 0.635130 0.500000 0.404459
O O17 0.009983 0.500000 0.071974
O O18 0.988893 0.717479 0.163449
O O19 0.450249 0.500000 0.238736
#
# Coordination Sequence:
#
# PCOD9174794 Si02
#       7
#     8   8   8   8   8   8   8
#     4   9  17  30  49  75 102 131 172 215 248 289
#     4  10  18  32  53  75 102 132 167 206 249 301
#     4   9  18  33  50  73 104 137 170 208 253 298
#     4  10  20  33  52  77 105 135 169 211 256 300
#     4   9  15  28  51  75  99 131 173 214 248 285
#     4  10  19  31  52  79 104 128 165 213 254 297
#     4  10  19  32  52  75 103 135 167 205 252 303
#
# _framework density 25.311606000000001
#
# number of rings (size 3 to 8) (size 9 to 14) (size 15 to 20)
#    0.000    2.429    1.429    3.857    2.000    0.000 
#    0.000    1.429    0.000    9.857    0.000    0.000 
#    0.000    0.000    0.000    0.000    0.000    0.000 
#
# Total GULP energy -156241.700230 kJ/mol
# GULP energy per Si atom -5580.060722 kJ/mol
# Density = 2.525400 g / cm^3
# Si number density = 25.311606 Si / 1000 Ang^3
#
#
#
# Elastic Constant Matrix: (Units=GPa)
#
#
# Indices 1 2 3 4 5 6 
#
# 1 104.7183 -13.9638 5.5880 -0.0008 -17.9833 0.0016
# 2 -13.9638 74.9289 -1.2459 -0.0014 -4.3476 0.0038
# 3 5.5880 -1.2459 25.5608 0.0001 -21.0682 0.0003
# 4 -0.0008 -0.0014 0.0001 4.5546 -0.0002 0.3431
# 5 -17.9833 -4.3476 -21.0682 -0.0002 50.3552 0.0001
# 6 0.0016 0.0038 0.0003 0.3431 0.0001 9.8273
#
#
#
# Elastic Compliance Matrix: (Units=1/GPa)
#
#
# Indices 1 2 3 4 5 6 
#
# 1 0.010563 0.002266 0.001636 0.000003 0.004653 -0.000003
# 2 0.002266 0.014001 0.002824 0.000005 0.003200 -0.000006
# 3 0.001636 0.002824 0.060422 0.000001 0.026108 -0.000004
# 4 0.000003 0.000005 0.000001 0.220135 0.000003 -0.007685
# 5 0.004653 0.003200 0.026108 0.000003 0.032720 -0.000003
# 6 -0.000003 -0.000006 -0.000004 -0.007685 -0.000003 0.102026
#
#
# Mechanical properties :
#
#
# Convention : Reuss Voigt Hill
#
# Bulk Modulus (GPa) = 10.15868 20.66274 15.41071
# Shear Modulus (GPa) = 10.88786 27.26941 19.07863
#
# Velocity S-wave (km/s) = 2.07626 3.28586 2.74843
# Velocity P-wave (km/s) = 3.12570 4.75151 4.02162
#
# Compressibility (1/GPa) = 0.09843794
#
# Stress axis : x y z
#
# Youngs Moduli (GPa) = 94.66801 71.42421 16.55034
#
# Poissons Ratio (x) = -0.16183 -0.02707
# Poissons Ratio (y) = -0.21449 -0.04675
# Poissons Ratio (z) = -0.15487 -0.20173
#
# Static dielectric constant tensor:
#      x y z
#    x -8.980640 0.000220 -10.220790 
#    y 0.000220 1.942190 0.000200 
#    z -10.220790 0.000200 -7.346620 
# 
# From -- ./inp_files/362910.got.cif
#   From: 2010.05.17/outbox.cif.g08.bks.cpg/sg12_182_cif.got.tgz:362910.got - 2010.06.03 13:09:07.
