data_PCOD9174123
_publ_section_title
;
Structure prediction by ZEFSAII (Michael W. Deem and Ramdas Pophale) SiO2 
 PCOD9174123
Probable space group: C 2/M
;
_chemical_formula_sum "Si O2"
_cell_formula_units_Z 40
_cell_length_a 22.502829
_cell_length_b 7.624866
_cell_length_c 11.516630
_cell_angle_alpha 90.000000
_cell_angle_beta 123.521612
_cell_angle_gamma 90.000000
_cell_volume 1647.376506
_symmetry_space_group_name_H-M "C 2/M"
_symmetry_group_IT_number 12
_symmetry_cell_setting 'monoclinic'
loop_
_space_group_symop_operation_xyz
x,y,z
-x,y,-z
-x,-y,-z
x,-y,z
1/2+x,1/2+y,z
1/2-x,1/2+y,-z
1/2-x,1/2-y,-z
1/2+x,1/2-y,z
loop_
_atom_site_type_symbol
_atom_site_label
_atom_site_fract_x
_atom_site_fract_y
_atom_site_fract_z
Si Si1 0.245825 0.793344 0.862253
Si Si2 0.470633 0.715606 0.841683
Si Si3 0.314666 0.294814 0.717505
Si Si4 0.493690 0.303138 0.620966
Si Si5 0.339606 0.203970 0.431359
O O1 0.310927 0.721391 0.854274
O O2 0.176077 0.714683 0.723844
O O3 0.243501 0.000000 0.844414
O O4 0.250000 0.750000 0.000000
O O5 0.471090 0.500000 0.839076
O O6 0.388206 0.779641 0.751336
O O7 0.511770 0.772451 0.768085
O O8 0.500000 0.766259 0.000000
O O9 0.313274 0.500000 0.688402
O O10 0.235843 0.223274 0.602373
O O11 0.500000 0.215655 0.500000
O O12 0.524999 0.500000 0.645587
O O13 0.407919 0.311574 0.537661
O O14 0.348511 0.000000 0.471555
#
# Coordination Sequence:
#
# PCOD9174123 Si02
#       5
#     8   8   8   8   8
#     4  10  18  31  52  80 114 150 186 232 285 341
#     4   9  18  35  58  82 113 153 193 237 289 344
#     4   8  17  33  53  81 110 143 189 235 283 343
#     4  10  21  36  56  86 116 149 196 243 289 347
#     4   9  19  35  54  81 111 146 188 237 291 343
#
# _framework density 24.281032
#
# number of rings (size 3 to 8) (size 9 to 14) (size 15 to 20)
#    1.200    1.600    0.000    1.800    0.000    2.800 
#    0.000    5.000    0.000    2.400    0.000    0.000 
#    0.000    0.000    0.000    0.000    0.000    0.000 
#
# Total GULP energy -111361.662030 kJ/mol
# GULP energy per Si atom -5568.083102 kJ/mol
# Density = 2.422577 g / cm^3
# Si number density = 24.281032 Si / 1000 Ang^3
#
#
#
# Elastic Constant Matrix: (Units=GPa)
#
#
# Indices 1 2 3 4 5 6 
#
# 1 63.0283 -3.9045 33.9604 0.0000 -22.6186 0.0000
# 2 -3.9045 89.3495 6.2458 0.0000 3.1540 0.0000
# 3 33.9604 6.2458 129.7637 0.0000 -51.7456 0.0000
# 4 0.0000 0.0000 0.0000 14.4235 0.0000 4.0527
# 5 -22.6186 3.1540 -51.7456 0.0000 50.4983 0.0000
# 6 0.0000 0.0000 0.0000 4.0527 0.0000 7.6250
#
#
#
# Elastic Compliance Matrix: (Units=1/GPa)
#
#
# Indices 1 2 3 4 5 6 
#
# 1 0.019525 0.000849 -0.002848 0.000000 0.005774 0.000000
# 2 0.000849 0.011403 -0.001528 0.000000 -0.001897 0.000000
# 3 -0.002848 -0.001528 0.013620 0.000000 0.012776 0.000000
# 4 0.000000 0.000000 0.000000 0.081503 0.000000 -0.043318
# 5 0.005774 -0.001897 0.012776 0.000000 0.035599 0.000000
# 6 0.000000 0.000000 0.000000 -0.043318 0.000000 0.154171
#
#
# Mechanical properties :
#
#
# Convention : Reuss Voigt Hill
#
# Bulk Modulus (GPa) = 26.67153 39.41611 33.04382
# Shear Modulus (GPa) = 14.90877 30.89868 22.90373
#
# Velocity S-wave (km/s) = 2.48061 3.57114 3.07461
# Velocity P-wave (km/s) = 4.38325 5.76824 5.12277
#
# Compressibility (1/GPa) = 0.03749316
#
# Stress axis : x y z
#
# Youngs Moduli (GPa) = 51.21590 87.69744 73.42191
#
# Poissons Ratio (x) = -0.07441 0.20913
# Poissons Ratio (y) = -0.04346 0.11215
# Poissons Ratio (z) = 0.14588 0.13396
#
# Static dielectric constant tensor:
#      x y z
#    x 1.996040 0.000000 -0.070100 
#    y 0.000000 1.862100 0.000000 
#    z -0.070100 0.000000 2.074240 
# 
# From -- ./inp_files/171584.got.cif
#   From: 2010.05.17/outbox.cif.g08.bks.cpg/sg12_86_cif.got.tgz:171584.got - 2010.06.03 13:09:07.
