data_PCOD9174425
_publ_section_title
;
Structure prediction by ZEFSAII (Michael W. Deem and Ramdas Pophale) SiO2 
 PCOD9174425
Probable space group: C 2/M
;
_chemical_formula_sum "Si O2"
_cell_formula_units_Z 56
_cell_length_a 12.744852
_cell_length_b 24.512299
_cell_length_c 11.133878
_cell_angle_alpha 90.000000
_cell_angle_beta 56.845855
_cell_angle_gamma 90.000000
_cell_volume 2912.029018
_symmetry_space_group_name_H-M "C 2/M"
_symmetry_group_IT_number 12
_symmetry_cell_setting 'monoclinic'
loop_
_space_group_symop_operation_xyz
x,y,z
-x,y,-z
-x,-y,-z
x,-y,z
1/2+x,1/2+y,z
1/2-x,1/2+y,-z
1/2-x,1/2-y,-z
1/2+x,1/2-y,z
loop_
_atom_site_type_symbol
_atom_site_label
_atom_site_fract_x
_atom_site_fract_y
_atom_site_fract_z
Si Si1 0.883770 0.060538 0.163559
Si Si2 0.854197 0.561710 0.861421
Si Si3 0.002337 0.345271 0.356602
Si Si4 0.741460 0.845663 0.635837
Si Si5 0.403200 0.732631 0.672829
Si Si6 0.227703 0.064300 0.199946
Si Si7 0.027354 0.870969 0.679090
O O1 0.759866 0.064691 0.162054
O O2 0.901333 0.107507 0.249161
O O3 0.885353 0.000000 0.220983
O O4 0.000000 0.062659 0.000000
O O5 0.904705 0.500000 0.829308
O O6 0.952143 0.605000 0.752569
O O7 0.796307 0.571864 0.029066
O O8 0.095012 0.293731 0.280067
O O9 0.000000 0.358965 0.500000
O O10 0.864101 0.330867 0.394342
O O11 0.778433 0.794001 0.695689
O O12 0.708483 0.896569 0.741987
O O13 0.868944 0.864364 0.489120
O O14 0.500000 0.736157 0.500000
O O15 0.459789 0.687853 0.728267
O O16 0.084632 0.086308 0.277559
O O17 0.229481 0.000000 0.228105
#
# Coordination Sequence:
#
# PCOD9174425 Si02
#       7
#     8   8   8   8   8   8   8
#     4  10  18  31  55  84 114 151 190 228 277 333
#     4  10  22  38  57  83 116 155 195 233 280 344
#     4  11  23  40  61  84 114 152 186 234 291 342
#     4  10  22  37  58  89 116 144 193 235 279 345
#     4   8  19  37  59  85 111 146 189 238 282 336
#     4  10  20  37  59  82 115 154 193 238 284 329
#     4  10  18  34  59  88 117 146 188 244 281 328
#
# _framework density 19.230575999999999
#
# number of rings (size 3 to 8) (size 9 to 14) (size 15 to 20)
#    0.000    2.143    1.429    2.571    0.000    9.429 
#    0.000    4.286    3.143    0.000    0.000    0.000 
#    0.000    0.000    0.000    0.000    0.000    0.000 
#
# Total GULP energy -156182.676999 kJ/mol
# GULP energy per Si atom -5577.952750 kJ/mol
# Density = 1.918681 g / cm^3
# Si number density = 19.230576 Si / 1000 Ang^3
#
#
#
# Elastic Constant Matrix: (Units=GPa)
#
#
# Indices 1 2 3 4 5 6 
#
# 1 75.4662 36.9443 28.4984 0.0000 9.3556 0.0000
# 2 36.9443 98.4801 47.9218 0.0000 4.2666 0.0000
# 3 28.4984 47.9218 47.3136 0.0000 7.9056 0.0000
# 4 0.0000 0.0000 0.0000 46.2533 0.0000 -2.7380
# 5 9.3556 4.2666 7.9056 0.0000 23.1592 0.0000
# 6 0.0000 0.0000 0.0000 -2.7380 0.0000 14.3663
#
#
#
# Elastic Compliance Matrix: (Units=1/GPa)
#
#
# Indices 1 2 3 4 5 6 
#
# 1 0.017940 -0.003226 -0.006815 0.000000 -0.004327 0.000000
# 2 -0.003226 0.020864 -0.019899 0.000000 0.004252 0.000000
# 3 -0.006815 -0.019899 0.047004 0.000000 -0.009626 0.000000
# 4 0.000000 0.000000 0.000000 0.021867 0.000000 0.004167
# 5 -0.004327 0.004252 -0.009626 0.000000 0.047430 0.000000
# 6 0.000000 0.000000 0.000000 0.004167 0.000000 0.070402
#
#
# Mechanical properties :
#
#
# Convention : Reuss Voigt Hill
#
# Bulk Modulus (GPa) = 38.57053 49.77656 44.17354
# Shear Modulus (GPa) = 17.00511 23.94879 20.47695
#
# Velocity S-wave (km/s) = 2.97690 3.53278 3.26669
# Velocity P-wave (km/s) = 5.64945 6.52541 6.10317
#
# Compressibility (1/GPa) = 0.02592653
#
# Stress axis : x y z
#
# Youngs Moduli (GPa) = 55.73989 47.93042 21.27491
#
# Poissons Ratio (x) = 0.15464 0.14499
# Poissons Ratio (y) = 0.17984 0.42335
# Poissons Ratio (z) = 0.37988 0.95376
#
# Static dielectric constant tensor:
#      x y z
#    x 1.688110 0.000000 0.003600 
#    y 0.000000 1.698680 0.000000 
#    z 0.003600 0.000000 1.654740 
# 
# From -- ./inp_files/135261.got.cif
#   From: 2010.05.17/outbox.cif.g08.bks.cpg/sg12_68_cif.got.tgz:135261.got - 2010.06.03 13:09:07.
