data_PCOD9174930
_publ_section_title
;
Structure prediction by ZEFSAII (Michael W. Deem and Ramdas Pophale) SiO2 
 PCOD9174930
Probable space group: C 2/M
;
_chemical_formula_sum "Si O2"
_cell_formula_units_Z 64
_cell_length_a 20.881257
_cell_length_b 8.822037
_cell_length_c 24.930819
_cell_angle_alpha 90.000000
_cell_angle_beta 127.178153
_cell_angle_gamma 90.000000
_cell_volume 3659.230755
_symmetry_space_group_name_H-M "C 2/M"
_symmetry_group_IT_number 12
_symmetry_cell_setting 'monoclinic'
loop_
_space_group_symop_operation_xyz
x,y,z
-x,y,-z
-x,-y,-z
x,-y,z
1/2+x,1/2+y,z
1/2-x,1/2+y,-z
1/2-x,1/2-y,-z
1/2+x,1/2-y,z
loop_
_atom_site_type_symbol
_atom_site_label
_atom_site_fract_x
_atom_site_fract_y
_atom_site_fract_z
Si Si1 0.669641 0.819349 0.228689
Si Si2 0.076107 0.825257 0.497701
Si Si3 0.777988 0.183194 0.858883
Si Si4 0.406506 0.182750 0.211078
Si Si5 0.493281 0.682229 0.152253
Si Si6 0.034441 0.318238 0.642255
Si Si7 0.929322 0.815923 0.004545
Si Si8 0.182764 0.319596 0.637961
O O1 0.698388 0.757880 0.185390
O O2 0.582762 0.749298 0.196772
O O3 0.735822 0.763617 0.304778
O O4 0.665179 0.000000 0.225859
O O5 0.145660 0.732223 0.562569
O O6 0.000000 0.818487 0.500000
O O7 0.041085 0.757734 0.425148
O O8 0.099495 0.000000 0.503469
O O9 0.687485 0.221665 0.829769
O O10 0.781912 0.000000 0.853856
O O11 0.843693 0.228681 0.936608
O O12 0.445659 0.260353 0.179778
O O13 0.450900 0.225922 0.288956
O O14 0.411991 0.000000 0.208598
O O15 0.497887 0.500000 0.154394
O O16 0.449062 0.732382 0.074839
O O17 0.025456 0.500000 0.634805
O O18 0.114904 0.281245 0.648645
O O19 0.930854 0.000000 0.005266
O O20 0.000000 0.765218 0.000000
O O21 0.194376 0.500000 0.645115
#
# Coordination Sequence:
#
# PCOD9174930 Si02
#       8
#     8   8   8   8   8   8   8   8
#     4  12  23  35  55  84 114 144 185 238 285 329
#     4   9  17  28  45  77 115 146 179 229 279 318
#     4  10  19  37  61  83 109 149 189 227 280 338
#     4  10  21  37  56  82 116 150 187 232 280 330
#     4  11  23  39  58  81 110 149 191 230 281 343
#     4   9  17  31  52  77 108 150 188 221 271 333
#     4   9  17  33  60  84 107 142 189 233 276 335
#     4  10  18  32  54  80 109 146 188 229 274 332
#
# _framework density 17.490015
#
# number of rings (size 3 to 8) (size 9 to 14) (size 15 to 20)
#    0.000    2.000    2.500    2.250    0.000    3.500 
#    0.000    1.875    0.000    0.750    0.000    0.000 
#    0.000    0.000    0.000    0.000    0.000    0.000 
#
# Total GULP energy -178605.281879 kJ/mol
# GULP energy per Si atom -5581.415059 kJ/mol
# Density = 1.745021 g / cm^3
# Si number density = 17.490015 Si / 1000 Ang^3
#
#
#
# Elastic Constant Matrix: (Units=GPa)
#
#
# Indices 1 2 3 4 5 6 
#
# 1 109.3595 46.8227 79.5273 0.0000 -1.7877 0.0000
# 2 46.8227 52.2625 52.2375 0.0000 2.4941 0.0000
# 3 79.5273 52.2375 178.4365 0.0000 0.3920 0.0000
# 4 0.0000 0.0000 0.0000 13.8289 0.0000 -6.2876
# 5 -1.7877 2.4941 0.3920 0.0000 21.4725 0.0000
# 6 0.0000 0.0000 0.0000 -6.2876 0.0000 24.0586
#
#
#
# Elastic Compliance Matrix: (Units=1/GPa)
#
#
# Indices 1 2 3 4 5 6 
#
# 1 0.017136 -0.011091 -0.004396 0.000000 0.002795 0.000000
# 2 -0.011091 0.034422 -0.005123 0.000000 -0.004828 0.000000
# 3 -0.004396 -0.005123 0.009063 0.000000 0.000064 0.000000
# 4 0.000000 0.000000 0.000000 0.082063 0.000000 0.021447
# 5 0.002795 -0.004828 0.000064 0.000000 0.047363 0.000000
# 6 0.000000 0.000000 0.000000 0.021447 0.000000 0.047170
#
#
# Mechanical properties :
#
#
# Convention : Reuss Voigt Hill
#
# Bulk Modulus (GPa) = 51.54773 77.47038 64.50906
# Shear Modulus (GPa) = 17.54960 22.63674 20.09317
#
# Velocity S-wave (km/s) = 3.17110 3.60149 3.39313
# Velocity P-wave (km/s) = 6.55320 7.85395 7.23288
#
# Compressibility (1/GPa) = 0.01939950
#
# Stress axis : x y z
#
# Youngs Moduli (GPa) = 58.35776 29.05098 110.33443
#
# Poissons Ratio (x) = 0.32221 0.48507
# Poissons Ratio (y) = 0.64726 0.56527
# Poissons Ratio (z) = 0.25656 0.14884
#
# Static dielectric constant tensor:
#      x y z
#    x 1.561870 0.000000 0.002550 
#    y 0.000000 1.588830 0.000000 
#    z 0.002550 0.000000 1.598980 
# 
# From -- ./inp_files/346211.got.cif
#   From: 2010.05.17/outbox.cif.g08.bks.cpg/sg12_174_cif.got.tgz:346211.got - 2010.06.03 13:09:07.
