data_PCOD9174276
_publ_section_title
;
Structure prediction by ZEFSAII (Michael W. Deem and Ramdas Pophale) SiO2 
 PCOD9174276
Probable space group: C 2/M
;
_chemical_formula_sum "Si O2"
_cell_formula_units_Z 48
_cell_length_a 24.306830
_cell_length_b 14.649657
_cell_length_c 13.878197
_cell_angle_alpha 90.000000
_cell_angle_beta 147.758060
_cell_angle_gamma 90.000000
_cell_volume 2636.450492
_symmetry_space_group_name_H-M "C 2/M"
_symmetry_group_IT_number 12
_symmetry_cell_setting 'monoclinic'
loop_
_space_group_symop_operation_xyz
x,y,z
-x,y,-z
-x,-y,-z
x,-y,z
1/2+x,1/2+y,z
1/2-x,1/2+y,-z
1/2-x,1/2-y,-z
1/2+x,1/2-y,z
loop_
_atom_site_type_symbol
_atom_site_label
_atom_site_fract_x
_atom_site_fract_y
_atom_site_fract_z
Si Si1 0.607498 0.196788 0.719855
Si Si2 0.032905 0.500000 0.845468
Si Si3 0.068516 0.500000 0.697154
Si Si4 0.490717 0.308664 0.699661
Si Si5 0.277250 0.500000 0.179123
Si Si6 0.544696 0.803856 0.959827
Si Si7 0.540504 0.500000 0.674065
Si Si8 0.786486 0.195210 0.283859
O O1 0.500000 0.199498 0.500000
O O2 0.577490 0.251915 0.770192
O O3 0.692106 0.242566 0.777946
O O4 0.630463 0.093972 0.783382
O O5 0.990887 0.500000 0.674072
O O6 0.013526 0.404980 0.871919
O O7 0.154167 0.500000 0.997957
O O8 0.000000 0.500000 0.500000
O O9 0.504219 0.275791 0.828937
O O10 0.509056 0.411566 0.689280
O O11 0.375762 0.282114 0.492991
O O12 0.337735 0.500000 0.168535
O O13 0.306315 0.591740 0.278749
O O14 0.500000 0.794891 0.000000
O O15 0.669375 0.798820 0.145318
O O16 0.500000 0.500000 0.500000
#
# Coordination Sequence:
#
# PCOD9174276 Si02
#       8
#     8   4   4   8   4   8   4   8
#     4   9  17  30  53  86 116 145 171 222 291 356
#     4  10  21  38  59  83 113 155 192 241 287 333
#     4  10  18  31  53  86 124 146 169 218 297 368
#     4  11  20  35  62  86 117 151 183 240 294 334
#     4  10  18  31  58  90 118 142 185 229 284 356
#     4  11  25  41  58  81 113 159 208 240 272 328
#     4  12  18  34  61  93 120 145 182 229 298 366
#     4  10  20  36  58  88 118 145 191 237 289 350
#
# _framework density 18.206295999999998
#
# number of rings (size 3 to 8) (size 9 to 14) (size 15 to 20)
#    0.000    1.667    5.000    0.750    0.000    2.667 
#    0.000    0.417    0.000    0.000    0.000    0.000 
#    0.000    0.000    0.000    0.000    0.000    0.000 
#
# Total GULP energy -133805.872557 kJ/mol
# GULP energy per Si atom -5575.244690 kJ/mol
# Density = 1.816486 g / cm^3
# Si number density = 18.206296 Si / 1000 Ang^3
#
#
#
# Elastic Constant Matrix: (Units=GPa)
#
#
# Indices 1 2 3 4 5 6 
#
# 1 160.2182 68.5303 48.1153 0.0000 -16.1333 0.0000
# 2 68.5303 143.2935 29.8028 0.0000 -9.8050 0.0000
# 3 48.1153 29.8028 71.5696 0.0000 -5.8771 0.0000
# 4 0.0000 0.0000 0.0000 13.6951 0.0000 1.6411
# 5 -16.1333 -9.8050 -5.8771 0.0000 26.7492 0.0000
# 6 0.0000 0.0000 0.0000 1.6411 0.0000 16.8359
#
#
#
# Elastic Compliance Matrix: (Units=1/GPa)
#
#
# Indices 1 2 3 4 5 6 
#
# 1 0.009395 -0.003288 -0.004665 0.000000 0.003436 0.000000
# 2 -0.003288 0.008913 -0.001422 0.000000 0.000972 0.000000
# 3 -0.004665 -0.001422 0.017747 0.000000 0.000565 0.000000
# 4 0.000000 0.000000 0.000000 0.073882 0.000000 -0.007202
# 5 0.003436 0.000972 0.000565 0.000000 0.039937 0.000000
# 6 0.000000 0.000000 0.000000 -0.007202 0.000000 0.060099
#
#
# Mechanical properties :
#
#
# Convention : Reuss Voigt Hill
#
# Bulk Modulus (GPa) = 57.78079 74.21978 66.00028
# Shear Modulus (GPa) = 21.32297 26.69824 24.01060
#
# Velocity S-wave (km/s) = 3.42597 3.83355 3.63548
# Velocity P-wave (km/s) = 6.88878 7.77492 7.34522
#
# Compressibility (1/GPa) = 0.01730679
#
# Stress axis : x y z
#
# Youngs Moduli (GPa) = 106.44440 112.19339 56.34846
#
# Poissons Ratio (x) = 0.36886 0.26285
# Poissons Ratio (y) = 0.34995 0.08010
# Poissons Ratio (z) = 0.49652 0.15949
#
# Static dielectric constant tensor:
#      x y z
#    x 1.608620 0.000000 -0.050740 
#    y 0.000000 1.651360 0.000000 
#    z -0.050740 0.000000 1.751170 
# 
# From -- ./inp_files/233510.got.cif
#   From: 2010.05.17/outbox.cif.g08.bks.cpg/sg12_117_cif.got.tgz:233510.got - 2010.06.03 13:09:07.
