data_PCOD9174886
_publ_section_title
;
Structure prediction by ZEFSAII (Michael W. Deem and Ramdas Pophale) SiO2 
 PCOD9174886
Probable space group: C 2/M
;
_chemical_formula_sum "Si O2"
_cell_formula_units_Z 64
_cell_length_a 29.176725
_cell_length_b 7.667151
_cell_length_c 12.987647
_cell_angle_alpha 90.000000
_cell_angle_beta 89.492237
_cell_angle_gamma 90.000000
_cell_volume 2905.253147
_symmetry_space_group_name_H-M "C 2/M"
_symmetry_group_IT_number 12
_symmetry_cell_setting 'monoclinic'
loop_
_space_group_symop_operation_xyz
x,y,z
-x,y,-z
-x,-y,-z
x,-y,z
1/2+x,1/2+y,z
1/2-x,1/2+y,-z
1/2-x,1/2-y,-z
1/2+x,1/2-y,z
loop_
_atom_site_type_symbol
_atom_site_label
_atom_site_fract_x
_atom_site_fract_y
_atom_site_fract_z
Si Si1 0.730614 0.797112 0.613158
Si Si2 0.991278 0.800358 0.610118
Si Si3 0.103500 0.289371 0.452733
Si Si4 0.611846 0.793455 0.110458
Si Si5 0.507789 0.291204 0.169419
Si Si6 0.822570 0.289803 0.708766
Si Si7 0.869844 0.713629 0.325487
Si Si8 0.910311 0.709472 0.107944
O O1 0.750000 0.750000 0.500000
O O2 0.770451 0.766738 0.695801
O O3 0.681836 0.721621 0.650295
O O4 0.721180 0.000000 0.605094
O O5 0.936262 0.797111 0.612602
O O6 0.006451 0.719901 0.716924
O O7 0.000000 0.711886 0.500000
O O8 0.008085 0.000000 0.604741
O O9 0.098906 0.500000 0.446218
O O10 0.150870 0.241001 0.396956
O O11 0.101942 0.237640 0.572264
O O12 0.558345 0.774367 0.142147
O O13 0.647226 0.723840 0.195399
O O14 0.621016 0.000000 0.105594
O O15 0.614629 0.722309 0.994127
O O16 0.511370 0.500000 0.176264
O O17 0.464566 0.248761 0.099347
O O18 0.822649 0.500000 0.712573
O O19 0.870455 0.500000 0.322274
O O20 0.890081 0.775972 0.216586
O O21 0.905746 0.500000 0.108599
#
# Coordination Sequence:
#
# PCOD9174886 Si02
#       8
#     8   8   8   8   8   8   8   8
#     4  11  21  36  59  86 115 145 180 222 273 330
#     4  10  21  34  47  72 111 146 177 217 270 328
#     4  10  18  32  54  76 105 140 176 222 267 315
#     4  10  21  38  59  80 107 146 189 230 265 317
#     4  11  22  35  54  81 113 145 181 229 278 323
#     4  10  20  36  56  82 112 138 178 227 272 319
#     4   9  19  36  56  81 110 140 179 226 272 323
#     4  10  21  38  59  79 104 145 191 227 268 320
#
# _framework density 22.029062
#
# number of rings (size 3 to 8) (size 9 to 14) (size 15 to 20)
#    0.000    1.875    2.500    1.875    0.000    3.750 
#    0.000    1.875    0.000    0.000    0.000    0.000 
#    0.000    0.000    0.000    0.000    0.000    0.000 
#
# Total GULP energy -178641.734201 kJ/mol
# GULP energy per Si atom -5582.554194 kJ/mol
# Density = 2.197892 g / cm^3
# Si number density = 22.029062 Si / 1000 Ang^3
#
#
#
# Elastic Constant Matrix: (Units=GPa)
#
#
# Indices 1 2 3 4 5 6 
#
# 1 91.3881 -4.5608 34.7640 0.0000 10.5145 0.0000
# 2 -4.5608 40.7030 6.0067 0.0000 -0.1829 0.0000
# 3 34.7640 6.0067 143.8772 0.0000 15.0156 0.0000
# 4 0.0000 0.0000 0.0000 8.3100 0.0000 3.5907
# 5 10.5145 -0.1829 15.0156 0.0000 27.6214 0.0000
# 6 0.0000 0.0000 0.0000 3.5907 0.0000 22.5730
#
#
#
# Elastic Compliance Matrix: (Units=1/GPa)
#
#
# Indices 1 2 3 4 5 6 
#
# 1 0.012448 0.001785 -0.002745 0.000000 -0.003235 0.000000
# 2 0.001785 0.024992 -0.001507 0.000000 0.000305 0.000000
# 3 -0.002745 -0.001507 0.008024 0.000000 -0.003327 0.000000
# 4 0.000000 0.000000 0.000000 0.129218 0.000000 -0.020555
# 5 -0.003235 0.000305 -0.003327 0.000000 0.039246 0.000000
# 6 0.000000 0.000000 0.000000 -0.020555 0.000000 0.047570
#
#
# Mechanical properties :
#
#
# Convention : Reuss Voigt Hill
#
# Bulk Modulus (GPa) = 24.67220 38.70979 31.69099
# Shear Modulus (GPa) = 17.86100 27.68479 22.77289
#
# Velocity S-wave (km/s) = 2.85053 3.54890 3.21871
# Velocity P-wave (km/s) = 4.69661 5.86542 5.31326
#
# Compressibility (1/GPa) = 0.04053145
#
# Stress axis : x y z
#
# Youngs Moduli (GPa) = 80.33663 40.01285 124.63151
#
# Poissons Ratio (x) = -0.07143 0.34206
# Poissons Ratio (y) = -0.14342 0.18777
# Poissons Ratio (z) = 0.22049 0.06028
#
# Static dielectric constant tensor:
#      x y z
#    x 1.847060 0.000000 -0.039830 
#    y 0.000000 1.821610 0.000000 
#    z -0.039830 0.000000 1.871860 
# 
# From -- ./inp_files/187530.got.cif
#   From: 2010.05.17/outbox.cif.g08.bks.cpg/sg12_94_cif.got.tgz:187530.got - 2010.06.03 13:09:07.
