data_PCOD9174817
_publ_section_title
;
Structure prediction by ZEFSAII (Michael W. Deem and Ramdas Pophale) SiO2 
 PCOD9174817
Probable space group: C 2/M
;
_chemical_formula_sum "Si O2"
_cell_formula_units_Z 60
_cell_length_a 24.147658
_cell_length_b 28.658221
_cell_length_c 11.409038
_cell_angle_alpha 90.000000
_cell_angle_beta 24.685157
_cell_angle_gamma 90.000000
_cell_volume 3297.362761
_symmetry_space_group_name_H-M "C 2/M"
_symmetry_group_IT_number 12
_symmetry_cell_setting 'monoclinic'
loop_
_space_group_symop_operation_xyz
x,y,z
-x,y,-z
-x,-y,-z
x,-y,z
1/2+x,1/2+y,z
1/2-x,1/2+y,-z
1/2-x,1/2-y,-z
1/2+x,1/2-y,z
loop_
_atom_site_type_symbol
_atom_site_label
_atom_site_fract_x
_atom_site_fract_y
_atom_site_fract_z
Si Si1 0.848806 0.056005 0.007516
Si Si2 0.080304 0.394016 0.596598
Si Si3 0.615430 0.299002 0.682358
Si Si4 0.500000 0.083682 0.500000
Si Si5 0.718335 0.552446 0.112243
Si Si6 0.814216 0.556316 0.177802
Si Si7 0.381369 0.803818 0.321542
Si Si8 0.927862 0.899970 0.264487
O O1 0.716505 0.077035 0.321437
O O2 0.838399 0.000000 0.024730
O O3 0.856656 0.072948 0.856192
O O4 0.975933 0.071787 0.835060
O O5 0.029872 0.387528 0.559782
O O6 0.107171 0.345814 0.610037
O O7 0.961252 0.422134 0.889929
O O8 0.620142 0.247726 0.616489
O O9 0.749053 0.306963 0.498715
O O10 0.589407 0.346223 0.661420
O O11 0.500000 0.295456 0.000000
O O12 0.370988 0.052723 0.773365
O O13 0.667437 0.500000 0.227062
O O14 0.737519 0.572264 0.205314
O O15 0.821913 0.500000 0.164223
O O16 0.716665 0.575995 0.464526
O O17 0.500000 0.807010 0.000000
O O18 0.000000 0.899186 0.000000
#
# Coordination Sequence:
#
# PCOD9174817 Si02
#       8
#     8   8   8   4   8   8   8   8
#     4  10  20  33  51  73 100 135 170 201 236 287
#     4  10  18  32  53  77 103 128 162 205 247 292
#     4   9  19  35  53  73  94 123 166 210 250 285
#     4   8  15  26  46  74 102 130 154 192 251 298
#     4   8  15  29  48  70  94 126 171 210 234 268
#     4  10  20  33  51  74 102 134 166 202 243 289
#     4  10  19  33  55  78  95 120 164 212 249 287
#     4  11  22  36  50  69 100 135 166 201 249 299
#
# _framework density 18.196359999999999
#
# number of rings (size 3 to 8) (size 9 to 14) (size 15 to 20)
#    0.000    2.400    0.000    3.400    0.000    4.800 
#    0.000    2.000    0.000    4.800    0.000   14.000 
#    0.000    0.000    0.000    0.000    0.000    0.000 
#
# Total GULP energy -167143.000385 kJ/mol
# GULP energy per Si atom -5571.433346 kJ/mol
# Density = 1.815494 g / cm^3
# Si number density = 18.196360 Si / 1000 Ang^3
#
#
#
# Elastic Constant Matrix: (Units=GPa)
#
#
# Indices 1 2 3 4 5 6 
#
# 1 28.7355 35.3208 14.3630 0.0100 -6.6275 0.0139
# 2 35.3208 132.1044 33.6376 0.0083 0.5843 0.0102
# 3 14.3630 33.6376 107.3583 0.0274 -10.7747 0.0266
# 4 0.0100 0.0083 0.0274 -30.3048 -0.0188 -51.1152
# 5 -6.6275 0.5843 -10.7747 -0.0188 21.3735 -0.0187
# 6 0.0139 0.0102 0.0266 -51.1152 -0.0187 -19.5091
#
#
#
# Elastic Compliance Matrix: (Units=1/GPa)
#
#
# Indices 1 2 3 4 5 6 
#
# 1 0.058481 -0.015412 -0.001193 0.000006 0.017954 -0.000002
# 2 -0.015412 0.012340 -0.002442 -0.000001 -0.006347 0.000001
# 3 -0.001193 -0.002442 0.010753 0.000002 0.005117 0.000002
# 4 0.000006 -0.000001 0.000002 0.009651 -0.000010 -0.025285
# 5 0.017954 -0.006347 0.005117 -0.000010 0.055107 -0.000009
# 6 -0.000002 0.000001 0.000002 -0.025285 -0.000009 0.014991
#
#
# Mechanical properties :
#
#
# Convention : Reuss Voigt Hill
#
# Bulk Modulus (GPa) = 22.99859 48.31567 35.65713
# Shear Modulus (GPa) = 23.37441 6.63705 15.00573
#
# Velocity S-wave (km/s) = 3.58797 1.91190 2.87480
# Velocity P-wave (km/s) = 5.46180 5.61105 5.53693
#
# Compressibility (1/GPa) = 0.04348092
#
# Stress axis : x y z
#
# Youngs Moduli (GPa) = 17.09964 81.03631 92.99872
#
# Poissons Ratio (x) = 1.24890 0.11097
# Poissons Ratio (y) = 0.26353 0.22706
# Poissons Ratio (z) = 0.02040 0.19786
#
# Static dielectric constant tensor:
#      x y z
#    x 1.651980 0.000000 0.012790 
#    y 0.000000 1.633390 0.000000 
#    z 0.012790 0.000000 1.653220 
# 
# From -- ./inp_files/185234.got.cif
#   From: 2010.05.17/outbox.cif.g08.bks.cpg/sg12_93_cif.got.tgz:185234.got - 2010.06.03 13:09:07.
