data_PCOD9174015
_publ_section_title
;
Structure prediction by ZEFSAII (Michael W. Deem and Ramdas Pophale) SiO2 
 PCOD9174015
Probable space group: C 2/M
;
_chemical_formula_sum "Si O2"
_cell_formula_units_Z 64
_cell_length_a 14.851863
_cell_length_b 7.615475
_cell_length_c 31.593999
_cell_angle_alpha 90.000000
_cell_angle_beta 124.093946
_cell_angle_gamma 90.000000
_cell_volume 2959.208586
_symmetry_space_group_name_H-M "C 2/M"
_symmetry_group_IT_number 12
_symmetry_cell_setting 'monoclinic'
loop_
_space_group_symop_operation_xyz
x,y,z
-x,y,-z
-x,-y,-z
x,-y,z
1/2+x,1/2+y,z
1/2-x,1/2+y,-z
1/2-x,1/2-y,-z
1/2+x,1/2-y,z
loop_
_atom_site_type_symbol
_atom_site_label
_atom_site_fract_x
_atom_site_fract_y
_atom_site_fract_z
Si Si1 0.236280 0.295594 0.360610
Si Si2 0.440186 0.210857 0.875028
Si Si3 0.010102 0.203357 0.719627
Si Si4 0.869225 0.289673 0.013626
Si Si5 0.051813 0.790465 0.823395
Si Si6 0.785744 0.285542 0.904600
Si Si7 0.687793 0.291189 0.440601
Si Si8 0.942152 0.784671 0.360335
O O1 0.223933 0.500000 0.346228
O O2 0.120687 0.208500 0.319530
O O3 0.246485 0.281531 0.414095
O O4 0.340676 0.227298 0.362315
O O5 0.539855 0.279463 0.930434
O O6 0.454480 0.260245 0.830288
O O7 0.333182 0.266567 0.871823
O O8 0.443228 0.000000 0.876926
O O9 0.038746 0.282167 0.772772
O O10 0.060585 0.276094 0.689426
O O11 0.044710 0.000000 0.729695
O O12 0.885508 0.500000 0.016120
O O13 0.750000 0.250000 0.000000
O O14 0.862134 0.225934 0.963269
O O15 0.161990 0.723533 0.874701
O O16 0.062898 0.000000 0.822537
O O17 0.785872 0.500000 0.906894
O O18 0.684787 0.500000 0.434211
O O19 0.750000 0.250000 0.500000
O O20 0.561782 0.229942 0.408333
O O21 0.941475 0.000000 0.360427
#
# Coordination Sequence:
#
# PCOD9174015 Si02
#       8
#     8   8   8   8   8   8   8   8
#     4  10  19  34  57  82 104 136 181 223 260 301
#     4  10  20  33  52  76 100 128 166 212 254 300
#     4   9  19  36  54  74 102 137 173 213 262 312
#     4  10  18  31  52  74  98 129 165 205 251 304
#     4  10  20  35  54  74 101 135 169 208 258 315
#     4   9  18  33  52  73  99 133 169 202 249 315
#     4  10  20  36  55  80 115 149 179 215 257 304
#     4   8  17  34  55  76 103 140 179 213 252 308
#
# _framework density 21.627403999999999
#
# number of rings (size 3 to 8) (size 9 to 14) (size 15 to 20)
#    0.000    2.500    1.250    1.875    0.000    3.500 
#    0.000   12.500    0.000    1.500    0.000    0.000 
#    0.000    0.000    0.000    0.000    0.000    0.000 
#
# Total GULP energy -178528.127289 kJ/mol
# GULP energy per Si atom -5579.003978 kJ/mol
# Density = 2.157818 g / cm^3
# Si number density = 21.627404 Si / 1000 Ang^3
#
#
#
# Elastic Constant Matrix: (Units=GPa)
#
#
# Indices 1 2 3 4 5 6 
#
# 1 125.7231 -7.7349 25.9007 0.0000 -30.6356 0.0000
# 2 -7.7349 45.0920 -6.1040 0.0000 0.9284 0.0000
# 3 25.9007 -6.1040 92.5752 0.0000 -29.5673 0.0000
# 4 0.0000 0.0000 0.0000 11.0840 0.0000 -2.7489
# 5 -30.6356 0.9284 -29.5673 0.0000 21.1426 0.0000
# 6 0.0000 0.0000 0.0000 -2.7489 0.0000 19.3959
#
#
#
# Elastic Compliance Matrix: (Units=1/GPa)
#
#
# Indices 1 2 3 4 5 6 
#
# 1 0.013459 0.002408 0.004677 0.000000 0.025937 0.000000
# 2 0.002408 0.022852 0.002940 0.000000 0.006597 0.000000
# 3 0.004677 0.002940 0.021344 0.000000 0.036497 0.000000
# 4 0.000000 0.000000 0.000000 0.093507 0.000000 0.013252
# 5 0.025937 0.006597 0.036497 0.000000 0.135631 0.000000
# 6 0.000000 0.000000 0.000000 0.013252 0.000000 0.053436
#
#
# Mechanical properties :
#
#
# Convention : Reuss Voigt Hill
#
# Bulk Modulus (GPa) = 12.86916 31.94597 22.40756
# Shear Modulus (GPa) = 14.44755 27.07974 20.76365
#
# Velocity S-wave (km/s) = 2.58741 3.54235 3.10185
# Velocity P-wave (km/s) = 3.85870 5.61552 4.81787
#
# Compressibility (1/GPa) = 0.07770515
#
# Stress axis : x y z
#
# Youngs Moduli (GPa) = 74.30110 43.75971 46.85151
#
# Poissons Ratio (x) = -0.10536 -0.21913
# Poissons Ratio (y) = -0.17890 -0.13775
# Poissons Ratio (z) = -0.34752 -0.12866
#
# Static dielectric constant tensor:
#      x y z
#    x 1.780610 0.000000 -0.015350 
#    y 0.000000 1.849300 0.000000 
#    z -0.015350 0.000000 1.788880 
# 
# From -- ./inp_files/375035.got.cif
#   From: 2010.05.17/outbox.cif.g08.bks.cpg/sg12_188_cif.got.tgz:375035.got - 2010.06.03 13:09:07.
