data_PCOD9174595
_publ_section_title
;
Structure prediction by ZEFSAII (Michael W. Deem and Ramdas Pophale) SiO2 
 PCOD9174595
Probable space group: C 2/M
;
_chemical_formula_sum "Si O2"
_cell_formula_units_Z 44
_cell_length_a 15.141809
_cell_length_b 19.970939
_cell_length_c 8.601878
_cell_angle_alpha 90.000000
_cell_angle_beta 89.391694
_cell_angle_gamma 90.000000
_cell_volume 2601.028137
_symmetry_space_group_name_H-M "C 2/M"
_symmetry_group_IT_number 12
_symmetry_cell_setting 'monoclinic'
loop_
_space_group_symop_operation_xyz
x,y,z
-x,y,-z
-x,-y,-z
x,-y,z
1/2+x,1/2+y,z
1/2-x,1/2+y,-z
1/2-x,1/2-y,-z
1/2+x,1/2-y,z
loop_
_atom_site_type_symbol
_atom_site_label
_atom_site_fract_x
_atom_site_fract_y
_atom_site_fract_z
Si Si1 0.440640 0.304052 0.344200
Si Si2 0.256405 0.819378 0.592151
Si Si3 0.673386 0.796167 0.070186
Si Si4 0.500000 0.711445 0.000000
Si Si5 0.902357 0.423710 0.073755
Si Si6 0.585280 0.855459 0.603624
O O1 0.500000 0.315808 0.500000
O O2 0.344807 0.338393 0.370685
O O3 0.478436 0.322501 0.170579
O O4 0.424381 0.222817 0.341501
O O5 0.250000 0.750000 0.500000
O O6 0.307654 0.804949 0.749726
O O7 0.322605 0.863792 0.489546
O O8 0.750000 0.750000 0.000000
O O9 0.583364 0.757562 0.037744
O O10 0.664012 0.869368 0.996441
O O11 0.873864 0.500000 0.050676
O O12 0.913278 0.404251 0.251917
O O13 0.000000 0.415576 0.000000
O O14 0.500000 0.868232 0.500000
#
# Coordination Sequence:
#
# PCOD9174595 Si02
#       6
#     8   8   8   4   8   8
#     4  10  19  31  49  76 114 144 183 242 286 343
#     4  10  19  32  49  77 106 147 190 239 284 340
#     4  12  20  34  57  82 117 152 195 236 287 349
#     4  12  18  32  53  82 113 152 184 230 304 336
#     4  11  22  36  53  81 120 158 194 233 288 358
#     4  10  18  32  50  70 106 152 190 227 275 335
#
# _framework density 16.916388000000001
#
# number of rings (size 3 to 8) (size 9 to 14) (size 15 to 20)
#    0.000    1.273    4.545    5.455    0.000    0.364 
#    0.000    0.909    0.000    0.000    0.000    0.636 
#    0.000    2.909    0.000    0.000    0.000    0.000 
#
# Total GULP energy -122607.295440 kJ/mol
# GULP energy per Si atom -5573.058884 kJ/mol
# Density = 1.687789 g / cm^3
# Si number density = 16.916388 Si / 1000 Ang^3
#
#
#
# Elastic Constant Matrix: (Units=GPa)
#
#
# Indices 1 2 3 4 5 6 
#
# 1 126.3786 33.6139 59.0294 0.0000 -7.1673 0.0000
# 2 33.6139 63.8958 30.0599 0.0000 -3.5690 0.0000
# 3 59.0294 30.0599 149.2796 0.0000 -7.7089 0.0000
# 4 0.0000 0.0000 0.0000 7.2972 0.0000 2.0165
# 5 -7.1673 -3.5690 -7.7089 0.0000 36.8190 0.0000
# 6 0.0000 0.0000 0.0000 2.0165 0.0000 13.9751
#
#
#
# Elastic Compliance Matrix: (Units=1/GPa)
#
#
# Indices 1 2 3 4 5 6 
#
# 1 0.010575 -0.003938 -0.003338 0.000000 0.000978 0.000000
# 2 -0.003938 0.018788 -0.002195 0.000000 0.000595 0.000000
# 3 -0.003338 -0.002195 0.008508 0.000000 0.000919 0.000000
# 4 0.000000 0.000000 0.000000 0.142730 0.000000 -0.020594
# 5 0.000978 0.000595 0.000919 0.000000 0.027600 0.000000
# 6 0.000000 0.000000 0.000000 -0.020594 0.000000 0.074527
#
#
# Mechanical properties :
#
#
# Convention : Reuss Voigt Hill
#
# Bulk Modulus (GPa) = 52.83091 64.99559 58.91325
# Shear Modulus (GPa) = 16.23473 26.07497 21.15485
#
# Velocity S-wave (km/s) = 3.10127 3.93033 3.54015
# Velocity P-wave (km/s) = 6.64246 7.68777 7.18415
#
# Compressibility (1/GPa) = 0.01892831
#
# Stress axis : x y z
#
# Youngs Moduli (GPa) = 94.56442 53.22473 117.53191
#
# Poissons Ratio (x) = 0.20960 0.39233
# Poissons Ratio (y) = 0.37240 0.25802
# Poissons Ratio (z) = 0.31566 0.11685
#
# Static dielectric constant tensor:
#      x y z
#    x 1.617050 0.000000 -0.048600 
#    y 0.000000 1.538300 0.000000 
#    z -0.048600 0.000000 1.620560 
# 
# From -- ./inp_files/61069.got.cif
#   From: 2010.05.17/outbox.cif.g08.bks.cpg/sg12_31_cif.got.tgz:61069.got - 2010.06.03 13:09:07.
