data_PCOD9174732
_publ_section_title
;
Structure prediction by ZEFSAII (Michael W. Deem and Ramdas Pophale) SiO2 
 PCOD9174732
Probable space group: C 2/M
;
_chemical_formula_sum "Si O2"
_cell_formula_units_Z 56
_cell_length_a 34.425270
_cell_length_b 8.743360
_cell_length_c 12.918277
_cell_angle_alpha 90.000000
_cell_angle_beta 59.614508
_cell_angle_gamma 90.000000
_cell_volume 3354.214209
_symmetry_space_group_name_H-M "C 2/M"
_symmetry_group_IT_number 12
_symmetry_cell_setting 'monoclinic'
loop_
_space_group_symop_operation_xyz
x,y,z
-x,y,-z
-x,-y,-z
x,-y,z
1/2+x,1/2+y,z
1/2-x,1/2+y,-z
1/2-x,1/2-y,-z
1/2+x,1/2-y,z
loop_
_atom_site_type_symbol
_atom_site_label
_atom_site_fract_x
_atom_site_fract_y
_atom_site_fract_z
Si Si1 0.549222 0.815224 0.888628
Si Si2 0.609798 0.184652 0.387092
Si Si3 0.302502 0.682643 0.819696
Si Si4 0.800591 0.682571 0.051739
Si Si5 0.544406 0.186119 0.657218
Si Si6 0.058004 0.315284 0.245301
Si Si7 0.112298 0.181805 0.977163
O O1 0.552213 0.766336 0.765045
O O2 0.552403 0.000000 0.888820
O O3 0.500000 0.773679 0.000000
O O4 0.587331 0.745097 0.909751
O O5 0.658849 0.256531 0.307380
O O6 0.582186 0.236098 0.525057
O O7 0.581094 0.224280 0.322957
O O8 0.613771 0.000000 0.384212
O O9 0.305717 0.500000 0.826672
O O10 0.251491 0.720166 0.854287
O O11 0.309419 0.758138 0.923172
O O12 0.806047 0.500000 0.045435
O O13 0.837046 0.757338 0.077361
O O14 0.494257 0.231494 0.689295
O O15 0.544674 0.000000 0.655889
O O16 0.059932 0.500000 0.231548
O O17 0.084757 0.243329 0.113783
O O18 0.111927 0.000000 0.977869
#
# Coordination Sequence:
#
# PCOD9174732 Si02
#       7
#     8   8   8   8   8   8   8
#     4  10  19  35  57  76 101 140 185 223 255 303
#     4  10  19  31  53  80 109 143 175 212 257 313
#     4  10  20  33  52  79 109 136 168 214 264 315
#     4  10  20  35  54  76 103 139 177 212 259 315
#     4   9  18  33  53  78 104 140 187 219 247 303
#     4  10  18  32  52  76 107 143 179 210 253 310
#     4  12  23  33  51  79 111 137 171 221 271 311
#
# _framework density 16.695416000000002
#
# number of rings (size 3 to 8) (size 9 to 14) (size 15 to 20)
#    0.000    1.857    2.857    2.571    0.000    3.714 
#    0.000    1.429    0.000    2.571    0.000    0.000 
#    0.000    0.000    0.000    0.000    0.000    0.000 
#
# Total GULP energy -156317.405950 kJ/mol
# GULP energy per Si atom -5582.764498 kJ/mol
# Density = 1.665742 g / cm^3
# Si number density = 16.695416 Si / 1000 Ang^3
#
#
#
# Elastic Constant Matrix: (Units=GPa)
#
#
# Indices 1 2 3 4 5 6 
#
# 1 142.2301 40.2010 74.7601 0.0000 -11.3198 0.0000
# 2 40.2010 29.5477 32.3826 0.0000 -3.3672 0.0000
# 3 74.7601 32.3826 128.5254 0.0000 -9.1915 0.0000
# 4 0.0000 0.0000 0.0000 14.2273 0.0000 -4.7261
# 5 -11.3198 -3.3672 -9.1915 0.0000 21.6646 0.0000
# 6 0.0000 0.0000 0.0000 -4.7261 0.0000 23.2645
#
#
#
# Elastic Compliance Matrix: (Units=1/GPa)
#
#
# Indices 1 2 3 4 5 6 
#
# 1 0.013115 -0.012949 -0.004146 0.000000 0.003081 0.000000
# 2 -0.012949 0.059654 -0.007548 0.000000 -0.000696 0.000000
# 3 -0.004146 -0.007548 0.012226 0.000000 0.001848 0.000000
# 4 0.000000 0.000000 0.000000 0.075374 0.000000 0.015312
# 5 0.003081 -0.000696 0.001848 0.000000 0.048444 0.000000
# 6 0.000000 0.000000 0.000000 0.015312 0.000000 0.046094
#
#
# Mechanical properties :
#
#
# Convention : Reuss Voigt Hill
#
# Bulk Modulus (GPa) = 28.00362 66.11006 47.05684
# Shear Modulus (GPa) = 15.81798 22.02859 18.92329
#
# Velocity S-wave (km/s) = 3.08140 3.63635 3.37032
# Velocity P-wave (km/s) = 5.42860 7.57063 6.58726
#
# Compressibility (1/GPa) = 0.03570967
#
# Stress axis : x y z
#
# Youngs Moduli (GPa) = 76.24656 16.76334 81.79318
#
# Poissons Ratio (x) = 0.21707 0.33911
# Poissons Ratio (y) = 0.98733 0.61735
# Poissons Ratio (z) = 0.31611 0.12652
#
# Static dielectric constant tensor:
#      x y z
#    x 1.560250 0.000000 -0.011460 
#    y 0.000000 1.560370 0.000000 
#    z -0.011460 0.000000 1.543700 
# 
# From -- ./inp_files/186465.got.cif
#   From: 2010.05.17/outbox.cif.g08.bks.cpg/sg12_94_cif.got.tgz:186465.got - 2010.06.03 13:09:07.
