data_PCOD9174509
_publ_section_title
;
Structure prediction by ZEFSAII (Michael W. Deem and Ramdas Pophale) SiO2 
 PCOD9174509
Probable space group: C 2/M
;
_chemical_formula_sum "Si O2"
_cell_formula_units_Z 48
_cell_length_a 17.616470
_cell_length_b 13.279890
_cell_length_c 11.211902
_cell_angle_alpha 90.000000
_cell_angle_beta 124.104912
_cell_angle_gamma 90.000000
_cell_volume 2171.848017
_symmetry_space_group_name_H-M "C 2/M"
_symmetry_group_IT_number 12
_symmetry_cell_setting 'monoclinic'
loop_
_space_group_symop_operation_xyz
x,y,z
-x,y,-z
-x,-y,-z
x,-y,z
1/2+x,1/2+y,z
1/2-x,1/2+y,-z
1/2-x,1/2-y,-z
1/2+x,1/2-y,z
loop_
_atom_site_type_symbol
_atom_site_label
_atom_site_fract_x
_atom_site_fract_y
_atom_site_fract_z
Si Si1 0.537693 0.311608 0.916131
Si Si2 0.153069 0.112954 0.805205
Si Si3 0.148375 0.381752 0.105645
Si Si4 0.472489 0.000000 0.673314
Si Si5 0.612357 0.206507 0.593725
Si Si6 0.618902 0.802894 0.327591
Si Si7 0.356493 0.000000 0.322230
O O1 0.610360 0.364790 0.896199
O O2 0.445980 0.289392 0.761344
O O3 0.500000 0.366369 0.000000
O O4 0.579809 0.203681 0.996238
O O5 0.262696 0.118869 0.899256
O O6 0.119519 0.196222 0.681984
O O7 0.127236 0.000000 0.744487
O O8 0.117881 0.500000 0.086607
O O9 0.176355 0.338467 0.262660
O O10 0.446045 0.099638 0.717060
O O11 0.411647 0.000000 0.498288
O O12 0.577068 0.000000 0.731691
O O13 0.500000 0.181933 0.500000
O O14 0.648679 0.216553 0.489850
O O15 0.675418 0.115497 0.702869
#
# Coordination Sequence:
#
# PCOD9174509 Si02
#       7
#     8   8   8   4   8   8   4
#     4  10  21  37  61  86 107 147 200 251 289 335
#     4  11  24  41  57  81 121 163 199 232 283 351
#     4  10  22  37  58  86 122 157 185 237 299 354
#     4   9  12  22  45  76 116 130 156 214 278 340
#     4  11  18  34  58  88 115 151 190 240 295 337
#     4  10  18  31  57  89 114 141 187 235 293 346
#     4   9  14  26  50  86 110 138 166 234 295 328
#
# _framework density 22.100995000000001
#
# number of rings (size 3 to 8) (size 9 to 14) (size 15 to 20)
#    0.000    1.833    5.833    0.500    1.167    2.333 
#    1.500    0.000    1.833    0.000    0.000    0.000 
#    0.000    0.000    0.000    0.000    0.000    0.000 
#
# Total GULP energy -133620.178214 kJ/mol
# GULP energy per Si atom -5567.507426 kJ/mol
# Density = 2.205069 g / cm^3
# Si number density = 22.100995 Si / 1000 Ang^3
#
#
#
# Elastic Constant Matrix: (Units=GPa)
#
#
# Indices 1 2 3 4 5 6 
#
# 1 98.1843 17.9701 19.8189 0.0000 -39.4286 0.0000
# 2 17.9701 115.8172 36.3325 0.0000 -12.6094 0.0000
# 3 19.8189 36.3325 46.3610 0.0000 -22.9091 0.0000
# 4 0.0000 0.0000 0.0000 20.2584 0.0000 -1.0093
# 5 -39.4286 -12.6094 -22.9091 0.0000 31.3015 0.0000
# 6 0.0000 0.0000 0.0000 -1.0093 0.0000 20.0009
#
#
#
# Elastic Compliance Matrix: (Units=1/GPa)
#
#
# Indices 1 2 3 4 5 6 
#
# 1 0.022468 -0.002711 0.009344 0.000000 0.034049 0.000000
# 2 -0.002711 0.011966 -0.011787 0.000000 -0.007221 0.000000
# 3 0.009344 -0.011787 0.047440 0.000000 0.041743 0.000000
# 4 0.000000 0.000000 0.000000 0.049487 0.000000 0.002497
# 5 0.034049 -0.007221 0.041743 0.000000 0.102479 0.000000
# 6 0.000000 0.000000 0.000000 0.002497 0.000000 0.050124
#
#
# Mechanical properties :
#
#
# Convention : Reuss Voigt Hill
#
# Bulk Modulus (GPa) = 13.97285 45.40062 29.68673
# Shear Modulus (GPa) = 15.71704 26.72824 21.22264
#
# Velocity S-wave (km/s) = 2.66963 3.48137 3.10216
# Velocity P-wave (km/s) = 3.97977 6.06192 5.12764
#
# Compressibility (1/GPa) = 0.07156737
#
# Stress axis : x y z
#
# Youngs Moduli (GPa) = 44.50758 83.56680 21.07937
#
# Poissons Ratio (x) = 0.22651 -0.19697
# Poissons Ratio (y) = 0.12064 0.24847
# Poissons Ratio (z) = -0.41590 0.98503
#
# Static dielectric constant tensor:
#      x y z
#    x 1.842800 0.000000 -0.000450 
#    y 0.000000 1.867700 0.000000 
#    z -0.000450 0.000000 1.884250 
# 
# From -- ./inp_files/154331.got.cif
#   From: 2010.05.17/outbox.cif.g08.bks.cpg/sg12_78_cif.got.tgz:154331.got - 2010.06.03 13:09:07.
