data_PCOD9174763
_publ_section_title
;
Structure prediction by ZEFSAII (Michael W. Deem and Ramdas Pophale) SiO2 
 PCOD9174763
Probable space group: C 2/M
;
_chemical_formula_sum "Si O2"
_cell_formula_units_Z 44
_cell_length_a 18.978517
_cell_length_b 26.872054
_cell_length_c 5.256029
_cell_angle_alpha 90.000000
_cell_angle_beta 114.882692
_cell_angle_gamma 90.000000
_cell_volume 2431.700727
_symmetry_space_group_name_H-M "C 2/M"
_symmetry_group_IT_number 12
_symmetry_cell_setting 'monoclinic'
loop_
_space_group_symop_operation_xyz
x,y,z
-x,y,-z
-x,-y,-z
x,-y,z
1/2+x,1/2+y,z
1/2-x,1/2+y,-z
1/2-x,1/2-y,-z
1/2+x,1/2-y,z
loop_
_atom_site_type_symbol
_atom_site_label
_atom_site_fract_x
_atom_site_fract_y
_atom_site_fract_z
Si Si1 0.881843 0.843595 0.803262
Si Si2 0.414789 0.593319 0.353926
Si Si3 0.745485 0.056944 0.128557
Si Si4 0.459500 0.841078 0.688873
Si Si5 0.500000 0.743352 0.000000
Si Si6 0.212592 0.620849 0.575566
O O1 0.907892 0.865500 0.569200
O O2 0.788283 0.843631 0.669219
O O3 0.906675 0.881008 0.066321
O O4 0.926251 0.792362 0.923731
O O5 0.500000 0.569797 0.500000
O O6 0.339696 0.559141 0.276586
O O7 0.720109 0.089040 0.845601
O O8 0.719722 0.000000 0.073195
O O9 0.717174 0.083922 0.341505
O O10 0.500000 0.861308 0.500000
O O11 0.479636 0.782430 0.747123
O O12 0.368195 0.850185 0.550000
O O13 0.500000 0.863974 0.000000
#
# Coordination Sequence:
#
# PCOD9174763 Si02
#       6
#     8   8   8   8   4   8
#     4  10  20  32  56  80 116 152 187 217 267 324
#     4  10  18  32  52  81 116 153 178 222 271 318
#     4  10  21  36  60  85 108 146 189 227 276 338
#     4  10  23  38  58  83 110 150 181 238 285 321
#     4  10  22  34  58  84 114 148 194 224 258 328
#     4  10  21  40  58  82 115 150 178 229 289 329
#
# _framework density 18.094331
#
# number of rings (size 3 to 8) (size 9 to 14) (size 15 to 20)
#    0.545    1.455    1.818    1.636    2.545    1.091 
#    0.000    0.909    0.000   17.455    0.000    0.000 
#    0.000    0.000    0.000    0.000    0.000    0.000 
#
# Total GULP energy -122594.872946 kJ/mol
# GULP energy per Si atom -5572.494225 kJ/mol
# Density = 1.805315 g / cm^3
# Si number density = 18.094331 Si / 1000 Ang^3
#
#
#
# Elastic Constant Matrix: (Units=GPa)
#
#
# Indices 1 2 3 4 5 6 
#
# 1 76.8406 15.1384 56.0771 0.0000 16.7997 0.0000
# 2 15.1384 47.6645 36.5156 0.0000 5.5105 0.0000
# 3 56.0771 36.5156 106.2020 0.0000 5.9001 0.0000
# 4 0.0000 0.0000 0.0000 5.7754 0.0000 -13.2608
# 5 16.7997 5.5105 5.9001 0.0000 39.8752 0.0000
# 6 0.0000 0.0000 0.0000 -13.2608 0.0000 -24.8456
#
#
#
# Elastic Compliance Matrix: (Units=1/GPa)
#
#
# Indices 1 2 3 4 5 6 
#
# 1 0.023996 0.003687 -0.013459 0.000000 -0.008628 0.000000
# 2 0.003687 0.029300 -0.011807 0.000000 -0.003855 0.000000
# 3 -0.013459 -0.011807 0.020344 0.000000 0.004292 0.000000
# 4 0.000000 0.000000 0.000000 0.077803 0.000000 -0.041525
# 5 -0.008628 -0.003855 0.004292 0.000000 0.028611 0.000000
# 6 0.000000 0.000000 0.000000 -0.041525 0.000000 -0.018085
#
#
# Mechanical properties :
#
#
# Convention : Reuss Voigt Hill
#
# Bulk Modulus (GPa) = 32.80596 49.57434 41.19015
# Shear Modulus (GPa) = 23.22496 12.35941 17.79219
#
# Velocity S-wave (km/s) = 3.58655 2.61637 3.13917
# Velocity P-wave (km/s) = 5.94315 6.04850 5.99606
#
# Compressibility (1/GPa) = 0.03048226
#
# Stress axis : x y z
#
# Youngs Moduli (GPa) = 41.67383 34.12979 49.15532
#
# Poissons Ratio (x) = -0.12584 0.66157
# Poissons Ratio (y) = -0.15365 0.58037
# Poissons Ratio (z) = 0.56088 0.40297
#
# Static dielectric constant tensor:
#      x y z
#    x 1.614220 0.000000 0.002580 
#    y 0.000000 1.593650 0.000000 
#    z 0.002580 0.000000 1.631770 
# 
# From -- ./inp_files/18217.got.cif
#   From: 2010.05.17/outbox.cif.g08.bks.cpg/sg12_10_cif.got.tgz:18217.got - 2010.06.03 13:09:07.
