data_PCOD9174093
_publ_section_title
;
Structure prediction by ZEFSAII (Michael W. Deem and Ramdas Pophale) SiO2 
 PCOD9174093
Probable space group: C 2/M
;
_chemical_formula_sum "Si O2"
_cell_formula_units_Z 48
_cell_length_a 20.492467
_cell_length_b 18.307045
_cell_length_c 9.569935
_cell_angle_alpha 90.000000
_cell_angle_beta 139.154751
_cell_angle_gamma 90.000000
_cell_volume 2348.071607
_symmetry_space_group_name_H-M "C 2/M"
_symmetry_group_IT_number 12
_symmetry_cell_setting 'monoclinic'
loop_
_space_group_symop_operation_xyz
x,y,z
-x,y,-z
-x,-y,-z
x,-y,z
1/2+x,1/2+y,z
1/2-x,1/2+y,-z
1/2-x,1/2-y,-z
1/2+x,1/2-y,z
loop_
_atom_site_type_symbol
_atom_site_label
_atom_site_fract_x
_atom_site_fract_y
_atom_site_fract_z
Si Si1 0.586870 0.709731 0.542713
Si Si2 0.886232 0.738362 0.855896
Si Si3 0.899723 0.623226 0.401747
Si Si4 0.271577 0.136417 0.445471
Si Si5 0.208859 0.347434 0.058363
Si Si6 0.659901 0.577768 0.514367
O O1 0.500000 0.681075 0.500000
O O2 0.570129 0.795082 0.494631
O O3 0.693545 0.703957 0.791798
O O4 0.597615 0.653082 0.432598
O O5 0.812074 0.807660 0.749979
O O6 0.839586 0.686897 0.658301
O O7 0.873102 0.693298 0.978995
O O8 0.000000 0.754996 0.000000
O O9 0.836422 0.596981 0.431656
O O10 0.000000 0.588482 0.500000
O O11 0.829666 0.629944 0.153390
O O12 0.213562 0.082624 0.453702
O O13 0.255572 0.412391 0.228663
O O14 0.607588 0.500000 0.447685
#
# Coordination Sequence:
#
# PCOD9174093 Si02
#       6
#     8   8   8   8   8   8
#     4   9  18  31  55  83 108 133 167 212 266 316
#     4  10  18  31  52  78 108 140 169 208 267 320
#     4  11  19  32  55  85 113 130 162 219 280 319
#     4  10  19  34  50  79 108 136 175 215 257 311
#     4   9  19  33  51  79 111 133 171 212 259 319
#     4   9  20  37  55  71 103 146 185 214 246 302
#
# _framework density 20.442307
#
# number of rings (size 3 to 8) (size 9 to 14) (size 15 to 20)
#    1.000    1.333    1.667    2.500    0.000    1.667 
#    0.000    0.833    0.000   19.500    0.000    0.000 
#    0.000    0.000    0.000    0.000    0.000    0.000 
#
# Total GULP energy -133604.750452 kJ/mol
# GULP energy per Si atom -5566.864602 kJ/mol
# Density = 2.039578 g / cm^3
# Si number density = 20.442307 Si / 1000 Ang^3
#
#
#
# Elastic Constant Matrix: (Units=GPa)
#
#
# Indices 1 2 3 4 5 6 
#
# 1 151.6879 2.3193 20.5625 0.0000 -5.2998 0.0000
# 2 2.3193 56.7013 -7.5963 0.0000 -7.3832 0.0000
# 3 20.5625 -7.5963 42.1667 0.0000 -1.5698 0.0000
# 4 0.0000 0.0000 0.0000 17.4051 0.0000 12.3957
# 5 -5.2998 -7.3832 -1.5698 0.0000 37.8139 0.0000
# 6 0.0000 0.0000 0.0000 12.3957 0.0000 6.0545
#
#
#
# Elastic Compliance Matrix: (Units=1/GPa)
#
#
# Indices 1 2 3 4 5 6 
#
# 1 0.007111 -0.000675 -0.003562 0.000000 0.000717 0.000000
# 2 -0.000675 0.018660 0.003829 0.000000 0.003708 0.000000
# 3 -0.003562 0.003829 0.026192 0.000000 0.001336 0.000000
# 4 0.000000 0.000000 0.000000 -0.125421 0.000000 0.256780
# 5 0.000717 0.003708 0.001336 0.000000 0.027325 0.000000
# 6 0.000000 0.000000 0.000000 0.256780 0.000000 -0.360551
#
#
# Mechanical properties :
#
#
# Convention : Reuss Voigt Hill
#
# Bulk Modulus (GPa) = 19.55220 31.23634 25.39427
# Shear Modulus (GPa) = -12.85945 27.93939 7.53997
#
# Velocity S-wave (km/s) = -2.51083 3.70096 1.92261
# Velocity P-wave (km/s) = 1.08612 5.79450 4.16869
#
# Compressibility (1/GPa) = 0.05114515
#
# Stress axis : x y z
#
# Youngs Moduli (GPa) = 140.63189 53.59178 38.17956
#
# Poissons Ratio (x) = 0.03616 0.13601
# Poissons Ratio (y) = 0.09489 -0.14617
# Poissons Ratio (z) = 0.50099 -0.20518
#
# Static dielectric constant tensor:
#      x y z
#    x 1.784270 0.000000 0.002660 
#    y 0.000000 1.737820 0.000000 
#    z 0.002660 0.000000 1.732450 
# 
# From -- ./inp_files/78892.got.cif
#   From: 2010.05.17/outbox.cif.g08.bks.cpg/sg12_40_cif.got.tgz:78892.got - 2010.06.03 13:09:07.
