data_PCOD9174284
_publ_section_title
;
Structure prediction by ZEFSAII (Michael W. Deem and Ramdas Pophale) SiO2 
 PCOD9174284
Probable space group: C 2/M
;
_chemical_formula_sum "Si O2"
_cell_formula_units_Z 64
_cell_length_a 18.205326
_cell_length_b 21.586218
_cell_length_c 11.442293
_cell_angle_alpha 90.000000
_cell_angle_beta 58.080639
_cell_angle_gamma 90.000000
_cell_volume 3816.716566
_symmetry_space_group_name_H-M "C 2/M"
_symmetry_group_IT_number 12
_symmetry_cell_setting 'monoclinic'
loop_
_space_group_symop_operation_xyz
x,y,z
-x,y,-z
-x,-y,-z
x,-y,z
1/2+x,1/2+y,z
1/2-x,1/2+y,-z
1/2-x,1/2-y,-z
1/2+x,1/2-y,z
loop_
_atom_site_type_symbol
_atom_site_label
_atom_site_fract_x
_atom_site_fract_y
_atom_site_fract_z
Si Si1 0.774523 0.759947 0.846190
Si Si2 0.876865 0.568303 0.455451
Si Si3 0.234879 0.932705 0.367544
Si Si4 0.000041 0.360387 0.199057
Si Si5 0.645702 0.684135 0.544071
Si Si6 0.359456 0.136188 0.114033
Si Si7 0.284463 0.814390 0.623618
Si Si8 0.473655 0.741495 0.657256
O O1 0.705455 0.807523 0.852565
O O2 0.767824 0.698703 0.772599
O O3 0.874572 0.780000 0.749270
O O4 0.750000 0.750000 0.000000
O O5 0.882094 0.500000 0.506057
O O6 0.800457 0.566293 0.422778
O O7 0.849292 0.627940 0.554148
O O8 0.964167 0.585448 0.312300
O O9 0.173500 0.873858 0.440867
O O10 0.298349 0.919868 0.205430
O O11 0.192265 0.000000 0.395047
O O12 0.016861 0.301321 0.267183
O O13 0.922703 0.348169 0.170196
O O14 0.082259 0.375013 0.048916
O O15 0.676423 0.750341 0.463492
O O16 0.697756 0.675777 0.621079
O O17 0.543362 0.691312 0.641714
O O18 0.500000 0.755190 0.500000
#
# Coordination Sequence:
#
# PCOD9174284 Si02
#       8
#     8   8   8   8   8   8   8   8
#     4  12  22  33  50  77 108 137 174 214 261 309
#     4   9  17  30  51  79 105 132 171 214 255 306
#     4   9  17  30  51  78 105 132 168 215 262 308
#     4  10  19  31  50  74 104 138 173 209 256 310
#     4  10  18  31  54  77  99 130 171 214 261 300
#     4  10  19  33  49  72 106 139 171 210 260 312
#     4  10  18  33  53  75 101 133 168 214 260 301
#     4  12  20  31  50  77 106 132 172 218 258 303
#
# _framework density 16.768340999999999
#
# number of rings (size 3 to 8) (size 9 to 14) (size 15 to 20)
#    0.000    1.750    5.000    0.750    0.000    0.500 
#    0.000    2.500    0.000    7.500    0.000    0.000 
#    0.000    4.000    0.000    0.000    0.000    0.000 
#
# Total GULP energy -178288.574270 kJ/mol
# GULP energy per Si atom -5571.517946 kJ/mol
# Density = 1.673018 g / cm^3
# Si number density = 16.768341 Si / 1000 Ang^3
#
#
#
# Elastic Constant Matrix: (Units=GPa)
#
#
# Indices 1 2 3 4 5 6 
#
# 1 57.7981 19.2704 37.4780 0.0000 -15.2685 0.0000
# 2 19.2704 110.5358 44.4831 0.0000 -7.2396 0.0000
# 3 37.4780 44.4831 108.5946 0.0000 2.6764 0.0000
# 4 0.0000 0.0000 0.0000 14.9326 0.0000 -1.3641
# 5 -15.2685 -7.2396 2.6764 0.0000 24.3518 0.0000
# 6 0.0000 0.0000 0.0000 -1.3641 0.0000 4.0201
#
#
#
# Elastic Compliance Matrix: (Units=1/GPa)
#
#
# Indices 1 2 3 4 5 6 
#
# 1 0.029379 0.000538 -0.010847 0.000000 0.019773 0.000000
# 2 0.000538 0.011189 -0.004873 0.000000 0.004199 0.000000
# 3 -0.010847 -0.004873 0.015192 0.000000 -0.009919 0.000000
# 4 0.000000 0.000000 0.000000 0.069110 0.000000 0.023450
# 5 0.019773 0.004199 -0.009919 0.000000 0.055801 0.000000
# 6 0.000000 0.000000 0.000000 0.023450 0.000000 0.256707
#
#
# Mechanical properties :
#
#
# Convention : Reuss Voigt Hill
#
# Bulk Modulus (GPa) = 39.37335 53.26573 46.31954
# Shear Modulus (GPa) = 10.49966 20.37404 15.43685
#
# Velocity S-wave (km/s) = 2.50503 3.48951 3.03742
# Velocity P-wave (km/s) = 5.64789 6.93327 6.32332
#
# Compressibility (1/GPa) = 0.02539789
#
# Stress axis : x y z
#
# Youngs Moduli (GPa) = 34.03790 89.37429 65.82198
#
# Poissons Ratio (x) = -0.04812 0.71398
# Poissons Ratio (y) = -0.01833 0.32072
# Poissons Ratio (z) = 0.36921 0.43548
#
# Static dielectric constant tensor:
#      x y z
#    x 1.597280 0.000000 -0.000270 
#    y 0.000000 1.578390 0.000000 
#    z -0.000270 0.000000 1.584710 
# 
# From -- ./inp_files/159513.got.cif
#   From: 2010.05.17/outbox.cif.g08.bks.cpg/sg12_80_cif.got.tgz:159513.got - 2010.06.03 13:09:07.
