data_PCOD9174859
_publ_section_title
;
Structure prediction by ZEFSAII (Michael W. Deem and Ramdas Pophale) SiO2 
 PCOD9174859
Probable space group: C 2/M
;
_chemical_formula_sum "Si O2"
_cell_formula_units_Z 32
_cell_length_a 22.758114
_cell_length_b 7.699750
_cell_length_c 12.400150
_cell_angle_alpha 90.000000
_cell_angle_beta 119.787014
_cell_angle_gamma 90.000000
_cell_volume 1885.812656
_symmetry_space_group_name_H-M "C 2/M"
_symmetry_group_IT_number 12
_symmetry_cell_setting 'monoclinic'
loop_
_space_group_symop_operation_xyz
x,y,z
-x,y,-z
-x,-y,-z
x,-y,z
1/2+x,1/2+y,z
1/2-x,1/2+y,-z
1/2-x,1/2-y,-z
1/2+x,1/2-y,z
loop_
_atom_site_type_symbol
_atom_site_label
_atom_site_fract_x
_atom_site_fract_y
_atom_site_fract_z
Si Si1 0.259260 0.209392 0.341820
Si Si2 0.208268 0.699715 0.067989
Si Si3 0.951389 0.000000 0.790678
Si Si4 0.600784 0.500000 0.010385
Si Si5 0.635456 0.200482 0.384340
O O1 0.254746 0.275690 0.216463
O O2 0.326865 0.252325 0.470205
O O3 0.195403 0.283351 0.349998
O O4 0.252891 0.000000 0.336585
O O5 0.186221 0.500000 0.041522
O O6 0.250000 0.750000 0.000000
O O7 0.146190 0.831803 0.026867
O O8 0.922919 0.831474 0.703390
O O9 0.031604 0.000000 0.880000
O O10 0.919092 0.000000 0.881477
O O11 0.613864 0.000000 0.370530
#
# Coordination Sequence:
#
# PCOD9174859 Si02
#       5
#     8   8   4   4   8
#     4  10  18  32  53  84 116 139 190 240 283 324
#     4  12  22  37  60  83 113 148 194 238 278 331
#     4  11  22  38  57  79 133 150 182 231 281 361
#     4  11  24  40  53  87 119 160 186 225 289 340
#     4  10  19  31  54  83 113 149 182 235 285 332
#
# _framework density 16.968812
#
# number of rings (size 3 to 8) (size 9 to 14) (size 15 to 20)
#    0.000    1.250    6.250    0.750    3.500    1.000 
#    0.000    2.500    0.000    3.000    0.000    5.250 
#    0.000    0.000    0.000    0.000    0.000    0.000 
#
# Total GULP energy -89347.125983 kJ/mol
# GULP energy per Si atom -5584.195374 kJ/mol
# Density = 1.693019 g / cm^3
# Si number density = 16.968812 Si / 1000 Ang^3
#
#
#
# Elastic Constant Matrix: (Units=GPa)
#
#
# Indices 1 2 3 4 5 6 
#
# 1 62.6763 42.4146 59.6581 0.0000 -2.5816 0.0000
# 2 42.4146 145.6450 67.7632 0.0000 18.6771 0.0000
# 3 59.6581 67.7632 159.7484 0.0000 6.5570 0.0000
# 4 0.0000 0.0000 0.0000 26.3188 0.0000 -5.6231
# 5 -2.5816 18.6771 6.5570 0.0000 29.7912 0.0000
# 6 0.0000 0.0000 0.0000 -5.6231 0.0000 8.9248
#
#
#
# Elastic Compliance Matrix: (Units=1/GPa)
#
#
# Indices 1 2 3 4 5 6 
#
# 1 0.027843 -0.005093 -0.008545 0.000000 0.007486 0.000000
# 2 -0.005093 0.010162 -0.002148 0.000000 -0.006339 0.000000
# 3 -0.008545 -0.002148 0.010432 0.000000 -0.001690 0.000000
# 4 0.000000 0.000000 0.000000 0.043906 0.000000 0.027663
# 5 0.007486 -0.006339 -0.001690 0.000000 0.038562 0.000000
# 6 0.000000 0.000000 0.000000 0.027663 0.000000 0.129477
#
#
# Mechanical properties :
#
#
# Convention : Reuss Voigt Hill
#
# Bulk Modulus (GPa) = 59.29734 78.63794 68.96764
# Shear Modulus (GPa) = 16.80249 26.22254 21.51252
#
# Velocity S-wave (km/s) = 3.15016 3.93534 3.56444
# Velocity P-wave (km/s) = 6.94637 8.19100 7.59423
#
# Compressibility (1/GPa) = 0.01686416
#
# Stress axis : x y z
#
# Youngs Moduli (GPa) = 35.91508 98.40992 95.86213
#
# Poissons Ratio (x) = 0.50119 0.81915
# Poissons Ratio (y) = 0.18291 0.20594
# Poissons Ratio (z) = 0.30690 0.21141
#
# Static dielectric constant tensor:
#      x y z
#    x 1.525840 0.000000 -0.007420 
#    y 0.000000 1.587930 0.000000 
#    z -0.007420 0.000000 1.590740 
# 
# From -- ./inp_files/171328.got.cif
#   From: 2010.05.17/outbox.cif.g08.bks.cpg/sg12_86_cif.got.tgz:171328.got - 2010.06.03 13:09:07.
