data_PCOD9174695
_publ_section_title
;
Structure prediction by ZEFSAII (Michael W. Deem and Ramdas Pophale) SiO2 
 PCOD9174695
Probable space group: C 2/M
;
_chemical_formula_sum "Si O2"
_cell_formula_units_Z 64
_cell_length_a 21.987656
_cell_length_b 19.547752
_cell_length_c 17.721829
_cell_angle_alpha 90.000000
_cell_angle_beta 147.835132
_cell_angle_gamma 90.000000
_cell_volume 4054.968858
_symmetry_space_group_name_H-M "C 2/M"
_symmetry_group_IT_number 12
_symmetry_cell_setting 'monoclinic'
loop_
_space_group_symop_operation_xyz
x,y,z
-x,y,-z
-x,-y,-z
x,-y,z
1/2+x,1/2+y,z
1/2-x,1/2+y,-z
1/2-x,1/2-y,-z
1/2+x,1/2-y,z
loop_
_atom_site_type_symbol
_atom_site_label
_atom_site_fract_x
_atom_site_fract_y
_atom_site_fract_z
Si Si1 0.792879 0.278857 0.275477
Si Si2 0.573479 0.196822 0.002061
Si Si3 0.836692 0.785003 0.485650
Si Si4 0.942350 0.420069 0.218262
Si Si5 0.884798 0.421387 0.329985
Si Si6 0.722836 0.919156 0.090072
Si Si7 0.053221 0.161597 0.633705
Si Si8 0.605348 0.185742 0.314788
O O1 0.806476 0.256889 0.377394
O O2 0.808974 0.359496 0.281652
O O3 0.887858 0.234289 0.328793
O O4 0.671750 0.252802 0.117441
O O5 0.489233 0.212321 0.843993
O O6 0.500000 0.191488 0.000000
O O7 0.638926 0.125377 0.054845
O O8 0.723116 0.825230 0.392720
O O9 0.869219 0.737227 0.590143
O O10 0.948635 0.827619 0.580607
O O11 0.968535 0.500000 0.242987
O O12 0.916837 0.402561 0.277753
O O13 0.046932 0.379450 0.291916
O O14 0.830582 0.408249 0.049209
O O15 0.839259 0.500000 0.283361
O O16 0.000000 0.421438 0.500000
O O17 0.847347 0.886493 0.230470
O O18 0.721837 0.000000 0.105260
O O19 0.000000 0.133428 0.500000
#
# Coordination Sequence:
#
# PCOD9174695 Si02
#       8
#     8   8   8   8   8   8   8   8
#     4  10  18  32  52  73 100 126 161 206 248 283
#     4  10  19  33  50  71  96 128 165 204 242 286
#     4  10  19  31  48  73  99 128 158 202 243 293
#     4   9  18  33  50  71 100 127 160 203 241 286
#     4  10  19  31  51  78 102 128 161 200 249 297
#     4   9  19  33  50  70  96 130 162 202 245 286
#     4   9  18  31  50  71  99 129 159 201 247 288
#     4  10  19  31  50  72  97 127 166 198 243 288
#
# _framework density 15.783106
#
# number of rings (size 3 to 8) (size 9 to 14) (size 15 to 20)
#    0.000    2.375    1.250    2.625    0.000    1.500 
#    0.000    4.375    0.000    0.375    0.000    0.875 
#    0.000    0.000    0.000    0.000    0.000    0.000 
#
# Total GULP energy -178255.755708 kJ/mol
# GULP energy per Si atom -5570.492366 kJ/mol
# Density = 1.574718 g / cm^3
# Si number density = 15.783106 Si / 1000 Ang^3
#
#
#
# Elastic Constant Matrix: (Units=GPa)
#
#
# Indices 1 2 3 4 5 6 
#
# 1 72.1599 34.8817 43.5080 0.0000 4.8008 0.0000
# 2 34.8817 70.0937 37.6320 0.0000 2.0614 0.0000
# 3 43.5080 37.6320 99.2389 -0.0001 10.4856 0.0000
# 4 0.0000 0.0000 -0.0001 18.4520 0.0000 -1.7156
# 5 4.8008 2.0614 10.4856 0.0000 25.6730 0.0000
# 6 0.0000 0.0000 0.0000 -1.7156 0.0000 17.4945
#
#
#
# Elastic Compliance Matrix: (Units=1/GPa)
#
#
# Indices 1 2 3 4 5 6 
#
# 1 0.021275 -0.007031 -0.006585 0.000000 -0.000724 0.000000
# 2 -0.007031 0.020285 -0.004783 0.000000 0.001640 0.000000
# 3 -0.006585 -0.004783 0.015265 0.000000 -0.004619 0.000000
# 4 0.000000 0.000000 0.000000 0.054693 0.000000 0.005364
# 5 -0.000724 0.001640 -0.004619 0.000000 0.040842 0.000000
# 6 0.000000 0.000000 0.000000 0.005364 0.000000 0.057687
#
#
# Mechanical properties :
#
#
# Convention : Reuss Voigt Hill
#
# Bulk Modulus (GPa) = 49.92895 52.61512 51.27203
# Shear Modulus (GPa) = 19.72221 20.68863 20.20542
#
# Velocity S-wave (km/s) = 3.53877 3.62444 3.58186
# Velocity P-wave (km/s) = 6.95703 7.13611 7.04714
#
# Compressibility (1/GPa) = 0.02002846
#
# Stress axis : x y z
#
# Youngs Moduli (GPa) = 47.00308 49.29687 65.50780
#
# Poissons Ratio (x) = 0.34661 0.43135
# Poissons Ratio (y) = 0.33048 0.31333
# Poissons Ratio (z) = 0.30950 0.23579
#
# Static dielectric constant tensor:
#      x y z
#    x 1.522470 0.000000 -0.010070 
#    y 0.000000 1.517670 0.000000 
#    z -0.010070 0.000000 1.534750 
# 
# From -- ./inp_files/177118.got.cif
#   From: 2010.05.17/outbox.cif.g08.bks.cpg/sg12_89_cif.got.tgz:177118.got - 2010.06.03 13:09:07.
