data_PCOD9174215
_publ_section_title
;
Structure prediction by ZEFSAII (Michael W. Deem and Ramdas Pophale) SiO2 
 PCOD9174215
Probable space group: C 2/M
;
_chemical_formula_sum "Si O2"
_cell_formula_units_Z 64
_cell_length_a 14.506539
_cell_length_b 14.545772
_cell_length_c 19.525736
_cell_angle_alpha 90.000000
_cell_angle_beta 140.124474
_cell_angle_gamma 90.000000
_cell_volume 2641.487716
_symmetry_space_group_name_H-M "C 2/M"
_symmetry_group_IT_number 12
_symmetry_cell_setting 'monoclinic'
loop_
_space_group_symop_operation_xyz
x,y,z
-x,y,-z
-x,-y,-z
x,-y,z
1/2+x,1/2+y,z
1/2-x,1/2+y,-z
1/2-x,1/2-y,-z
1/2+x,1/2-y,z
loop_
_atom_site_type_symbol
_atom_site_label
_atom_site_fract_x
_atom_site_fract_y
_atom_site_fract_z
Si Si1 0.256191 0.603050 0.164849
Si Si2 0.198822 0.396116 0.862120
Si Si3 0.094831 0.296770 0.345081
Si Si4 0.988356 0.391841 0.414884
Si Si5 0.850426 0.332169 0.031584
Si Si6 0.332942 0.889499 0.744343
Si Si7 0.652682 0.394172 0.178852
Si Si8 0.433352 0.395068 0.725072
O O1 0.193276 0.500000 0.133016
O O2 0.164974 0.657894 0.057947
O O3 0.408475 0.597086 0.214808
O O4 0.272360 0.634548 0.252576
O O5 0.157350 0.500000 0.814831
O O6 0.067589 0.325668 0.773673
O O7 0.332202 0.364108 0.891507
O O8 0.218839 0.404660 0.954354
O O9 0.083069 0.334705 0.415019
O O10 0.194018 0.349522 0.346384
O O11 0.127096 0.189456 0.353650
O O12 0.028672 0.500000 0.434364
O O13 0.819604 0.386018 0.298468
O O14 0.000000 0.361343 0.500000
O O15 0.750000 0.250000 0.000000
O O16 0.018488 0.346152 0.142858
O O17 0.345887 0.000000 0.744665
O O18 0.605802 0.500000 0.147300
O O19 0.567625 0.359531 0.196638
O O20 0.369705 0.500000 0.686915
#
# Coordination Sequence:
#
# PCOD9174215 Si02
#       8
#     8   8   8   8   8   8   8   8
#     4  10  20  34  50  69  97 135 179 221 257 296
#     4   9  17  32  54  75  98 130 168 216 271 314
#     4  10  18  31  53  79 105 132 166 206 251 308
#     4   9  17  32  58  89 111 125 154 208 265 308
#     4  11  20  30  44  69 101 131 168 213 260 306
#     4  10  20  34  53  74  99 134 171 213 265 311
#     4   8  16  33  54  74 101 136 167 202 255 311
#     4  10  21  35  50  71 102 141 180 210 241 293
#
# _framework density 24.228770000000001
#
# number of rings (size 3 to 8) (size 9 to 14) (size 15 to 20)
#    0.000    2.375    0.000    5.625    0.000    4.000 
#    0.000    2.500    0.000    3.375    0.000    0.000 
#    0.000    0.000    0.000    0.000    0.000    0.000 
#
# Total GULP energy -178309.375425 kJ/mol
# GULP energy per Si atom -5572.167982 kJ/mol
# Density = 2.417362 g / cm^3
# Si number density = 24.228770 Si / 1000 Ang^3
#
#
#
# Elastic Constant Matrix: (Units=GPa)
#
#
# Indices 1 2 3 4 5 6 
#
# 1 142.1311 20.5215 22.9243 0.0003 -52.5891 -0.0002
# 2 20.5215 129.1670 24.3698 0.0002 -20.0993 -0.0002
# 3 22.9243 24.3698 29.5090 0.0005 -23.2675 -0.0004
# 4 0.0003 0.0002 0.0005 -186.4298 0.0003 271.9138
# 5 -52.5891 -20.0993 -23.2675 0.0003 57.6956 -0.0002
# 6 -0.0002 -0.0002 -0.0004 271.9138 -0.0002 -387.3831
#
#
#
# Elastic Compliance Matrix: (Units=1/GPa)
#
#
# Indices 1 2 3 4 5 6 
#
# 1 0.010633 -0.000079 -0.000843 0.000000 0.009325 0.000000
# 2 -0.000079 0.009173 -0.007406 0.000000 0.000136 0.000000
# 3 -0.000843 -0.007406 0.055745 -0.000003 0.019133 -0.000002
# 4 0.000000 0.000000 -0.000003 0.225565 -0.000002 0.158329
# 5 0.009325 0.000136 0.019133 -0.000002 0.033595 -0.000001
# 6 0.000000 0.000000 -0.000002 0.158329 -0.000001 0.108554
#
#
# Mechanical properties :
#
#
# Convention : Reuss Voigt Hill
#
# Bulk Modulus (GPa) = 16.97943 48.49315 32.73629
# Shear Modulus (GPa) = 10.42637 -87.69069 -38.63216
#
# Velocity S-wave (km/s) = 2.07669 -6.02257 -3.99742
# Velocity P-wave (km/s) = 3.57398 5.32012 2.78660
#
# Compressibility (1/GPa) = 0.05889479
#
# Stress axis : x y z
#
# Youngs Moduli (GPa) = 94.04400 109.01440 17.93888
#
# Poissons Ratio (x) = 0.00866 0.01511
# Poissons Ratio (y) = 0.00747 0.13286
# Poissons Ratio (z) = 0.07923 0.80739
#
# Static dielectric constant tensor:
#      x y z
#    x 1.997570 0.000000 -0.027760 
#    y 0.000000 1.891570 0.000000 
#    z -0.027760 0.000000 2.022910 
# 
# From -- ./inp_files/270346.got.cif
#   From: 2010.05.17/outbox.cif.g08.bks.cpg/sg12_136_cif.got.tgz:270346.got - 2010.06.03 13:09:07.
