data_PCOD9174428
_publ_section_title
;
Structure prediction by ZEFSAII (Michael W. Deem and Ramdas Pophale) SiO2 
 PCOD9174428
Probable space group: C 2/M
;
_chemical_formula_sum "Si O2"
_cell_formula_units_Z 40
_cell_length_a 13.373254
_cell_length_b 13.493288
_cell_length_c 9.054056
_cell_angle_alpha 90.000000
_cell_angle_beta 86.188935
_cell_angle_gamma 90.000000
_cell_volume 1630.183974
_symmetry_space_group_name_H-M "C 2/M"
_symmetry_group_IT_number 12
_symmetry_cell_setting 'monoclinic'
loop_
_space_group_symop_operation_xyz
x,y,z
-x,y,-z
-x,-y,-z
x,-y,z
1/2+x,1/2+y,z
1/2-x,1/2+y,-z
1/2-x,1/2-y,-z
1/2+x,1/2-y,z
loop_
_atom_site_type_symbol
_atom_site_label
_atom_site_fract_x
_atom_site_fract_y
_atom_site_fract_z
Si Si1 0.538199 0.181414 0.667133
Si Si2 0.334264 0.395196 0.958810
Si Si3 0.733906 0.661933 0.336741
Si Si4 0.589813 0.391795 0.607119
Si Si5 0.145793 0.315304 0.134384
O O1 0.500000 0.175437 0.500000
O O2 0.649156 0.138925 0.668298
O O3 0.553930 0.298451 0.705206
O O4 0.455230 0.141167 0.787472
O O5 0.380714 0.500000 0.001867
O O6 0.319858 0.401128 0.784052
O O7 0.375775 0.282190 0.966289
O O8 0.223837 0.384044 0.042257
O O9 0.682259 0.643867 0.497427
O O10 0.706345 0.769493 0.269667
O O11 0.500000 0.402405 0.500000
O O12 0.609361 0.500000 0.671310
#
# Coordination Sequence:
#
# PCOD9174428 Si02
#       5
#     8   8   8   8   8
#     4  11  20  34  56  81 113 151 182 226 278 331
#     4   9  18  38  61  81 109 142 190 235 275 327
#     4  10  19  34  57  81 112 146 184 222 279 332
#     4  10  18  31  55  85 107 138 188 230 276 330
#     4   9  20  35  57  86 105 148 182 228 284 321
#
# _framework density 24.537109000000001
#
# number of rings (size 3 to 8) (size 9 to 14) (size 15 to 20)
#    1.200    1.000    4.000    1.200    0.000    1.600 
#    0.000    4.000    0.000    4.200    0.000    0.000 
#    0.000    0.000    0.000    0.000    0.000    0.000 
#
# Total GULP energy -111446.720414 kJ/mol
# GULP energy per Si atom -5572.336021 kJ/mol
# Density = 2.448126 g / cm^3
# Si number density = 24.537109 Si / 1000 Ang^3
#
#
#
# Elastic Constant Matrix: (Units=GPa)
#
#
# Indices 1 2 3 4 5 6 
#
# 1 92.7138 -26.5947 29.6656 0.0000 -21.2133 0.0000
# 2 -26.5947 55.8938 1.2670 0.0000 12.3289 0.0000
# 3 29.6656 1.2670 99.5289 0.0000 -11.2074 0.0000
# 4 0.0000 0.0000 0.0000 63.5348 0.0000 -101.9875
# 5 -21.2133 12.3289 -11.2074 0.0000 49.1709 0.0000
# 6 0.0000 0.0000 0.0000 -101.9875 0.0000 148.4264
#
#
#
# Elastic Compliance Matrix: (Units=1/GPa)
#
#
# Indices 1 2 3 4 5 6 
#
# 1 0.014763 0.006261 -0.004043 0.000000 0.003878 0.000000
# 2 0.006261 0.021655 -0.002513 0.000000 -0.003302 0.000000
# 3 -0.004043 -0.002513 0.011453 0.000000 0.001496 0.000000
# 4 0.000000 0.000000 0.000000 -0.152825 0.000000 -0.105010
# 5 0.003878 -0.003302 0.001496 0.000000 0.023179 0.000000
# 6 0.000000 0.000000 0.000000 -0.105010 0.000000 -0.065418
#
#
# Mechanical properties :
#
#
# Convention : Reuss Voigt Hill
#
# Bulk Modulus (GPa) = 21.15134 28.53470 24.84302
# Shear Modulus (GPa) = -38.21438 68.47967 15.13265
#
# Velocity S-wave (km/s) = -3.95069 5.28859 2.48609
# Velocity P-wave (km/s) = 3.48880 6.99619 4.28807
#
# Compressibility (1/GPa) = 0.04727833
#
# Stress axis : x y z
#
# Youngs Moduli (GPa) = 67.73880 46.17846 87.31385
#
# Poissons Ratio (x) = -0.28910 0.35303
# Poissons Ratio (y) = -0.42408 0.21946
# Poissons Ratio (z) = 0.27388 0.11607
#
# Static dielectric constant tensor:
#      x y z
#    x 1.959610 0.000000 0.030980 
#    y 0.000000 2.186320 0.000000 
#    z 0.030980 0.000000 1.925190 
# 
# From -- ./inp_files/129573.got.cif
#   From: 2010.05.17/outbox.cif.g08.bks.cpg/sg12_65_cif.got.tgz:129573.got - 2010.06.03 13:09:07.
