data_PCOD9174731
_publ_section_title
;
Structure prediction by ZEFSAII (Michael W. Deem and Ramdas Pophale) SiO2 
 PCOD9174731
Probable space group: C 2/M
;
_chemical_formula_sum "Si O2"
_cell_formula_units_Z 60
_cell_length_a 26.953913
_cell_length_b 14.156635
_cell_length_c 12.541099
_cell_angle_alpha 90.000000
_cell_angle_beta 140.269246
_cell_angle_gamma 90.000000
_cell_volume 3058.729779
_symmetry_space_group_name_H-M "C 2/M"
_symmetry_group_IT_number 12
_symmetry_cell_setting 'monoclinic'
loop_
_space_group_symop_operation_xyz
x,y,z
-x,y,-z
-x,-y,-z
x,-y,z
1/2+x,1/2+y,z
1/2-x,1/2+y,-z
1/2-x,1/2-y,-z
1/2+x,1/2-y,z
loop_
_atom_site_type_symbol
_atom_site_label
_atom_site_fract_x
_atom_site_fract_y
_atom_site_fract_z
Si Si1 0.763628 0.000000 0.832327
Si Si2 0.878494 0.891472 0.339307
Si Si3 0.732350 0.173629 0.221606
Si Si4 0.756864 0.146312 0.626129
Si Si5 0.158636 0.824902 0.943727
Si Si6 0.924416 0.191267 0.813728
Si Si7 0.510958 0.612576 0.288924
Si Si8 0.868357 0.603842 0.761490
O O1 0.750915 0.080365 0.718177
O O2 0.785055 0.085082 0.951995
O O3 0.803661 0.884369 0.292432
O O4 0.863186 0.820199 0.216825
O O5 0.952761 0.868606 0.534997
O O6 0.888317 0.000000 0.316719
O O7 0.761322 0.249403 0.358423
O O8 0.668860 0.114873 0.182491
O O9 0.693405 0.234489 0.061435
O O10 0.845212 0.149359 0.730253
O O11 0.700649 0.114120 0.439459
O O12 0.077594 0.853407 0.866595
O O13 0.937267 0.163766 0.713288
O O14 0.919363 0.303918 0.822746
O O15 0.000000 0.153649 0.000000
O O16 0.513098 0.500000 0.275474
O O17 0.903915 0.500000 0.808094
#
# Coordination Sequence:
#
# PCOD9174731 Si02
#       8
#     4   8   8   8   8   8   8   8
#     4  10  18  32  52  76 107 138 175 218 270 324
#     4  11  21  36  57  83 112 146 191 231 278 332
#     4  10  21  35  56  81 114 146 185 233 277 331
#     4  10  20  35  56  80 112 146 181 224 277 340
#     4  11  21  37  54  80 115 147 187 229 280 329
#     4  11  23  36  54  85 118 148 187 227 277 339
#     4  11  22  35  57  84 118 152 182 227 281 339
#     4  11  21  38  59  81 113 150 189 230 278 334
#
# _framework density 19.615985999999999
#
# number of rings (size 3 to 8) (size 9 to 14) (size 15 to 20)
#    0.000    1.333    2.000    6.800    0.933    2.667 
#    0.000    0.000    0.000    0.000    0.000    0.000 
#    0.000    6.400    0.000    0.000    0.000    0.000 
#
# Total GULP energy -167035.942488 kJ/mol
# GULP energy per Si atom -5567.864750 kJ/mol
# Density = 1.957134 g / cm^3
# Si number density = 19.615986 Si / 1000 Ang^3
#
#
#
# Elastic Constant Matrix: (Units=GPa)
#
#
# Indices 1 2 3 4 5 6 
#
# 1 45.6653 -9.1308 6.3681 0.0000 0.3407 0.0000
# 2 -9.1308 40.3115 6.7846 0.0000 3.6781 0.0000
# 3 6.3681 6.7846 65.2489 0.0000 -1.6281 0.0000
# 4 0.0000 0.0000 0.0000 15.7921 0.0000 -8.0378
# 5 0.3407 3.6781 -1.6281 0.0000 25.7984 0.0000
# 6 0.0000 0.0000 0.0000 -8.0378 0.0000 12.2689
#
#
#
# Elastic Compliance Matrix: (Units=1/GPa)
#
#
# Indices 1 2 3 4 5 6 
#
# 1 0.023508 0.005943 -0.002946 0.000000 -0.001344 0.000000
# 2 0.005943 0.027123 -0.003504 0.000000 -0.004167 0.000000
# 3 -0.002946 -0.003504 0.016016 0.000000 0.001549 0.000000
# 4 0.000000 0.000000 0.000000 0.095001 0.000000 0.062239
# 5 -0.001344 -0.004167 0.001549 0.000000 0.039472 0.000000
# 6 0.000000 0.000000 0.000000 0.062239 0.000000 0.122282
#
#
# Mechanical properties :
#
#
# Convention : Reuss Voigt Hill
#
# Bulk Modulus (GPa) = 15.23623 17.69660 16.46641
# Shear Modulus (GPa) = 14.43864 20.58547 17.51206
#
# Velocity S-wave (km/s) = 2.71600 3.24299 2.99112
# Velocity P-wave (km/s) = 4.19757 4.80248 4.51018
#
# Compressibility (1/GPa) = 0.06563304
#
# Stress axis : x y z
#
# Youngs Moduli (GPa) = 42.53941 36.86921 62.43580
#
# Poissons Ratio (x) = -0.21911 0.18392
# Poissons Ratio (y) = -0.25281 0.21879
# Poissons Ratio (z) = 0.12531 0.12920
#
# Static dielectric constant tensor:
#      x y z
#    x 1.709940 0.000000 -0.014530 
#    y 0.000000 1.693090 0.000000 
#    z -0.014530 0.000000 1.711490 
# 
# From -- ./inp_files/176496.got.cif
#   From: 2010.05.17/outbox.cif.g08.bks.cpg/sg12_89_cif.got.tgz:176496.got - 2010.06.03 13:09:07.
