data_PCOD9174166
_publ_section_title
;
Structure prediction by ZEFSAII (Michael W. Deem and Ramdas Pophale) SiO2 
 PCOD9174166
Probable space group: C 2/M
;
_chemical_formula_sum "Si O2"
_cell_formula_units_Z 64
_cell_length_a 20.364908
_cell_length_b 7.442494
_cell_length_c 23.660414
_cell_angle_alpha 90.000000
_cell_angle_beta 130.474599
_cell_angle_gamma 90.000000
_cell_volume 2727.929663
_symmetry_space_group_name_H-M "C 2/M"
_symmetry_group_IT_number 12
_symmetry_cell_setting 'monoclinic'
loop_
_space_group_symop_operation_xyz
x,y,z
-x,y,-z
-x,-y,-z
x,-y,z
1/2+x,1/2+y,z
1/2-x,1/2+y,-z
1/2-x,1/2-y,-z
1/2+x,1/2-y,z
loop_
_atom_site_type_symbol
_atom_site_label
_atom_site_fract_x
_atom_site_fract_y
_atom_site_fract_z
Si Si1 0.724454 0.280168 0.321160
Si Si2 0.151938 0.217297 0.163285
Si Si3 0.457543 0.716343 0.730858
Si Si4 0.762759 0.708777 0.127003
Si Si5 0.578150 0.283785 0.701235
Si Si6 0.878871 0.713867 0.096313
Si Si7 0.466946 0.791869 0.039763
Si Si8 0.412706 0.209402 0.425620
O O1 0.724751 0.500000 0.322950
O O2 0.712521 0.228384 0.248718
O O3 0.637881 0.219705 0.305148
O O4 0.819272 0.216725 0.392249
O O5 0.183925 0.283846 0.119837
O O6 0.057146 0.284972 0.124036
O O7 0.150722 0.000000 0.161246
O O8 0.453342 0.500000 0.729135
O O9 0.493335 0.772296 0.689440
O O10 0.534481 0.762987 0.817601
O O11 0.744881 0.500000 0.106842
O O12 0.841271 0.718355 0.216143
O O13 0.800636 0.789405 0.090444
O O14 0.581795 0.500000 0.702723
O O15 0.581809 0.218784 0.639302
O O16 0.866249 0.500000 0.083610
O O17 0.896758 0.786874 0.043463
O O18 0.446475 0.000000 0.018027
O O19 0.500000 0.704179 0.000000
O O20 0.500000 0.290389 0.500000
O O21 0.411326 0.000000 0.441761
#
# Coordination Sequence:
#
# PCOD9174166 Si02
#       8
#     8   8   8   8   8   8   8   8
#     4   9  16  30  51  74  97 124 163 207 244 281
#     4  10  18  31  53  75  96 125 165 211 246 283
#     4   9  17  30  49  72  98 126 158 201 250 291
#     4   9  17  31  51  74  98 124 163 209 246 286
#     4  10  19  30  48  74 102 130 158 197 251 299
#     4   9  17  30  49  71  96 128 164 201 243 290
#     4  10  21  35  49  70 104 138 164 198 250 304
#     4  10  20  35  54  73  98 135 172 203 241 292
#
# _framework density 23.461016999999998
#
# number of rings (size 3 to 8) (size 9 to 14) (size 15 to 20)
#    0.000    2.500    2.500    0.375    0.000    1.500 
#    0.000    1.875    0.000    0.000    0.000    0.000 
#    0.000    0.000    0.000    0.000    0.000    0.000 
#
# Total GULP energy -178686.163679 kJ/mol
# GULP energy per Si atom -5583.942615 kJ/mol
# Density = 2.340762 g / cm^3
# Si number density = 23.461017 Si / 1000 Ang^3
#
#
#
# Elastic Constant Matrix: (Units=GPa)
#
#
# Indices 1 2 3 4 5 6 
#
# 1 184.0215 2.9073 21.9886 0.0000 13.8568 0.0000
# 2 2.9073 82.9535 4.0101 -0.0001 12.3070 0.0002
# 3 21.9886 4.0101 65.7553 0.0000 22.8121 0.0000
# 4 0.0000 -0.0001 0.0000 4.7161 0.0000 14.4787
# 5 13.8568 12.3070 22.8121 0.0000 35.7171 0.0000
# 6 0.0000 0.0002 0.0000 14.4787 0.0000 -34.5767
#
#
#
# Elastic Compliance Matrix: (Units=1/GPa)
#
#
# Indices 1 2 3 4 5 6 
#
# 1 0.005706 0.000064 -0.001460 0.000000 -0.001303 0.000000
# 2 0.000064 0.012752 0.000943 0.000000 -0.005021 0.000000
# 3 -0.001460 0.000943 0.019982 0.000000 -0.012521 0.000000
# 4 0.000000 0.000000 0.000000 0.092774 0.000000 0.038848
# 5 -0.001303 -0.005021 -0.012521 0.000000 0.038231 0.000000
# 6 0.000000 0.000000 0.000000 0.038848 0.000000 -0.012654
#
#
# Mechanical properties :
#
#
# Convention : Reuss Voigt Hill
#
# Bulk Modulus (GPa) = 26.64240 43.39361 35.01800
# Shear Modulus (GPa) = 29.37575 21.42623 25.40099
#
# Velocity S-wave (km/s) = 3.54235 3.02531 3.29399
# Velocity P-wave (km/s) = 5.30205 5.54433 5.42454
#
# Compressibility (1/GPa) = 0.03753416
#
# Stress axis : x y z
#
# Youngs Moduli (GPa) = 175.26333 78.41886 50.04406
#
# Poissons Ratio (x) = -0.00502 0.07305
# Poissons Ratio (y) = -0.01121 -0.04718
# Poissons Ratio (z) = 0.25584 -0.07393
#
# Static dielectric constant tensor:
#      x y z
#    x 1.941380 0.000000 0.013300 
#    y 0.000000 1.846750 0.000000 
#    z 0.013300 0.000000 1.890800 
# 
# From -- ./inp_files/346194.got.cif
#   From: 2010.05.17/outbox.cif.g08.bks.cpg/sg12_174_cif.got.tgz:346194.got - 2010.06.03 13:09:07.
