data_PCOD9174026
_publ_section_title
;
Structure prediction by ZEFSAII (Michael W. Deem and Ramdas Pophale) SiO2 
 PCOD9174026
Probable space group: C 2/M
;
_chemical_formula_sum "Si O2"
_cell_formula_units_Z 40
_cell_length_a 25.001731
_cell_length_b 8.592682
_cell_length_c 32.632869
_cell_angle_alpha 90.000000
_cell_angle_beta 19.735617
_cell_angle_gamma 90.000000
_cell_volume 2367.336448
_symmetry_space_group_name_H-M "C 2/M"
_symmetry_group_IT_number 12
_symmetry_cell_setting 'monoclinic'
loop_
_space_group_symop_operation_xyz
x,y,z
-x,y,-z
-x,-y,-z
x,-y,z
1/2+x,1/2+y,z
1/2-x,1/2+y,-z
1/2-x,1/2-y,-z
1/2+x,1/2-y,z
loop_
_atom_site_type_symbol
_atom_site_label
_atom_site_fract_x
_atom_site_fract_y
_atom_site_fract_z
Si Si1 0.666134 0.815359 0.926282
Si Si2 0.961044 0.185326 0.574516
Si Si3 0.824037 0.685253 0.510897
Si Si4 0.834096 0.816976 0.164715
Si Si5 0.015085 0.812517 0.686948
O O1 0.685663 0.774355 0.863991
O O2 0.832952 0.771584 0.826598
O O3 0.641313 0.000000 0.948333
O O4 0.509388 0.727048 0.053897
O O5 0.804238 0.267298 0.705034
O O6 0.000000 0.231629 0.500000
O O7 0.103367 0.230357 0.502376
O O8 0.936404 0.000000 0.593584
O O9 0.835084 0.500000 0.508723
O O10 0.926372 0.732717 0.397148
O O11 0.643476 0.726687 0.629122
O O12 0.825458 0.000000 0.162297
O O13 0.022008 0.000000 0.675640
#
# Coordination Sequence:
#
# PCOD9174026 Si02
#       5
#     8   8   8   8   8
#     4  10  18  31  52  75 106 140 167 202 253 310
#     4  11  23  38  54  72 100 139 178 214 256 310
#     4  10  19  31  50  77 105 133 169 212 255 301
#     4  11  21  32  49  76 105 132 171 215 258 301
#     4   9  18  31  50  76 107 138 165 202 255 310
#
# _framework density 16.896626000000001
#
# number of rings (size 3 to 8) (size 9 to 14) (size 15 to 20)
#    0.000    1.800    2.000    4.800    0.000    3.200 
#    0.000    0.000    0.000    1.200    0.000    0.000 
#    0.000    0.000    0.000    0.000    0.000    0.000 
#
# Total GULP energy -111615.134043 kJ/mol
# GULP energy per Si atom -5580.756702 kJ/mol
# Density = 1.685817 g / cm^3
# Si number density = 16.896626 Si / 1000 Ang^3
#
#
#
# Elastic Constant Matrix: (Units=GPa)
#
#
# Indices 1 2 3 4 5 6 
#
# 1 78.0945 8.5471 44.7905 0.0006 -10.2106 -0.0026
# 2 8.5471 19.7964 6.8068 0.0178 -0.5882 -0.0031
# 3 44.7905 6.8068 85.8671 0.0014 -21.0863 0.0013
# 4 0.0006 0.0178 0.0014 21.3815 -0.0040 -9.1235
# 5 -10.2106 -0.5882 -21.0863 -0.0040 29.0572 0.0018
# 6 -0.0026 -0.0031 0.0013 -9.1235 0.0018 14.8972
#
#
#
# Elastic Compliance Matrix: (Units=1/GPa)
#
#
# Indices 1 2 3 4 5 6 
#
# 1 0.018718 -0.004834 -0.009479 0.000007 -0.000399 0.000008
# 2 -0.004834 0.053311 -0.002259 -0.000054 -0.002259 -0.000022
# 3 -0.009479 -0.002259 0.019397 0.000001 0.010699 -0.000005
# 4 0.000007 -0.000054 0.000001 0.063315 0.000009 0.038777
# 5 -0.000399 -0.002259 0.010699 0.000009 0.041993 -0.000001
# 6 0.000008 -0.000022 -0.000005 0.038777 -0.000001 0.090875
#
#
# Mechanical properties :
#
#
# Convention : Reuss Voigt Hill
#
# Bulk Modulus (GPa) = 17.15791 33.78297 25.47044
# Shear Modulus (GPa) = 14.69803 21.30809 18.00306
#
# Velocity S-wave (km/s) = 2.95257 3.55503 3.26771
# Velocity P-wave (km/s) = 4.66907 6.07357 5.41704
#
# Compressibility (1/GPa) = 0.05828216
#
# Stress axis : x y z
#
# Youngs Moduli (GPa) = 53.42330 18.75775 51.55507
#
# Poissons Ratio (x) = 0.09068 0.48868
# Poissons Ratio (y) = 0.25827 0.11646
# Poissons Ratio (z) = 0.50638 0.04237
#
# Static dielectric constant tensor:
#      x y z
#    x 1.561610 0.000000 -0.045570 
#    y 0.000000 1.569640 0.000000 
#    z -0.045570 0.000000 1.577770 
# 
# From -- ./inp_files/171377.got.cif
#   From: 2010.05.17/outbox.cif.g08.bks.cpg/sg12_86_cif.got.tgz:171377.got - 2010.06.03 13:09:07.
