data_PCOD9174361
_publ_section_title
;
Structure prediction by ZEFSAII (Michael W. Deem and Ramdas Pophale) SiO2 
 PCOD9174361
Probable space group: C 2/M
;
_chemical_formula_sum "Si O2"
_cell_formula_units_Z 48
_cell_length_a 15.378915
_cell_length_b 14.731303
_cell_length_c 19.004735
_cell_angle_alpha 90.000000
_cell_angle_beta 149.281550
_cell_angle_gamma 90.000000
_cell_volume 2199.360287
_symmetry_space_group_name_H-M "C 2/M"
_symmetry_group_IT_number 12
_symmetry_cell_setting 'monoclinic'
loop_
_space_group_symop_operation_xyz
x,y,z
-x,y,-z
-x,-y,-z
x,-y,z
1/2+x,1/2+y,z
1/2-x,1/2+y,-z
1/2-x,1/2-y,-z
1/2+x,1/2-y,z
loop_
_atom_site_type_symbol
_atom_site_label
_atom_site_fract_x
_atom_site_fract_y
_atom_site_fract_z
Si Si1 0.176784 0.396200 0.599232
Si Si2 0.545258 0.611554 0.844252
Si Si3 0.942500 0.105275 0.309857
Si Si4 0.805015 0.352770 0.549166
Si Si5 0.409162 0.109967 0.144257
Si Si6 0.890709 0.390010 0.854180
O O1 0.174897 0.500000 0.625521
O O2 0.362538 0.356684 0.746350
O O3 0.177349 0.397640 0.514875
O O4 0.000000 0.351504 0.500000
O O5 0.537823 0.500000 0.838557
O O6 0.563386 0.640962 0.774848
O O7 0.713225 0.639718 0.002863
O O8 0.800120 0.144643 0.262519
O O9 0.137372 0.107881 0.470837
O O10 0.895001 0.000000 0.268540
O O11 0.750000 0.250000 0.500000
O O12 0.978528 0.361846 0.711628
O O13 0.511116 0.142987 0.146278
O O14 0.405528 0.000000 0.141000
O O15 0.885711 0.500000 0.842061
O O16 0.000000 0.371310 0.000000
#
# Coordination Sequence:
#
# PCOD9174361 Si02
#       6
#     8   8   8   8   8   8
#     4   9  18  37  62  79  98 140 192 233 272 322
#     4   8  14  27  53  83 105 132 174 224 269 309
#     4   9  16  31  53  75 104 141 177 210 257 325
#     4  11  23  37  49  74 110 146 179 223 281 325
#     4  10  18  31  54  84 112 139 177 223 267 318
#     4   9  15  26  51  85 112 134 166 210 260 319
#
# _framework density 21.824528999999998
#
# number of rings (size 3 to 8) (size 9 to 14) (size 15 to 20)
#    0.000    2.667    1.667    2.500    0.000    0.667 
#    3.000    6.667    0.000    4.000    0.000    0.000 
#    0.000    0.000    0.000    0.000    0.000    0.167 
#
# Total GULP energy -133830.159609 kJ/mol
# GULP energy per Si atom -5576.256650 kJ/mol
# Density = 2.177486 g / cm^3
# Si number density = 21.824529 Si / 1000 Ang^3
#
#
#
# Elastic Constant Matrix: (Units=GPa)
#
#
# Indices 1 2 3 4 5 6 
#
# 1 74.7415 -3.6861 60.6690 0.0044 49.8004 -0.0046
# 2 -3.6861 35.3523 3.0446 0.0064 9.6836 -0.0060
# 3 60.6690 3.0446 191.0071 0.0094 45.0980 -0.0085
# 4 0.0044 0.0064 0.0094 4.3179 0.0019 13.3159
# 5 49.8004 9.6836 45.0980 0.0019 42.3188 -0.0021
# 6 -0.0046 -0.0060 -0.0085 13.3159 -0.0021 -42.0642
#
#
#
# Elastic Compliance Matrix: (Units=1/GPa)
#
#
# Indices 1 2 3 4 5 6 
#
# 1 0.109378 0.049053 -0.003317 -0.000042 -0.136404 -0.000025
# 2 0.049053 0.052519 0.000065 -0.000035 -0.069813 -0.000020
# 3 -0.003317 0.000065 0.007175 -0.000004 -0.003758 -0.000002
# 4 -0.000042 -0.000035 -0.000004 0.117190 0.000058 0.037098
# 5 -0.136404 -0.069813 -0.003758 0.000058 0.204129 0.000034
# 6 -0.000025 -0.000020 -0.000002 0.037098 0.000034 -0.012030
#
#
# Mechanical properties :
#
#
# Convention : Reuss Voigt Hill
#
# Bulk Modulus (GPa) = 3.83620 46.79511 25.31565
# Shear Modulus (GPa) = 10.55635 16.98606 13.77120
#
# Velocity S-wave (km/s) = 2.20169 2.79283 2.51469
# Velocity P-wave (km/s) = 2.86789 5.64694 4.47843
#
# Compressibility (1/GPa) = 0.26067449
#
# Stress axis : x y z
#
# Youngs Moduli (GPa) = 9.14264 19.04090 139.36826
#
# Poissons Ratio (x) = -0.93402 0.46233
# Poissons Ratio (y) = -0.44848 -0.00912
# Poissons Ratio (z) = 0.03033 -0.00125
#
# Static dielectric constant tensor:
#      x y z
#    x 1.831050 0.000000 0.047230 
#    y 0.000000 1.841210 0.000000 
#    z 0.047230 0.000000 1.813860 
# 
# From -- ./inp_files/74598.got.cif
#   From: 2010.05.17/outbox.cif.g08.bks.cpg/sg12_38_cif.got.tgz:74598.got - 2010.06.03 13:09:07.
