data_PCOD9174481
_publ_section_title
;
Structure prediction by ZEFSAII (Michael W. Deem and Ramdas Pophale) SiO2 
 PCOD9174481
Probable space group: C 2/M
;
_chemical_formula_sum "Si O2"
_cell_formula_units_Z 48
_cell_length_a 12.935326
_cell_length_b 13.395583
_cell_length_c 15.357464
_cell_angle_alpha 90.000000
_cell_angle_beta 48.677350
_cell_angle_gamma 90.000000
_cell_volume 1998.482139
_symmetry_space_group_name_H-M "C 2/M"
_symmetry_group_IT_number 12
_symmetry_cell_setting 'monoclinic'
loop_
_space_group_symop_operation_xyz
x,y,z
-x,y,-z
-x,-y,-z
x,-y,z
1/2+x,1/2+y,z
1/2-x,1/2+y,-z
1/2-x,1/2-y,-z
1/2+x,1/2-y,z
loop_
_atom_site_type_symbol
_atom_site_label
_atom_site_fract_x
_atom_site_fract_y
_atom_site_fract_z
Si Si1 0.804667 0.617748 0.939286
Si Si2 0.737929 0.109939 0.550021
Si Si3 0.067356 0.315976 0.298636
Si Si4 0.929989 0.285341 0.123798
Si Si5 0.661401 0.617418 0.192021
Si Si6 0.763195 0.308665 0.634131
O O1 0.797710 0.500000 0.937976
O O2 0.812032 0.657514 0.837209
O O3 0.949655 0.650126 0.900219
O O4 0.689036 0.646096 0.074770
O O5 0.572782 0.129217 0.647400
O O6 0.800164 0.201315 0.570037
O O7 0.765058 0.121705 0.432007
O O8 0.774165 0.000000 0.561591
O O9 0.057319 0.196141 0.292954
O O10 0.117805 0.342217 0.366532
O O11 0.806009 0.357661 0.160539
O O12 0.865362 0.212079 0.230909
O O13 0.000000 0.236817 0.000000
O O14 0.629297 0.500000 0.216490
#
# Coordination Sequence:
#
# PCOD9174481 Si02
#       6
#     8   8   8   8   8   8
#     4  10  18  31  56  89 122 163 207 248 299 364
#     4  11  24  44  68  90 120 164 212 257 301 365
#     4  11  21  35  60  93 125 158 206 257 309 360
#     4   9  17  33  60  90 122 159 204 251 302 359
#     4   9  19  33  53  86 128 165 201 248 305 363
#     4  10  23  40  61  96 124 157 205 260 309 357
#
# _framework density 24.018228000000001
#
# number of rings (size 3 to 8) (size 9 to 14) (size 15 to 20)
#    0.000    2.000    1.667    2.000    0.000    6.667 
#    0.000    3.333    0.000    8.500    0.000    0.000 
#    0.000    0.000    0.000    0.000    0.000    0.000 
#
# Total GULP energy -134236.824487 kJ/mol
# GULP energy per Si atom -5593.201020 kJ/mol
# Density = 2.396356 g / cm^3
# Si number density = 24.018228 Si / 1000 Ang^3
#
#
#
# Elastic Constant Matrix: (Units=GPa)
#
#
# Indices 1 2 3 4 5 6 
#
# 1 53.1948 -7.1527 6.2649 0.0000 17.8280 0.0000
# 2 -7.1527 62.5189 7.2607 0.0000 -11.0328 0.0000
# 3 6.2649 7.2607 136.5541 0.0000 8.1374 0.0000
# 4 0.0000 0.0000 0.0000 24.6717 0.0000 -4.4096
# 5 17.8280 -11.0328 8.1374 0.0000 30.5698 0.0000
# 6 0.0000 0.0000 0.0000 -4.4096 0.0000 15.1283
#
#
#
# Elastic Compliance Matrix: (Units=1/GPa)
#
#
# Indices 1 2 3 4 5 6 
#
# 1 0.023382 0.000338 -0.000290 0.000000 -0.013437 0.000000
# 2 0.000338 0.017317 -0.001318 0.000000 0.006404 0.000000
# 3 -0.000290 -0.001318 0.007544 0.000000 -0.002315 0.000000
# 4 0.000000 0.000000 0.000000 0.042760 0.000000 0.012464
# 5 -0.013437 0.006404 -0.002315 0.000000 0.043476 0.000000
# 6 0.000000 0.000000 0.000000 0.012464 0.000000 0.069734
#
#
# Mechanical properties :
#
#
# Convention : Reuss Voigt Hill
#
# Bulk Modulus (GPa) = 21.88066 29.44595 25.66331
# Shear Modulus (GPa) = 22.52380 30.46696 26.49538
#
# Velocity S-wave (km/s) = 3.06564 3.56545 3.32495
# Velocity P-wave (km/s) = 4.65410 5.40707 5.04465
#
# Compressibility (1/GPa) = 0.04570245
#
# Stress axis : x y z
#
# Youngs Moduli (GPa) = 42.76853 57.74709 132.54828
#
# Poissons Ratio (x) = -0.01949 0.03843
# Poissons Ratio (y) = -0.01443 0.17468
# Poissons Ratio (z) = 0.01240 0.07610
#
# Static dielectric constant tensor:
#      x y z
#    x 1.958390 0.000000 -0.015840 
#    y 0.000000 1.883200 0.000000 
#    z -0.015840 0.000000 1.997880 
# 
# From -- ./inp_files/213265.got.cif
#   From: 2010.05.17/outbox.cif.g08.bks.cpg/sg12_107_cif.got.tgz:213265.got - 2010.06.03 13:09:07.
