data_PCOD9174003
_publ_section_title
;
Structure prediction by ZEFSAII (Michael W. Deem and Ramdas Pophale) SiO2 
 PCOD9174003
Probable space group: C 2/M
;
_chemical_formula_sum "Si O2"
_cell_formula_units_Z 56
_cell_length_a 23.651263
_cell_length_b 14.278305
_cell_length_c 20.240922
_cell_angle_alpha 90.000000
_cell_angle_beta 151.442631
_cell_angle_gamma 90.000000
_cell_volume 3267.564154
_symmetry_space_group_name_H-M "C 2/M"
_symmetry_group_IT_number 12
_symmetry_cell_setting 'monoclinic'
loop_
_space_group_symop_operation_xyz
x,y,z
-x,y,-z
-x,-y,-z
x,-y,z
1/2+x,1/2+y,z
1/2-x,1/2+y,-z
1/2-x,1/2-y,-z
1/2+x,1/2-y,z
loop_
_atom_site_type_symbol
_atom_site_label
_atom_site_fract_x
_atom_site_fract_y
_atom_site_fract_z
Si Si1 0.671274 0.611651 0.126977
Si Si2 0.935527 0.771731 0.201849
Si Si3 0.902044 0.886680 0.808912
Si Si4 0.919146 0.389132 0.710054
Si Si5 0.947933 0.611899 0.018722
Si Si6 0.267307 0.752072 0.905253
Si Si7 0.843103 0.112708 0.601956
O O1 0.684182 0.500000 0.136751
O O2 0.672740 0.643233 0.204410
O O3 0.759205 0.666739 0.170852
O O4 0.539005 0.636029 0.964285
O O5 0.849235 0.781988 0.175252
O O6 0.994999 0.670459 0.249180
O O7 0.043957 0.843013 0.317177
O O8 0.855207 0.784454 0.053641
O O9 0.856274 0.854250 0.691583
O O10 0.898159 0.000000 0.804599
O O11 0.931912 0.500000 0.710209
O O12 0.783946 0.361690 0.557569
O O13 0.956280 0.373139 0.824360
O O14 0.922313 0.500000 0.989436
O O15 0.835162 0.669797 0.930761
O O16 0.000000 0.639595 0.000000
O O17 0.851495 0.000000 0.609413
#
# Coordination Sequence:
#
# PCOD9174003 Si02
#       7
#     8   8   8   8   8   8   8
#     4   9  16  27  44  70 100 122 151 191 233 282
#     4  10  20  32  45  72 103 126 159 198 237 289
#     4   8  15  26  44  71  95 118 152 192 230 275
#     4   9  19  34  52  72  94 126 162 197 241 288
#     4   9  19  35  53  72  93 121 164 210 243 277
#     4  10  20  30  48  72  98 132 159 191 247 289
#     4  10  18  31  52  73  96 126 159 198 243 284
#
# _framework density 17.138148999999999
#
# number of rings (size 3 to 8) (size 9 to 14) (size 15 to 20)
#    0.000    2.714    1.429    1.286    2.000    1.143 
#    0.000    2.857    0.000    3.429    0.000    8.000 
#    0.000    0.000    0.000    0.000    0.000    0.000 
#
# Total GULP energy -155997.963076 kJ/mol
# GULP energy per Si atom -5571.355824 kJ/mol
# Density = 1.709914 g / cm^3
# Si number density = 17.138149 Si / 1000 Ang^3
#
#
#
# Elastic Constant Matrix: (Units=GPa)
#
#
# Indices 1 2 3 4 5 6 
#
# 1 162.3434 50.2375 45.8308 0.0000 5.7401 0.0000
# 2 50.2375 55.5722 23.5562 0.0000 -0.0902 0.0000
# 3 45.8308 23.5562 68.3743 0.0000 4.2537 0.0000
# 4 0.0000 0.0000 0.0000 11.3182 0.0000 -6.7413
# 5 5.7401 -0.0902 4.2537 0.0000 15.6139 0.0000
# 6 0.0000 0.0000 0.0000 -6.7413 0.0000 16.1659
#
#
#
# Elastic Compliance Matrix: (Units=1/GPa)
#
#
# Indices 1 2 3 4 5 6 
#
# 1 0.009473 -0.006958 -0.003798 0.000000 -0.002488 0.000000
# 2 -0.006958 0.026253 -0.004628 0.000000 0.003970 0.000000
# 3 -0.003798 -0.004628 0.019002 0.000000 -0.003807 0.000000
# 4 0.000000 0.000000 0.000000 0.117550 0.000000 0.049019
# 5 -0.002488 0.003970 -0.003807 0.000000 0.066020 0.000000
# 6 0.000000 0.000000 0.000000 0.049019 0.000000 0.082300
#
#
# Mechanical properties :
#
#
# Convention : Reuss Voigt Hill
#
# Bulk Modulus (GPa) = 41.73430 58.39321 50.06376
# Shear Modulus (GPa) = 13.91395 19.73062 16.82228
#
# Velocity S-wave (km/s) = 2.85242 3.39672 3.13640
# Velocity P-wave (km/s) = 5.93742 7.03773 6.51086
#
# Compressibility (1/GPa) = 0.02396110
#
# Stress axis : x y z
#
# Youngs Moduli (GPa) = 105.56281 38.09143 52.62541
#
# Poissons Ratio (x) = 0.26504 0.19986
# Poissons Ratio (y) = 0.73449 0.24354
# Poissons Ratio (z) = 0.40091 0.17628
#
# Static dielectric constant tensor:
#      x y z
#    x 1.587290 0.000000 -0.011700 
#    y 0.000000 1.626710 0.000000 
#    z -0.011700 0.000000 1.565180 
# 
# From -- ./inp_files/284563.got.cif
#   From: 2010.05.17/outbox.cif.g08.bks.cpg/sg12_143_cif.got.tgz:284563.got - 2010.06.03 13:09:07.
