data_PCOD9174311
_publ_section_title
;
Structure prediction by ZEFSAII (Michael W. Deem and Ramdas Pophale) SiO2 
 PCOD9174311
Probable space group: C 2/M
;
_chemical_formula_sum "Si O2"
_cell_formula_units_Z 48
_cell_length_a 25.817711
_cell_length_b 7.672436
_cell_length_c 24.805749
_cell_angle_alpha 90.000000
_cell_angle_beta 150.387679
_cell_angle_gamma 90.000000
_cell_volume 2427.971311
_symmetry_space_group_name_H-M "C 2/M"
_symmetry_group_IT_number 12
_symmetry_cell_setting 'monoclinic'
loop_
_space_group_symop_operation_xyz
x,y,z
-x,y,-z
-x,-y,-z
x,-y,z
1/2+x,1/2+y,z
1/2-x,1/2+y,-z
1/2-x,1/2-y,-z
1/2+x,1/2-y,z
loop_
_atom_site_type_symbol
_atom_site_label
_atom_site_fract_x
_atom_site_fract_y
_atom_site_fract_z
Si Si1 0.100456 0.713550 0.738003
Si Si2 0.510114 0.206772 0.882348
Si Si3 0.127267 0.709709 0.882568
Si Si4 0.441496 0.787052 0.502251
Si Si5 0.685876 0.291466 0.126020
Si Si6 0.790946 0.791289 0.731260
O O1 0.101245 0.500000 0.738931
O O2 0.090420 0.772618 0.790528
O O3 0.212347 0.771436 0.814842
O O4 0.008656 0.769487 0.614565
O O5 0.562873 0.279220 0.875547
O O6 0.390381 0.256381 0.783985
O O7 0.514681 0.000000 0.882714
O O8 0.581153 0.256882 0.997821
O O9 0.117018 0.500000 0.872984
O O10 0.250000 0.750000 0.000000
O O11 0.500000 0.735467 0.500000
O O12 0.321325 0.727047 0.391402
O O13 0.441872 0.000000 0.503254
O O14 0.696359 0.500000 0.138883
O O15 0.687015 0.223553 0.188176
O O16 0.781181 0.000000 0.726673
#
# Coordination Sequence:
#
# PCOD9174311 Si02
#       6
#     8   8   8   8   8   8
#     4   9  16  29  52  79 103 125 160 215 262 294
#     4  11  23  35  48  72 108 144 172 202 250 309
#     4  10  20  34  53  75 100 135 173 209 251 299
#     4   9  15  28  52  81 104 123 161 215 261 298
#     4  10  18  31  54  80 103 129 167 214 258 301
#     4  10  20  33  53  80 105 132 169 212 256 303
#
# _framework density 19.769591999999999
#
# number of rings (size 3 to 8) (size 9 to 14) (size 15 to 20)
#    0.000    2.167    3.333    1.000    0.000    3.333 
#    0.000    0.833    0.000    2.500    0.000    0.000 
#    0.000    0.000    0.000    0.000    0.000    0.000 
#
# Total GULP energy -134002.072647 kJ/mol
# GULP energy per Si atom -5583.419694 kJ/mol
# Density = 1.972460 g / cm^3
# Si number density = 19.769592 Si / 1000 Ang^3
#
#
#
# Elastic Constant Matrix: (Units=GPa)
#
#
# Indices 1 2 3 4 5 6 
#
# 1 119.6559 -1.3276 85.4236 0.0000 3.4223 0.0000
# 2 -1.3276 34.1812 2.3858 -0.0001 -1.2429 0.0000
# 3 85.4236 2.3858 200.6957 0.0000 6.8653 0.0000
# 4 0.0000 -0.0001 0.0000 -21.5451 0.0000 -4.2754
# 5 3.4223 -1.2429 6.8653 0.0000 40.8557 0.0000
# 6 0.0000 0.0000 0.0000 -4.2754 0.0000 11.1691
#
#
#
# Elastic Compliance Matrix: (Units=1/GPa)
#
#
# Indices 1 2 3 4 5 6 
#
# 1 0.012029 0.000821 -0.005126 0.000000 -0.000121 0.000000
# 2 0.000821 0.029373 -0.000731 0.000000 0.000948 0.000000
# 3 -0.005126 -0.000731 0.007200 0.000000 -0.000803 0.000000
# 4 0.000000 0.000000 0.000000 -0.043138 0.000000 -0.016513
# 5 -0.000121 0.000948 -0.000803 0.000000 0.024650 0.000000
# 6 0.000000 0.000000 0.000000 -0.016513 0.000000 0.083212
#
#
# Mechanical properties :
#
#
# Convention : Reuss Voigt Hill
#
# Bulk Modulus (GPa) = 25.95317 58.61069 42.28193
# Shear Modulus (GPa) = 36.69924 23.96602 30.33263
#
# Velocity S-wave (km/s) = 4.31321 3.48554 3.92127
# Velocity P-wave (km/s) = 6.16128 6.77568 6.47577
#
# Compressibility (1/GPa) = 0.03853094
#
# Stress axis : x y z
#
# Youngs Moduli (GPa) = 83.13153 34.04462 138.87951
#
# Poissons Ratio (x) = -0.02794 0.71185
# Poissons Ratio (y) = -0.06821 0.10150
# Poissons Ratio (z) = 0.42610 0.02488
#
# Static dielectric constant tensor:
#      x y z
#    x 1.703860 0.000000 0.003720 
#    y 0.000000 1.749640 0.000000 
#    z 0.003720 0.000000 1.696830 
# 
# From -- ./inp_files/172108.got.cif
#   From: 2010.05.17/outbox.cif.g08.bks.cpg/sg12_87_cif.got.tgz:172108.got - 2010.06.03 13:09:07.
