data_PCOD9174413
_publ_section_title
;
Structure prediction by ZEFSAII (Michael W. Deem and Ramdas Pophale) SiO2 
 PCOD9174413
Probable space group: C 2/M
;
_chemical_formula_sum "Si O2"
_cell_formula_units_Z 48
_cell_length_a 10.611748
_cell_length_b 23.616158
_cell_length_c 9.531687
_cell_angle_alpha 90.000000
_cell_angle_beta 56.591847
_cell_angle_gamma 90.000000
_cell_volume 1994.033873
_symmetry_space_group_name_H-M "C 2/M"
_symmetry_group_IT_number 12
_symmetry_cell_setting 'monoclinic'
loop_
_space_group_symop_operation_xyz
x,y,z
-x,y,-z
-x,-y,-z
x,-y,z
1/2+x,1/2+y,z
1/2-x,1/2+y,-z
1/2-x,1/2-y,-z
1/2+x,1/2-y,z
loop_
_atom_site_type_symbol
_atom_site_label
_atom_site_fract_x
_atom_site_fract_y
_atom_site_fract_z
Si Si1 0.109039 0.308626 0.297956
Si Si2 0.764693 0.062443 0.864055
Si Si3 0.704987 0.937288 0.590164
Si Si4 0.030042 0.146412 0.642028
Si Si5 0.142461 0.252090 0.704423
Si Si6 0.134931 0.436205 0.249734
O O1 0.241006 0.260601 0.238766
O O2 0.181891 0.371686 0.259508
O O3 0.000000 0.304337 0.500000
O O4 0.988027 0.299706 0.242626
O O5 0.676076 0.070179 0.773460
O O6 0.895618 0.107569 0.775452
O O7 0.835700 0.000000 0.814057
O O8 0.669704 0.063997 0.062449
O O9 0.819339 0.890673 0.466761
O O10 0.544396 0.935748 0.616087
O O11 0.772484 0.000000 0.532085
O O12 0.047079 0.195576 0.741919
O O13 0.000000 0.166766 0.500000
O O14 0.250000 0.250000 0.500000
O O15 0.191156 0.500000 0.263025
#
# Coordination Sequence:
#
# PCOD9174413 Si02
#       6
#     8   8   8   8   8   8
#     4  10  21  38  60  86 115 152 199 244 292 351
#     4   9  18  32  51  81 120 157 192 236 292 350
#     4   9  16  28  51  83 115 149 194 242 286 342
#     4  10  18  31  55  83 111 149 195 241 289 343
#     4  10  20  36  58  84 113 148 194 247 295 346
#     4  10  20  35  56  83 118 156 192 238 297 352
#
# _framework density 24.071808999999998
#
# number of rings (size 3 to 8) (size 9 to 14) (size 15 to 20)
#    0.000    2.333    0.000    4.500    0.000    5.667 
#    0.000    3.333    0.000    6.000    0.000    1.167 
#    0.000    0.000    0.000    0.000    0.000    0.000 
#
# Total GULP energy -133820.477269 kJ/mol
# GULP energy per Si atom -5575.853220 kJ/mol
# Density = 2.401702 g / cm^3
# Si number density = 24.071809 Si / 1000 Ang^3
#
#
#
# Elastic Constant Matrix: (Units=GPa)
#
#
# Indices 1 2 3 4 5 6 
#
# 1 106.4302 36.4382 29.9582 0.0000 3.2246 0.0000
# 2 36.4382 115.4064 14.9534 0.0000 -0.7880 0.0000
# 3 29.9582 14.9534 39.5563 0.0000 1.3089 0.0000
# 4 0.0000 0.0000 0.0000 19.5464 0.0000 -0.3497
# 5 3.2246 -0.7880 1.3089 0.0000 15.6754 0.0000
# 6 0.0000 0.0000 0.0000 -0.3497 0.0000 29.5552
#
#
#
# Elastic Compliance Matrix: (Units=1/GPa)
#
#
# Indices 1 2 3 4 5 6 
#
# 1 0.012889 -0.002974 -0.008568 0.000000 -0.002085 0.000000
# 2 -0.002974 0.009806 -0.001496 0.000000 0.001229 0.000000
# 3 -0.008568 -0.001496 0.032369 0.000000 -0.001015 0.000000
# 4 0.000000 0.000000 0.000000 0.051171 0.000000 0.000605
# 5 -0.002085 0.001229 -0.001015 0.000000 0.064370 0.000000
# 6 0.000000 0.000000 0.000000 0.000605 0.000000 0.033842
#
#
# Mechanical properties :
#
#
# Convention : Reuss Voigt Hill
#
# Bulk Modulus (GPa) = 34.49636 47.12138 40.80887
# Shear Modulus (GPa) = 20.81731 24.95828 22.88779
#
# Velocity S-wave (km/s) = 2.94394 3.22347 3.08687
# Velocity P-wave (km/s) = 5.09092 5.78552 5.44929
#
# Compressibility (1/GPa) = 0.02898857
#
# Stress axis : x y z
#
# Youngs Moduli (GPa) = 77.58612 101.97762 30.89403
#
# Poissons Ratio (x) = 0.30323 0.26471
# Poissons Ratio (y) = 0.23070 0.04621
# Poissons Ratio (z) = 0.66479 0.15252
#
# Static dielectric constant tensor:
#      x y z
#    x 2.019170 0.000000 0.022040 
#    y 0.000000 2.015960 0.000000 
#    z 0.022040 0.000000 1.920980 
# 
# From -- ./inp_files/135186.got.cif
#   From: 2010.05.17/outbox.cif.g08.bks.cpg/sg12_68_cif.got.tgz:135186.got - 2010.06.03 13:09:07.
