data_PCOD9174545
_publ_section_title
;
Structure prediction by ZEFSAII (Michael W. Deem and Ramdas Pophale) SiO2 
 PCOD9174545
Probable space group: C 2/M
;
_chemical_formula_sum "Si O2"
_cell_formula_units_Z 44
_cell_length_a 28.938153
_cell_length_b 16.481014
_cell_length_c 5.221959
_cell_angle_alpha 90.000000
_cell_angle_beta 63.986713
_cell_angle_gamma 90.000000
_cell_volume 2238.201825
_symmetry_space_group_name_H-M "C 2/M"
_symmetry_group_IT_number 12
_symmetry_cell_setting 'monoclinic'
loop_
_space_group_symop_operation_xyz
x,y,z
-x,y,-z
-x,-y,-z
x,-y,z
1/2+x,1/2+y,z
1/2-x,1/2+y,-z
1/2-x,1/2-y,-z
1/2+x,1/2-y,z
loop_
_atom_site_type_symbol
_atom_site_label
_atom_site_fract_x
_atom_site_fract_y
_atom_site_fract_z
Si Si1 0.264503 0.341613 0.371806
Si Si2 0.656146 0.000000 0.393895
Si Si3 0.035698 0.500000 0.162913
Si Si4 0.834770 0.333187 0.707468
Si Si5 0.724152 0.000000 0.724039
Si Si6 0.138484 0.758224 0.861397
Si Si7 0.035438 0.679508 0.164049
O O1 0.250000 0.250000 0.500000
O O2 0.223973 0.351523 0.237822
O O3 0.254371 0.417083 0.584792
O O4 0.325433 0.335579 0.172086
O O5 0.630645 0.913380 0.417167
O O6 0.678804 0.000000 0.622651
O O7 0.698818 0.000000 0.063213
O O8 0.061529 0.588986 0.096493
O O9 0.000000 0.500000 0.500000
O O10 0.000000 0.500000 0.000000
O O11 0.853812 0.268138 0.452696
O O12 0.838087 0.305432 0.989249
O O13 0.078388 0.749466 0.061137
O O14 0.000000 0.684224 0.500000
O O15 0.000000 0.685985 0.000000
#
# Coordination Sequence:
#
# PCOD9174545 Si02
#       7
#     8   4   4   8   4   8   8
#     4   9  19  35  53  76 108 139 171 210 250 303
#     4  10  18  32  47  72 106 138 170 208 244 289
#     4   8  16  30  48  64  90 124 156 203 254 293
#     4  10  20  32  49  75 105 136 169 207 249 302
#     4  10  20  32  51  74 104 144 174 203 250 302
#     4  11  21  33  52  74  98 137 173 209 259 303
#     4  10  20  35  50  70  96 127 169 213 255 304
#
# _framework density 19.658638
#
# number of rings (size 3 to 8) (size 9 to 14) (size 15 to 20)
#    0.000    2.182    0.000    4.909    0.000    5.818 
#    0.000    2.727    0.000    0.000    0.000    1.273 
#    0.000    0.000    0.000    0.000    0.000    0.000 
#
# Total GULP energy -122557.564423 kJ/mol
# GULP energy per Si atom -5570.798383 kJ/mol
# Density = 1.961389 g / cm^3
# Si number density = 19.658638 Si / 1000 Ang^3
#
#
#
# Elastic Constant Matrix: (Units=GPa)
#
#
# Indices 1 2 3 4 5 6 
#
# 1 91.9344 12.1943 40.8920 0.0000 2.8068 0.0000
# 2 12.1943 50.6807 24.0579 0.0000 0.1143 0.0000
# 3 40.8920 24.0579 92.1336 0.0000 -2.1421 0.0000
# 4 0.0000 0.0000 0.0000 24.2834 0.0000 1.1388
# 5 2.8068 0.1143 -2.1421 0.0000 32.9957 0.0000
# 6 0.0000 0.0000 0.0000 1.1388 0.0000 2.1760
#
#
#
# Elastic Compliance Matrix: (Units=1/GPa)
#
#
# Indices 1 2 3 4 5 6 
#
# 1 0.013641 -0.000443 -0.005975 0.000000 -0.001547 0.000000
# 2 -0.000443 0.022545 -0.005700 0.000000 -0.000410 0.000000
# 3 -0.005975 -0.005700 0.015029 0.000000 0.001504 0.000000
# 4 0.000000 0.000000 0.000000 0.042217 0.000000 -0.022095
# 5 -0.001547 -0.000410 0.001504 0.000000 0.030538 0.000000
# 6 0.000000 0.000000 0.000000 -0.022095 0.000000 0.471128
#
#
# Mechanical properties :
#
#
# Convention : Reuss Voigt Hill
#
# Bulk Modulus (GPa) = 37.06455 43.22633 40.14544
# Shear Modulus (GPa) = 7.95768 22.39799 15.17783
#
# Velocity S-wave (km/s) = 2.01413 3.37908 2.78163
# Velocity P-wave (km/s) = 4.92991 6.10413 5.54817
#
# Compressibility (1/GPa) = 0.02697996
#
# Stress axis : x y z
#
# Youngs Moduli (GPa) = 73.30989 44.35664 66.53861
#
# Poissons Ratio (x) = 0.01963 0.39754
# Poissons Ratio (y) = 0.03244 0.37927
# Poissons Ratio (z) = 0.43800 0.25283
#
# Static dielectric constant tensor:
#      x y z
#    x 1.768630 0.000000 -0.044350 
#    y 0.000000 1.774450 0.000000 
#    z -0.044350 0.000000 1.717760 
# 
# From -- ./inp_files/28331.got.cif
#   From: 2010.05.17/outbox.cif.g08.bks.cpg/sg12_15_cif.got.tgz:28331.got - 2010.06.03 13:09:07.
