data_PCOD9174065
_publ_section_title
;
Structure prediction by ZEFSAII (Michael W. Deem and Ramdas Pophale) SiO2 
 PCOD9174065
Probable space group: C 2/M
;
_chemical_formula_sum "Si O2"
_cell_formula_units_Z 32
_cell_length_a 8.185861
_cell_length_b 18.996218
_cell_length_c 14.293793
_cell_angle_alpha 90.000000
_cell_angle_beta 48.052132
_cell_angle_gamma 90.000000
_cell_volume 1653.133512
_symmetry_space_group_name_H-M "C 2/M"
_symmetry_group_IT_number 12
_symmetry_cell_setting 'monoclinic'
loop_
_space_group_symop_operation_xyz
x,y,z
-x,y,-z
-x,-y,-z
x,-y,z
1/2+x,1/2+y,z
1/2-x,1/2+y,-z
1/2-x,1/2-y,-z
1/2+x,1/2-y,z
loop_
_atom_site_type_symbol
_atom_site_label
_atom_site_fract_x
_atom_site_fract_y
_atom_site_fract_z
Si Si1 0.514277 0.082971 0.384576
Si Si2 0.261698 0.309321 0.627690
Si Si3 0.849497 0.788246 0.796914
Si Si4 0.928991 0.147580 0.123863
O O1 0.500000 0.099767 0.500000
O O2 0.336350 0.128433 0.396529
O O3 0.749904 0.104715 0.251624
O O4 0.478068 0.000000 0.387051
O O5 0.500000 0.288223 0.500000
O O6 0.280884 0.329167 0.729843
O O7 0.092326 0.244495 0.687485
O O8 0.371279 0.668193 0.883688
O O9 0.692145 0.720298 0.861231
O O10 0.000000 0.112006 0.000000
#
# Coordination Sequence:
#
# PCOD9174065 Si02
#       4
#     8   8   8   8
#     4  10  22  38  53  73 102 137 178 217 252 296
#     4  10  18  31  52  77 106 137 169 208 257 307
#     4   9  19  31  50  82 109 131 164 208 259 311
#     4  10  19  34  56  79 106 137 168 207 257 309
#
# _framework density 19.357178000000001
#
# number of rings (size 3 to 8) (size 9 to 14) (size 15 to 20)
#    0.000    2.250    0.000    3.000    0.000    8.000 
#    0.000    1.250    0.000    1.500    0.000    0.000 
#    0.000    0.000    0.000    0.000    0.000    0.000 
#
# Total GULP energy -89355.323880 kJ/mol
# GULP energy per Si atom -5584.707743 kJ/mol
# Density = 1.931312 g / cm^3
# Si number density = 19.357178 Si / 1000 Ang^3
#
#
#
# Elastic Constant Matrix: (Units=GPa)
#
#
# Indices 1 2 3 4 5 6 
#
# 1 100.3816 30.2629 38.2284 0.0000 37.9272 0.0000
# 2 30.2629 56.3083 29.7209 0.0000 20.1507 0.0000
# 3 38.2284 29.7209 130.7023 0.0000 28.0261 0.0000
# 4 0.0000 0.0000 0.0000 11.1258 0.0000 6.2025
# 5 37.9272 20.1507 28.0261 0.0000 39.6690 0.0000
# 6 0.0000 0.0000 0.0000 6.2025 0.0000 8.3410
#
#
#
# Elastic Compliance Matrix: (Units=1/GPa)
#
#
# Indices 1 2 3 4 5 6 
#
# 1 0.016413 -0.003514 -0.001201 0.000000 -0.013058 0.000000
# 2 -0.003514 0.023526 -0.002923 0.000000 -0.006526 0.000000
# 3 -0.001201 -0.002923 0.009549 0.000000 -0.004113 0.000000
# 4 0.000000 0.000000 0.000000 0.153527 0.000000 -0.114165
# 5 -0.013058 -0.006526 -0.004113 0.000000 0.043915 0.000000
# 6 0.000000 0.000000 0.000000 -0.114165 0.000000 0.204785
#
#
# Mechanical properties :
#
#
# Convention : Reuss Voigt Hill
#
# Bulk Modulus (GPa) = 29.22936 53.75741 41.49338
# Shear Modulus (GPa) = 10.45164 24.43915 17.44540
#
# Velocity S-wave (km/s) = 2.32617 3.55707 3.00532
# Velocity P-wave (km/s) = 4.72732 6.68595 5.79006
#
# Compressibility (1/GPa) = 0.03421218
#
# Stress axis : x y z
#
# Youngs Moduli (GPa) = 60.92850 42.50632 104.72434
#
# Poissons Ratio (x) = 0.14936 0.12581
# Poissons Ratio (y) = 0.21409 0.30606
# Poissons Ratio (z) = 0.07320 0.12423
#
# Static dielectric constant tensor:
#      x y z
#    x 1.695990 0.000000 0.010700 
#    y 0.000000 1.635210 0.000000 
#    z 0.010700 0.000000 1.738900 
# 
# From -- ./inp_files/115184.got.cif
#   From: 2010.05.17/outbox.cif.g08.bks.cpg/sg12_58_cif.got.tgz:115184.got - 2010.06.03 13:09:07.
