data_PCOD9174299
_publ_section_title
;
Structure prediction by ZEFSAII (Michael W. Deem and Ramdas Pophale) SiO2 
 PCOD9174299
Probable space group: C 2/M
;
_chemical_formula_sum "Si O2"
_cell_formula_units_Z 56
_cell_length_a 15.291830
_cell_length_b 7.377462
_cell_length_c 25.703639
_cell_angle_alpha 90.000000
_cell_angle_beta 55.635224
_cell_angle_gamma 90.000000
_cell_volume 2393.632324
_symmetry_space_group_name_H-M "C 2/M"
_symmetry_group_IT_number 12
_symmetry_cell_setting 'monoclinic'
loop_
_space_group_symop_operation_xyz
x,y,z
-x,y,-z
-x,-y,-z
x,-y,z
1/2+x,1/2+y,z
1/2-x,1/2+y,-z
1/2-x,1/2-y,-z
1/2+x,1/2-y,z
loop_
_atom_site_type_symbol
_atom_site_label
_atom_site_fract_x
_atom_site_fract_y
_atom_site_fract_z
Si Si1 0.785299 0.719444 0.621878
Si Si2 0.962964 0.295174 0.163740
Si Si3 0.548110 0.790822 0.719050
Si Si4 0.595637 0.221782 0.929456
Si Si5 0.364484 0.784297 0.486851
Si Si6 0.446288 0.778017 0.651236
Si Si7 0.295801 0.714935 0.927474
O O1 0.781711 0.500000 0.621890
O O2 0.665966 0.786317 0.655985
O O3 0.856021 0.780523 0.549131
O O4 0.838950 0.774906 0.658063
O O5 0.918684 0.500000 0.180713
O O6 0.943481 0.207190 0.226439
O O7 0.921051 0.214104 0.123900
O O8 0.089749 0.301555 0.115815
O O9 0.469219 0.714264 0.702032
O O10 0.515757 0.000000 0.738044
O O11 0.707480 0.277003 0.916184
O O12 0.592139 0.000000 0.930116
O O13 0.500000 0.278172 0.000000
O O14 0.250000 0.750000 0.500000
O O15 0.457518 0.716381 0.418473
O O16 0.381291 0.000000 0.484324
O O17 0.448797 0.000000 0.651987
O O18 0.310090 0.500000 0.915966
O O19 0.250000 0.750000 0.000000
#
# Coordination Sequence:
#
# PCOD9174299 Si02
#       7
#     8   8   8   8   8   8   8
#     4  10  20  34  55  79 105 141 182 221 263 319
#     4  10  21  38  57  79 108 143 181 215 261 322
#     4  10  21  37  56  77 107 145 178 218 266 316
#     4   9  17  33  56  78 105 140 170 205 262 321
#     4  10  18  31  54  79 104 137 179 224 268 316
#     4   9  18  34  54  77 108 143 177 216 272 324
#     4  11  21  35  58  84 109 139 175 218 266 314
#
# _framework density 23.395405
#
# number of rings (size 3 to 8) (size 9 to 14) (size 15 to 20)
#    0.000    2.143    2.857    0.857    0.000    3.429 
#    0.000    3.571    0.000    1.714    0.000    0.000 
#    0.000    0.000    0.000    0.000    0.000    0.000 
#
# Total GULP energy -156465.519929 kJ/mol
# GULP energy per Si atom -5588.054283 kJ/mol
# Density = 2.334216 g / cm^3
# Si number density = 23.395405 Si / 1000 Ang^3
#
#
#
# Elastic Constant Matrix: (Units=GPa)
#
#
# Indices 1 2 3 4 5 6 
#
# 1 134.3145 -2.7979 16.3722 0.0000 49.4107 -0.0001
# 2 -2.7979 88.2640 -0.4648 0.0001 8.4264 0.0003
# 3 16.3722 -0.4648 84.4804 0.0000 44.4529 0.0000
# 4 0.0000 0.0001 0.0000 0.4288 0.0000 -8.3670
# 5 49.4107 8.4264 44.4529 0.0000 52.4142 0.0000
# 6 -0.0001 0.0003 0.0000 -8.3670 0.0000 10.1832
#
#
#
# Elastic Compliance Matrix: (Units=1/GPa)
#
#
# Indices 1 2 3 4 5 6 
#
# 1 0.014043 0.002442 0.008062 0.000000 -0.020469 0.000000
# 2 0.002442 0.012097 0.003301 0.000001 -0.007046 0.000000
# 3 0.008062 0.003301 0.026315 0.000000 -0.030449 0.000000
# 4 0.000000 0.000001 0.000000 -0.155137 0.000000 -0.127468
# 5 -0.020469 -0.007046 -0.030449 0.000000 0.065332 0.000000
# 6 0.000000 0.000000 0.000000 -0.127468 0.000000 -0.006532
#
#
# Mechanical properties :
#
#
# Convention : Reuss Voigt Hill
#
# Bulk Modulus (GPa) = 12.48975 37.03090 24.76032
# Shear Modulus (GPa) = -111.59686 32.20184 -39.69751
#
# Velocity S-wave (km/s) = -6.91404 3.71403 -4.12370
# Velocity P-wave (km/s) = 7.64123 5.85275 3.47374
#
# Compressibility (1/GPa) = 0.08006568
#
# Stress axis : x y z
#
# Youngs Moduli (GPa) = 71.20839 82.66425 38.00158
#
# Poissons Ratio (x) = -0.20185 -0.30639
# Poissons Ratio (y) = -0.17387 -0.12545
# Poissons Ratio (z) = -0.57412 -0.27288
#
# Static dielectric constant tensor:
#      x y z
#    x 1.864770 0.000000 0.029520 
#    y 0.000000 1.874400 0.000000 
#    z 0.029520 0.000000 1.878980 
# 
# From -- ./inp_files/338442.got.cif
#   From: 2010.05.17/outbox.cif.g08.bks.cpg/sg12_170_cif.got.tgz:338442.got - 2010.06.03 13:09:07.
