data_PCOD9174898
_publ_section_title
;
Structure prediction by ZEFSAII (Michael W. Deem and Ramdas Pophale) SiO2 
 PCOD9174898
Probable space group: C 2/M
;
_chemical_formula_sum "Si O2"
_cell_formula_units_Z 48
_cell_length_a 10.498763
_cell_length_b 14.435724
_cell_length_c 14.615651
_cell_angle_alpha 90.000000
_cell_angle_beta 69.494694
_cell_angle_gamma 90.000000
_cell_volume 2074.758023
_symmetry_space_group_name_H-M "C 2/M"
_symmetry_group_IT_number 12
_symmetry_cell_setting 'monoclinic'
loop_
_space_group_symop_operation_xyz
x,y,z
-x,y,-z
-x,-y,-z
x,-y,z
1/2+x,1/2+y,z
1/2-x,1/2+y,-z
1/2-x,1/2-y,-z
1/2+x,1/2-y,z
loop_
_atom_site_type_symbol
_atom_site_label
_atom_site_fract_x
_atom_site_fract_y
_atom_site_fract_z
Si Si1 0.169071 0.401083 0.817359
Si Si2 0.297629 0.604014 0.986601
Si Si3 0.429188 0.237854 0.872879
Si Si4 0.461861 0.790954 0.664726
Si Si5 0.733897 0.000000 0.492497
Si Si6 0.226822 0.832497 0.398915
Si Si7 0.921554 0.500000 0.648720
O O1 0.093229 0.500000 0.827579
O O2 0.242077 0.404492 0.896279
O O3 0.250048 0.388716 0.702224
O O4 0.068534 0.315813 0.849311
O O5 0.318502 0.500000 0.017082
O O6 0.423405 0.671244 0.935694
O O7 0.189421 0.665883 0.069353
O O8 0.420973 0.260966 0.767766
O O9 0.625040 0.789959 0.613810
O O10 0.380904 0.746253 0.600911
O O11 0.418690 0.898174 0.693302
O O12 0.804401 0.908185 0.515232
O O13 0.576798 0.000000 0.569297
O O14 0.701867 0.000000 0.393446
#
# Coordination Sequence:
#
# PCOD9174898 Si02
#       7
#     8   8   8   8   4   8   4
#     4  10  18  32  54  78 101 140 187 236 267 321
#     4  10  20  33  51  75 107 142 183 236 275 325
#     4  10  20  31  51  79 105 139 187 231 274 317
#     4  10  21  36  58  82 113 147 186 228 276 332
#     4   9  18  36  61  88 110 144 187 227 271 337
#     4  10  19  35  58  85 111 146 183 231 276 328
#     4   9  20  36  59  86 116 143 182 229 279 331
#
# _framework density 23.135228999999999
#
# number of rings (size 3 to 8) (size 9 to 14) (size 15 to 20)
#    0.000    2.167    2.500    1.000    4.667    2.000 
#    0.000    0.833    5.500   10.000    0.000    0.000 
#    0.000    0.000    0.000    0.000    0.000    0.000 
#
# Total GULP energy -133974.281617 kJ/mol
# GULP energy per Si atom -5582.261734 kJ/mol
# Density = 2.308257 g / cm^3
# Si number density = 23.135229 Si / 1000 Ang^3
#
#
#
# Elastic Constant Matrix: (Units=GPa)
#
#
# Indices 1 2 3 4 5 6 
#
# 1 68.5921 45.6254 25.1255 0.0000 33.2499 0.0000
# 2 45.6254 119.9372 4.5269 0.0000 7.3213 0.0000
# 3 25.1255 4.5269 53.6697 0.0000 15.8669 0.0000
# 4 0.0000 0.0000 0.0000 25.9223 0.0000 6.6115
# 5 33.2499 7.3213 15.8669 0.0000 30.3664 0.0000
# 6 0.0000 0.0000 0.0000 6.6115 0.0000 23.8883
#
#
#
# Elastic Compliance Matrix: (Units=1/GPa)
#
#
# Indices 1 2 3 4 5 6 
#
# 1 0.052725 -0.016728 -0.008748 0.000000 -0.049127 0.000000
# 2 -0.016728 0.013770 0.002645 0.000000 0.013615 0.000000
# 3 -0.008748 0.002645 0.023490 0.000000 -0.003333 0.000000
# 4 0.000000 0.000000 0.000000 0.041507 0.000000 -0.011488
# 5 -0.049127 0.013615 -0.003333 0.000000 0.085182 0.000000
# 6 0.000000 0.000000 0.000000 -0.011488 0.000000 0.045041
#
#
# Mechanical properties :
#
#
# Convention : Reuss Voigt Hill
#
# Bulk Modulus (GPa) = 22.56201 43.63941 33.10071
# Shear Modulus (GPa) = 15.52063 27.16348 21.34205
#
# Velocity S-wave (km/s) = 2.59292 3.43026 3.04055
# Velocity P-wave (km/s) = 4.32871 5.88155 5.16383
#
# Compressibility (1/GPa) = 0.04432230
#
# Stress axis : x y z
#
# Youngs Moduli (GPa) = 18.96645 72.61995 42.57102
#
# Poissons Ratio (x) = 1.21479 0.37242
# Poissons Ratio (y) = 0.31727 -0.11259
# Poissons Ratio (z) = 0.16592 -0.19206
#
# Static dielectric constant tensor:
#      x y z
#    x 1.906370 0.000000 0.030250 
#    y 0.000000 1.942160 0.000000 
#    z 0.030250 0.000000 1.885290 
# 
# From -- ./inp_files/204411.got.cif
#   From: 2010.05.17/outbox.cif.g08.bks.cpg/sg12_103_cif.got.tgz:204411.got - 2010.06.03 13:09:07.
