data_PCOD9174077
_publ_section_title
;
Structure prediction by ZEFSAII (Michael W. Deem and Ramdas Pophale) SiO2 
 PCOD9174077
Probable space group: C 2/M
;
_chemical_formula_sum "Si O2"
_cell_formula_units_Z 40
_cell_length_a 18.509436
_cell_length_b 19.142870
_cell_length_c 8.091476
_cell_angle_alpha 90.000000
_cell_angle_beta 141.991197
_cell_angle_gamma 90.000000
_cell_volume 1765.449731
_symmetry_space_group_name_H-M "C 2/M"
_symmetry_group_IT_number 12
_symmetry_cell_setting 'monoclinic'
loop_
_space_group_symop_operation_xyz
x,y,z
-x,y,-z
-x,-y,-z
x,-y,z
1/2+x,1/2+y,z
1/2-x,1/2+y,-z
1/2-x,1/2-y,-z
1/2+x,1/2-y,z
loop_
_atom_site_type_symbol
_atom_site_label
_atom_site_fract_x
_atom_site_fract_y
_atom_site_fract_z
Si Si1 0.547168 0.681810 0.827094
Si Si2 0.315190 0.676860 0.586365
Si Si3 0.070697 0.656789 0.798841
Si Si4 0.633689 0.919765 0.399160
Si Si5 0.222043 0.919355 0.990670
O O1 0.407020 0.679433 0.601532
O O2 0.584736 0.760957 0.854324
O O3 0.606169 0.665191 0.109440
O O4 0.606813 0.627110 0.811747
O O5 0.250000 0.750000 0.500000
O O6 0.215860 0.618050 0.413844
O O7 0.191404 0.616635 0.984527
O O8 0.000000 0.650290 0.500000
O O9 0.985419 0.622461 0.780494
O O10 0.706021 0.918713 0.704340
O O11 0.610982 0.000000 0.318296
O O12 0.197341 0.000000 0.905768
#
# Coordination Sequence:
#
# PCOD9174077 Si02
#       5
#     8   8   8   8   8
#     4  10  20  32  53  78  98 134 171 201 253 296
#     4  10  19  34  52  74 103 132 166 211 245 292
#     4  10  18  31  52  78 101 130 165 207 251 296
#     4   9  17  30  51  76 100 128 165 210 253 287
#     4   9  18  31  48  75 104 127 164 210 249 294
#
# _framework density 22.657118000000001
#
# number of rings (size 3 to 8) (size 9 to 14) (size 15 to 20)
#    0.000    2.400    2.000    1.200    0.000    3.200 
#    0.000    4.000    0.000    4.200    0.000    0.000 
#    0.000    0.000    0.000    0.000    0.000    0.000 
#
# Total GULP energy -111838.638363 kJ/mol
# GULP energy per Si atom -5591.931918 kJ/mol
# Density = 2.260555 g / cm^3
# Si number density = 22.657118 Si / 1000 Ang^3
#
#
#
# Elastic Constant Matrix: (Units=GPa)
#
#
# Indices 1 2 3 4 5 6 
#
# 1 133.0601 93.4101 58.9087 0.0000 50.5579 0.0000
# 2 93.4101 217.3447 54.2477 0.0000 67.4146 0.0000
# 3 58.9087 54.2477 98.0445 0.0000 31.0316 0.0000
# 4 0.0000 0.0000 0.0000 16.6222 0.0000 7.3708
# 5 50.5579 67.4146 31.0316 0.0000 58.6215 0.0000
# 6 0.0000 0.0000 0.0000 7.3708 0.0000 34.0018
#
#
#
# Elastic Compliance Matrix: (Units=1/GPa)
#
#
# Indices 1 2 3 4 5 6 
#
# 1 0.014078 -0.002903 -0.004885 0.000000 -0.006218 0.000000
# 2 -0.002903 0.007973 -0.000670 0.000000 -0.006311 0.000000
# 3 -0.004885 -0.000670 0.014328 0.000000 -0.002602 0.000000
# 4 0.000000 0.000000 0.000000 0.066559 0.000000 -0.014428
# 5 -0.006218 -0.006311 -0.002602 0.000000 0.031056 0.000000
# 6 0.000000 0.000000 0.000000 -0.014428 0.000000 0.032538
#
#
# Mechanical properties :
#
#
# Convention : Reuss Voigt Hill
#
# Bulk Modulus (GPa) = 51.37373 95.73137 73.55255
# Shear Modulus (GPa) = 26.32464 37.97462 32.14963
#
# Velocity S-wave (km/s) = 3.41232 4.09841 3.77100
# Velocity P-wave (km/s) = 6.18457 8.04611 7.17596
#
# Compressibility (1/GPa) = 0.01946520
#
# Stress axis : x y z
#
# Youngs Moduli (GPa) = 71.03136 125.41845 69.79113
#
# Poissons Ratio (x) = 0.36406 0.34091
# Poissons Ratio (y) = 0.20619 0.04676
# Poissons Ratio (z) = 0.34696 0.08403
#
# Static dielectric constant tensor:
#      x y z
#    x 1.848640 0.000000 -0.048400 
#    y 0.000000 1.766560 0.000000 
#    z -0.048400 0.000000 1.896780 
# 
# From -- ./inp_files/46942.got.cif
#   From: 2010.05.17/outbox.cif.g08.bks.cpg/sg12_24_cif.got.tgz:46942.got - 2010.06.03 13:09:07.
