data_PCOD9174474
_publ_section_title
;
Structure prediction by ZEFSAII (Michael W. Deem and Ramdas Pophale) SiO2 
 PCOD9174474
Probable space group: C 2/M
;
_chemical_formula_sum "Si O2"
_cell_formula_units_Z 64
_cell_length_a 16.063687
_cell_length_b 29.991603
_cell_length_c 9.130194
_cell_angle_alpha 90.000000
_cell_angle_beta 131.671766
_cell_angle_gamma 90.000000
_cell_volume 3285.683256
_symmetry_space_group_name_H-M "C 2/M"
_symmetry_group_IT_number 12
_symmetry_cell_setting 'monoclinic'
loop_
_space_group_symop_operation_xyz
x,y,z
-x,y,-z
-x,-y,-z
x,-y,z
1/2+x,1/2+y,z
1/2-x,1/2+y,-z
1/2-x,1/2-y,-z
1/2+x,1/2-y,z
loop_
_atom_site_type_symbol
_atom_site_label
_atom_site_fract_x
_atom_site_fract_y
_atom_site_fract_z
Si Si1 0.438116 0.821585 0.644753
Si Si2 0.154492 0.146555 0.813735
Si Si3 0.983097 0.225504 0.653013
Si Si4 0.903825 0.048379 0.212615
Si Si5 0.362884 0.138802 0.263824
Si Si6 0.911744 0.913159 0.770030
Si Si7 0.285929 0.334627 0.446178
Si Si8 0.220760 0.548616 0.745878
O O1 0.495619 0.773741 0.740171
O O2 0.539847 0.855644 0.741449
O O3 0.380240 0.825669 0.415145
O O4 0.339451 0.831793 0.641484
O O5 0.064147 0.182704 0.763818
O O6 0.105947 0.097034 0.726069
O O7 0.207319 0.159824 0.720770
O O8 0.246127 0.144760 0.047221
O O9 0.000000 0.234183 0.500000
O O10 0.860410 0.209461 0.556483
O O11 0.014209 0.054468 0.243736
O O12 0.904643 0.000000 0.290333
O O13 0.796101 0.047107 0.980778
O O14 0.361344 0.090040 0.334230
O O15 0.853324 0.873831 0.609639
O O16 0.811761 0.939548 0.729525
O O17 0.000000 0.897077 0.000000
O O18 0.170367 0.500000 0.662571
#
# Coordination Sequence:
#
# PCOD9174474 Si02
#       8
#     8   8   8   8   8   8   8   8
#     4  11  22  40  60  81 113 152 199 241 279 336
#     4  10  22  38  61  86 119 152 185 238 293 347
#     4  10  20  38  59  83 113 148 186 240 291 335
#     4   9  17  32  56  85 118 155 188 226 288 352
#     4  10  21  39  63  83 111 156 195 237 283 339
#     4  10  18  31  56  87 119 153 187 235 289 343
#     4  11  22  36  59  82 120 151 187 235 292 340
#     4   9  17  32  57  88 114 147 195 243 282 328
#
# _framework density 19.478446000000002
#
# number of rings (size 3 to 8) (size 9 to 14) (size 15 to 20)
#    0.000    2.000    3.750    0.750    0.000    2.500 
#    0.000    3.125    5.500    0.000    0.000    3.500 
#    0.000    0.000    0.000    0.000    0.000    0.000 
#
# Total GULP energy -178186.621988 kJ/mol
# GULP energy per Si atom -5568.331937 kJ/mol
# Density = 1.943411 g / cm^3
# Si number density = 19.478446 Si / 1000 Ang^3
#
#
#
# Elastic Constant Matrix: (Units=GPa)
#
#
# Indices 1 2 3 4 5 6 
#
# 1 112.8232 44.3658 -9.6606 0.0000 19.9946 0.0000
# 2 44.3658 122.3712 11.3223 0.0000 16.2361 0.0000
# 3 -9.6606 11.3223 29.3484 0.0000 -0.0026 0.0000
# 4 0.0000 0.0000 0.0000 9.1078 0.0000 -5.3055
# 5 19.9946 16.2361 -0.0026 0.0000 18.9508 0.0000
# 6 0.0000 0.0000 0.0000 -5.3055 0.0000 -8.4088
#
#
#
# Elastic Compliance Matrix: (Units=1/GPa)
#
#
# Indices 1 2 3 4 5 6 
#
# 1 0.012604 -0.003749 0.005594 0.000000 -0.010085 0.000000
# 2 -0.003749 0.010722 -0.005371 0.000000 -0.005231 0.000000
# 3 0.005594 -0.005371 0.037987 0.000000 -0.001296 0.000000
# 4 0.000000 0.000000 0.000000 0.080287 0.000000 -0.050657
# 5 -0.010085 -0.005231 -0.001296 0.000000 0.067891 0.000000
# 6 0.000000 0.000000 0.000000 -0.050657 0.000000 -0.086961
#
#
# Mechanical properties :
#
#
# Convention : Reuss Voigt Hill
#
# Bulk Modulus (GPa) = 18.42932 39.62199 29.02566
# Shear Modulus (GPa) = 33.85959 18.49765 26.17862
#
# Velocity S-wave (km/s) = 4.17383 3.08498 3.67001
# Velocity P-wave (km/s) = 5.71924 5.75109 5.73519
#
# Compressibility (1/GPa) = 0.05426137
#
# Stress axis : x y z
#
# Youngs Moduli (GPa) = 79.33952 93.26504 26.32492
#
# Poissons Ratio (x) = 0.34966 -0.14727
# Poissons Ratio (y) = 0.29745 0.14139
# Poissons Ratio (z) = -0.44385 0.50093
#
# Static dielectric constant tensor:
#      x y z
#    x 1.673950 0.000000 -0.004660 
#    y 0.000000 1.746340 0.000000 
#    z -0.004660 0.000000 1.706570 
# 
# From -- ./inp_files/68623.got.cif
#   From: 2010.05.17/outbox.cif.g08.bks.cpg/sg12_35_cif.got.tgz:68623.got - 2010.06.03 13:09:07.
