data_PCOD9174608
_publ_section_title
;
Structure prediction by ZEFSAII (Michael W. Deem and Ramdas Pophale) SiO2 
 PCOD9174608
Probable space group: C 2/M
;
_chemical_formula_sum "Si O2"
_cell_formula_units_Z 64
_cell_length_a 16.870694
_cell_length_b 19.748257
_cell_length_c 20.125828
_cell_angle_alpha 90.000000
_cell_angle_beta 32.599912
_cell_angle_gamma 90.000000
_cell_volume 3612.588295
_symmetry_space_group_name_H-M "C 2/M"
_symmetry_group_IT_number 12
_symmetry_cell_setting 'monoclinic'
loop_
_space_group_symop_operation_xyz
x,y,z
-x,y,-z
-x,-y,-z
x,-y,z
1/2+x,1/2+y,z
1/2-x,1/2+y,-z
1/2-x,1/2-y,-z
1/2+x,1/2-y,z
loop_
_atom_site_type_symbol
_atom_site_label
_atom_site_fract_x
_atom_site_fract_y
_atom_site_fract_z
Si Si1 0.344351 0.715508 0.875096
Si Si2 0.718401 0.574917 0.875391
Si Si3 0.834634 0.230254 0.122504
Si Si4 0.425586 0.926362 0.386318
Si Si5 0.098103 0.714221 0.623591
Si Si6 0.789238 0.576655 0.631421
Si Si7 0.935680 0.923945 0.871146
Si Si8 0.903570 0.291073 0.625098
O O1 0.252127 0.733319 0.874926
O O2 0.502397 0.749630 0.747664
O O3 0.373089 0.637399 0.871888
O O4 0.250000 0.750000 0.000000
O O5 0.672581 0.500000 0.879996
O O6 0.671750 0.647526 0.878481
O O7 0.896089 0.575011 0.745315
O O8 0.649361 0.577827 0.998083
O O9 0.748730 0.245306 0.250672
O O10 0.000000 0.251540 0.000000
O O11 0.370888 0.863719 0.382147
O O12 0.358678 0.918862 0.508287
O O13 0.377345 0.000000 0.396891
O O14 0.250000 0.750000 0.500000
O O15 0.998120 0.709302 0.626476
O O16 0.821305 0.500000 0.633076
O O17 0.612286 0.585258 0.755114
O O18 0.858562 0.634965 0.627973
O O19 0.915041 0.000000 0.858224
O O20 0.000000 0.258008 0.500000
#
# Coordination Sequence:
#
# PCOD9174608 Si02
#       8
#     8   8   8   8   8   8   8   8
#     4  11  21  36  56  76 104 143 179 218 268 309
#     4  10  18  32  50  73 105 141 174 209 257 313
#     4  11  22  34  50  77 108 140 181 220 262 315
#     4  10  18  33  51  73 105 140 175 212 254 306
#     4  11  22  35  51  75 104 142 182 219 255 309
#     4  10  20  32  51  77 107 144 174 203 252 313
#     4  10  20  35  55  78 104 139 179 216 260 316
#     4  11  21  33  49  73 106 142 175 214 252 304
#
# _framework density 17.71583
#
# number of rings (size 3 to 8) (size 9 to 14) (size 15 to 20)
#    0.000    1.500    5.000    1.500    0.000    1.500 
#    0.000    0.000    0.000    0.375    0.000    0.000 
#    0.000   12.500    0.000    0.000    0.000    0.000 
#
# Total GULP energy -178388.630608 kJ/mol
# GULP energy per Si atom -5574.644707 kJ/mol
# Density = 1.767551 g / cm^3
# Si number density = 17.715830 Si / 1000 Ang^3
#
#
#
# Elastic Constant Matrix: (Units=GPa)
#
#
# Indices 1 2 3 4 5 6 
#
# 1 27.5698 28.8502 37.2181 -0.0001 -2.6955 0.0002
# 2 28.8502 104.9859 51.8623 -0.0001 -3.7564 -0.0012
# 3 37.2181 51.8623 184.8125 0.0023 1.5974 -0.0035
# 4 -0.0001 -0.0001 0.0023 24.5518 -0.0022 -1.2170
# 5 -2.6955 -3.7564 1.5974 -0.0022 29.1434 0.0022
# 6 0.0002 -0.0012 -0.0035 -1.2170 0.0022 13.8608
#
#
#
# Elastic Compliance Matrix: (Units=1/GPa)
#
#
# Indices 1 2 3 4 5 6 
#
# 1 0.061854 -0.012375 -0.009024 0.000001 0.004621 -0.000005
# 2 -0.012375 0.013608 -0.001333 0.000000 0.000683 0.000001
# 3 -0.009024 -0.001333 0.007614 -0.000001 -0.001424 0.000002
# 4 0.000001 0.000000 -0.000001 0.040908 0.000003 0.003592
# 5 0.004621 0.000683 -0.001424 0.000003 0.034906 -0.000006
# 6 -0.000005 0.000001 0.000002 0.003592 -0.000006 0.072462
#
#
# Mechanical properties :
#
#
# Convention : Reuss Voigt Hill
#
# Bulk Modulus (GPa) = 26.58513 61.46995 44.02754
# Shear Modulus (GPa) = 17.27988 26.80703 22.04345
#
# Velocity S-wave (km/s) = 3.12651 3.89417 3.53126
# Velocity P-wave (km/s) = 5.29835 7.41569 6.44457
#
# Compressibility (1/GPa) = 0.03761501
#
# Stress axis : x y z
#
# Youngs Moduli (GPa) = 16.16702 73.48400 131.33007
#
# Poissons Ratio (x) = 0.90934 1.18509
# Poissons Ratio (y) = 0.20006 0.17502
# Poissons Ratio (z) = 0.14589 0.09793
#
# Static dielectric constant tensor:
#      x y z
#    x 1.593130 0.000000 -0.002510 
#    y 0.000000 1.630600 0.000000 
#    z -0.002510 0.000000 1.655250 
# 
# From -- ./inp_files/317802.got.cif
#   From: 2010.05.17/outbox.cif.g08.bks.cpg/sg12_159_cif.got.tgz:317802.got - 2010.06.03 13:09:07.
