data_PCOD9174614
_publ_section_title
;
Structure prediction by ZEFSAII (Michael W. Deem and Ramdas Pophale) SiO2 
 PCOD9174614
Probable space group: C 2/M
;
_chemical_formula_sum "Si O2"
_cell_formula_units_Z 52
_cell_length_a 8.949531
_cell_length_b 24.628796
_cell_length_c 18.888403
_cell_angle_alpha 90.000000
_cell_angle_beta 36.483478
_cell_angle_gamma 90.000000
_cell_volume 2475.466194
_symmetry_space_group_name_H-M "C 2/M"
_symmetry_group_IT_number 12
_symmetry_cell_setting 'monoclinic'
loop_
_space_group_symop_operation_xyz
x,y,z
-x,y,-z
-x,-y,-z
x,-y,z
1/2+x,1/2+y,z
1/2-x,1/2+y,-z
1/2-x,1/2-y,-z
1/2+x,1/2-y,z
loop_
_atom_site_type_symbol
_atom_site_label
_atom_site_fract_x
_atom_site_fract_y
_atom_site_fract_z
Si Si1 0.992064 0.437184 0.300083
Si Si2 0.950130 0.891431 0.941228
Si Si3 0.932484 0.613257 0.178809
Si Si4 0.023589 0.657260 0.380322
Si Si5 0.000000 0.262947 0.500000
Si Si6 0.494588 0.216694 0.248301
Si Si7 0.579982 0.660092 0.195969
O O1 0.955603 0.500000 0.327086
O O2 0.294792 0.424477 0.174177
O O3 0.907490 0.398175 0.396539
O O4 0.855954 0.417425 0.280037
O O5 0.881763 0.854574 0.900513
O O6 0.680424 0.919163 0.058095
O O7 0.000000 0.865722 0.000000
O O8 0.999512 0.674075 0.182680
O O9 0.743051 0.624430 0.187388
O O10 0.285387 0.647300 0.320516
O O11 0.876379 0.698183 0.486984
O O12 0.099866 0.688335 0.278767
O O13 0.205491 0.228376 0.380472
O O14 0.616383 0.275356 0.190935
#
# Coordination Sequence:
#
# PCOD9174614 Si02
#       7
#     8   8   8   8   4   8   8
#     4   9  19  38  58  74 101 139 178 223 273 315
#     4   9  19  33  51  73 102 139 177 211 256 312
#     4  10  20  32  50  78 105 135 181 222 254 308
#     4   9  19  33  53  80 107 138 177 215 260 320
#     4  10  18  32  57  84 107 136 176 218 258 312
#     4  10  20  34  52  78 110 145 176 209 261 316
#     4  10  18  32  50  75 111 141 172 217 260 306
#
# _framework density 21.006143999999999
#
# number of rings (size 3 to 8) (size 9 to 14) (size 15 to 20)
#    0.000    2.462    0.000    3.692    0.000    4.615 
#    0.000    8.077    0.000    7.385    0.000   30.154 
#    0.000    0.000    0.000    0.000    0.000    0.000 
#
# Total GULP energy -144772.169005 kJ/mol
# GULP energy per Si atom -5568.160346 kJ/mol
# Density = 2.095833 g / cm^3
# Si number density = 21.006144 Si / 1000 Ang^3
#
#
#
# Elastic Constant Matrix: (Units=GPa)
#
#
# Indices 1 2 3 4 5 6 
#
# 1 131.0110 28.9775 7.0499 0.0000 4.6921 0.0001
# 2 28.9775 92.5139 -10.4507 0.0001 5.3093 0.0001
# 3 7.0499 -10.4507 26.5556 -0.0008 1.3192 -0.0008
# 4 0.0000 0.0001 -0.0008 13.9249 0.0002 -4.4547
# 5 4.6921 5.3093 1.3192 0.0002 19.3034 0.0002
# 6 0.0001 0.0001 -0.0008 -4.4547 0.0002 4.7350
#
#
#
# Elastic Compliance Matrix: (Units=1/GPa)
#
#
# Indices 1 2 3 4 5 6 
#
# 1 0.008513 -0.002991 -0.003387 -0.000001 -0.001015 -0.000001
# 2 -0.002991 0.012593 0.005906 0.000001 -0.003140 0.000002
# 3 -0.003387 0.005906 0.041059 0.000007 -0.003607 0.000013
# 4 -0.000001 0.000001 0.000007 0.102734 -0.000003 0.096653
# 5 -0.001015 -0.003140 -0.003607 -0.000003 0.053161 -0.000006
# 6 -0.000001 0.000002 0.000013 0.096653 -0.000006 0.302123
#
#
# Mechanical properties :
#
#
# Convention : Reuss Voigt Hill
#
# Bulk Modulus (GPa) = 16.33371 33.47041 24.90206
# Shear Modulus (GPa) = 9.23303 22.55960 15.89631
#
# Velocity S-wave (km/s) = 2.09879 3.28068 2.75389
# Velocity P-wave (km/s) = 3.69673 5.50624 4.68959
#
# Compressibility (1/GPa) = 0.06122308
#
# Stress axis : x y z
#
# Youngs Moduli (GPa) = 117.46658 79.40693 24.35495
#
# Poissons Ratio (x) = 0.23749 0.08248
# Poissons Ratio (y) = 0.35132 -0.14384
# Poissons Ratio (z) = 0.39781 -0.46898
#
# Static dielectric constant tensor:
#      x y z
#    x 1.808810 0.000000 -0.033860 
#    y 0.000000 1.759880 0.000000 
#    z -0.033860 0.000000 1.841920 
# 
# From -- ./inp_files/302251.got.cif
#   From: 2010.05.17/outbox.cif.g08.bks.cpg/sg12_152_cif.got.tgz:302251.got - 2010.06.03 13:09:07.
