data_PCOD9174636
_publ_section_title
;
Structure prediction by ZEFSAII (Michael W. Deem and Ramdas Pophale) SiO2 
 PCOD9174636
Probable space group: C 2/M
;
_chemical_formula_sum "Si O2"
_cell_formula_units_Z 64
_cell_length_a 15.169559
_cell_length_b 12.107129
_cell_length_c 19.195445
_cell_angle_alpha 90.000000
_cell_angle_beta 89.238802
_cell_angle_gamma 90.000000
_cell_volume 3525.120619
_symmetry_space_group_name_H-M "C 2/M"
_symmetry_group_IT_number 12
_symmetry_cell_setting 'monoclinic'
loop_
_space_group_symop_operation_xyz
x,y,z
-x,y,-z
-x,-y,-z
x,-y,z
1/2+x,1/2+y,z
1/2-x,1/2+y,-z
1/2-x,1/2-y,-z
1/2+x,1/2-y,z
loop_
_atom_site_type_symbol
_atom_site_label
_atom_site_fract_x
_atom_site_fract_y
_atom_site_fract_z
Si Si1 0.906112 0.210113 0.916659
Si Si2 0.980110 0.130591 0.418526
Si Si3 0.103540 0.873446 0.942655
Si Si4 0.618737 0.246430 0.321151
Si Si5 0.200267 0.119767 0.205709
Si Si6 0.529376 0.129984 0.196059
Si Si7 0.799441 0.127607 0.350041
Si Si8 0.358152 0.711073 0.204066
O O1 0.852639 0.133316 0.864931
O O2 0.919680 0.323700 0.873349
O O3 0.002024 0.156413 0.927251
O O4 0.866811 0.207469 0.994954
O O5 0.045152 0.212249 0.375767
O O6 0.000000 0.140106 0.500000
O O7 0.877856 0.157580 0.402534
O O8 0.992942 0.000000 0.398857
O O9 0.147745 0.855985 0.867548
O O10 0.112481 0.000000 0.965486
O O11 0.638038 0.351109 0.271006
O O12 0.584811 0.155044 0.265676
O O13 0.711016 0.202151 0.352130
O O14 0.275595 0.208913 0.205342
O O15 0.239516 0.000000 0.212434
O O16 0.444669 0.210985 0.203179
O O17 0.509683 0.000000 0.190207
O O18 0.847027 0.140508 0.274023
O O19 0.774312 0.000000 0.360867
#
# Coordination Sequence:
#
# PCOD9174636 Si02
#       8
#     8   8   8   8   8   8   8   8
#     4   9  19  32  48  72  97 134 181 226 276 330
#     4  10  21  38  61  89 119 149 183 226 277 331
#     4  10  18  32  51  71 100 135 180 232 281 326
#     4  10  20  35  58  84 111 148 188 228 274 329
#     4  10  19  32  50  74 105 136 179 228 274 327
#     4  10  19  34  53  75 106 145 184 228 279 329
#     4  10  20  36  58  85 114 148 191 233 276 329
#     4  10  20  32  50  78 105 141 185 229 276 333
#
# _framework density 18.155408000000001
#
# number of rings (size 3 to 8) (size 9 to 14) (size 15 to 20)
#    0.000    2.125    1.250    3.000    0.000    1.000 
#    0.000    6.250    0.000    1.500    0.000    0.000 
#    0.000    0.000    0.000    0.000    0.000    0.000 
#
# Total GULP energy -178276.814002 kJ/mol
# GULP energy per Si atom -5571.150438 kJ/mol
# Density = 1.811409 g / cm^3
# Si number density = 18.155408 Si / 1000 Ang^3
#
#
#
# Elastic Constant Matrix: (Units=GPa)
#
#
# Indices 1 2 3 4 5 6 
#
# 1 63.5521 18.8498 32.7335 0.0000 17.2478 0.0000
# 2 18.8498 61.5796 16.6188 0.0000 8.2712 0.0000
# 3 32.7335 16.6188 73.4193 0.0000 22.9382 0.0000
# 4 0.0000 0.0000 0.0000********** 0.0000**********
# 5 17.2478 8.2712 22.9382 0.0000 19.2185 0.0000
# 6 0.0000 0.0000 0.0000********** 0.0000**********
#
#
#
# Elastic Compliance Matrix: (Units=1/GPa)
#
#
# Indices 1 2 3 4 5 6 
#
# 1 0.023129 -0.003912 -0.005529 0.000000 -0.012474 0.000000
# 2 -0.003912 0.018196 -0.001634 0.000000 -0.002370 0.000000
# 3 -0.005529 -0.001634 0.023418 0.000000 -0.022285 0.000000
# 4 0.000000 0.000000 0.000000 0.059572 0.000000 -0.036075
# 5 -0.012474 -0.002370 -0.022285 0.000000 0.090846 0.000000
# 6 0.000000 0.000000 0.000000 -0.036075 0.000000 0.021844
#
#
# Mechanical properties :
#
#
# Convention : Reuss Voigt Hill
#
# Bulk Modulus (GPa) = 23.47870 37.21725 30.34798
# Shear Modulus (GPa) = 18.29143 -169448.37385 -84715.04121
#
# Velocity S-wave (km/s) = 3.17754 -305.83459 -216.24604
# Velocity P-wave (km/s) = 5.14029 353.11827 249.66587
#
# Compressibility (1/GPa) = 0.04259179
#
# Stress axis : x y z
#
# Youngs Moduli (GPa) = 43.23628 54.95719 42.70265
#
# Poissons Ratio (x) = 0.21500 0.23610
# Poissons Ratio (y) = 0.16915 0.06978
# Poissons Ratio (z) = 0.23905 0.08981
#
# Static dielectric constant tensor:
#      x y z
#    x 1.653960 0.000000 -0.020940 
#    y 0.000000 1.594240 0.000000 
#    z -0.020940 0.000000 1.662030 
# 
# From -- ./inp_files/269308.got.cif
#   From: 2010.05.17/outbox.cif.g08.bks.cpg/sg12_135_cif.got.tgz:269308.got - 2010.06.03 13:09:07.
