data_PCOD9174155
_publ_section_title
;
Structure prediction by ZEFSAII (Michael W. Deem and Ramdas Pophale) SiO2 
 PCOD9174155
Probable space group: C 2/M
;
_chemical_formula_sum "Si O2"
_cell_formula_units_Z 44
_cell_length_a 11.475339
_cell_length_b 19.563959
_cell_length_c 15.065499
_cell_angle_alpha 90.000000
_cell_angle_beta 140.755762
_cell_angle_gamma 90.000000
_cell_volume 2139.704598
_symmetry_space_group_name_H-M "C 2/M"
_symmetry_group_IT_number 12
_symmetry_cell_setting 'monoclinic'
loop_
_space_group_symop_operation_xyz
x,y,z
-x,y,-z
-x,-y,-z
x,-y,z
1/2+x,1/2+y,z
1/2-x,1/2+y,-z
1/2-x,1/2-y,-z
1/2+x,1/2-y,z
loop_
_atom_site_type_symbol
_atom_site_label
_atom_site_fract_x
_atom_site_fract_y
_atom_site_fract_z
Si Si1 0.715046 0.292026 0.693171
Si Si2 0.209498 0.141941 0.314140
Si Si3 0.223470 0.832106 0.980052
Si Si4 0.500000 0.167205 0.000000
Si Si5 0.722473 0.425201 0.141519
Si Si6 0.192023 0.826511 0.492847
O O1 0.693217 0.213968 0.650443
O O2 0.770590 0.335485 0.638429
O O3 0.527927 0.322904 0.621611
O O4 0.869440 0.290363 0.858457
O O5 0.266842 0.090894 0.270063
O O6 0.240413 0.127154 0.436688
O O7 0.989173 0.153802 0.170605
O O8 0.355648 0.865821 0.983229
O O9 0.274576 0.865208 0.104618
O O10 0.250000 0.750000 0.000000
O O11 0.794269 0.500000 0.158103
O O12 0.500000 0.427513 0.000000
O O13 0.250000 0.750000 0.500000
#
# Coordination Sequence:
#
# PCOD9174155 Si02
#       6
#     8   8   8   4   8   8
#     4  10  19  30  48  79 117 141 178 225 289 328
#     4  10  18  31  53  74 109 148 183 223 274 341
#     4  11  20  30  51  84 114 140 184 233 278 323
#     4  12  20  30  51  82 107 140 180 230 286 324
#     4   9  20  35  51  77 113 151 186 227 276 333
#     4   9  19  32  45  74 115 150 174 217 287 340
#
# _framework density 20.563586999999998
#
# number of rings (size 3 to 8) (size 9 to 14) (size 15 to 20)
#    0.000    2.000    3.636    1.091    2.545    0.000 
#    0.000    0.455    0.000    0.000    0.000   26.727 
#    0.000    0.000    0.000    0.000    0.000    0.000 
#
# Total GULP energy -122584.693388 kJ/mol
# GULP energy per Si atom -5572.031518 kJ/mol
# Density = 2.051678 g / cm^3
# Si number density = 20.563587 Si / 1000 Ang^3
#
#
#
# Elastic Constant Matrix: (Units=GPa)
#
#
# Indices 1 2 3 4 5 6 
#
# 1 109.8411 28.8024 38.4126 0.0006 -30.2357 0.0001
# 2 28.8024 62.8809 12.7742 0.0001 -18.9581 0.0000
# 3 38.4126 12.7742 102.1657 0.0008 -26.3037 0.0003
# 4 0.0006 0.0001 0.0008 7.7254 0.0004 -4.5335
# 5 -30.2357 -18.9581 -26.3037 0.0004 50.6269 0.0001
# 6 0.0001 0.0000 0.0003 -4.5335 0.0001 16.1769
#
#
#
# Elastic Compliance Matrix: (Units=1/GPa)
#
#
# Indices 1 2 3 4 5 6 
#
# 1 0.012356 -0.003712 -0.003047 -0.000001 0.004406 0.000000
# 2 -0.003712 0.019073 0.000322 0.000000 0.005093 0.000000
# 3 -0.003047 0.000322 0.012071 -0.000002 0.004572 -0.000001
# 4 -0.000001 0.000000 -0.000002 0.154921 -0.000003 0.043416
# 5 0.004406 0.005093 0.004572 -0.000003 0.026666 -0.000001
# 6 0.000000 0.000000 -0.000001 0.043416 -0.000001 0.073984
#
#
# Mechanical properties :
#
#
# Convention : Reuss Voigt Hill
#
# Bulk Modulus (GPa) = 32.65252 48.31844 40.48548
# Shear Modulus (GPa) = 15.52052 27.89906 21.70979
#
# Velocity S-wave (km/s) = 2.75027 3.68737 3.25274
# Velocity P-wave (km/s) = 5.09888 6.45577 5.81702
#
# Compressibility (1/GPa) = 0.03062551
#
# Stress axis : x y z
#
# Youngs Moduli (GPa) = 80.93292 52.42898 82.84617
#
# Poissons Ratio (x) = 0.19463 0.25244
# Poissons Ratio (y) = 0.30044 -0.02668
# Poissons Ratio (z) = 0.24661 -0.01689
#
# Static dielectric constant tensor:
#      x y z
#    x 1.863910 0.000000 -0.018770 
#    y 0.000000 1.700080 0.000000 
#    z -0.018770 0.000000 1.797650 
# 
# From -- ./inp_files/207818.got.cif
#   From: 2010.05.17/outbox.cif.g08.bks.cpg/sg12_104_cif.got.tgz:207818.got - 2010.06.03 13:09:07.
