data_PCOD9174085
_publ_section_title
;
Structure prediction by ZEFSAII (Michael W. Deem and Ramdas Pophale) SiO2 
 PCOD9174085
Probable space group: C 2/M
;
_chemical_formula_sum "Si O2"
_cell_formula_units_Z 56
_cell_length_a 32.414784
_cell_length_b 9.112527
_cell_length_c 19.404423
_cell_angle_alpha 90.000000
_cell_angle_beta 146.666624
_cell_angle_gamma 90.000000
_cell_volume 3149.618680
_symmetry_space_group_name_H-M "C 2/M"
_symmetry_group_IT_number 12
_symmetry_cell_setting 'monoclinic'
loop_
_space_group_symop_operation_xyz
x,y,z
-x,y,-z
-x,-y,-z
x,-y,z
1/2+x,1/2+y,z
1/2-x,1/2+y,-z
1/2-x,1/2-y,-z
1/2+x,1/2-y,z
loop_
_atom_site_type_symbol
_atom_site_label
_atom_site_fract_x
_atom_site_fract_y
_atom_site_fract_z
Si Si1 0.954658 0.334151 0.545251
Si Si2 0.682326 0.670972 0.591199
Si Si3 0.178946 0.674254 0.114160
Si Si4 0.753604 0.672767 0.931189
Si Si5 0.275564 0.325317 0.606080
Si Si6 0.413841 0.677075 0.895077
Si Si7 0.890977 0.666421 0.301440
O O1 0.944794 0.500000 0.559137
O O2 0.901869 0.219750 0.509512
O O3 0.925573 0.336668 0.425878
O O4 0.042928 0.303434 0.661093
O O5 0.686324 0.500000 0.577240
O O6 0.739574 0.692433 0.735258
O O7 0.715396 0.774249 0.578550
O O8 0.162664 0.500000 0.091406
O O9 0.188518 0.724153 0.048005
O O10 0.119908 0.754899 0.081588
O O11 0.764754 0.500000 0.955096
O O12 0.671800 0.711515 0.787969
O O13 0.750000 0.750000 0.000000
O O14 0.276319 0.500000 0.598541
O O15 0.250000 0.250000 0.500000
O O16 0.356299 0.281522 0.752592
O O17 0.411410 0.500000 0.897635
O O18 0.500000 0.720304 0.000000
O O19 0.861713 0.500000 0.247397
#
# Coordination Sequence:
#
# PCOD9174085 Si02
#       7
#     8   8   8   8   8   8   8
#     4   9  17  30  50  76 103 131 167 210 258 309
#     4  10  18  31  52  78 106 136 174 220 262 313
#     4   9  19  34  52  77 106 136 177 222 265 317
#     4  11  22  36  52  74 104 142 185 227 269 317
#     4  10  20  35  55  80 110 143 176 218 273 330
#     4   9  19  36  59  85 109 137 178 225 272 326
#     4   9  18  32  50  73 102 134 168 211 260 309
#
# _framework density 17.77993
#
# number of rings (size 3 to 8) (size 9 to 14) (size 15 to 20)
#    0.000    2.429    1.429    2.143    0.000    3.143 
#    0.000    2.857    0.000    3.429    0.000    0.000 
#    0.000    0.000    0.000    0.000    0.000    0.000 
#
# Total GULP energy -155936.012718 kJ/mol
# GULP energy per Si atom -5569.143311 kJ/mol
# Density = 1.773946 g / cm^3
# Si number density = 17.779930 Si / 1000 Ang^3
#
#
#
# Elastic Constant Matrix: (Units=GPa)
#
#
# Indices 1 2 3 4 5 6 
#
# 1 120.1746 45.2144 55.9188 0.0000 -0.3912 0.0000
# 2 45.2144 40.2792 24.8325 0.0000 -3.7242 0.0000
# 3 55.9188 24.8325 44.3777 0.0000 -5.8888 0.0000
# 4 0.0000 0.0000 0.0000 24.2119 0.0000 -0.9683
# 5 -0.3912 -3.7242 -5.8888 0.0000 27.3901 0.0000
# 6 0.0000 0.0000 0.0000 -0.9683 0.0000 33.0079
#
#
#
# Elastic Compliance Matrix: (Units=1/GPa)
#
#
# Indices 1 2 3 4 5 6 
#
# 1 0.024761 -0.013177 -0.024723 0.000000 -0.006753 0.000000
# 2 -0.013177 0.044925 -0.007976 0.000000 0.004205 0.000000
# 3 -0.024723 -0.007976 0.059661 0.000000 0.011389 0.000000
# 4 0.000000 0.000000 0.000000 0.041350 0.000000 0.001213
# 5 -0.006753 0.004205 0.011389 0.000000 0.039434 0.000000
# 6 0.000000 0.000000 0.000000 0.001213 0.000000 0.030331
#
#
# Mechanical properties :
#
#
# Convention : Reuss Voigt Hill
#
# Bulk Modulus (GPa) = 26.60021 50.75142 38.67582
# Shear Modulus (GPa) = 14.50337 22.17970 18.34153
#
# Velocity S-wave (km/s) = 2.85917 3.53577 3.21532
# Velocity P-wave (km/s) = 5.08853 6.72867 5.96524
#
# Compressibility (1/GPa) = 0.03759368
#
# Stress axis : x y z
#
# Youngs Moduli (GPa) = 40.38602 22.25941 16.76127
#
# Poissons Ratio (x) = 0.29332 0.41439
# Poissons Ratio (y) = 0.53218 0.13369
# Poissons Ratio (z) = 0.99847 0.17755
#
# Static dielectric constant tensor:
#      x y z
#    x 1.624160 0.000000 -0.018590 
#    y 0.000000 1.601050 0.000000 
#    z -0.018590 0.000000 1.658750 
# 
# From -- ./inp_files/280901.got.cif
#   From: 2010.05.17/outbox.cif.g08.bks.cpg/sg12_141_cif.got.tgz:280901.got - 2010.06.03 13:09:07.
