data_PCOD9174812
_publ_section_title
;
Structure prediction by ZEFSAII (Michael W. Deem and Ramdas Pophale) SiO2 
 PCOD9174812
Probable space group: C 2/M
;
_chemical_formula_sum "Si O2"
_cell_formula_units_Z 52
_cell_length_a 23.107276
_cell_length_b 8.271450
_cell_length_c 20.259445
_cell_angle_alpha 90.000000
_cell_angle_beta 42.461443
_cell_angle_gamma 90.000000
_cell_volume 2614.099610
_symmetry_space_group_name_H-M "C 2/M"
_symmetry_group_IT_number 12
_symmetry_cell_setting 'monoclinic'
loop_
_space_group_symop_operation_xyz
x,y,z
-x,y,-z
-x,-y,-z
x,-y,z
1/2+x,1/2+y,z
1/2-x,1/2+y,-z
1/2-x,1/2-y,-z
1/2+x,1/2-y,z
loop_
_atom_site_type_symbol
_atom_site_label
_atom_site_fract_x
_atom_site_fract_y
_atom_site_fract_z
Si Si1 0.688205 0.182952 0.289561
Si Si2 0.578349 0.192699 0.562575
Si Si3 0.716586 0.690112 0.122986
Si Si4 0.000000 0.743966 0.500000
Si Si5 0.060454 0.809740 0.721220
Si Si6 0.611824 0.188737 0.088936
Si Si7 0.234897 0.804127 0.640938
O O1 0.692334 0.280233 0.218726
O O2 0.591752 0.173200 0.399580
O O3 0.745324 0.252538 0.301246
O O4 0.716067 0.000000 0.251146
O O5 0.531735 0.300972 0.545998
O O6 0.546540 0.224750 0.662641
O O7 0.679762 0.230121 0.473202
O O8 0.565540 0.000000 0.557119
O O9 0.709185 0.500000 0.113096
O O10 0.655950 0.783913 0.123218
O O11 0.814632 0.739700 0.024602
O O12 0.147318 0.746134 0.682168
O O13 0.977325 0.782129 0.835947
O O14 0.071247 0.000000 0.699314
O O15 0.593823 0.000000 0.094639
O O16 0.230034 0.000000 0.649330
#
# Coordination Sequence:
#
# PCOD9174812 Si02
#       7
#     8   8   8   4   8   8   8
#     4  10  18  33  56  78 105 142 178 209 251 310
#     4  10  18  32  53  76 105 141 178 214 261 317
#     4  10  21  37  56  81 108 131 164 216 271 313
#     4  10  19  32  53  80 105 134 173 210 247 310
#     4  11  21  34  52  77 107 138 179 226 263 298
#     4  10  21  37  56  77 103 137 174 211 260 323
#     4   8  18  34  51  74 107 146 182 214 253 311
#
# _framework density 19.892126000000001
#
# number of rings (size 3 to 8) (size 9 to 14) (size 15 to 20)
#    0.000    2.154    0.000    5.077    0.000    1.846 
#    0.000    6.923    0.000    4.615    0.000    0.000 
#    0.000    0.000    0.000    0.000    0.000    0.000 
#
# Total GULP energy -144869.423826 kJ/mol
# GULP energy per Si atom -5571.900916 kJ/mol
# Density = 1.984685 g / cm^3
# Si number density = 19.892126 Si / 1000 Ang^3
#
#
#
# Elastic Constant Matrix: (Units=GPa)
#
#
# Indices 1 2 3 4 5 6 
#
# 1 88.6513 8.5372 42.0752 0.0001 -10.8006 0.0000
# 2 8.5372 24.9669 9.4841 -0.0001 -1.4958 -0.0001
# 3 42.0752 9.4841 89.3095 0.0001 1.6691 0.0002
# 4 0.0001 -0.0001 0.0001 10.8883 0.0001 -3.9687
# 5 -10.8006 -1.4958 1.6691 0.0001 30.5341 0.0001
# 6 0.0000 -0.0001 0.0002 -3.9687 0.0001 5.2349
#
#
#
# Elastic Compliance Matrix: (Units=1/GPa)
#
#
# Indices 1 2 3 4 5 6 
#
# 1 0.015641 -0.002250 -0.007239 0.000000 0.005818 0.000000
# 2 -0.002250 0.042221 -0.003451 0.000001 0.001461 0.000002
# 3 -0.007239 -0.003451 0.015040 0.000000 -0.003552 -0.000001
# 4 0.000000 0.000001 0.000000 0.126910 -0.000001 0.096212
# 5 0.005818 0.001461 -0.003552 -0.000001 0.035074 -0.000001
# 6 0.000000 0.000002 -0.000001 0.096212 -0.000001 0.263963
#
#
# Mechanical properties :
#
#
# Convention : Reuss Voigt Hill
#
# Bulk Modulus (GPa) = 21.26616 35.90230 28.58423
# Shear Modulus (GPa) = 9.25236 18.85355 14.05296
#
# Velocity S-wave (km/s) = 2.15902 3.08196 2.66081
# Velocity P-wave (km/s) = 4.11450 5.54548 4.88269
#
# Compressibility (1/GPa) = 0.04702306
#
# Stress axis : x y z
#
# Youngs Moduli (GPa) = 63.93354 23.68497 66.48887
#
# Poissons Ratio (x) = 0.05329 0.48129
# Poissons Ratio (y) = 0.14386 0.22944
# Poissons Ratio (z) = 0.46279 0.08173
#
# Static dielectric constant tensor:
#      x y z
#    x 1.703920 0.000000 -0.013570 
#    y 0.000000 1.717000 0.000000 
#    z -0.013570 0.000000 1.679730 
# 
# From -- ./inp_files/324047.got.cif
#   From: 2010.05.17/outbox.cif.g08.bks.cpg/sg12_163_cif.got.tgz:324047.got - 2010.06.03 13:09:07.
