data_PCOD9174060
_publ_section_title
;
Structure prediction by ZEFSAII (Michael W. Deem and Ramdas Pophale) SiO2 
 PCOD9174060
Probable space group: C 2/M
;
_chemical_formula_sum "Si O2"
_cell_formula_units_Z 56
_cell_length_a 19.690277
_cell_length_b 9.158539
_cell_length_c 32.433384
_cell_angle_alpha 90.000000
_cell_angle_beta 33.817792
_cell_angle_gamma 90.000000
_cell_volume 3255.197260
_symmetry_space_group_name_H-M "C 2/M"
_symmetry_group_IT_number 12
_symmetry_cell_setting 'monoclinic'
loop_
_space_group_symop_operation_xyz
x,y,z
-x,y,-z
-x,-y,-z
x,-y,z
1/2+x,1/2+y,z
1/2-x,1/2+y,-z
1/2-x,1/2-y,-z
1/2+x,1/2-y,z
loop_
_atom_site_type_symbol
_atom_site_label
_atom_site_fract_x
_atom_site_fract_y
_atom_site_fract_z
Si Si1 0.656532 0.674237 0.078020
Si Si2 0.873057 0.173632 0.211605
Si Si3 0.829954 0.672607 0.317528
Si Si4 0.217598 0.328118 0.451240
Si Si5 0.058502 0.171814 0.597284
Si Si6 0.325849 0.174764 0.754096
Si Si7 0.380299 0.826938 0.818715
O O1 0.671864 0.500000 0.069737
O O2 0.516358 0.708598 0.136103
O O3 0.669596 0.736659 0.117615
O O4 0.750000 0.750000 0.000000
O O5 0.817920 0.260375 0.278107
O O6 0.797860 0.204900 0.208274
O O7 0.863563 0.000000 0.224991
O O8 0.806236 0.500000 0.329560
O O9 0.747904 0.752929 0.392681
O O10 0.973002 0.695009 0.257241
O O11 0.194313 0.500000 0.458061
O O12 0.109390 0.250970 0.530947
O O13 0.337328 0.311052 0.420035
O O14 0.936102 0.244498 0.675745
O O15 0.042442 0.000000 0.597912
O O16 0.324853 0.215925 0.802661
O O17 0.348823 0.000000 0.741077
O O18 0.359742 0.000000 0.836048
#
# Coordination Sequence:
#
# PCOD9174060 Si02
#       7
#     8   8   8   8   8   8   8
#     4  10  20  36  58  82 107 136 172 211 253 304
#     4   9  20  36  55  78 106 140 174 210 258 315
#     4  10  18  31  52  77 104 135 176 224 264 306
#     4  10  19  31  49  73 103 139 180 222 264 310
#     4  10  20  31  48  75 106 138 175 222 268 308
#     4  10  19  35  55  77 107 140 174 214 261 315
#     4   9  18  32  54  80 104 135 173 211 255 307
#
# _framework density 17.20326
#
# number of rings (size 3 to 8) (size 9 to 14) (size 15 to 20)
#    0.000    2.286    1.429    1.714    0.000    3.429 
#    0.000    1.429    0.000    8.571    0.000    0.000 
#    0.000    0.000    0.000    0.000    0.000    0.000 
#
# Total GULP energy -156259.507632 kJ/mol
# GULP energy per Si atom -5580.696701 kJ/mol
# Density = 1.716410 g / cm^3
# Si number density = 17.203260 Si / 1000 Ang^3
#
#
#
# Elastic Constant Matrix: (Units=GPa)
#
#
# Indices 1 2 3 4 5 6 
#
# 1 113.8770 55.6171 62.3847 -0.0001 19.5248 -0.0004
# 2 55.6171 67.9730 73.5782 -0.0001 13.5130 -0.0008
# 3 62.3847 73.5782 138.4807 0.0000 26.6403 0.0000
# 4 -0.0001 -0.0001 0.0000 35.1610 0.0000 6.3056
# 5 19.5248 13.5130 26.6403 0.0000 17.6266 0.0000
# 6 -0.0004 -0.0008 0.0000 6.3056 0.0000 22.8259
#
#
#
# Elastic Compliance Matrix: (Units=1/GPa)
#
#
# Indices 1 2 3 4 5 6 
#
# 1 0.015839 -0.012550 0.001491 0.000000 -0.010176 0.000000
# 2 -0.012550 0.044611 -0.019943 0.000000 0.009842 0.000001
# 3 0.001491 -0.019943 0.020475 0.000000 -0.017308 -0.000001
# 4 0.000000 0.000000 0.000000 0.029923 0.000000 -0.008266
# 5 -0.010176 0.009842 -0.017308 0.000000 0.086619 0.000000
# 6 0.000000 0.000001 -0.000001 -0.008266 0.000000 0.046093
#
#
# Mechanical properties :
#
#
# Convention : Reuss Voigt Hill
#
# Bulk Modulus (GPa) = 52.85152 78.16563 65.50858
# Shear Modulus (GPa) = 16.03217 23.70606 19.86911
#
# Velocity S-wave (km/s) = 3.05606 3.71617 3.40216
# Velocity P-wave (km/s) = 6.57580 7.99677 7.32084
#
# Compressibility (1/GPa) = 0.01892093
#
# Stress axis : x y z
#
# Youngs Moduli (GPa) = 63.13447 22.41588 48.83898
#
# Poissons Ratio (x) = 0.28133 -0.07280
# Poissons Ratio (y) = 0.79236 0.97398
# Poissons Ratio (z) = -0.09410 0.44703
#
# Static dielectric constant tensor:
#      x y z
#    x 1.585440 0.000000 -0.005970 
#    y 0.000000 1.571970 0.000000 
#    z -0.005970 0.000000 1.543570 
# 
# From -- ./inp_files/280385.got.cif
#   From: 2010.05.17/outbox.cif.g08.bks.cpg/sg12_141_cif.got.tgz:280385.got - 2010.06.03 13:09:07.
