data_PCOD9174105
_publ_section_title
;
Structure prediction by ZEFSAII (Michael W. Deem and Ramdas Pophale) SiO2 
 PCOD9174105
Probable space group: C 2/M
;
_chemical_formula_sum "Si O2"
_cell_formula_units_Z 56
_cell_length_a 10.632284
_cell_length_b 34.880828
_cell_length_c 10.705226
_cell_angle_alpha 90.000000
_cell_angle_beta 137.031279
_cell_angle_gamma 90.000000
_cell_volume 2706.064456
_symmetry_space_group_name_H-M "C 2/M"
_symmetry_group_IT_number 12
_symmetry_cell_setting 'monoclinic'
loop_
_space_group_symop_operation_xyz
x,y,z
-x,y,-z
-x,-y,-z
x,-y,z
1/2+x,1/2+y,z
1/2-x,1/2+y,-z
1/2-x,1/2-y,-z
1/2+x,1/2-y,z
loop_
_atom_site_type_symbol
_atom_site_label
_atom_site_fract_x
_atom_site_fract_y
_atom_site_fract_z
Si Si1 0.714656 0.204737 0.618388
Si Si2 0.020617 0.500000 0.225483
Si Si3 0.907263 0.917964 0.223420
Si Si4 0.161009 0.121105 0.219506
Si Si5 0.424696 0.917180 0.225877
Si Si6 0.688387 0.500000 0.778078
Si Si7 0.160313 0.370913 0.215567
Si Si8 0.218126 0.788590 0.629160
O O1 0.500000 0.202602 0.500000
O O2 0.805644 0.165898 0.732086
O O3 0.743422 0.206992 0.490416
O O4 0.784998 0.246211 0.718444
O O5 0.997990 0.460628 0.285006
O O6 0.206038 0.500000 0.277332
O O7 0.853609 0.500000 0.001691
O O8 0.836404 0.892220 0.286394
O O9 0.084140 0.900089 0.285668
O O10 0.924951 0.961411 0.282014
O O11 0.742755 0.917668 0.998860
O O12 0.336373 0.100282 0.285928
O O13 0.000000 0.118085 0.000000
O O14 0.582858 0.889456 0.285884
O O15 0.191799 0.325744 0.244928
O O16 0.000000 0.378878 0.000000
O O17 0.000000 0.790007 0.500000
#
# Coordination Sequence:
#
# PCOD9174105 Si02
#       8
#     8   4   8   8   8   4   8   8
#     4  10  21  38  55  73 102 138 174 208 251 313
#     4   9  14  25  45  71 105 138 168 202 250 303
#     4   9  17  28  46  74 107 134 164 211 257 298
#     4  10  20  33  50  77 108 134 167 215 263 298
#     4   9  17  28  46  74 105 137 169 205 252 306
#     4   9  14  25  45  71 105 139 164 203 258 297
#     4  10  18  31  52  79 104 129 170 216 256 300
#     4  10  21  36  55  77 100 133 175 213 252 305
#
# _framework density 20.694258000000001
#
# number of rings (size 3 to 8) (size 9 to 14) (size 15 to 20)
#    0.000    2.429    1.429    1.714    0.000    1.143 
#    0.000    2.857    0.000   10.286    0.000   20.000 
#    0.000    0.000    0.000    0.000    0.000    0.000 
#
# Total GULP energy -156355.052002 kJ/mol
# GULP energy per Si atom -5584.109000 kJ/mol
# Density = 2.064716 g / cm^3
# Si number density = 20.694258 Si / 1000 Ang^3
#
#
#
# Elastic Constant Matrix: (Units=GPa)
#
#
# Indices 1 2 3 4 5 6 
#
# 1 204.7838 103.5954 18.8526 0.0000 -3.5018 0.0000
# 2 103.5954 211.2356 14.2709 0.0000 1.4982 0.0000
# 3 18.8526 14.2709 41.7074 0.0000 5.8589 0.0000
# 4 0.0000 0.0000 0.0000 73.0900 0.0000 24.6500
# 5 -3.5018 1.4982 5.8589 0.0000 -6.8118 0.0000
# 6 0.0000 0.0000 0.0000 24.6500 0.0000 42.7912
#
#
#
# Elastic Compliance Matrix: (Units=1/GPa)
#
#
# Indices 1 2 3 4 5 6 
#
# 1 0.006447 -0.003047 -0.001170 0.000000 -0.004991 0.000000
# 2 -0.003047 0.006286 -0.001060 0.000000 0.002038 0.000000
# 3 -0.001170 -0.001060 0.022141 0.000000 0.019412 0.000000
# 4 0.000000 0.000000 0.000000 0.016981 0.000000 -0.009782
# 5 -0.004991 0.002038 0.019412 0.000000 -0.127093 0.000000
# 6 0.000000 0.000000 0.000000 -0.009782 0.000000 0.029004
#
#
# Mechanical properties :
#
#
# Convention : Reuss Voigt Hill
#
# Bulk Modulus (GPa) = 41.11941 81.24051 61.17996
# Shear Modulus (GPa) = -181.34064 43.21439 -69.06313
#
# Velocity S-wave (km/s) = -9.37116 4.57467 -5.78321
# Velocity P-wave (km/s) = 9.85792 8.20038 3.86861
#
# Compressibility (1/GPa) = 0.02431942
#
# Stress axis : x y z
#
# Youngs Moduli (GPa) = 155.10579 159.09106 45.16475
#
# Poissons Ratio (x) = 0.48482 0.05286
# Poissons Ratio (y) = 0.47267 0.04785
# Poissons Ratio (z) = 0.18154 0.16856
#
# Static dielectric constant tensor:
#      x y z
#    x 1.703780 0.000000 0.000700 
#    y 0.000000 1.722210 0.000000 
#    z 0.000700 0.000000 1.760440 
# 
# From -- ./inp_files/125885.got.cif
#   From: 2010.05.17/outbox.cif.g08.bks.cpg/sg12_63_cif.got.tgz:125885.got - 2010.06.03 13:09:07.
