data_PCOD9174134
_publ_section_title
;
Structure prediction by ZEFSAII (Michael W. Deem and Ramdas Pophale) SiO2 
 PCOD9174134
Probable space group: C 2/M
;
_chemical_formula_sum "Si O2"
_cell_formula_units_Z 56
_cell_length_a 22.165798
_cell_length_b 23.641293
_cell_length_c 12.073903
_cell_angle_alpha 90.000000
_cell_angle_beta 151.387063
_cell_angle_gamma 90.000000
_cell_volume 3029.968598
_symmetry_space_group_name_H-M "C 2/M"
_symmetry_group_IT_number 12
_symmetry_cell_setting 'monoclinic'
loop_
_space_group_symop_operation_xyz
x,y,z
-x,y,-z
-x,-y,-z
x,-y,z
1/2+x,1/2+y,z
1/2-x,1/2+y,-z
1/2-x,1/2-y,-z
1/2+x,1/2-y,z
loop_
_atom_site_type_symbol
_atom_site_label
_atom_site_fract_x
_atom_site_fract_y
_atom_site_fract_z
Si Si1 0.104666 0.431972 0.454352
Si Si2 0.144054 0.432628 0.061196
Si Si3 0.146265 0.875403 0.731892
Si Si4 0.153761 0.253037 0.737821
Si Si5 0.767055 0.867911 0.874422
Si Si6 0.988310 0.934137 0.114155
Si Si7 0.273258 0.068251 0.577676
O O1 0.108397 0.500000 0.467145
O O2 0.154968 0.406961 0.648702
O O3 0.190827 0.413353 0.487965
O O4 0.967000 0.411607 0.196610
O O5 0.128382 0.500000 0.042597
O O6 0.274388 0.417194 0.214961
O O7 0.141762 0.411080 0.183704
O O8 0.156904 0.811522 0.700886
O O9 0.000000 0.890597 0.500000
O O10 0.201542 0.874869 0.945548
O O11 0.218935 0.303974 0.775852
O O12 0.000000 0.264989 0.500000
O O13 0.250000 0.250000 0.000000
O O14 0.888588 0.890865 0.003902
O O15 0.129643 0.920416 0.379277
O O16 0.955632 0.000000 0.090016
O O17 0.000000 0.932104 0.000000
O O18 0.285531 0.000000 0.592714
#
# Coordination Sequence:
#
# PCOD9174134 Si02
#       7
#     8   8   8   8   8   8   8
#     4  10  20  33  53  85 117 148 186 228 278 336
#     4  10  21  34  54  83 117 152 182 225 283 344
#     4  10  22  40  57  80 109 147 190 236 284 341
#     4   9  21  39  60  81 105 147 195 236 285 340
#     4  11  21  33  59  83 109 143 188 238 280 333
#     4  10  18  31  52  82 117 150 184 227 280 336
#     4   9  17  33  54  77 112 154 191 220 263 336
#
# _framework density 18.482039
#
# number of rings (size 3 to 8) (size 9 to 14) (size 15 to 20)
#    0.000    2.143    1.429    1.714    4.000    3.143 
#    0.000    1.429    0.000    2.571    0.000    0.000 
#    0.000    0.000    0.000    0.000    0.000    0.000 
#
# Total GULP energy -155885.834665 kJ/mol
# GULP energy per Si atom -5567.351238 kJ/mol
# Density = 1.843997 g / cm^3
# Si number density = 18.482039 Si / 1000 Ang^3
#
#
#
# Elastic Constant Matrix: (Units=GPa)
#
#
# Indices 1 2 3 4 5 6 
#
# 1 38.3104 15.7104 32.0975 0.0000 -1.8397 0.0000
# 2 15.7104 33.7613 30.4065 0.0000 3.4706 0.0000
# 3 32.0975 30.4065 121.5956 0.0000 -5.2879 0.0000
# 4 0.0000 0.0000 0.0000 23.8389 0.0000 9.9077
# 5 -1.8397 3.4706 -5.2879 0.0000 29.0508 0.0000
# 6 0.0000 0.0000 0.0000 9.9077 0.0000 -4.0105
#
#
#
# Elastic Compliance Matrix: (Units=1/GPa)
#
#
# Indices 1 2 3 4 5 6 
#
# 1 0.036420 -0.011141 -0.006723 0.000000 0.002414 0.000000
# 2 -0.011141 0.042839 -0.008089 0.000000 -0.007296 0.000000
# 3 -0.006723 -0.008089 0.012141 0.000000 0.002751 0.000000
# 4 0.000000 0.000000 0.000000 0.020697 0.000000 0.051132
# 5 0.002414 -0.007296 0.002751 0.000000 0.035948 0.000000
# 6 0.000000 0.000000 0.000000 0.051132 0.000000 -0.123028
#
#
# Mechanical properties :
#
#
# Convention : Reuss Voigt Hill
#
# Bulk Modulus (GPa) = 25.31984 38.89956 32.10970
# Shear Modulus (GPa) = 55.50269 17.47271 36.48770
#
# Velocity S-wave (km/s) = 5.48596 3.07805 4.44805
# Velocity P-wave (km/s) = 7.33874 5.80736 6.61750
#
# Compressibility (1/GPa) = 0.03949472
#
# Stress axis : x y z
#
# Youngs Moduli (GPa) = 27.45773 23.34324 82.36582
#
# Poissons Ratio (x) = 0.26006 0.55373
# Poissons Ratio (y) = 0.30590 0.66625
# Poissons Ratio (z) = 0.18459 0.18882
#
# Static dielectric constant tensor:
#      x y z
#    x 1.639740 0.000000 -0.006560 
#    y 0.000000 1.622990 0.000000 
#    z -0.006560 0.000000 1.728240 
# 
# From -- ./inp_files/135458.got.cif
#   From: 2010.05.17/outbox.cif.g08.bks.cpg/sg12_68_cif.got.tgz:135458.got - 2010.06.03 13:09:07.
