data_PCOD9174261
_publ_section_title
;
Structure prediction by ZEFSAII (Michael W. Deem and Ramdas Pophale) SiO2 
 PCOD9174261
Probable space group: C 2/M
;
_chemical_formula_sum "Si O2"
_cell_formula_units_Z 64
_cell_length_a 21.895498
_cell_length_b 9.128900
_cell_length_c 20.784058
_cell_angle_alpha 90.000000
_cell_angle_beta 54.463792
_cell_angle_gamma 90.000000
_cell_volume 3380.599793
_symmetry_space_group_name_H-M "C 2/M"
_symmetry_group_IT_number 12
_symmetry_cell_setting 'monoclinic'
loop_
_space_group_symop_operation_xyz
x,y,z
-x,y,-z
-x,-y,-z
x,-y,z
1/2+x,1/2+y,z
1/2-x,1/2+y,-z
1/2-x,1/2-y,-z
1/2+x,1/2-y,z
loop_
_atom_site_type_symbol
_atom_site_label
_atom_site_fract_x
_atom_site_fract_y
_atom_site_fract_z
Si Si1 0.600210 0.669709 0.372598
Si Si2 0.804504 0.830662 0.343850
Si Si3 0.526949 0.173792 0.618126
Si Si4 0.518565 0.674119 0.753539
Si Si5 0.742163 0.171006 0.236536
Si Si6 0.981845 0.325330 0.905722
Si Si7 0.834641 0.831094 0.522175
Si Si8 0.623369 0.174681 0.911405
O O1 0.584050 0.500000 0.367852
O O2 0.526846 0.765231 0.404836
O O3 0.666689 0.734588 0.287883
O O4 0.629924 0.677226 0.427510
O O5 0.892077 0.796264 0.294264
O O6 0.779718 0.817497 0.284504
O O7 0.749058 0.730684 0.419302
O O8 0.793071 0.000000 0.369698
O O9 0.495337 0.241932 0.703438
O O10 0.610162 0.236612 0.555411
O O11 0.527508 0.000000 0.619381
O O12 0.507944 0.500000 0.753808
O O13 0.480280 0.735990 0.841052
O O14 0.802435 0.235787 0.150283
O O15 0.725849 0.000000 0.234627
O O16 0.981633 0.500000 0.893003
O O17 0.058812 0.293028 0.897779
O O18 0.914519 0.293257 0.996588
O O19 0.835353 0.000000 0.501161
O O20 0.638017 0.000000 0.898989
#
# Coordination Sequence:
#
# PCOD9174261 Si02
#       8
#     8   8   8   8   8   8   8   8
#     4  10  21  38  59  82 107 138 178 226 273 319
#     4   9  19  34  52  78 110 143 177 218 269 318
#     4  12  25  39  56  78 105 143 183 223 270 323
#     4  11  22  37  55  77 110 148 183 223 267 320
#     4  10  18  31  53  83 113 141 178 224 269 316
#     4   9  18  32  51  78 112 147 182 219 262 316
#     4  10  21  37  59  83 106 136 176 225 273 319
#     4   9  17  30  51  80 113 146 179 218 265 316
#
# _framework density 18.931552
#
# number of rings (size 3 to 8) (size 9 to 14) (size 15 to 20)
#    0.000    2.000    1.250    3.750    0.000    5.500 
#    0.000    1.250    0.000    0.750    0.000    0.000 
#    0.000    0.000    0.000    0.000    0.000    0.000 
#
# Total GULP energy -178794.135412 kJ/mol
# GULP energy per Si atom -5587.316732 kJ/mol
# Density = 1.888846 g / cm^3
# Si number density = 18.931552 Si / 1000 Ang^3
#
#
#
# Elastic Constant Matrix: (Units=GPa)
#
#
# Indices 1 2 3 4 5 6 
#
# 1 29.5984 16.4264 9.7858 0.0000 1.6594 -0.0004
# 2 16.4264 88.3898 60.9087 -0.0001 4.4389 -0.0008
# 3 9.7858 60.9087 109.7807 0.0000 -0.3302 0.0001
# 4 0.0000 -0.0001 0.0000 36.3414 0.0000 -4.8459
# 5 1.6594 4.4389 -0.3302 0.0000 22.3276 0.0000
# 6 -0.0004 -0.0008 0.0001 -4.8459 0.0000 21.7079
#
#
#
# Elastic Compliance Matrix: (Units=1/GPa)
#
#
# Indices 1 2 3 4 5 6 
#
# 1 0.037757 -0.007495 0.000789 0.000000 -0.001305 0.000000
# 2 -0.007495 0.020131 -0.010512 0.000000 -0.003601 0.000001
# 3 0.000789 -0.010512 0.014878 0.000000 0.002251 0.000000
# 4 0.000000 0.000000 0.000000 0.028361 0.000000 0.006331
# 5 -0.001305 -0.003601 0.002251 0.000000 0.045634 0.000000
# 6 0.000000 0.000001 0.000000 0.006331 0.000000 0.047479
#
#
# Mechanical properties :
#
#
# Convention : Reuss Voigt Hill
#
# Bulk Modulus (GPa) = 26.08915 44.66785 35.37850
# Shear Modulus (GPa) = 20.70804 25.45192 23.07998
#
# Velocity S-wave (km/s) = 3.31091 3.67061 3.49539
# Velocity P-wave (km/s) = 5.33168 6.45059 5.91764
#
# Compressibility (1/GPa) = 0.03833011
#
# Stress axis : x y z
#
# Youngs Moduli (GPa) = 26.48488 49.67544 67.21495
#
# Poissons Ratio (x) = 0.37231 -0.05301
# Poissons Ratio (y) = 0.19850 0.70654
# Poissons Ratio (z) = -0.02089 0.52217
#
# Static dielectric constant tensor:
#      x y z
#    x 1.675920 0.000000 0.013880 
#    y 0.000000 1.629150 0.000000 
#    z 0.013880 0.000000 1.650080 
# 
# From -- ./inp_files/295797.got.cif
#   From: 2010.05.17/outbox.cif.g08.bks.cpg/sg12_148_cif.got.tgz:295797.got - 2010.06.03 13:09:07.
