data_PCOD9174346
_publ_section_title
;
Structure prediction by ZEFSAII (Michael W. Deem and Ramdas Pophale) SiO2 
 PCOD9174346
Probable space group: C 2/M
;
_chemical_formula_sum "Si O2"
_cell_formula_units_Z 48
_cell_length_a 14.603670
_cell_length_b 9.417086
_cell_length_c 19.563475
_cell_angle_alpha 90.000000
_cell_angle_beta 57.302722
_cell_angle_gamma 90.000000
_cell_volume 2264.109759
_symmetry_space_group_name_H-M "C 2/M"
_symmetry_group_IT_number 12
_symmetry_cell_setting 'monoclinic'
loop_
_space_group_symop_operation_xyz
x,y,z
-x,y,-z
-x,-y,-z
x,-y,z
1/2+x,1/2+y,z
1/2-x,1/2+y,-z
1/2-x,1/2-y,-z
1/2+x,1/2-y,z
loop_
_atom_site_type_symbol
_atom_site_label
_atom_site_fract_x
_atom_site_fract_y
_atom_site_fract_z
Si Si1 0.860373 0.166601 0.659461
Si Si2 0.252046 0.832044 0.428115
Si Si3 0.458254 0.665731 0.310427
Si Si4 0.800037 0.164837 0.177043
Si Si5 0.549052 0.337479 0.131683
Si Si6 0.875565 0.662797 0.020931
O O1 0.845370 0.198408 0.585635
O O2 0.780293 0.261695 0.737073
O O3 0.979796 0.182321 0.642900
O O4 0.830003 0.000000 0.680965
O O5 0.250000 0.750000 0.500000
O O6 0.359354 0.773682 0.346846
O O7 0.256625 0.000000 0.438361
O O8 0.422726 0.500000 0.317929
O O9 0.542521 0.692536 0.214836
O O10 0.922646 0.170533 0.158392
O O11 0.771957 0.000000 0.178265
O O12 0.805984 0.248338 0.103197
O O13 0.584183 0.500000 0.106609
O O14 0.616854 0.234254 0.056246
O O15 0.840456 0.500000 0.032339
O O16 0.000000 0.665147 0.000000
#
# Coordination Sequence:
#
# PCOD9174346 Si02
#       6
#     8   8   8   8   8   8
#     4  10  22  39  61  88 119 154 193 237 289 347
#     4  11  24  42  65  91 119 152 189 235 288 348
#     4  10  21  40  63  88 119 155 193 237 290 347
#     4  10  18  31  54  82 114 152 196 244 290 339
#     4   9  17  31  53  80 111 150 193 240 289 338
#     4   9  17  28  47  77 113 153 196 242 288 337
#
# _framework density 21.200384
#
# number of rings (size 3 to 8) (size 9 to 14) (size 15 to 20)
#    0.000    2.167    1.667    1.500    0.000    5.333 
#    0.000    4.167    0.000    0.000    0.000    0.000 
#    0.000    0.000    0.000    0.000    0.000    0.000 
#
# Total GULP energy -134149.478848 kJ/mol
# GULP energy per Si atom -5589.561619 kJ/mol
# Density = 2.115213 g / cm^3
# Si number density = 21.200384 Si / 1000 Ang^3
#
#
#
# Elastic Constant Matrix: (Units=GPa)
#
#
# Indices 1 2 3 4 5 6 
#
# 1 58.4676 15.0075 8.5694 0.0000 22.4752 0.0000
# 2 15.0075 77.9362 38.3209 0.0000 21.2796 0.0000
# 3 8.5694 38.3209 70.8930 0.0000 31.7899 0.0000
# 4 0.0000 0.0000 0.0000 42.5858 0.0000 1.8710
# 5 22.4752 21.2796 31.7899 0.0000 35.2492 0.0000
# 6 0.0000 0.0000 0.0000 1.8710 0.0000 10.0468
#
#
#
# Elastic Compliance Matrix: (Units=1/GPa)
#
#
# Indices 1 2 3 4 5 6 
#
# 1 0.024944 -0.002980 0.008262 0.000000 -0.021557 0.000000
# 2 -0.002980 0.018079 -0.009017 0.000000 -0.000882 0.000000
# 3 0.008262 -0.009017 0.030058 0.000000 -0.026933 0.000000
# 4 0.000000 0.000000 0.000000 0.023676 0.000000 -0.004409
# 5 -0.021557 -0.000882 -0.026933 0.000000 0.066937 0.000000
# 6 0.000000 0.000000 0.000000 -0.004409 0.000000 0.100355
#
#
# Mechanical properties :
#
#
# Convention : Reuss Voigt Hill
#
# Bulk Modulus (GPa) = 15.24097 36.78805 26.01451
# Shear Modulus (GPa) = 17.04222 27.26964 22.15593
#
# Velocity S-wave (km/s) = 2.83833 3.59037 3.23626
# Velocity P-wave (km/s) = 4.23628 5.88029 5.12464
#
# Compressibility (1/GPa) = 0.06561260
#
# Stress axis : x y z
#
# Youngs Moduli (GPa) = 40.08985 55.31207 33.26859
#
# Poissons Ratio (x) = 0.16482 -0.27487
# Poissons Ratio (y) = 0.11946 0.29997
# Poissons Ratio (z) = -0.33123 0.49874
#
# Static dielectric constant tensor:
#      x y z
#    x 1.812270 0.000000 0.020840 
#    y 0.000000 1.708820 0.000000 
#    z 0.020840 0.000000 1.754730 
# 
# From -- ./inp_files/274055.got.cif
#   From: 2010.05.17/outbox.cif.g08.bks.cpg/sg12_138_cif.got.tgz:274055.got - 2010.06.03 13:09:07.
