data_PCOD9174007
_publ_section_title
;
Structure prediction by ZEFSAII (Michael W. Deem and Ramdas Pophale) SiO2 
 PCOD9174007
Probable space group: C 2/M
;
_chemical_formula_sum "Si O2"
_cell_formula_units_Z 64
_cell_length_a 21.042792
_cell_length_b 7.982533
_cell_length_c 22.927121
_cell_angle_alpha 90.000000
_cell_angle_beta 117.022403
_cell_angle_gamma 90.000000
_cell_volume 3430.740953
_symmetry_space_group_name_H-M "C 2/M"
_symmetry_group_IT_number 12
_symmetry_cell_setting 'monoclinic'
loop_
_space_group_symop_operation_xyz
x,y,z
-x,y,-z
-x,-y,-z
x,-y,z
1/2+x,1/2+y,z
1/2-x,1/2+y,-z
1/2-x,1/2-y,-z
1/2+x,1/2-y,z
loop_
_atom_site_type_symbol
_atom_site_label
_atom_site_fract_x
_atom_site_fract_y
_atom_site_fract_z
Si Si1 0.306293 0.298333 0.941375
Si Si2 0.505563 0.199002 0.409263
Si Si3 0.386354 0.699124 0.442752
Si Si4 0.653532 0.797245 0.910449
Si Si5 0.559285 0.297452 0.071785
Si Si6 0.418675 0.205752 0.675135
Si Si7 0.504892 0.201630 0.176230
Si Si8 0.261680 0.202423 0.572237
O O1 0.304093 0.500000 0.936224
O O2 0.224468 0.237221 0.906184
O O3 0.363136 0.237158 0.917616
O O4 0.336254 0.254139 0.017928
O O5 0.564580 0.248441 0.482012
O O6 0.429168 0.251526 0.402702
O O7 0.530455 0.262407 0.356743
O O8 0.505436 0.000000 0.406446
O O9 0.382890 0.500000 0.442110
O O10 0.306603 0.765226 0.419661
O O11 0.577003 0.736408 0.856431
O O12 0.653402 0.000000 0.908322
O O13 0.559274 0.500000 0.070150
O O14 0.538306 0.244803 0.127749
O O15 0.500000 0.240082 0.000000
O O16 0.448916 0.262285 0.749812
O O17 0.338157 0.261350 0.627461
O O18 0.418242 0.000000 0.674870
O O19 0.502122 0.000000 0.179138
O O20 0.250000 0.250000 0.500000
O O21 0.262592 0.000000 0.575460
#
# Coordination Sequence:
#
# PCOD9174007 Si02
#       8
#     8   8   8   8   8   8   8   8
#     4   9  17  30  48  70  98 126 156 201 249 292
#     4  10  18  31  52  73  99 133 167 202 246 305
#     4  10  19  30  49  77 104 125 159 212 257 290
#     4   9  17  29  48  73  95 122 162 204 243 286
#     4  10  19  32  50  73 102 134 165 201 252 304
#     4   9  19  35  52  72 100 136 170 205 253 302
#     4  10  20  34  52  73 100 132 170 210 248 298
#     4  10  19  33  53  75 101 133 169 211 255 300
#
# _framework density 18.654861
#
# number of rings (size 3 to 8) (size 9 to 14) (size 15 to 20)
#    0.000    2.375    2.500    1.500    0.000    1.250 
#    0.000    3.125    0.000    1.500    0.000    0.000 
#    0.000    0.000    0.000    0.000    0.000    0.000 
#
# Total GULP energy -178451.317408 kJ/mol
# GULP energy per Si atom -5576.603669 kJ/mol
# Density = 1.861240 g / cm^3
# Si number density = 18.654861 Si / 1000 Ang^3
#
#
#
# Elastic Constant Matrix: (Units=GPa)
#
#
# Indices 1 2 3 4 5 6 
#
# 1 214.6402 13.9761 106.5422 0.0000 6.5317 0.0000
# 2 13.9761 14.2191 3.4704 0.0000 0.5859 0.0000
# 3 106.5422 3.4704 133.8402 0.0000 2.8223 0.0000
# 4 0.0000 0.0000 0.0000 6.1417 0.0000 7.8864
# 5 6.5317 0.5859 2.8223 0.0000 25.9740 0.0000
# 6 0.0000 0.0000 0.0000 7.8864 0.0000 3.1876
#
#
#
# Elastic Compliance Matrix: (Units=1/GPa)
#
#
# Indices 1 2 3 4 5 6 
#
# 1 0.008309 -0.006549 -0.006418 0.000000 -0.001244 0.000000
# 2 -0.006549 0.075989 0.003252 0.000000 -0.000421 0.000000
# 3 -0.006418 0.003252 0.012493 0.000000 0.000183 0.000000
# 4 0.000000 0.000000 0.000000 -0.074793 0.000000 0.185047
# 5 -0.001244 -0.000421 0.000183 0.000000 0.038803 0.000000
# 6 0.000000 0.000000 0.000000 0.185047 0.000000 -0.144109
#
#
# Mechanical properties :
#
#
# Convention : Reuss Voigt Hill
#
# Bulk Modulus (GPa) = 12.92664 67.85300 40.38982
# Shear Modulus (GPa) = -131.26558 22.97471 -54.14544
#
# Velocity S-wave (km/s) = -8.39751 3.51318 -5.39332
# Velocity P-wave (km/s) = 9.33165 7.27381 4.13349
#
# Compressibility (1/GPa) = 0.07735962
#
# Stress axis : x y z
#
# Youngs Moduli (GPa) = 120.34808 13.15977 80.04663
#
# Poissons Ratio (x) = 0.08619 0.51377
# Poissons Ratio (y) = 0.78821 -0.26032
# Poissons Ratio (z) = 0.77244 -0.04280
#
# Static dielectric constant tensor:
#      x y z
#    x 1.690860 0.000000 0.016550 
#    y 0.000000 1.671930 0.000000 
#    z 0.016550 0.000000 1.610260 
# 
# From -- ./inp_files/345609.got.cif
#   From: 2010.05.17/outbox.cif.g08.bks.cpg/sg12_173_cif.got.tgz:345609.got - 2010.06.03 13:09:07.
