data_PCOD9174283
_publ_section_title
;
Structure prediction by ZEFSAII (Michael W. Deem and Ramdas Pophale) SiO2 
 PCOD9174283
Probable space group: C 2/M
;
_chemical_formula_sum "Si O2"
_cell_formula_units_Z 56
_cell_length_a 14.906621
_cell_length_b 7.311205
_cell_length_c 21.506193
_cell_angle_alpha 90.000000
_cell_angle_beta 61.776104
_cell_angle_gamma 90.000000
_cell_volume 2065.189994
_symmetry_space_group_name_H-M "C 2/M"
_symmetry_group_IT_number 12
_symmetry_cell_setting 'monoclinic'
loop_
_space_group_symop_operation_xyz
x,y,z
-x,y,-z
-x,-y,-z
x,-y,z
1/2+x,1/2+y,z
1/2-x,1/2+y,-z
1/2-x,1/2-y,-z
1/2+x,1/2-y,z
loop_
_atom_site_type_symbol
_atom_site_label
_atom_site_fract_x
_atom_site_fract_y
_atom_site_fract_z
Si Si1 0.426741 0.209447 0.757188
Si Si2 0.489071 0.278961 0.868517
Si Si3 0.791404 0.776647 0.174129
Si Si4 0.648090 0.790736 0.665382
Si Si5 0.159041 0.217172 0.981177
Si Si6 0.413528 0.279809 0.444823
Si Si7 0.135354 0.222503 0.397991
O O1 0.421395 0.208634 0.834132
O O2 0.320188 0.290498 0.769179
O O3 0.537421 0.297951 0.710900
O O4 0.432342 0.000000 0.734098
O O5 0.485075 0.500000 0.868548
O O6 0.606898 0.224680 0.822334
O O7 0.441655 0.217863 0.949531
O O8 0.814096 0.714155 0.095949
O O9 0.785954 0.000000 0.176261
O O10 0.655594 0.793017 0.587695
O O11 0.752699 0.709313 0.656899
O O12 0.641673 0.000000 0.688875
O O13 0.145719 0.000000 0.977456
O O14 0.250000 0.250000 0.000000
O O15 0.409249 0.500000 0.444722
O O16 0.384028 0.222892 0.523869
O O17 0.532457 0.225016 0.396051
O O18 0.138857 0.000000 0.395863
#
# Coordination Sequence:
#
# PCOD9174283 Si02
#       7
#     8   8   8   8   8   8   8
#     4  10  21  36  51  70 101 138 165 198 250 298
#     4  10  20  34  54  76  96 127 171 209 240 287
#     4   9  18  34  53  72  99 132 163 198 248 301
#     4  10  20  33  50  73 102 133 165 201 248 297
#     4  10  18  31  54  77  99 126 160 204 250 292
#     4   9  17  32  54  75  97 130 168 204 244 290
#     4   8  16  32  52  74 101 131 163 201 248 299
#
# _framework density 27.116147999999999
#
# number of rings (size 3 to 8) (size 9 to 14) (size 15 to 20)
#    0.000    2.571    1.429    1.714    0.000    3.429 
#    0.000    3.571    0.000    1.714    0.000    0.000 
#    0.000    0.000    0.000    0.000    0.000    0.000 
#
# Total GULP energy -156686.231423 kJ/mol
# GULP energy per Si atom -5595.936837 kJ/mol
# Density = 2.705443 g / cm^3
# Si number density = 27.116148 Si / 1000 Ang^3
#
#
#
# Elastic Constant Matrix: (Units=GPa)
#
#
# Indices 1 2 3 4 5 6 
#
# 1 187.4878 4.2690 41.4818 0.0000 -35.4124 0.0000
# 2 4.2690 129.1729 14.4839 -0.0001 -3.9386 0.0000
# 3 41.4818 14.4839 80.5122 0.0000 -19.3861 0.0000
# 4 0.0000 -0.0001 0.0000 11.4657 0.0000 12.3248
# 5 -35.4124 -3.9386 -19.3861 0.0000 69.6658 0.0000
# 6 0.0000 0.0000 0.0000 12.3248 0.0000 4.2207
#
#
#
# Elastic Compliance Matrix: (Units=1/GPa)
#
#
# Indices 1 2 3 4 5 6 
#
# 1 0.006407 0.000171 -0.002728 0.000000 0.002507 0.000000
# 2 0.000171 0.007906 -0.001481 0.000000 0.000122 0.000000
# 3 -0.002728 -0.001481 0.014725 0.000000 0.002627 0.000000
# 4 0.000000 0.000000 0.000000 -0.040776 0.000000 0.119070
# 5 0.002507 0.000122 0.002627 0.000000 0.016367 0.000000
# 6 0.000000 0.000000 0.000000 0.119070 0.000000 -0.110771
#
#
# Mechanical properties :
#
#
# Convention : Reuss Voigt Hill
#
# Bulk Modulus (GPa) = 47.70729 57.51583 52.61156
# Shear Modulus (GPa) = -54.89764 39.53299 -7.68233
#
# Velocity S-wave (km/s) = -4.50437 3.82241 -1.68501
# Velocity P-wave (km/s) = 3.06929 6.38263 3.95711
#
# Compressibility (1/GPa) = 0.02096116
#
# Stress axis : x y z
#
# Youngs Moduli (GPa) = 156.08088 126.49144 67.91183
#
# Poissons Ratio (x) = -0.02158 0.18526
# Poissons Ratio (y) = -0.02663 0.10057
# Poissons Ratio (z) = 0.42579 0.18731
#
# Static dielectric constant tensor:
#      x y z
#    x 2.057000 0.000000 -0.046050 
#    y 0.000000 2.000400 0.000000 
#    z -0.046050 0.000000 2.174420 
# 
# From -- ./inp_files/304227.got.cif
#   From: 2010.05.17/outbox.cif.g08.bks.cpg/sg12_153_cif.got.tgz:304227.got - 2010.06.03 13:09:07.
