data_PCOD9174597
_publ_section_title
;
Structure prediction by ZEFSAII (Michael W. Deem and Ramdas Pophale) SiO2 
 PCOD9174597
Probable space group: C 2/M
;
_chemical_formula_sum "Si O2"
_cell_formula_units_Z 44
_cell_length_a 14.217557
_cell_length_b 7.502373
_cell_length_c 20.822561
_cell_angle_alpha 90.000000
_cell_angle_beta 111.087761
_cell_angle_gamma 90.000000
_cell_volume 2072.304517
_symmetry_space_group_name_H-M "C 2/M"
_symmetry_group_IT_number 12
_symmetry_cell_setting 'monoclinic'
loop_
_space_group_symop_operation_xyz
x,y,z
-x,y,-z
-x,-y,-z
x,-y,z
1/2+x,1/2+y,z
1/2-x,1/2+y,-z
1/2-x,1/2-y,-z
1/2+x,1/2-y,z
loop_
_atom_site_type_symbol
_atom_site_label
_atom_site_fract_x
_atom_site_fract_y
_atom_site_fract_z
Si Si1 0.878123 0.714863 0.768957
Si Si2 0.396806 0.284722 0.505352
Si Si3 0.500000 0.247868 0.000000
Si Si4 0.082139 0.282403 0.886151
Si Si5 0.698697 0.709685 0.112964
Si Si6 0.303772 0.788868 0.613907
O O1 0.876690 0.500000 0.766949
O O2 0.809735 0.771496 0.812434
O O3 0.839489 0.783356 0.691062
O O4 0.993283 0.764664 0.814571
O O5 0.500000 0.220895 0.500000
O O6 0.395364 0.500000 0.502122
O O7 0.383654 0.235744 0.576423
O O8 0.300537 0.216942 0.441402
O O9 0.447396 0.307991 0.053897
O O10 0.604570 0.185576 0.059429
O O11 0.079567 0.500000 0.895872
O O12 0.193035 0.237335 0.888119
O O13 0.681510 0.500000 0.093238
O O14 0.288947 0.000000 0.619193
#
# Coordination Sequence:
#
# PCOD9174597 Si02
#       6
#     8   8   4   8   8   8
#     4   9  19  35  51  69  96 129 161 194 235 284
#     4   9  18  32  50  73 100 128 158 194 238 283
#     4  10  18  32  50  70  95 126 157 196 239 284
#     4   9  18  32  50  71  95 125 160 195 236 285
#     4  10  20  33  49  72  98 123 156 199 241 281
#     4   9  18  33  51  71  97 127 161 198 233 277
#
# _framework density 21.232399999999998
#
# number of rings (size 3 to 8) (size 9 to 14) (size 15 to 20)
#    0.000    2.727    0.000    1.091    0.000    3.273 
#    0.000    4.545    0.000    0.000    0.000    0.000 
#    0.000    0.000    0.000    0.000    0.000    0.000 
#
# Total GULP energy -122521.295255 kJ/mol
# GULP energy per Si atom -5569.149784 kJ/mol
# Density = 2.118407 g / cm^3
# Si number density = 21.232400 Si / 1000 Ang^3
#
#
#
# Elastic Constant Matrix: (Units=GPa)
#
#
# Indices 1 2 3 4 5 6 
#
# 1 203.3924 7.3563 93.1717 0.0000 -10.8123 0.0000
# 2 7.3563 69.1186 17.0748 0.0000 3.2108 0.0000
# 3 93.1717 17.0748 197.0054 0.0000 -25.1101 0.0000
# 4 0.0000 0.0000 0.0000 23.3757 0.0000 -10.9892
# 5 -10.8123 3.2108 -25.1101 0.0000 12.1589 0.0000
# 6 0.0000 0.0000 0.0000 -10.9892 0.0000 -26.0068
#
#
#
# Elastic Compliance Matrix: (Units=1/GPa)
#
#
# Indices 1 2 3 4 5 6 
#
# 1 0.006282 0.000133 -0.003088 0.000000 -0.000825 0.000000
# 2 0.000133 0.015531 -0.002601 0.000000 -0.009355 0.000000
# 3 -0.003088 -0.002601 0.008821 0.000000 0.016159 0.000000
# 4 0.000000 0.000000 0.000000 0.035690 0.000000 -0.015081
# 5 -0.000825 -0.009355 0.016159 0.000000 0.117351 0.000000
# 6 0.000000 0.000000 0.000000 -0.015081 0.000000 -0.032079
#
#
# Mechanical properties :
#
#
# Convention : Reuss Voigt Hill
#
# Bulk Modulus (GPa) = 51.22513 78.30243 64.76378
# Shear Modulus (GPa) = 29.54791 25.36648 27.45720
#
# Velocity S-wave (km/s) = 3.73452 3.46020 3.59997
# Velocity P-wave (km/s) = 6.54017 7.27481 6.91725
#
# Compressibility (1/GPa) = 0.01952167
#
# Stress axis : x y z
#
# Youngs Moduli (GPa) = 159.17295 64.38752 113.36062
#
# Poissons Ratio (x) = -0.00853 0.35005
# Poissons Ratio (y) = -0.02110 0.29487
# Poissons Ratio (z) = 0.49151 0.16748
#
# Static dielectric constant tensor:
#      x y z
#    x 1.719140 0.000000 0.014150 
#    y 0.000000 1.877190 0.000000 
#    z 0.014150 0.000000 1.744650 
# 
# From -- ./inp_files/261569.got.cif
#   From: 2010.05.17/outbox.cif.g08.bks.cpg/sg12_131_cif.got.tgz:261569.got - 2010.06.03 13:09:07.
