data_PCOD9174715
_publ_section_title
;
Structure prediction by ZEFSAII (Michael W. Deem and Ramdas Pophale) SiO2 
 PCOD9174715
Probable space group: C 2/M
;
_chemical_formula_sum "Si O2"
_cell_formula_units_Z 56
_cell_length_a 32.025707
_cell_length_b 14.877703
_cell_length_c 9.976912
_cell_angle_alpha 90.000000
_cell_angle_beta 35.430139
_cell_angle_gamma 90.000000
_cell_volume 2755.760347
_symmetry_space_group_name_H-M "C 2/M"
_symmetry_group_IT_number 12
_symmetry_cell_setting 'monoclinic'
loop_
_space_group_symop_operation_xyz
x,y,z
-x,y,-z
-x,-y,-z
x,-y,z
1/2+x,1/2+y,z
1/2-x,1/2+y,-z
1/2-x,1/2-y,-z
1/2+x,1/2-y,z
loop_
_atom_site_type_symbol
_atom_site_label
_atom_site_fract_x
_atom_site_fract_y
_atom_site_fract_z
Si Si1 0.195409 0.145101 0.729782
Si Si2 0.399577 0.110325 0.380724
Si Si3 0.689205 0.395037 0.297343
Si Si4 0.554853 0.892328 0.035844
Si Si5 0.300334 0.146789 0.225734
Si Si6 0.582114 0.390491 0.804389
Si Si7 0.245273 0.102917 0.878880
O O1 0.257063 0.107531 0.467886
O O2 0.211764 0.247535 0.725804
O O3 0.122394 0.139693 0.834657
O O4 0.198834 0.099593 0.864933
O O5 0.472379 0.137788 0.268143
O O6 0.323400 0.142858 0.636849
O O7 0.396284 0.000000 0.386964
O O8 0.413971 0.139792 0.189580
O O9 0.668859 0.500000 0.333828
O O10 0.762507 0.388254 0.191657
O O11 0.628908 0.356921 0.555350
O O12 0.703723 0.354666 0.113175
O O13 0.551512 0.000000 0.035212
O O14 0.615078 0.869845 0.986381
O O15 0.584258 0.500000 0.801678
O O16 0.500000 0.362166 0.000000
O O17 0.260357 0.000000 0.881172
#
# Coordination Sequence:
#
# PCOD9174715 Si02
#       7
#     8   8   8   8   8   8   8
#     4  10  20  32  50  75  98 130 168 202 249 295
#     4   8  15  26  45  73  97 122 159 199 237 275
#     4   9  19  33  53  76  98 129 163 201 252 296
#     4   9  15  27  47  70  96 128 164 201 235 274
#     4  10  19  32  47  73 103 131 168 202 238 293
#     4   9  18  36  57  75  96 123 162 211 255 295
#     4  10  18  32  52  75 100 127 165 207 246 294
#
# _framework density 20.321071
#
# number of rings (size 3 to 8) (size 9 to 14) (size 15 to 20)
#    0.000    2.714    1.429    1.714    0.000    1.714 
#    2.571    1.429    0.000    8.571    0.000    0.000 
#    0.000    0.000    0.000    0.000    0.000    0.000 
#
# Total GULP energy -156100.883840 kJ/mol
# GULP energy per Si atom -5575.031566 kJ/mol
# Density = 2.027482 g / cm^3
# Si number density = 20.321071 Si / 1000 Ang^3
#
#
#
# Elastic Constant Matrix: (Units=GPa)
#
#
# Indices 1 2 3 4 5 6 
#
# 1 116.8684 -10.7237 76.5971 0.0000 -6.6055 0.0000
# 2 -10.7237 33.4357 3.9301 0.0000 4.4898 0.0000
# 3 76.5971 3.9301 104.9280 0.0000 0.1011 0.0000
# 4 0.0000 0.0000 0.0000 -8.3673 0.0000 33.1125
# 5 -6.6055 4.4898 0.1011 0.0000 38.6048 0.0000
# 6 0.0000 0.0000 0.0000 33.1125 0.0000 -50.5517
#
#
#
# Elastic Compliance Matrix: (Units=1/GPa)
#
#
# Indices 1 2 3 4 5 6 
#
# 1 0.018253 0.007140 -0.013595 0.000000 0.002329 0.000000
# 2 0.007140 0.033311 -0.006457 0.000000 -0.002636 0.000000
# 3 -0.013595 -0.006457 0.019698 0.000000 -0.001627 0.000000
# 4 0.000000 0.000000 0.000000 0.075063 0.000000 0.049168
# 5 0.002329 -0.002636 -0.001627 0.000000 0.026613 0.000000
# 6 0.000000 0.000000 0.000000 0.049168 0.000000 0.012424
#
#
# Mechanical properties :
#
#
# Convention : Reuss Voigt Hill
#
# Bulk Modulus (GPa) = 22.00796 43.87101 32.93948
# Shear Modulus (GPa) = 22.09139 8.29907 15.19523
#
# Velocity S-wave (km/s) = 3.30072 2.02308 2.73748
# Velocity P-wave (km/s) = 5.03786 5.20508 5.12215
#
# Compressibility (1/GPa) = 0.04543811
#
# Stress axis : x y z
#
# Youngs Moduli (GPa) = 54.78413 30.02021 50.76713
#
# Poissons Ratio (x) = -0.21433 0.69016
# Poissons Ratio (y) = -0.39114 0.32780
# Poissons Ratio (z) = 0.74477 0.19384
#
# Static dielectric constant tensor:
#      x y z
#    x 1.717290 0.000000 0.000830 
#    y 0.000000 1.784410 0.000000 
#    z 0.000830 0.000000 1.738630 
# 
# From -- ./inp_files/87805.got.cif
#   From: 2010.05.17/outbox.cif.g08.bks.cpg/sg12_44_cif.got.tgz:87805.got - 2010.06.03 13:09:07.
