data_PCOD9174728
_publ_section_title
;
Structure prediction by ZEFSAII (Michael W. Deem and Ramdas Pophale) SiO2 
 PCOD9174728
Probable space group: C 2/M
;
_chemical_formula_sum "Si O2"
_cell_formula_units_Z 48
_cell_length_a 24.964217
_cell_length_b 7.446199
_cell_length_c 20.201205
_cell_angle_alpha 90.000000
_cell_angle_beta 33.015356
_cell_angle_gamma 90.000000
_cell_volume 2046.057386
_symmetry_space_group_name_H-M "C 2/M"
_symmetry_group_IT_number 12
_symmetry_cell_setting 'monoclinic'
loop_
_space_group_symop_operation_xyz
x,y,z
-x,y,-z
-x,-y,-z
x,-y,z
1/2+x,1/2+y,z
1/2-x,1/2+y,-z
1/2-x,1/2-y,-z
1/2+x,1/2-y,z
loop_
_atom_site_type_symbol
_atom_site_label
_atom_site_fract_x
_atom_site_fract_y
_atom_site_fract_z
Si Si1 0.148522 0.205705 0.188501
Si Si2 0.560027 0.279080 0.148434
Si Si3 0.327037 0.295761 0.093254
Si Si4 0.656482 0.285679 0.642737
Si Si5 0.537188 0.783080 0.534401
Si Si6 0.236623 0.220303 0.698672
O O1 0.132935 0.280845 0.131112
O O2 0.224236 0.299543 0.159363
O O3 0.040224 0.210992 0.332832
O O4 0.181598 0.000000 0.150559
O O5 0.564213 0.500000 0.145625
O O6 0.448080 0.220306 0.275948
O O7 0.596531 0.218067 0.038652
O O8 0.360289 0.500000 0.070800
O O9 0.306877 0.216079 0.186222
O O10 0.647247 0.500000 0.656749
O O11 0.750000 0.250000 0.500000
O O12 0.677882 0.220810 0.694864
O O13 0.500000 0.731646 0.500000
O O14 0.649526 0.725343 0.426684
O O15 0.534194 0.000000 0.541633
O O16 0.237140 0.000000 0.700091
#
# Coordination Sequence:
#
# PCOD9174728 Si02
#       6
#     8   8   8   8   8   8
#     4  11  21  33  50  79 111 140 174 216 264 315
#     4   9  20  35  54  78 107 139 176 217 261 311
#     4  10  19  36  56  76 104 141 177 218 263 306
#     4  10  20  37  57  80 106 135 173 217 261 314
#     4  10  18  32  52  76 105 137 174 215 257 308
#     4   9  18  32  55  81 103 132 177 220 257 304
#
# _framework density 23.459754
#
# number of rings (size 3 to 8) (size 9 to 14) (size 15 to 20)
#    0.000    2.167    1.667    2.000    0.000    1.000 
#    0.000    6.667    0.000    0.000    0.000    2.333 
#    0.000    0.000    0.000    0.000    0.000    0.000 
#
# Total GULP energy -134172.807178 kJ/mol
# GULP energy per Si atom -5590.533632 kJ/mol
# Density = 2.340636 g / cm^3
# Si number density = 23.459754 Si / 1000 Ang^3
#
#
#
# Elastic Constant Matrix: (Units=GPa)
#
#
# Indices 1 2 3 4 5 6 
#
# 1 120.1997 0.0900 31.1823 0.0419 12.1378 -0.0050
# 2 0.0900 74.2248 -7.0601 0.0310 1.3981 -0.0066
# 3 31.1823 -7.0601 119.1806 0.0687 18.8557 -0.0138
# 4 0.0419 0.0310 0.0687 8.3788 -0.0147 -7.0768
# 5 12.1378 1.3981 18.8557 -0.0147 29.8734 0.0069
# 6 -0.0050 -0.0066 -0.0138 -7.0768 0.0069 -1.1748
#
#
#
# Elastic Compliance Matrix: (Units=1/GPa)
#
#
# Indices 1 2 3 4 5 6 
#
# 1 0.009084 -0.000156 -0.002003 -0.000009 -0.002419 0.000028
# 2 -0.000156 0.013595 0.001041 -0.000023 -0.001230 0.000044
# 3 -0.002003 0.001041 0.009838 -0.000034 -0.005444 0.000059
# 4 -0.000009 -0.000023 -0.000034 0.019604 0.000063 -0.118096
# 5 -0.002419 -0.001230 -0.005444 0.000063 0.037952 -0.000077
# 6 0.000028 0.000044 0.000059 -0.118096 -0.000077 -0.139821
#
#
# Mechanical properties :
#
#
# Convention : Reuss Voigt Hill
#
# Bulk Modulus (GPa) = 33.02557 40.22550 36.62554
# Shear Modulus (GPa) = -133.62155 26.70834 -53.45661
#
# Velocity S-wave (km/s) = -7.55523 3.37779 -4.77870
# Velocity P-wave (km/s) = 7.87404 5.69179 3.84734
#
# Compressibility (1/GPa) = 0.03027956
#
# Stress axis : x y z
#
# Youngs Moduli (GPa) = 110.08928 73.55674 101.64918
#
# Poissons Ratio (x) = 0.01147 0.20361
# Poissons Ratio (y) = 0.01717 -0.10579
# Poissons Ratio (z) = 0.22052 -0.07655
#
# Static dielectric constant tensor:
#      x y z
#    x 1.851320 0.000010 0.009330 
#    y 0.000010 1.948410 -0.000010 
#    z 0.009330 -0.000010 1.871800 
# 
# From -- ./inp_files/327162.got.cif
#   From: 2010.05.17/outbox.cif.g08.bks.cpg/sg12_164_cif.got.tgz:327162.got - 2010.06.03 13:09:07.
