data_PCOD9174578
_publ_section_title
;
Structure prediction by ZEFSAII (Michael W. Deem and Ramdas Pophale) SiO2 
 PCOD9174578
Probable space group: C 2/M
;
_chemical_formula_sum "Si O2"
_cell_formula_units_Z 60
_cell_length_a 11.384722
_cell_length_b 29.175852
_cell_length_c 11.379179
_cell_angle_alpha 90.000000
_cell_angle_beta 87.412308
_cell_angle_gamma 90.000000
_cell_volume 3775.842120
_symmetry_space_group_name_H-M "C 2/M"
_symmetry_group_IT_number 12
_symmetry_cell_setting 'monoclinic'
loop_
_space_group_symop_operation_xyz
x,y,z
-x,y,-z
-x,-y,-z
x,-y,z
1/2+x,1/2+y,z
1/2-x,1/2+y,-z
1/2-x,1/2-y,-z
1/2+x,1/2-y,z
loop_
_atom_site_type_symbol
_atom_site_label
_atom_site_fract_x
_atom_site_fract_y
_atom_site_fract_z
Si Si1 0.762096 0.814422 0.613043
Si Si2 0.609230 0.195247 0.171744
Si Si3 0.053776 0.447801 0.129980
Si Si4 0.740763 0.879350 0.027759
Si Si5 0.537187 0.703031 0.205635
Si Si6 0.390629 0.127112 0.212940
Si Si7 0.500000 0.633726 0.000000
Si Si8 0.797635 0.790175 0.355929
O O1 0.871377 0.809049 0.695891
O O2 0.678764 0.853458 0.671637
O O3 0.802194 0.818422 0.476614
O O4 0.699546 0.764467 0.618757
O O5 0.700386 0.170421 0.079605
O O6 0.572822 0.247588 0.150567
O O7 0.491263 0.164787 0.177997
O O8 0.677714 0.197288 0.293073
O O9 0.075424 0.500000 0.165039
O O10 0.167733 0.416224 0.106981
O O11 0.962269 0.420487 0.216535
O O12 0.000000 0.448566 0.000000
O O13 0.877821 0.890730 0.035110
O O14 0.696003 0.878852 0.894905
O O15 0.408179 0.702516 0.267315
O O16 0.538710 0.665759 0.105085
#
# Coordination Sequence:
#
# PCOD9174578 Si02
#       8
#     8   8   8   8   8   8   4   8
#     4  10  20  32  47  65  96 134 175 212 235 269
#     4  10  20  31  47  67  94 133 168 206 243 280
#     4   8  16  32  55  76  98 124 150 196 259 313
#     4  10  20  33  48  72 102 124 159 202 250 300
#     4  11  21  31  45  65  99 133 175 203 237 280
#     4  10  18  32  49  74  99 124 162 202 245 297
#     4  12  22  30  49  70 100 134 159 204 242 294
#     4  10  20  33  45  64  95 137 178 207 234 274
#
# _framework density 15.890496000000001
#
# number of rings (size 3 to 8) (size 9 to 14) (size 15 to 20)
#    0.000    2.000    4.000    1.600    1.867    1.067 
#    0.000    0.333    0.000    0.000    0.000    7.467 
#    0.000    1.067    0.000    0.000    0.000    0.000 
#
# Total GULP energy -167107.761046 kJ/mol
# GULP energy per Si atom -5570.258702 kJ/mol
# Density = 1.585433 g / cm^3
# Si number density = 15.890496 Si / 1000 Ang^3
#
#
#
# Elastic Constant Matrix: (Units=GPa)
#
#
# Indices 1 2 3 4 5 6 
#
# 1 84.2953 31.3916 2.1258 0.0000 1.1496 0.0000
# 2 31.3916 69.4114 20.7916 0.0000 -0.8766 0.0000
# 3 2.1258 20.7916 42.8413 0.0000 -0.8976 0.0000
# 4 0.0000 0.0000 0.0000 12.1112 0.0000 -4.8320
# 5 1.1496 -0.8766 -0.8976 0.0000 13.5789 0.0000
# 6 0.0000 0.0000 0.0000 -4.8320 0.0000 9.5649
#
#
#
# Elastic Compliance Matrix: (Units=1/GPa)
#
#
# Indices 1 2 3 4 5 6 
#
# 1 0.014598 -0.007482 0.002875 0.000000 -0.001529 0.000000
# 2 -0.007482 0.020697 -0.009645 0.000000 0.001332 0.000000
# 3 0.002875 -0.009645 0.027901 0.000000 0.000978 0.000000
# 4 0.000000 0.000000 0.000000 0.103411 0.000000 0.052241
# 5 -0.001529 0.001332 0.000978 0.000000 0.073924 0.000000
# 6 0.000000 0.000000 0.000000 0.052241 0.000000 0.130940
#
#
# Mechanical properties :
#
#
# Convention : Reuss Voigt Hill
#
# Bulk Modulus (GPa) = 28.82680 33.90734 31.36707
# Shear Modulus (GPa) = 12.14953 16.53360 14.34156
#
# Velocity S-wave (km/s) = 2.76810 3.22913 3.00746
# Velocity P-wave (km/s) = 5.32886 5.94033 5.64289
#
# Compressibility (1/GPa) = 0.03468994
#
# Stress axis : x y z
#
# Youngs Moduli (GPa) = 68.50310 48.31653 35.84120
#
# Poissons Ratio (x) = 0.36153 -0.10304
# Poissons Ratio (y) = 0.51257 0.34570
# Poissons Ratio (z) = -0.19695 0.46603
#
# Static dielectric constant tensor:
#      x y z
#    x 1.560120 0.000000 -0.013010 
#    y 0.000000 1.520420 0.000000 
#    z -0.013010 0.000000 1.547020 
# 
# From -- ./inp_files/137301.got.cif
#   From: 2010.05.17/outbox.cif.g08.bks.cpg/sg12_69_cif.got.tgz:137301.got - 2010.06.03 13:09:07.
