data_PCOD9174052
_publ_section_title
;
Structure prediction by ZEFSAII (Michael W. Deem and Ramdas Pophale) SiO2 
 PCOD9174052
Probable space group: C 2/M
;
_chemical_formula_sum "Si O2"
_cell_formula_units_Z 56
_cell_length_a 29.069877
_cell_length_b 7.429148
_cell_length_c 22.354117
_cell_angle_alpha 90.000000
_cell_angle_beta 150.003823
_cell_angle_gamma 90.000000
_cell_volume 2413.567968
_symmetry_space_group_name_H-M "C 2/M"
_symmetry_group_IT_number 12
_symmetry_cell_setting 'monoclinic'
loop_
_space_group_symop_operation_xyz
x,y,z
-x,y,-z
-x,-y,-z
x,-y,z
1/2+x,1/2+y,z
1/2-x,1/2+y,-z
1/2-x,1/2-y,-z
1/2+x,1/2-y,z
loop_
_atom_site_type_symbol
_atom_site_label
_atom_site_fract_x
_atom_site_fract_y
_atom_site_fract_z
Si Si1 0.176444 0.220819 0.556142
Si Si2 0.344728 0.708161 0.035468
Si Si3 0.348781 0.786362 0.214245
Si Si4 0.079826 0.282013 0.008445
Si Si5 0.999620 0.205532 0.295302
Si Si6 0.874613 0.281090 0.807189
Si Si7 0.601840 0.715152 0.600357
O O1 0.282381 0.276834 0.669657
O O2 0.143522 0.279715 0.585142
O O3 0.099644 0.283679 0.422467
O O4 0.174259 0.000000 0.552514
O O5 0.337227 0.500000 0.045889
O O6 0.373846 0.713027 0.999108
O O7 0.427273 0.790496 0.167437
O O8 0.241774 0.785369 0.921366
O O9 0.441867 0.704781 0.292270
O O10 0.339990 0.751856 0.274731
O O11 0.354521 0.000000 0.211862
O O12 0.083229 0.500000 0.010265
O O13 0.972593 0.226003 0.890730
O O14 0.125334 0.227125 0.122733
O O15 0.015163 0.000000 0.292822
O O16 0.874948 0.500000 0.807675
O O17 0.500000 0.786998 0.500000
O O18 0.595239 0.500000 0.587018
#
# Coordination Sequence:
#
# PCOD9174052 Si02
#       7
#     8   8   8   8   8   8   8
#     4   9  16  29  51  75  99 128 166 207 245 289
#     4  10  22  36  50  71 101 135 171 207 252 300
#     4  11  22  34  49  73 103 134 166 209 258 297
#     4   9  17  32  55  78 100 125 161 208 253 299
#     4  10  20  36  53  69  96 137 177 209 240 293
#     4   8  15  29  52  81 102 122 158 206 256 299
#     4  10  18  31  52  77 100 128 169 205 239 296
#
# _framework density 23.202164
#
# number of rings (size 3 to 8) (size 9 to 14) (size 15 to 20)
#    0.000    2.429    1.429    2.571    0.000    3.143 
#    0.000    2.143    0.000    1.714    0.000    0.000 
#    0.000    0.000    0.000    0.000    0.000    0.000 
#
# Total GULP energy -156412.763594 kJ/mol
# GULP energy per Si atom -5586.170128 kJ/mol
# Density = 2.314935 g / cm^3
# Si number density = 23.202164 Si / 1000 Ang^3
#
#
#
# Elastic Constant Matrix: (Units=GPa)
#
#
# Indices 1 2 3 4 5 6 
#
# 1 22.2056 -6.4932 -1.0568 0.0006 8.3361 -0.0002
# 2 -6.4932 78.2343 -0.8938 0.0001 3.9614 0.0000
# 3 -1.0568 -0.8938 180.5993 -0.0005 28.6995 0.0002
# 4 0.0006 0.0001 -0.0005 1251.7366 0.0004 -437.1869
# 5 8.3361 3.9614 28.6995 0.0004 31.0794 -0.0001
# 6 -0.0002 0.0000 0.0002 -437.1869 -0.0001 156.1812
#
#
#
# Elastic Compliance Matrix: (Units=1/GPa)
#
#
# Indices 1 2 3 4 5 6 
#
# 1 0.053518 0.005390 0.003200 0.000000 -0.017996 0.000000
# 2 0.005390 0.013430 0.000703 0.000000 -0.003807 0.000000
# 3 0.003200 0.000703 0.006692 0.000000 -0.007127 0.000000
# 4 0.000000 0.000000 0.000000 0.035778 0.000000 0.100150
# 5 -0.017996 -0.003807 -0.007127 0.000000 0.044069 0.000000
# 6 0.000000 0.000000 0.000000 0.100150 0.000000 0.286745
#
#
# Mechanical properties :
#
#
# Convention : Reuss Voigt Hill
#
# Bulk Modulus (GPa) = 10.84310 29.35017 20.09663
# Shear Modulus (GPa) = 11.05243 307.09831 159.07537
#
# Velocity S-wave (km/s) = 2.18492 11.51716 8.28911
# Velocity P-wave (km/s) = 3.32395 13.76725 10.01463
#
# Compressibility (1/GPa) = 0.09222458
#
# Stress axis : x y z
#
# Youngs Moduli (GPa) = 18.68531 74.45900 149.43338
#
# Poissons Ratio (x) = -0.40131 -0.47814
# Poissons Ratio (y) = -0.10071 -0.10504
# Poissons Ratio (z) = -0.05979 -0.05234
#
# Static dielectric constant tensor:
#      x y z
#    x 1.821480 0.000000 0.005690 
#    y 0.000000 1.892770 0.000000 
#    z 0.005690 0.000000 1.919810 
# 
# From -- ./inp_files/329619.got.cif
#   From: 2010.05.17/outbox.cif.g08.bks.cpg/sg12_165_cif.got.tgz:329619.got - 2010.06.03 13:09:07.
