data_PCOD9174622
_publ_section_title
;
Structure prediction by ZEFSAII (Michael W. Deem and Ramdas Pophale) SiO2 
 PCOD9174622
Probable space group: C 2/M
;
_chemical_formula_sum "Si O2"
_cell_formula_units_Z 64
_cell_length_a 21.716201
_cell_length_b 15.937616
_cell_length_c 29.325894
_cell_angle_alpha 90.000000
_cell_angle_beta 20.104282
_cell_angle_gamma 90.000000
_cell_volume 3488.797435
_symmetry_space_group_name_H-M "C 2/M"
_symmetry_group_IT_number 12
_symmetry_cell_setting 'monoclinic'
loop_
_space_group_symop_operation_xyz
x,y,z
-x,y,-z
-x,-y,-z
x,-y,z
1/2+x,1/2+y,z
1/2-x,1/2+y,-z
1/2-x,1/2-y,-z
1/2+x,1/2-y,z
loop_
_atom_site_type_symbol
_atom_site_label
_atom_site_fract_x
_atom_site_fract_y
_atom_site_fract_z
Si Si1 0.981811 0.404603 0.925041
Si Si2 0.222560 0.234496 0.256305
Si Si3 0.853172 0.837277 0.791848
Si Si4 0.915294 0.142322 0.513196
Si Si5 0.683929 0.592207 0.516472
Si Si6 0.060854 0.660565 0.240788
Si Si7 0.701478 0.404062 0.840859
Si Si8 0.972552 0.596428 0.207701
O O1 0.054663 0.500000 0.880958
O O2 0.124717 0.330674 0.833902
O O3 0.927534 0.397064 0.909659
O O4 0.813180 0.390664 0.075000
O O5 0.185161 0.203282 0.230829
O O6 0.273120 0.331724 0.214836
O O7 0.046895 0.219444 0.409438
O O8 0.880542 0.756670 0.804538
O O9 0.035605 0.887735 0.657113
O O10 0.909040 0.094707 0.468929
O O11 0.705248 0.154287 0.669448
O O12 0.000000 0.102428 0.500000
O O13 0.761660 0.500000 0.469256
O O14 0.849787 0.655697 0.400161
O O15 0.169516 0.617002 0.205973
O O16 0.079508 0.615874 0.179092
O O17 0.731533 0.500000 0.804715
O O18 0.500000 0.396914 0.000000
O O19 0.906002 0.500000 0.257077
#
# Coordination Sequence:
#
# PCOD9174622 Si02
#       8
#     8   8   8   8   8   8   8   8
#     4  11  22  35  53  80 117 151 179 217 269 334
#     4  10  20  34  53  80 112 145 182 226 272 320
#     4  10  21  34  50  75 110 146 183 217 270 332
#     4  10  18  32  50  78 110 146 180 221 260 317
#     4  10  20  32  52  79 106 139 180 228 274 321
#     4  10  19  36  56  77 107 138 180 230 274 320
#     4  10  20  36  60  85 107 137 181 236 282 319
#     4  10  21  34  53  82 110 144 187 225 268 324
#
# _framework density 18.344429999999999
#
# number of rings (size 3 to 8) (size 9 to 14) (size 15 to 20)
#    0.000    1.875    1.250    4.875    0.000    6.000 
#    0.000    0.000    0.000    0.375    0.000    0.875 
#    0.000    0.000    0.000    0.000    0.000    0.000 
#
# Total GULP energy -178249.663797 kJ/mol
# GULP energy per Si atom -5570.301994 kJ/mol
# Density = 1.830268 g / cm^3
# Si number density = 18.344430 Si / 1000 Ang^3
#
#
#
# Elastic Constant Matrix: (Units=GPa)
#
#
# Indices 1 2 3 4 5 6 
#
# 1 57.7945 24.4553 24.7898 -0.0132 -4.8493 0.0040
# 2 24.4553 104.0792 18.7481 -0.0186 -4.5104 0.0074
# 3 24.7898 18.7481 44.1539 0.0007 1.3819 0.0182
# 4 -0.0132 -0.0186 0.0007 21.2970 -0.0013 -0.0332
# 5 -4.8493 -4.5104 1.3819 -0.0013 22.5774 0.0050
# 6 0.0040 0.0074 0.0182 -0.0332 0.0050 23.4641
#
#
#
# Elastic Compliance Matrix: (Units=1/GPa)
#
#
# Indices 1 2 3 4 5 6 
#
# 1 0.024519 -0.003268 -0.012547 0.000013 0.005381 0.000005
# 2 -0.003268 0.010966 -0.002874 0.000008 0.001665 -0.000001
# 3 -0.012547 -0.002874 0.031074 -0.000012 -0.005171 -0.000020
# 4 0.000013 0.000008 -0.000012 0.046955 0.000008 0.000066
# 5 0.005381 0.001665 -0.005171 0.000008 0.046097 -0.000007
# 6 0.000005 -0.000001 -0.000020 0.000066 -0.000007 0.042618
#
#
# Mechanical properties :
#
#
# Convention : Reuss Voigt Hill
#
# Bulk Modulus (GPa) = 34.26710 38.00156 36.13433
# Shear Modulus (GPa) = 20.05356 22.67000 21.36178
#
# Velocity S-wave (km/s) = 3.30990 3.51920 3.41615
# Velocity P-wave (km/s) = 5.77301 6.10521 5.94143
#
# Compressibility (1/GPa) = 0.02918251
#
# Stress axis : x y z
#
# Youngs Moduli (GPa) = 40.78538 91.19377 32.18104
#
# Poissons Ratio (x) = 0.29800 0.40376
# Poissons Ratio (y) = 0.13328 0.09247
# Poissons Ratio (z) = 0.51172 0.26205
#
# Static dielectric constant tensor:
#      x y z
#    x 1.646640 0.000000 -0.004260 
#    y 0.000000 1.665010 0.000010 
#    z -0.004260 0.000010 1.638180 
# 
# From -- ./inp_files/381450.got.cif
#   From: 2010.05.17/outbox.cif.g08.bks.cpg/sg12_191_cif.got.tgz:381450.got - 2010.06.03 13:09:07.
