data_PCOD9174832
_publ_section_title
;
Structure prediction by ZEFSAII (Michael W. Deem and Ramdas Pophale) SiO2 
 PCOD9174832
Probable space group: C 2/M
;
_chemical_formula_sum "Si O2"
_cell_formula_units_Z 48
_cell_length_a 20.683907
_cell_length_b 19.541990
_cell_length_c 16.595565
_cell_angle_alpha 90.000000
_cell_angle_beta 157.187028
_cell_angle_gamma 90.000000
_cell_volume 2600.856645
_symmetry_space_group_name_H-M "C 2/M"
_symmetry_group_IT_number 12
_symmetry_cell_setting 'monoclinic'
loop_
_space_group_symop_operation_xyz
x,y,z
-x,y,-z
-x,-y,-z
x,-y,z
1/2+x,1/2+y,z
1/2-x,1/2+y,-z
1/2-x,1/2-y,-z
1/2+x,1/2-y,z
loop_
_atom_site_type_symbol
_atom_site_label
_atom_site_fract_x
_atom_site_fract_y
_atom_site_fract_z
Si Si1 0.273645 0.871244 0.613516
Si Si2 0.952955 0.880105 0.138875
Si Si3 0.154505 0.000000 0.739144
Si Si4 0.402595 0.500000 0.803310
Si Si5 0.230210 0.000000 0.991637
Si Si6 0.196479 0.867994 0.711037
Si Si7 0.901173 0.500000 0.654510
Si Si8 0.459068 0.245478 0.045363
O O1 0.243269 0.886634 0.673056
O O2 0.390772 0.803217 0.748528
O O3 0.090926 0.861973 0.364718
O O4 0.353920 0.933614 0.654616
O O5 0.805903 0.928922 0.003939
O O6 0.916676 0.810007 0.051657
O O7 0.036695 0.931876 0.171910
O O8 0.250303 0.068676 0.828350
O O9 0.000000 0.000000 0.500000
O O10 0.097635 0.000000 0.765521
O O11 0.206784 0.500000 0.553469
O O12 0.500000 0.500000 0.000000
O O13 0.408591 0.000000 0.154943
O O14 0.000000 0.857111 0.500000
O O15 0.299125 0.802554 0.854306
O O16 0.500000 0.266719 0.000000
#
# Coordination Sequence:
#
# PCOD9174832 Si02
#       8
#     8   8   4   4   4   8   4   8
#     4  10  20  36  58  82 110 147 185 222 271 334
#     4  10  20  37  57  79 109 147 185 229 278 326
#     4  10  18  32  53  78 111 146 176 216 266 323
#     4   9  19  37  61  79 101 142 192 234 278 331
#     4  11  22  37  57  84 113 144 189 235 279 327
#     4  10  20  35  56  85 114 145 182 226 277 330
#     4  10  21  38  58  85 112 142 184 233 278 329
#     4  10  21  36  55  81 113 146 185 226 272 331
#
# _framework density 18.455458
#
# number of rings (size 3 to 8) (size 9 to 14) (size 15 to 20)
#    0.000    2.000    0.000    5.000    0.000    0.000 
#    0.000   20.833    0.000    0.000    0.000    0.000 
#    0.000    0.000    0.000    0.000    0.000    0.000 
#
# Total GULP energy -133703.192571 kJ/mol
# GULP energy per Si atom -5570.966357 kJ/mol
# Density = 1.841345 g / cm^3
# Si number density = 18.455458 Si / 1000 Ang^3
#
#
#
# Elastic Constant Matrix: (Units=GPa)
#
#
# Indices 1 2 3 4 5 6 
#
# 1 79.6244 65.2596 40.2173 0.0000 5.0411 0.0000
# 2 65.2596 130.0291 39.9364 0.0000 -2.7639 0.0000
# 3 40.2173 39.9364 83.5629 0.0000 1.9186 0.0000
# 4 0.0000 0.0000 0.0000 -4.4443 0.0000 -35.4722
# 5 5.0411 -2.7639 1.9186 0.0000 34.9440 0.0000
# 6 0.0000 0.0000 0.0000 -35.4722 0.0000 -9.7834
#
#
#
# Elastic Compliance Matrix: (Units=1/GPa)
#
#
# Indices 1 2 3 4 5 6 
#
# 1 0.024847 -0.010445 -0.006874 0.000000 -0.004033 0.000000
# 2 -0.010445 0.013436 -0.001455 0.000000 0.002649 0.000000
# 3 -0.006874 -0.001455 0.015971 0.000000 0.000000 0.000000
# 4 0.000000 0.000000 0.000000 0.008054 0.000000 -0.029200
# 5 -0.004033 0.002649 0.000000 0.000000 0.029409 0.000000
# 6 0.000000 0.000000 0.000000 -0.029200 0.000000 0.003658
#
#
# Mechanical properties :
#
#
# Convention : Reuss Voigt Hill
#
# Bulk Modulus (GPa) = 59.86003 64.89365 62.37684
# Shear Modulus (GPa) = 36.10364 13.99680 25.05022
#
# Velocity S-wave (km/s) = 4.42776 2.75691 3.68820
# Velocity P-wave (km/s) = 7.65803 6.73593 7.21173
#
# Compressibility (1/GPa) = 0.01670564
#
# Stress axis : x y z
#
# Youngs Moduli (GPa) = 40.24697 74.42754 62.61411
#
# Poissons Ratio (x) = 0.77737 0.43040
# Poissons Ratio (y) = 0.42037 0.09112
# Poissons Ratio (z) = 0.27665 0.10831
#
# Static dielectric constant tensor:
#      x y z
#    x 1.665550 0.000000 -0.017430 
#    y 0.000000 1.698240 0.000000 
#    z -0.017430 0.000000 1.706100 
# 
# From -- ./inp_files/226796.got.cif
#   From: 2010.05.17/outbox.cif.g08.bks.cpg/sg12_114_cif.got.tgz:226796.got - 2010.06.03 13:09:07.
