data_PCOD9174439
_publ_section_title
;
Structure prediction by ZEFSAII (Michael W. Deem and Ramdas Pophale) SiO2 
 PCOD9174439
Probable space group: C 2/M
;
_chemical_formula_sum "Si O2"
_cell_formula_units_Z 48
_cell_length_a 19.419197
_cell_length_b 14.201179
_cell_length_c 9.086904
_cell_angle_alpha 90.000000
_cell_angle_beta 61.617864
_cell_angle_gamma 90.000000
_cell_volume 2204.722825
_symmetry_space_group_name_H-M "C 2/M"
_symmetry_group_IT_number 12
_symmetry_cell_setting 'monoclinic'
loop_
_space_group_symop_operation_xyz
x,y,z
-x,y,-z
-x,-y,-z
x,-y,z
1/2+x,1/2+y,z
1/2-x,1/2+y,-z
1/2-x,1/2-y,-z
1/2+x,1/2-y,z
loop_
_atom_site_type_symbol
_atom_site_label
_atom_site_fract_x
_atom_site_fract_y
_atom_site_fract_z
Si Si1 0.227400 0.105561 0.056900
Si Si2 0.879433 0.500000 0.509876
Si Si3 0.085385 0.177277 0.378090
Si Si4 0.041814 0.698045 0.157477
Si Si5 0.062367 0.500000 0.222320
Si Si6 0.139208 0.295609 0.595589
Si Si7 0.318379 0.267181 0.140813
O O1 0.143254 0.113824 0.223888
O O2 0.278816 0.182056 0.090396
O O3 0.256490 0.000000 0.038433
O O4 0.218040 0.140508 0.897902
O O5 0.886381 0.500000 0.680525
O O6 0.843958 0.401532 0.482286
O O7 0.971118 0.500000 0.367173
O O8 0.064729 0.267242 0.297488
O O9 0.129069 0.220141 0.474834
O O10 0.000000 0.134393 0.500000
O O11 0.071355 0.592126 0.115625
O O12 0.948937 0.697934 0.247542
O O13 0.090518 0.764247 0.000117
O O14 0.189357 0.254054 0.679697
#
# Coordination Sequence:
#
# PCOD9174439 Si02
#       7
#     8   4   8   8   4   8   8
#     4  10  23  42  57  75 107 148 190 228 273 328
#     4   9  16  25  45  83 121 147 169 220 259 320
#     4   9  18  35  59  80 105 141 181 229 274 317
#     4   9  17  30  52  83 114 149 176 212 268 334
#     4   9  14  25  45  77 121 151 177 200 256 336
#     4  10  18  31  55  86 117 140 180 224 273 320
#     4  10  22  37  57  80 112 146 179 226 278 324
#
# _framework density 21.771443999999999
#
# number of rings (size 3 to 8) (size 9 to 14) (size 15 to 20)
#    0.000    2.500    1.667    0.500    2.333    1.000 
#    0.000    3.333    0.000   13.000    0.000    0.000 
#    0.000    0.000    0.000    0.000    0.000    0.000 
#
# Total GULP energy -133951.623481 kJ/mol
# GULP energy per Si atom -5581.317645 kJ/mol
# Density = 2.172189 g / cm^3
# Si number density = 21.771444 Si / 1000 Ang^3
#
#
#
# Elastic Constant Matrix: (Units=GPa)
#
#
# Indices 1 2 3 4 5 6 
#
# 1 57.7859 7.5085 35.1081 0.0000 11.4156 0.0000
# 2 7.5085 66.4773 7.2247 0.0000 11.4130 0.0000
# 3 35.1081 7.2247 91.4221 0.0000 18.8208 0.0000
# 4 0.0000 0.0000 0.0000 12.6044 0.0000 -4.3561
# 5 11.4156 11.4130 18.8208 0.0000 58.5040 0.0000
# 6 0.0000 0.0000 0.0000 -4.3561 0.0000 15.8912
#
#
#
# Elastic Compliance Matrix: (Units=1/GPa)
#
#
# Indices 1 2 3 4 5 6 
#
# 1 0.022864 -0.001417 -0.008361 0.000000 -0.001495 0.000000
# 2 -0.001417 0.015688 -0.000131 0.000000 -0.002742 0.000000
# 3 -0.008361 -0.000131 0.014798 0.000000 -0.003104 0.000000
# 4 0.000000 0.000000 0.000000 0.087640 0.000000 0.024024
# 5 -0.001495 -0.002742 -0.003104 0.000000 0.018918 0.000000
# 6 0.000000 0.000000 0.000000 0.024024 0.000000 0.069513
#
#
# Mechanical properties :
#
#
# Convention : Reuss Voigt Hill
#
# Bulk Modulus (GPa) = 29.82168 35.04087 32.43127
# Shear Modulus (GPa) = 19.19999 28.45619 23.82809
#
# Velocity S-wave (km/s) = 2.97288 3.61923 3.31186
# Velocity P-wave (km/s) = 5.05088 5.79611 5.43628
#
# Compressibility (1/GPa) = 0.03353265
#
# Stress axis : x y z
#
# Youngs Moduli (GPa) = 43.73625 63.74406 67.57566
#
# Poissons Ratio (x) = 0.09033 0.56497
# Poissons Ratio (y) = 0.06198 0.00886
# Poissons Ratio (z) = 0.36566 0.00836
#
# Static dielectric constant tensor:
#      x y z
#    x 1.865890 0.000000 -0.048200 
#    y 0.000000 1.755180 0.000000 
#    z -0.048200 0.000000 1.845930 
# 
# From -- ./inp_files/95698.got.cif
#   From: 2010.05.17/outbox.cif.g08.bks.cpg/sg12_48_cif.got.tgz:95698.got - 2010.06.03 13:09:07.
