data_PCOD9174355
_publ_section_title
;
Structure prediction by ZEFSAII (Michael W. Deem and Ramdas Pophale) SiO2 
 PCOD9174355
Probable space group: C 2/M
;
_chemical_formula_sum "Si O2"
_cell_formula_units_Z 40
_cell_length_a 18.386617
_cell_length_b 8.693048
_cell_length_c 19.198296
_cell_angle_alpha 90.000000
_cell_angle_beta 136.071962
_cell_angle_gamma 90.000000
_cell_volume 2128.836513
_symmetry_space_group_name_H-M "C 2/M"
_symmetry_group_IT_number 12
_symmetry_cell_setting 'monoclinic'
loop_
_space_group_symop_operation_xyz
x,y,z
-x,y,-z
-x,-y,-z
x,-y,z
1/2+x,1/2+y,z
1/2-x,1/2+y,-z
1/2-x,1/2-y,-z
1/2+x,1/2-y,z
loop_
_atom_site_type_symbol
_atom_site_label
_atom_site_fract_x
_atom_site_fract_y
_atom_site_fract_z
Si Si1 0.726977 0.815858 0.907856
Si Si2 0.175927 0.816644 0.291442
Si Si3 0.985492 0.683791 0.706314
Si Si4 0.380398 0.183935 0.897213
Si Si5 0.332007 0.316243 0.499485
O O1 0.606833 0.783262 0.803814
O O2 0.804800 0.740096 0.906282
O O3 0.741015 0.000000 0.917761
O O4 0.750000 0.750000 0.000000
O O5 0.084633 0.752607 0.279398
O O6 0.151429 0.763855 0.196749
O O7 0.285510 0.747398 0.395504
O O8 0.179026 0.000000 0.299316
O O9 0.969647 0.500000 0.694224
O O10 0.942145 0.754544 0.604351
O O11 0.373037 0.000000 0.883715
O O12 0.500000 0.221857 0.000000
O O13 0.329939 0.500000 0.498672
O O14 0.250000 0.250000 0.500000
#
# Coordination Sequence:
#
# PCOD9174355 Si02
#       5
#     8   8   8   8   8
#     4  11  24  40  60  85 114 149 187 232 282 335
#     4  11  21  35  58  86 116 150 189 232 278 331
#     4  10  20  36  57  84 117 150 188 232 279 329
#     4  11  24  41  60  83 113 148 187 234 284 334
#     4  10  18  31  54  83 114 149 189 230 275 328
#
# _framework density 18.789607
#
# number of rings (size 3 to 8) (size 9 to 14) (size 15 to 20)
#    0.000    1.400    0.000    9.000    0.000    9.600 
#    0.000    1.000    0.000    6.000    0.000    0.000 
#    0.000    0.000    0.000    0.000    0.000    0.000 
#
# Total GULP energy -111781.334298 kJ/mol
# GULP energy per Si atom -5589.066715 kJ/mol
# Density = 1.874684 g / cm^3
# Si number density = 18.789607 Si / 1000 Ang^3
#
#
#
# Elastic Constant Matrix: (Units=GPa)
#
#
# Indices 1 2 3 4 5 6 
#
# 1 89.9914 53.9134 70.7593 0.0000 -0.7968 0.0000
# 2 53.9134 141.8529 102.7259 0.0000 10.7710 0.0000
# 3 70.7593 102.7259 194.2682 0.0000 1.1173 0.0000
# 4 0.0000 0.0000 0.0000 39.7654 0.0000 -2.6515
# 5 -0.7968 10.7710 1.1173 0.0000 28.4271 0.0000
# 6 0.0000 0.0000 0.0000 -2.6515 0.0000 26.6807
#
#
#
# Elastic Compliance Matrix: (Units=1/GPa)
#
#
# Indices 1 2 3 4 5 6 
#
# 1 0.016461 -0.003322 -0.004250 0.000000 0.001887 0.000000
# 2 -0.003322 0.012591 -0.005421 0.000000 -0.004651 0.000000
# 3 -0.004250 -0.005421 0.009553 0.000000 0.001560 0.000000
# 4 0.000000 0.000000 0.000000 0.025315 0.000000 0.002516
# 5 0.001887 -0.004651 0.001560 0.000000 0.036931 0.000000
# 6 0.000000 0.000000 0.000000 0.002516 0.000000 0.037730
#
#
# Mechanical properties :
#
#
# Convention : Reuss Voigt Hill
#
# Bulk Modulus (GPa) = 79.24554 97.87885 88.56220
# Shear Modulus (GPa) = 29.62537 32.22225 30.92381
#
# Velocity S-wave (km/s) = 3.97506 4.14562 4.06124
# Velocity P-wave (km/s) = 7.95832 8.66718 8.32030
#
# Compressibility (1/GPa) = 0.01261901
#
# Stress axis : x y z
#
# Youngs Moduli (GPa) = 60.75127 79.42069 104.67637
#
# Poissons Ratio (x) = 0.26381 0.44486
# Poissons Ratio (y) = 0.20180 0.56749
# Poissons Ratio (z) = 0.25819 0.43057
#
# Static dielectric constant tensor:
#      x y z
#    x 1.628900 0.000000 0.010820 
#    y 0.000000 1.627810 0.000000 
#    z 0.010820 0.000000 1.675350 
# 
# From -- ./inp_files/274672.got.cif
#   From: 2010.05.17/outbox.cif.g08.bks.cpg/sg12_138_cif.got.tgz:274672.got - 2010.06.03 13:09:07.
