data_PCOD9174008
_publ_section_title
;
Structure prediction by ZEFSAII (Michael W. Deem and Ramdas Pophale) SiO2 
 PCOD9174008
Probable space group: C 2/M
;
_chemical_formula_sum "Si O2"
_cell_formula_units_Z 48
_cell_length_a 19.895542
_cell_length_b 7.767473
_cell_length_c 22.496237
_cell_angle_alpha 90.000000
_cell_angle_beta 134.682384
_cell_angle_gamma 90.000000
_cell_volume 2471.864150
_symmetry_space_group_name_H-M "C 2/M"
_symmetry_group_IT_number 12
_symmetry_cell_setting 'monoclinic'
loop_
_space_group_symop_operation_xyz
x,y,z
-x,y,-z
-x,-y,-z
x,-y,z
1/2+x,1/2+y,z
1/2-x,1/2+y,-z
1/2-x,1/2-y,-z
1/2+x,1/2-y,z
loop_
_atom_site_type_symbol
_atom_site_label
_atom_site_fract_x
_atom_site_fract_y
_atom_site_fract_z
Si Si1 0.535610 0.200842 0.727339
Si Si2 0.724666 0.792814 0.786923
Si Si3 0.675522 0.206902 0.403131
Si Si4 0.462200 0.700178 0.137269
Si Si5 0.677061 0.794153 0.270791
Si Si6 0.904415 0.210893 0.974612
O O1 0.624297 0.276303 0.747240
O O2 0.430859 0.275544 0.651575
O O3 0.553996 0.211170 0.809581
O O4 0.530087 0.000000 0.707246
O O5 0.749524 0.752532 0.734514
O O6 0.811921 0.730535 0.881817
O O7 0.723271 0.000000 0.792581
O O8 0.750000 0.250000 0.500000
O O9 0.703886 0.263411 0.354137
O O10 0.668956 0.000000 0.396662
O O11 0.438514 0.500000 0.130530
O O12 0.574187 0.715374 0.192884
O O13 0.408677 0.767788 0.045842
O O14 0.664735 0.000000 0.263509
O O15 0.905201 0.000000 0.975756
O O16 0.000000 0.264551 0.000000
#
# Coordination Sequence:
#
# PCOD9174008 Si02
#       6
#     8   8   8   8   8   8
#     4   9  20  36  52  75 108 135 165 213 261 300
#     4  10  19  34  54  74 103 144 174 204 255 302
#     4   9  19  36  56  77  99 127 164 208 254 307
#     4  10  18  31  52  74 100 140 182 212 247 299
#     4  10  20  34  52  77 107 132 166 215 256 297
#     4   9  16  28  48  75 103 132 178 221 242 283
#
# _framework density 19.418541000000001
#
# number of rings (size 3 to 8) (size 9 to 14) (size 15 to 20)
#    0.000    2.500    1.667    2.000    0.000    4.667 
#    0.000    3.333    0.000    5.000    0.000    0.000 
#    0.000    0.000    0.000    0.000    0.000    0.000 
#
# Total GULP energy -133881.472337 kJ/mol
# GULP energy per Si atom -5578.394681 kJ/mol
# Density = 1.937434 g / cm^3
# Si number density = 19.418541 Si / 1000 Ang^3
#
#
#
# Elastic Constant Matrix: (Units=GPa)
#
#
# Indices 1 2 3 4 5 6 
#
# 1 163.8340 -2.1768 86.7418 0.0000 3.7510 0.0000
# 2 -2.1768 22.8192 1.6968 0.0000 6.6134 -0.0001
# 3 86.7418 1.6968 159.7786 0.0000 -5.3880 0.0000
# 4 0.0000 0.0000 0.0000 13.0046 0.0000 -8.8571
# 5 3.7510 6.6134 -5.3880 0.0000 15.9729 0.0000
# 6 0.0000 -0.0001 0.0000 -8.8571 0.0000 17.3923
#
#
#
# Elastic Compliance Matrix: (Units=1/GPa)
#
#
# Indices 1 2 3 4 5 6 
#
# 1 0.008915 0.002640 -0.005033 0.000000 -0.004884 0.000000
# 2 0.002640 0.050824 -0.002735 0.000000 -0.022586 0.000000
# 3 -0.005033 -0.002735 0.009203 0.000000 0.005418 0.000000
# 4 0.000000 0.000000 0.000000 0.117729 0.000000 0.059954
# 5 -0.004884 -0.022586 0.005418 0.000000 0.074932 0.000000
# 6 0.000000 0.000000 0.000000 0.059954 0.000000 0.088028
#
#
# Mechanical properties :
#
#
# Convention : Reuss Voigt Hill
#
# Bulk Modulus (GPa) = 17.03950 57.66170 37.35060
# Shear Modulus (GPa) = 13.17705 26.61862 19.89783
#
# Velocity S-wave (km/s) = 2.60778 3.70643 3.20454
# Velocity P-wave (km/s) = 4.22626 6.93364 5.74181
#
# Compressibility (1/GPa) = 0.05868718
#
# Stress axis : x y z
#
# Youngs Moduli (GPa) = 112.16782 19.67588 108.66479
#
# Poissons Ratio (x) = -0.05195 0.54688
# Poissons Ratio (y) = -0.29615 0.29717
# Poissons Ratio (z) = 0.56451 0.05381
#
# Static dielectric constant tensor:
#      x y z
#    x 1.683680 0.000000 -0.000960 
#    y 0.000000 1.714920 0.000000 
#    z -0.000960 0.000000 1.667300 
# 
# From -- ./inp_files/313628.got.cif
#   From: 2010.05.17/outbox.cif.g08.bks.cpg/sg12_157_cif.got.tgz:313628.got - 2010.06.03 13:09:07.
