data_PCOD9174896
_publ_section_title
;
Structure prediction by ZEFSAII (Michael W. Deem and Ramdas Pophale) SiO2 
 PCOD9174896
Probable space group: C 2/M
;
_chemical_formula_sum "Si O2"
_cell_formula_units_Z 60
_cell_length_a 16.972953
_cell_length_b 12.811505
_cell_length_c 16.108242
_cell_angle_alpha 90.000000
_cell_angle_beta 112.041765
_cell_angle_gamma 90.000000
_cell_volume 3246.710211
_symmetry_space_group_name_H-M "C 2/M"
_symmetry_group_IT_number 12
_symmetry_cell_setting 'monoclinic'
loop_
_space_group_symop_operation_xyz
x,y,z
-x,y,-z
-x,-y,-z
x,-y,z
1/2+x,1/2+y,z
1/2-x,1/2+y,-z
1/2-x,1/2-y,-z
1/2+x,1/2-y,z
loop_
_atom_site_type_symbol
_atom_site_label
_atom_site_fract_x
_atom_site_fract_y
_atom_site_fract_z
Si Si1 0.167906 0.881882 0.032585
Si Si2 0.042387 0.618668 0.138586
Si Si3 0.112486 0.882230 0.818553
Si Si4 0.500000 0.714652 0.000000
Si Si5 0.182308 0.622836 0.675648
Si Si6 0.584591 0.880473 0.476457
Si Si7 0.225379 0.279497 0.178659
Si Si8 0.013430 0.309129 0.709645
O O1 0.142448 0.871193 0.926247
O O2 0.079843 0.859318 0.046236
O O3 0.199632 0.000000 0.058638
O O4 0.225810 0.792006 0.095028
O O5 0.032032 0.500000 0.105560
O O6 0.137464 0.660005 0.156952
O O7 0.019527 0.624609 0.225951
O O8 0.984165 0.703471 0.068073
O O9 0.196920 0.858965 0.798633
O O10 0.042530 0.800865 0.759523
O O11 0.082441 0.000000 0.796240
O O12 0.202430 0.500000 0.688157
O O13 0.157396 0.649161 0.570744
O O14 0.254647 0.697281 0.740615
O O15 0.098062 0.643312 0.699325
O O16 0.500000 0.883142 0.500000
O O17 0.559779 0.808999 0.389154
O O18 0.599007 0.000000 0.453260
#
# Coordination Sequence:
#
# PCOD9174896 Si02
#       8
#     8   8   8   4   8   8   8   8
#     4  10  19  33  52  73  99 131 170 209 248 289
#     4  11  21  34  50  72 102 135 168 203 247 297
#     4  10  20  35  52  71 100 135 170 208 247 293
#     4  10  20  34  48  74 102 130 168 206 254 288
#     4   9  17  32  54  80 102 126 164 212 255 289
#     4   8  14  27  51  79 102 123 156 209 260 291
#     4  10  21  33  50  72 105 136 168 197 246 303
#     4  10  18  32  54  77  98 127 170 208 250 296
#
# _framework density 18.480246000000001
#
# number of rings (size 3 to 8) (size 9 to 14) (size 15 to 20)
#    0.000    2.267    1.333    3.600    0.000    0.000 
#    0.000    1.333    0.000   10.800    0.000    0.000 
#    0.000    0.000    0.000    0.000    0.000    0.000 
#
# Total GULP energy -167123.971953 kJ/mol
# GULP energy per Si atom -5570.799065 kJ/mol
# Density = 1.843818 g / cm^3
# Si number density = 18.480246 Si / 1000 Ang^3
#
#
#
# Elastic Constant Matrix: (Units=GPa)
#
#
# Indices 1 2 3 4 5 6 
#
# 1 16.2069 18.8889 -2.5776 0.0000 -3.4981 0.0000
# 2 18.8889 93.6444 37.4867 0.0000 4.9084 0.0000
# 3 -2.5776 37.4867 96.8268 0.0000 1.0340 0.0000
# 4 0.0000 0.0000 0.0000 25.7468 0.0000 5.3678
# 5 -3.4981 4.9084 1.0340 0.0000 16.2790 0.0000
# 6 0.0000 0.0000 0.0000 5.3678 0.0000 10.9318
#
#
#
# Elastic Compliance Matrix: (Units=1/GPa)
#
#
# Indices 1 2 3 4 5 6 
#
# 1 0.101866 -0.027269 0.012956 0.000000 0.029289 0.000000
# 2 -0.027269 0.020140 -0.008401 0.000000 -0.011398 0.000000
# 3 0.012956 -0.008401 0.013878 0.000000 0.004436 0.000000
# 4 0.000000 0.000000 0.000000 0.043269 0.000000 -0.021246
# 5 0.029289 -0.011398 0.004436 0.000000 0.070878 0.000000
# 6 0.000000 0.000000 0.000000 -0.021246 0.000000 0.101908
#
#
# Mechanical properties :
#
#
# Convention : Reuss Voigt Hill
#
# Bulk Modulus (GPa) = 11.05520 34.91933 22.98726
# Shear Modulus (GPa) = 11.69541 20.78354 16.23947
#
# Velocity S-wave (km/s) = 2.51840 3.35720 2.96758
# Velocity P-wave (km/s) = 3.80153 5.82788 4.92015
#
# Compressibility (1/GPa) = 0.09045521
#
# Stress axis : x y z
#
# Youngs Moduli (GPa) = 9.81684 49.65340 72.05749
#
# Poissons Ratio (x) = 1.35399 -0.93358
# Poissons Ratio (y) = 0.26769 0.60537
# Poissons Ratio (z) = -0.12719 0.41715
#
# Static dielectric constant tensor:
#      x y z
#    x 1.630370 0.000000 0.002970 
#    y 0.000000 1.619820 0.000000 
#    z 0.002970 0.000000 1.683140 
# 
# From -- ./inp_files/223884.got.cif
#   From: 2010.05.17/outbox.cif.g08.bks.cpg/sg12_112_cif.got.tgz:223884.got - 2010.06.03 13:09:07.
