data_PCOD9174849
_publ_section_title
;
Structure prediction by ZEFSAII (Michael W. Deem and Ramdas Pophale) SiO2 
 PCOD9174849
Probable space group: C 2/M
;
_chemical_formula_sum "Si O2"
_cell_formula_units_Z 56
_cell_length_a 28.636190
_cell_length_b 7.435123
_cell_length_c 18.516774
_cell_angle_alpha 90.000000
_cell_angle_beta 142.295133
_cell_angle_gamma 90.000000
_cell_volume 2411.193762
_symmetry_space_group_name_H-M "C 2/M"
_symmetry_group_IT_number 12
_symmetry_cell_setting 'monoclinic'
loop_
_space_group_symop_operation_xyz
x,y,z
-x,y,-z
-x,-y,-z
x,-y,z
1/2+x,1/2+y,z
1/2-x,1/2+y,-z
1/2-x,1/2-y,-z
1/2+x,1/2-y,z
loop_
_atom_site_type_symbol
_atom_site_label
_atom_site_fract_x
_atom_site_fract_y
_atom_site_fract_z
Si Si1 0.250170 0.282633 0.156270
Si Si2 0.495360 0.281247 0.576461
Si Si3 0.147446 0.781066 0.846319
Si Si4 0.408720 0.706899 0.070333
Si Si5 0.465300 0.713880 0.880682
Si Si6 0.669733 0.280530 0.599570
Si Si7 0.711735 0.213164 0.374733
O O1 0.248194 0.500000 0.152574
O O2 0.282470 0.217761 0.118098
O O3 0.305791 0.230517 0.289412
O O4 0.165875 0.213366 0.071351
O O5 0.500000 0.219927 0.500000
O O6 0.493638 0.500000 0.573034
O O7 0.572135 0.232470 0.709890
O O8 0.417255 0.222449 0.518646
O O9 0.126503 0.711018 0.899952
O O10 0.154701 0.000000 0.858146
O O11 0.428054 0.500000 0.112291
O O12 0.481093 0.786809 0.118417
O O13 0.479371 0.500000 0.899647
O O14 0.375945 0.734234 0.751087
O O15 0.500000 0.782117 0.000000
O O16 0.670569 0.500000 0.598069
O O17 0.730311 0.214539 0.615256
O O18 0.750000 0.250000 0.500000
O O19 0.710894 0.000000 0.366902
#
# Coordination Sequence:
#
# PCOD9174849 Si02
#       7
#     8   8   8   8   8   8   8
#     4  10  18  32  53  81 110 137 176 223 269 324
#     4   9  14  25  47  76 106 134 168 215 265 317
#     4   9  17  28  47  77 109 138 173 218 268 323
#     4  10  21  34  52  78 107 144 182 219 273 331
#     4  10  22  41  62  84 114 154 201 245 287 340
#     4   9  18  31  52  80 107 138 177 220 270 326
#     4  11  24  40  60  87 118 151 192 242 294 344
#
# _framework density 23.225010000000001
#
# number of rings (size 3 to 8) (size 9 to 14) (size 15 to 20)
#    0.000    2.286    1.429    1.714    2.000    0.857 
#    0.000    0.714    0.000    0.000    0.000    1.000 
#    0.000    0.000    0.000    0.000    0.000    0.000 
#
# Total GULP energy -156262.104609 kJ/mol
# GULP energy per Si atom -5580.789450 kJ/mol
# Density = 2.317215 g / cm^3
# Si number density = 23.225010 Si / 1000 Ang^3
#
#
#
# Elastic Constant Matrix: (Units=GPa)
#
#
# Indices 1 2 3 4 5 6 
#
# 1 194.1835 5.1528 73.7544 0.0000 27.6245 0.0000
# 2 5.1528 73.9593 -8.4652 0.0000 -4.3180 0.0000
# 3 73.7544 -8.4652 115.7601 0.0000 20.0577 0.0000
# 4 0.0000 0.0000 0.0000 15.8936 0.0000 -3.4070
# 5 27.6245 -4.3180 20.0577 0.0000 46.3274 0.0000
# 6 0.0000 0.0000 0.0000 -3.4070 0.0000 -29.5334
#
#
#
# Elastic Compliance Matrix: (Units=1/GPa)
#
#
# Indices 1 2 3 4 5 6 
#
# 1 0.007131 -0.001124 -0.004185 0.000000 -0.002545 0.000000
# 2 -0.001124 0.013848 0.001502 0.000000 0.001311 0.000000
# 3 -0.004185 0.001502 0.011847 0.000000 -0.002494 0.000000
# 4 0.000000 0.000000 0.000000 0.061400 0.000000 -0.007083
# 5 -0.002545 0.001311 -0.002494 0.000000 0.024305 0.000000
# 6 0.000000 0.000000 0.000000 -0.007083 0.000000 -0.033043
#
#
# Mechanical properties :
#
#
# Convention : Reuss Voigt Hill
#
# Bulk Modulus (GPa) = 39.66499 58.30968 48.98734
# Shear Modulus (GPa) = 49.25821 27.43491 38.34656
#
# Velocity S-wave (km/s) = 4.61033 3.44068 4.06777
# Velocity P-wave (km/s) = 6.74210 6.39885 6.57272
#
# Compressibility (1/GPa) = 0.02521115
#
# Stress axis : x y z
#
# Youngs Moduli (GPa) = 140.23082 72.21407 84.41190
#
# Poissons Ratio (x) = 0.08120 0.35324
# Poissons Ratio (y) = 0.15767 -0.12678
# Poissons Ratio (z) = 0.58682 -0.10846
#
# Static dielectric constant tensor:
#      x y z
#    x 1.879710 0.000000 -0.022070 
#    y 0.000000 1.887910 0.000000 
#    z -0.022070 0.000000 1.894100 
# 
# From -- ./inp_files/292579.got.cif
#   From: 2010.05.17/outbox.cif.g08.bks.cpg/sg12_147_cif.got.tgz:292579.got - 2010.06.03 13:09:07.
