data_PCOD9174285
_publ_section_title
;
Structure prediction by ZEFSAII (Michael W. Deem and Ramdas Pophale) SiO2 
 PCOD9174285
Probable space group: C 2/M
;
_chemical_formula_sum "Si O2"
_cell_formula_units_Z 64
_cell_length_a 17.035244
_cell_length_b 15.068425
_cell_length_c 19.303044
_cell_angle_alpha 90.000000
_cell_angle_beta 52.289764
_cell_angle_gamma 90.000000
_cell_volume 3919.956414
_symmetry_space_group_name_H-M "C 2/M"
_symmetry_group_IT_number 12
_symmetry_cell_setting 'monoclinic'
loop_
_space_group_symop_operation_xyz
x,y,z
-x,y,-z
-x,-y,-z
x,-y,z
1/2+x,1/2+y,z
1/2-x,1/2+y,-z
1/2-x,1/2-y,-z
1/2+x,1/2-y,z
loop_
_atom_site_type_symbol
_atom_site_label
_atom_site_fract_x
_atom_site_fract_y
_atom_site_fract_z
Si Si1 0.565858 0.102842 0.148860
Si Si2 0.695517 0.352859 0.635406
Si Si3 0.413354 0.214447 0.492507
Si Si4 0.613145 0.596962 0.823621
Si Si5 0.046729 0.760479 0.050070
Si Si6 0.287275 0.602458 0.085039
Si Si7 0.176154 0.096071 0.489855
Si Si8 0.896224 0.336943 0.345777
O O1 0.561092 0.173635 0.088969
O O2 0.672481 0.114569 0.128333
O O3 0.477664 0.121979 0.251205
O O4 0.558727 0.000000 0.129628
O O5 0.812232 0.332637 0.570971
O O6 0.664711 0.400310 0.721769
O O7 0.671585 0.400000 0.575866
O O8 0.637555 0.259352 0.663394
O O9 0.500000 0.199525 0.500000
O O10 0.385246 0.318946 0.502628
O O11 0.434948 0.178723 0.403335
O O12 0.565879 0.500000 0.860206
O O13 0.532609 0.673913 0.871871
O O14 0.690033 0.609333 0.845240
O O15 0.144498 0.821580 0.986351
O O16 0.000000 0.738312 0.000000
O O17 0.314187 0.500000 0.050434
O O18 0.292121 0.110065 0.407554
O O19 0.141861 0.000000 0.483301
#
# Coordination Sequence:
#
# PCOD9174285 Si02
#       8
#     8   8   8   8   8   8   8   8
#     4  11  21  34  54  76 103 135 170 204 246 307
#     4   9  17  31  49  72 100 131 171 201 242 296
#     4   9  19  31  49  74 101 135 164 204 252 294
#     4  10  18  31  54  78 101 128 166 211 249 300
#     4  10  20  36  55  75 100 132 168 210 257 294
#     4   9  20  34  51  78 104 131 164 205 258 307
#     4   9  17  31  50  70  99 134 170 207 241 289
#     4   9  18  33  49  71 101 136 170 199 243 295
#
# _framework density 16.326712000000001
#
# number of rings (size 3 to 8) (size 9 to 14) (size 15 to 20)
#    0.000    2.500    1.250    3.000    1.750    2.000 
#    0.000    0.000    0.000    2.250    0.000    0.000 
#    0.000    0.000    0.000    0.000    0.000    0.000 
#
# Total GULP energy -178284.555644 kJ/mol
# GULP energy per Si atom -5571.392364 kJ/mol
# Density = 1.628955 g / cm^3
# Si number density = 16.326712 Si / 1000 Ang^3
#
#
#
# Elastic Constant Matrix: (Units=GPa)
#
#
# Indices 1 2 3 4 5 6 
#
# 1 67.8643 20.6135 27.0267 0.0000 0.5057 0.0000
# 2 20.6135 83.3993 32.5512 0.0000 -0.1392 0.0000
# 3 27.0267 32.5512 95.4897 0.0000 1.9507 0.0000
# 4 0.0000 0.0000 0.0000 12.2783 0.0000 2.6286
# 5 0.5057 -0.1392 1.9507 0.0000 13.5939 0.0000
# 6 0.0000 0.0000 0.0000 2.6286 0.0000 15.2093
#
#
#
# Elastic Compliance Matrix: (Units=1/GPa)
#
#
# Indices 1 2 3 4 5 6 
#
# 1 0.017118 -0.002700 -0.003922 0.000000 -0.000102 0.000000
# 2 -0.002700 0.014266 -0.004116 0.000000 0.000837 0.000000
# 3 -0.003922 -0.004116 0.013022 0.000000 -0.001765 0.000000
# 4 0.000000 0.000000 0.000000 0.084574 0.000000 -0.014617
# 5 -0.000102 0.000837 -0.001765 0.000000 0.073828 0.000000
# 6 0.000000 0.000000 0.000000 -0.014617 0.000000 0.068276
#
#
# Mechanical properties :
#
#
# Convention : Reuss Voigt Hill
#
# Bulk Modulus (GPa) = 43.61383 45.23735 44.42559
# Shear Modulus (GPa) = 16.65539 19.32042 17.98790
#
# Velocity S-wave (km/s) = 3.19741 3.44374 3.32286
# Velocity P-wave (km/s) = 6.35629 6.60153 6.48007
#
# Compressibility (1/GPa) = 0.02292851
#
# Stress axis : x y z
#
# Youngs Moduli (GPa) = 58.41680 70.09791 76.79533
#
# Poissons Ratio (x) = 0.18928 0.30123
# Poissons Ratio (y) = 0.15774 0.31608
# Poissons Ratio (z) = 0.22914 0.28851
#
# Static dielectric constant tensor:
#      x y z
#    x 1.516150 0.000000 0.001480 
#    y 0.000000 1.566440 0.000000 
#    z 0.001480 0.000000 1.538230 
# 
# From -- ./inp_files/270253.got.cif
#   From: 2010.05.17/outbox.cif.g08.bks.cpg/sg12_136_cif.got.tgz:270253.got - 2010.06.03 13:09:07.
