data_PCOD9174214
_publ_section_title
;
Structure prediction by ZEFSAII (Michael W. Deem and Ramdas Pophale) SiO2 
 PCOD9174214
Probable space group: C 2/M
;
_chemical_formula_sum "Si O2"
_cell_formula_units_Z 56
_cell_length_a 15.692882
_cell_length_b 7.567458
_cell_length_c 25.115964
_cell_angle_alpha 90.000000
_cell_angle_beta 62.575152
_cell_angle_gamma 90.000000
_cell_volume 2647.448780
_symmetry_space_group_name_H-M "C 2/M"
_symmetry_group_IT_number 12
_symmetry_cell_setting 'monoclinic'
loop_
_space_group_symop_operation_xyz
x,y,z
-x,y,-z
-x,-y,-z
x,-y,z
1/2+x,1/2+y,z
1/2-x,1/2+y,-z
1/2-x,1/2-y,-z
1/2+x,1/2-y,z
loop_
_atom_site_type_symbol
_atom_site_label
_atom_site_fract_x
_atom_site_fract_y
_atom_site_fract_z
Si Si1 0.807787 0.713511 0.635680
Si Si2 0.014815 0.282674 0.151793
Si Si3 0.587938 0.791297 0.712236
Si Si4 0.571200 0.208739 0.934216
Si Si5 0.346171 0.788532 0.505183
Si Si6 0.504085 0.783524 0.624863
Si Si7 0.269101 0.790347 0.932468
O O1 0.807213 0.500000 0.634241
O O2 0.702044 0.769720 0.682640
O O3 0.833017 0.778805 0.568823
O O4 0.893819 0.768593 0.649529
O O5 0.014062 0.500000 0.152698
O O6 0.965860 0.220545 0.220351
O O7 0.955950 0.223410 0.116440
O O8 0.125388 0.224523 0.114159
O O9 0.551152 0.719833 0.666125
O O10 0.567179 0.000000 0.716741
O O11 0.680153 0.227991 0.922327
O O12 0.550694 0.000000 0.937472
O O13 0.500000 0.283914 0.000000
O O14 0.250000 0.750000 0.500000
O O15 0.434615 0.723621 0.444020
O O16 0.357901 0.000000 0.506252
O O17 0.508255 0.000000 0.623315
O O18 0.271580 0.000000 0.926346
O O19 0.250000 0.750000 0.000000
#
# Coordination Sequence:
#
# PCOD9174214 Si02
#       7
#     8   8   8   8   8   8   8
#     4  10  20  34  54  79 108 139 177 227 271 312
#     4   9  20  37  56  78 109 145 178 217 271 328
#     4  10  20  37  57  76 104 145 184 215 261 328
#     4  10  19  36  58  80 109 145 178 218 275 325
#     4  10  18  31  53  79 104 136 178 222 268 315
#     4   9  18  33  54  77 105 142 178 212 265 326
#     4  11  21  36  58  86 113 142 181 224 272 325
#
# _framework density 21.152439999999999
#
# number of rings (size 3 to 8) (size 9 to 14) (size 15 to 20)
#    0.000    2.143    2.857    0.857    0.000    3.143 
#    0.000    5.000    0.000    1.714    0.000    0.000 
#    0.000    0.000    0.000    0.000    0.000    0.000 
#
# Total GULP energy -156386.728249 kJ/mol
# GULP energy per Si atom -5585.240295 kJ/mol
# Density = 2.110430 g / cm^3
# Si number density = 21.152440 Si / 1000 Ang^3
#
#
#
# Elastic Constant Matrix: (Units=GPa)
#
#
# Indices 1 2 3 4 5 6 
#
# 1 130.0797 -18.7118 67.1199 0.0000 -27.4502 -0.0001
# 2 -18.7118 43.5223 1.5055 -0.0002 4.3085 -0.0002
# 3 67.1199 1.5055 167.4035 0.0000 -28.1286 0.0000
# 4 0.0000 -0.0002 0.0000 2.9860 0.0000 -6.2313
# 5 -27.4502 4.3085 -28.1286 0.0000 15.0437 0.0000
# 6 -0.0001 -0.0002 0.0000 -6.2313 0.0000 25.7088
#
#
#
# Elastic Compliance Matrix: (Units=1/GPa)
#
#
# Indices 1 2 3 4 5 6 
#
# 1 0.013468 0.003949 -0.002182 0.000001 0.019364 0.000000
# 2 0.003949 0.025259 -0.002647 0.000004 -0.004978 0.000001
# 3 -0.002182 -0.002647 0.009231 -0.000001 0.014037 0.000000
# 4 0.000001 0.000004 -0.000001 0.677663 -0.000001 0.164253
# 5 0.019364 -0.004978 0.014037 -0.000001 0.129478 0.000000
# 6 0.000000 0.000001 0.000000 0.164253 0.000000 0.078709
#
#
# Mechanical properties :
#
#
# Convention : Reuss Voigt Hill
#
# Bulk Modulus (GPa) = 21.64601 48.98141 35.31371
# Shear Modulus (GPa) = 5.25781 28.15383 16.70582
#
# Velocity S-wave (km/s) = 1.57831 3.65224 2.81336
# Velocity P-wave (km/s) = 3.68470 6.40248 5.22345
#
# Compressibility (1/GPa) = 0.04619788
#
# Stress axis : x y z
#
# Youngs Moduli (GPa) = 74.25191 39.59017 108.33460
#
# Poissons Ratio (x) = -0.15633 0.23634
# Poissons Ratio (y) = -0.29320 0.28674
# Poissons Ratio (z) = 0.16199 0.10479
#
# Static dielectric constant tensor:
#      x y z
#    x 1.721860 0.000000 0.005170 
#    y 0.000000 1.865540 0.000000 
#    z 0.005170 0.000000 1.741530 
# 
# From -- ./inp_files/338441.got.cif
#   From: 2010.05.17/outbox.cif.g08.bks.cpg/sg12_170_cif.got.tgz:338441.got - 2010.06.03 13:09:07.
