data_PCOD9174766
_publ_section_title
;
Structure prediction by ZEFSAII (Michael W. Deem and Ramdas Pophale) SiO2 
 PCOD9174766
Probable space group: C 2/M
;
_chemical_formula_sum "Si O2"
_cell_formula_units_Z 44
_cell_length_a 9.010152
_cell_length_b 23.032814
_cell_length_c 14.854684
_cell_angle_alpha 90.000000
_cell_angle_beta 127.915256
_cell_angle_gamma 90.000000
_cell_volume 2432.068332
_symmetry_space_group_name_H-M "C 2/M"
_symmetry_group_IT_number 12
_symmetry_cell_setting 'monoclinic'
loop_
_space_group_symop_operation_xyz
x,y,z
-x,y,-z
-x,-y,-z
x,-y,z
1/2+x,1/2+y,z
1/2-x,1/2+y,-z
1/2-x,1/2-y,-z
1/2+x,1/2-y,z
loop_
_atom_site_type_symbol
_atom_site_label
_atom_site_fract_x
_atom_site_fract_y
_atom_site_fract_z
Si Si1 0.254359 0.140724 0.172448
Si Si2 0.080430 0.434455 0.226462
Si Si3 0.000000 0.395801 0.000000
Si Si4 0.639316 0.671492 0.634658
Si Si5 0.866597 0.166437 0.077035
Si Si6 0.499510 0.248418 0.265035
O O1 0.400309 0.088402 0.215881
O O2 0.366888 0.196305 0.250337
O O3 0.061483 0.129884 0.153577
O O4 0.195471 0.161063 0.049672
O O5 0.133362 0.500000 0.269446
O O6 0.016367 0.431183 0.098183
O O7 0.244925 0.387080 0.300563
O O8 0.187556 0.356846 0.064189
O O9 0.500000 0.662409 0.500000
O O10 0.525264 0.697769 0.676759
O O11 0.796998 0.719621 0.667873
O O12 0.927564 0.228235 0.140952
#
# Coordination Sequence:
#
# PCOD9174766 Si02
#       6
#     8   8   4   8   8   8
#     4   9  20  32  52  82 113 145 180 213 277 332
#     4  10  21  38  57  79 110 146 187 228 269 323
#     4  10  19  34  58  84 110 142 183 230 272 326
#     4  11  23  37  57  83 111 147 185 226 275 321
#     4  10  18  32  52  82 114 144 172 220 275 330
#     4  11  19  35  54  81 113 142 179 226 276 325
#
# _framework density 18.091598000000001
#
# number of rings (size 3 to 8) (size 9 to 14) (size 15 to 20)
#    0.000    1.818    3.636    1.364    0.000    1.818 
#    0.000    8.182    0.000    0.000    0.000    1.273 
#    0.000    0.000    0.000    0.000    0.000    0.000 
#
# Total GULP energy -122599.611727 kJ/mol
# GULP energy per Si atom -5572.709624 kJ/mol
# Density = 1.805042 g / cm^3
# Si number density = 18.091598 Si / 1000 Ang^3
#
#
#
# Elastic Constant Matrix: (Units=GPa)
#
#
# Indices 1 2 3 4 5 6 
#
# 1 91.0050 44.3501 13.5809 0.0000 16.8329 0.0000
# 2 44.3501 114.0213 38.8666 0.0000 13.0242 0.0000
# 3 13.5809 38.8666 73.5815 0.0000 9.2822 0.0000
# 4 0.0000 0.0000 0.0000 7.7729 0.0000 1.6566
# 5 16.8329 13.0242 9.2822 0.0000 17.1992 0.0000
# 6 0.0000 0.0000 0.0000 1.6566 0.0000 10.8993
#
#
#
# Elastic Compliance Matrix: (Units=1/GPa)
#
#
# Indices 1 2 3 4 5 6 
#
# 1 0.015507 -0.005121 0.001361 0.000000 -0.012033 0.000000
# 2 -0.005121 0.012880 -0.005644 0.000000 -0.001695 0.000000
# 3 0.001361 -0.005644 0.017115 0.000000 -0.006294 0.000000
# 4 0.000000 0.000000 0.000000 0.132960 0.000000 -0.020209
# 5 -0.012033 -0.001695 -0.006294 0.000000 0.074600 0.000000
# 6 0.000000 0.000000 0.000000 -0.020209 0.000000 0.094820
#
#
# Mechanical properties :
#
#
# Convention : Reuss Voigt Hill
#
# Bulk Modulus (GPa) = 37.46396 52.46701 44.96548
# Shear Modulus (GPa) = 13.31251 19.29496 16.30373
#
# Velocity S-wave (km/s) = 2.71558 3.26930 3.00522
# Velocity P-wave (km/s) = 5.53040 6.58140 6.07866
#
# Compressibility (1/GPa) = 0.02669232
#
# Stress axis : x y z
#
# Youngs Moduli (GPa) = 64.48858 77.64141 58.42980
#
# Poissons Ratio (x) = 0.39759 -0.07951
# Poissons Ratio (y) = 0.33024 0.32979
# Poissons Ratio (z) = -0.08776 0.43822
#
# Static dielectric constant tensor:
#      x y z
#    x 1.672390 0.000000 -0.014230 
#    y 0.000000 1.609010 0.000000 
#    z -0.014230 0.000000 1.622770 
# 
# From -- ./inp_files/120840.got.cif
#   From: 2010.05.17/outbox.cif.g08.bks.cpg/sg12_61_cif.got.tgz:120840.got - 2010.06.03 13:09:07.
