data_PCOD9174087
_publ_section_title
;
Structure prediction by ZEFSAII (Michael W. Deem and Ramdas Pophale) SiO2 
 PCOD9174087
Probable space group: C 2/M
;
_chemical_formula_sum "Si O2"
_cell_formula_units_Z 48
_cell_length_a 25.113559
_cell_length_b 7.482801
_cell_length_c 20.135114
_cell_angle_alpha 90.000000
_cell_angle_beta 146.569556
_cell_angle_gamma 90.000000
_cell_volume 2084.579425
_symmetry_space_group_name_H-M "C 2/M"
_symmetry_group_IT_number 12
_symmetry_cell_setting 'monoclinic'
loop_
_space_group_symop_operation_xyz
x,y,z
-x,y,-z
-x,-y,-z
x,-y,z
1/2+x,1/2+y,z
1/2-x,1/2+y,-z
1/2-x,1/2-y,-z
1/2+x,1/2-y,z
loop_
_atom_site_type_symbol
_atom_site_label
_atom_site_fract_x
_atom_site_fract_y
_atom_site_fract_z
Si Si1 0.511633 0.719007 0.701023
Si Si2 0.208548 0.212685 0.529622
Si Si3 0.199336 0.706235 0.160569
Si Si4 0.608812 0.783147 0.195645
Si Si5 0.588413 0.718855 0.638895
Si Si6 0.077672 0.204641 0.912434
O O1 0.509610 0.500000 0.701743
O O2 0.400491 0.781031 0.578749
O O3 0.568354 0.770641 0.693983
O O4 0.556892 0.780780 0.817803
O O5 0.250000 0.250000 0.500000
O O6 0.289407 0.272890 0.665520
O O7 0.202266 0.000000 0.532493
O O8 0.211004 0.500000 0.192648
O O9 0.120737 0.775621 0.131598
O O10 0.306648 0.784192 0.275062
O O11 0.157517 0.710819 0.043103
O O12 0.521923 0.710879 0.149437
O O13 0.596348 0.000000 0.186092
O O14 0.500000 0.774823 0.500000
O O15 0.589603 0.500000 0.638675
O O16 0.107348 0.000000 0.934631
#
# Coordination Sequence:
#
# PCOD9174087 Si02
#       6
#     8   8   8   8   8   8
#     4   9  18  32  51  78 109 137 173 218 261 313
#     4  10  18  31  52  78 107 136 169 213 264 311
#     4  10  21  36  55  80 106 137 180 225 263 307
#     4  10  20  34  54  79 108 139 178 226 266 305
#     4   9  17  33  58  82 103 133 175 221 267 314
#     4  11  22  35  52  77 110 146 178 213 265 323
#
# _framework density 23.026228
#
# number of rings (size 3 to 8) (size 9 to 14) (size 15 to 20)
#    0.000    2.167    1.667    2.000    0.000    7.333 
#    0.000    0.000    0.000    2.500    0.000    0.000 
#    0.000    0.000    0.000    0.000    0.000    0.000 
#
# Total GULP energy -134091.275829 kJ/mol
# GULP energy per Si atom -5587.136493 kJ/mol
# Density = 2.297382 g / cm^3
# Si number density = 23.026228 Si / 1000 Ang^3
#
#
#
# Elastic Constant Matrix: (Units=GPa)
#
#
# Indices 1 2 3 4 5 6 
#
# 1 120.4489 -5.3516 38.4979 0.0000 -12.1131 0.0000
# 2 -5.3516 58.1998 -6.0385 0.0000 0.2340 0.0000
# 3 38.4979 -6.0385 103.2882 0.0000 -13.4727 0.0000
# 4 0.0000 0.0000 0.0000 5.4012 0.0000 -6.4551
# 5 -12.1131 0.2340 -13.4727 0.0000 35.1093 0.0000
# 6 0.0000 0.0000 0.0000 -6.4551 0.0000 6.9723
#
#
#
# Elastic Compliance Matrix: (Units=1/GPa)
#
#
# Indices 1 2 3 4 5 6 
#
# 1 0.009577 0.000533 -0.003272 0.000000 0.002045 0.000000
# 2 0.000533 0.017319 0.000866 0.000000 0.000401 0.000000
# 3 -0.003272 0.000866 0.011373 0.000000 0.003230 0.000000
# 4 0.000000 0.000000 0.000000 -1.738795 0.000000 -1.609817
# 5 0.002045 0.000401 0.003230 0.000000 0.030425 0.000000
# 6 0.000000 0.000000 0.000000 -1.609817 0.000000 -1.346981
#
#
# Mechanical properties :
#
#
# Convention : Reuss Voigt Hill
#
# Bulk Modulus (GPa) = 28.96485 37.35027 33.15756
# Shear Modulus (GPa) = -1.66565 26.48517 12.40976
#
# Velocity S-wave (km/s) = -0.85144 3.39516 2.32403
# Velocity P-wave (km/s) = 3.41171 5.62365 4.65109
#
# Compressibility (1/GPa) = 0.03452461
#
# Stress axis : x y z
#
# Youngs Moduli (GPa) = 104.41294 57.73850 87.92739
#
# Poissons Ratio (x) = -0.03077 0.28768
# Poissons Ratio (y) = -0.05565 -0.07616
# Poissons Ratio (z) = 0.34161 -0.05001
#
# Static dielectric constant tensor:
#      x y z
#    x 1.827160 0.000000 -0.008330 
#    y 0.000000 1.915070 0.000000 
#    z -0.008330 0.000000 1.846200 
# 
# From -- ./inp_files/327313.got.cif
#   From: 2010.05.17/outbox.cif.g08.bks.cpg/sg12_164_cif.got.tgz:327313.got - 2010.06.03 13:09:07.
