data_PCOD9174319
_publ_section_title
;
Structure prediction by ZEFSAII (Michael W. Deem and Ramdas Pophale) SiO2 
 PCOD9174319
Probable space group: C 2/M
;
_chemical_formula_sum "Si O2"
_cell_formula_units_Z 64
_cell_length_a 11.618606
_cell_length_b 21.115720
_cell_length_c 24.008888
_cell_angle_alpha 90.000000
_cell_angle_beta 38.555791
_cell_angle_gamma 90.000000
_cell_volume 3671.238884
_symmetry_space_group_name_H-M "C 2/M"
_symmetry_group_IT_number 12
_symmetry_cell_setting 'monoclinic'
loop_
_space_group_symop_operation_xyz
x,y,z
-x,y,-z
-x,-y,-z
x,-y,z
1/2+x,1/2+y,z
1/2-x,1/2+y,-z
1/2-x,1/2-y,-z
1/2+x,1/2-y,z
loop_
_atom_site_type_symbol
_atom_site_label
_atom_site_fract_x
_atom_site_fract_y
_atom_site_fract_z
Si Si1 0.788690 0.076284 0.410353
Si Si2 0.369751 0.249478 0.099234
Si Si3 0.050043 0.576662 0.389659
Si Si4 0.820215 0.073342 0.772018
Si Si5 0.436561 0.858160 0.915110
Si Si6 0.831223 0.131921 0.883908
Si Si7 0.229124 0.134101 0.792660
Si Si8 0.218616 0.930161 0.908894
O O1 0.683481 0.089191 0.392137
O O2 0.654682 0.094885 0.511554
O O3 0.997606 0.100454 0.327230
O O4 0.800052 0.000000 0.408967
O O5 0.509393 0.213250 0.088884
O O6 0.237884 0.196479 0.120703
O O7 0.260292 0.300999 0.176079
O O8 0.500000 0.275003 0.000000
O O9 0.056250 0.500000 0.376739
O O10 0.124845 0.617391 0.310211
O O11 0.631141 0.108392 0.830916
O O12 0.849488 0.081840 0.827254
O O13 0.801716 0.000000 0.765048
O O14 0.311222 0.875322 0.910369
O O15 0.327766 0.883452 0.010866
O O16 0.025036 0.135552 0.842445
O O17 0.248424 0.080692 0.832495
O O18 0.286275 0.000000 0.901244
O O19 0.000000 0.928411 0.000000
#
# Coordination Sequence:
#
# PCOD9174319 Si02
#       8
#     8   8   8   8   8   8   8   8
#     4   8  15  29  52  80 106 131 165 214 264 314
#     4   9  22  36  54  73 102 139 193 230 250 298
#     4   9  17  31  51  81 111 130 163 216 273 323
#     4  10  18  31  54  80 106 137 171 215 266 313
#     4  10  21  38  50  73 107 147 182 216 254 309
#     4  10  21  34  50  79 104 138 182 221 260 302
#     4  12  21  33  55  76 104 144 176 220 270 310
#     4  11  23  35  49  76 113 147 173 208 271 332
#
# _framework density 17.432807
#
# number of rings (size 3 to 8) (size 9 to 14) (size 15 to 20)
#    0.000    2.125    2.500    3.000    1.750    3.000 
#    0.000    0.000    0.000    3.750    0.000    3.500 
#    0.000    0.000    0.000    0.000    0.000    0.000 
#
# Total GULP energy -178350.782509 kJ/mol
# GULP energy per Si atom -5573.461953 kJ/mol
# Density = 1.739313 g / cm^3
# Si number density = 17.432807 Si / 1000 Ang^3
#
#
#
# Elastic Constant Matrix: (Units=GPa)
#
#
# Indices 1 2 3 4 5 6 
#
# 1 74.8092 20.0870 35.9946 -0.0003 -1.2434 0.0001
# 2 20.0870 54.0835 37.8549 0.0051 3.4063 -0.0021
# 3 35.9946 37.8549 168.3044 0.0102 -6.6084 -0.0016
# 4 -0.0003 0.0051 0.0102 21.3377 0.0019 5.0355
# 5 -1.2434 3.4063 -6.6084 0.0019 27.7935 -0.0019
# 6 0.0001 -0.0021 -0.0016 5.0355 -0.0019 16.8431
#
#
#
# Elastic Compliance Matrix: (Units=1/GPa)
#
#
# Indices 1 2 3 4 5 6 
#
# 1 0.015647 -0.004187 -0.002379 0.000003 0.000647 -0.000002
# 2 -0.004187 0.023492 -0.004551 -0.000004 -0.004149 0.000003
# 3 -0.002379 -0.004551 0.007562 -0.000003 0.002249 0.000001
# 4 0.000003 -0.000004 -0.000003 0.050423 -0.000005 -0.015075
# 5 0.000647 -0.004149 0.002249 -0.000005 0.037052 0.000005
# 6 -0.000002 0.000003 0.000001 -0.015075 0.000005 0.063878
#
#
# Mechanical properties :
#
#
# Convention : Reuss Voigt Hill
#
# Bulk Modulus (GPa) = 40.87203 53.89666 47.38435
# Shear Modulus (GPa) = 21.88716 26.74559 24.31638
#
# Velocity S-wave (km/s) = 3.54717 3.92115 3.73884
# Velocity P-wave (km/s) = 6.34609 7.17527 6.77338
#
# Compressibility (1/GPa) = 0.02446661
#
# Stress axis : x y z
#
# Youngs Moduli (GPa) = 63.90960 42.56810 132.23269
#
# Poissons Ratio (x) = 0.17823 0.31461
# Poissons Ratio (y) = 0.26758 0.60182
# Poissons Ratio (z) = 0.15206 0.19374
#
# Static dielectric constant tensor:
#      x y z
#    x 1.608700 0.000000 -0.006950 
#    y 0.000000 1.619470 0.000000 
#    z -0.006950 0.000000 1.602160 
# 
# From -- ./inp_files/307115.got.cif
#   From: 2010.05.17/outbox.cif.g08.bks.cpg/sg12_154_cif.got.tgz:307115.got - 2010.06.03 13:09:07.
