data_PCOD9174917
_publ_section_title
;
Structure prediction by ZEFSAII (Michael W. Deem and Ramdas Pophale) SiO2 
 PCOD9174917
Probable space group: C 2/M
;
_chemical_formula_sum "Si O2"
_cell_formula_units_Z 64
_cell_length_a 10.194517
_cell_length_b 14.353086
_cell_length_c 24.099569
_cell_angle_alpha 90.000000
_cell_angle_beta 115.362748
_cell_angle_gamma 90.000000
_cell_volume 3186.428368
_symmetry_space_group_name_H-M "C 2/M"
_symmetry_group_IT_number 12
_symmetry_cell_setting 'monoclinic'
loop_
_space_group_symop_operation_xyz
x,y,z
-x,y,-z
-x,-y,-z
x,-y,z
1/2+x,1/2+y,z
1/2-x,1/2+y,-z
1/2-x,1/2-y,-z
1/2+x,1/2-y,z
loop_
_atom_site_type_symbol
_atom_site_label
_atom_site_fract_x
_atom_site_fract_y
_atom_site_fract_z
Si Si1 0.598877 0.108616 0.637448
Si Si2 0.581098 0.264121 0.457366
Si Si3 0.923327 0.892054 0.648491
Si Si4 0.195233 0.897166 0.073275
Si Si5 0.174038 0.389848 0.024772
Si Si6 0.426143 0.770979 0.257531
Si Si7 0.011239 0.395929 0.180683
Si Si8 0.822660 0.721449 0.874255
O O1 0.485742 0.170437 0.582036
O O2 0.754128 0.112266 0.635077
O O3 0.612181 0.159120 0.699396
O O4 0.557216 0.000000 0.635629
O O5 0.500000 0.283424 0.500000
O O6 0.750000 0.250000 0.500000
O O7 0.559524 0.346649 0.409026
O O8 0.008048 0.823123 0.705294
O O9 0.969585 0.000000 0.659433
O O10 0.339755 0.902762 0.137424
O O11 0.107356 0.814187 0.086177
O O12 0.127839 0.000000 0.061280
O O13 0.254307 0.873966 0.022403
O O14 0.187726 0.500000 0.038003
O O15 0.249436 0.329636 0.086283
O O16 0.000000 0.368738 0.000000
O O17 0.534873 0.827454 0.236626
O O18 0.290845 0.745877 0.194333
O O19 0.068118 0.500000 0.200411
O O20 0.072383 0.351051 0.136084
#
# Coordination Sequence:
#
# PCOD9174917 Si02
#       8
#     8   8   8   8   8   8   8   8
#     4  10  21  40  66  89 119 168 210 243 293 362
#     4  11  22  40  67  99 133 160 203 257 299 353
#     4  10  22  40  61  87 126 170 205 244 300 360
#     4   9  19  34  52  77 105 138 183 233 290 364
#     4  10  18  32  54  79 106 140 187 241 301 369
#     4  10  22  37  56  85 117 151 200 256 300 346
#     4  10  19  34  55  80 108 142 189 243 295 354
#     4  11  20  32  56  82 108 145 189 244 306 358
#
# _framework density 20.085183000000001
#
# number of rings (size 3 to 8) (size 9 to 14) (size 15 to 20)
#    0.000    1.875    2.500    1.875    0.000    2.500 
#    0.000    0.625    0.000    1.875    0.000    0.000 
#    0.000    0.000    0.000    0.000    0.000    0.000 
#
# Total GULP energy -178589.095381 kJ/mol
# GULP energy per Si atom -5580.909231 kJ/mol
# Density = 2.003947 g / cm^3
# Si number density = 20.085183 Si / 1000 Ang^3
#
#
#
# Elastic Constant Matrix: (Units=GPa)
#
#
# Indices 1 2 3 4 5 6 
#
# 1 45.1726 41.1835 30.1719 0.0000 -8.0853 0.0000
# 2 41.1835 168.8703 72.7310 0.0000 -14.6342 0.0000
# 3 30.1719 72.7310 131.2060 0.0000 -19.2560 0.0000
# 4 0.0000 0.0000 0.0000 19.5327 0.0000 -5.8839
# 5 -8.0853 -14.6342 -19.2560 0.0000 23.0978 0.0000
# 6 0.0000 0.0000 0.0000 -5.8839 0.0000 19.9152
#
#
#
# Elastic Compliance Matrix: (Units=1/GPa)
#
#
# Indices 1 2 3 4 5 6 
#
# 1 0.030155 -0.005603 -0.003190 0.000000 0.004346 0.000000
# 2 -0.005603 0.008867 -0.003521 0.000000 0.000721 0.000000
# 3 -0.003190 -0.003521 0.011184 0.000000 0.005976 0.000000
# 4 0.000000 0.000000 0.000000 0.056198 0.000000 0.016604
# 5 0.004346 0.000721 0.005976 0.000000 0.050255 0.000000
# 6 0.000000 0.000000 0.000000 0.016604 0.000000 0.055118
#
#
# Mechanical properties :
#
#
# Convention : Reuss Voigt Hill
#
# Bulk Modulus (GPa) = 39.09843 70.38017 54.73930
# Shear Modulus (GPa) = 20.41385 25.91997 23.16691
#
# Velocity S-wave (km/s) = 3.19150 3.59625 3.39991
# Velocity P-wave (km/s) = 5.75235 7.23609 6.53645
#
# Compressibility (1/GPa) = 0.02557648
#
# Stress axis : x y z
#
# Youngs Moduli (GPa) = 33.16244 112.77577 89.41257
#
# Poissons Ratio (x) = 0.63192 0.28527
# Poissons Ratio (y) = 0.18582 0.31481
# Poissons Ratio (z) = 0.10580 0.39707
#
# Static dielectric constant tensor:
#      x y z
#    x 1.726690 0.000000 0.008140 
#    y 0.000000 1.750550 0.000000 
#    z 0.008140 0.000000 1.700200 
# 
# From -- ./inp_files/335654.got.cif
#   From: 2010.05.17/outbox.cif.g08.bks.cpg/sg12_168_cif.got.tgz:335654.got - 2010.06.03 13:09:07.
