data_PCOD9174110
_publ_section_title
;
Structure prediction by ZEFSAII (Michael W. Deem and Ramdas Pophale) SiO2 
 PCOD9174110
Probable space group: C 2/M
;
_chemical_formula_sum "Si O2"
_cell_formula_units_Z 56
_cell_length_a 7.788022
_cell_length_b 18.283633
_cell_length_c 24.021510
_cell_angle_alpha 90.000000
_cell_angle_beta 43.007003
_cell_angle_gamma 90.000000
_cell_volume 2333.083141
_symmetry_space_group_name_H-M "C 2/M"
_symmetry_group_IT_number 12
_symmetry_cell_setting 'monoclinic'
loop_
_space_group_symop_operation_xyz
x,y,z
-x,y,-z
-x,-y,-z
x,-y,z
1/2+x,1/2+y,z
1/2-x,1/2+y,-z
1/2-x,1/2-y,-z
1/2+x,1/2-y,z
loop_
_atom_site_type_symbol
_atom_site_label
_atom_site_fract_x
_atom_site_fract_y
_atom_site_fract_z
Si Si1 0.283751 0.164115 0.480115
Si Si2 0.953232 0.322560 0.320810
Si Si3 0.804274 0.329308 0.940247
Si Si4 0.384886 0.914237 0.813205
Si Si5 0.811994 0.913763 0.390116
Si Si6 0.865984 0.162481 0.902426
Si Si7 0.007804 0.165468 0.748944
O O1 0.250000 0.250000 0.500000
O O2 0.266659 0.162918 0.416872
O O3 0.126941 0.119899 0.563939
O O4 0.560657 0.130336 0.429381
O O5 0.929611 0.375144 0.273928
O O6 0.224056 0.337442 0.283795
O O7 0.977578 0.241149 0.289450
O O8 0.906575 0.384727 0.870417
O O9 0.915796 0.249154 0.900899
O O10 0.500000 0.321869 0.000000
O O11 0.818306 0.352156 0.001430
O O12 0.106244 0.887710 0.859837
O O13 0.407678 0.000000 0.804424
O O14 0.004458 0.897194 0.294482
O O15 0.765669 0.000000 0.405441
O O16 0.823642 0.158556 0.845830
#
# Coordination Sequence:
#
# PCOD9174110 Si02
#       7
#     8   8   8   8   8   8   8
#     4  10  18  31  52  79 108 144 180 220 268 328
#     4  10  20  33  54  82 110 142 187 227 269 333
#     4   9  17  31  50  76 106 142 177 220 270 330
#     4  10  20  33  53  81 109 137 179 237 284 312
#     4  10  21  35  54  84 115 140 182 240 282 315
#     4   9  18  30  50  76 106 141 183 219 266 328
#     4  10  19  34  55  81 108 147 186 229 274 329
#
# _framework density 24.002573000000002
#
# number of rings (size 3 to 8) (size 9 to 14) (size 15 to 20)
#    0.000    2.286    2.857    0.857    0.000    8.286 
#    0.000    0.000    0.000    1.286    0.000   16.000 
#    0.000    0.000    0.000    0.000    0.000    0.000 
#
# Total GULP energy -156333.961093 kJ/mol
# GULP energy per Si atom -5583.355753 kJ/mol
# Density = 2.394794 g / cm^3
# Si number density = 24.002573 Si / 1000 Ang^3
#
#
#
# Elastic Constant Matrix: (Units=GPa)
#
#
# Indices 1 2 3 4 5 6 
#
# 1 88.5076 21.7172 34.5749 0.0118 23.4780 0.0060
# 2 21.7172 165.4614 75.7722 0.0121 16.6415 0.0007
# 3 34.5749 75.7722 260.4447 0.0223 36.6097 0.0023
# 4 0.0118 0.0121 0.0223 21.8814 -0.0234 -1.7291
# 5 23.4780 16.6415 36.6097 -0.0234 46.4287 -0.0037
# 6 0.0060 0.0007 0.0023 -1.7291 -0.0037 26.8014
#
#
#
# Elastic Compliance Matrix: (Units=1/GPa)
#
#
# Indices 1 2 3 4 5 6 
#
# 1 0.013341 -0.000838 -0.000699 -0.000013 -0.005895 -0.000005
# 2 -0.000838 0.007068 -0.001854 -0.000002 -0.000648 0.000000
# 3 -0.000699 -0.001854 0.004868 -0.000007 -0.002821 -0.000001
# 4 -0.000013 -0.000002 -0.000007 0.045935 0.000036 0.002964
# 5 -0.005895 -0.000648 -0.002821 0.000036 0.026976 0.000008
# 6 -0.000005 0.000000 -0.000001 0.002964 0.000008 0.037503
#
#
# Mechanical properties :
#
#
# Convention : Reuss Voigt Hill
#
# Bulk Modulus (GPa) = 54.06765 86.50470 70.28617
# Shear Modulus (GPa) = 33.63900 44.51228 39.07564
#
# Velocity S-wave (km/s) = 3.74769 4.31104 4.03920
# Velocity P-wave (km/s) = 6.42663 7.80372 7.14841
#
# Compressibility (1/GPa) = 0.01849535
#
# Stress axis : x y z
#
# Youngs Moduli (GPa) = 74.95850 141.48524 205.41352
#
# Poissons Ratio (x) = 0.11860 0.14349
# Poissons Ratio (y) = 0.06283 0.38083
# Poissons Ratio (z) = 0.05236 0.26231
#
# Static dielectric constant tensor:
#      x y z
#    x 2.030540 0.000000 -0.079220 
#    y 0.000000 1.812610 0.000000 
#    z -0.079220 0.000000 2.041280 
# 
# From -- ./inp_files/336175.got.cif
#   From: 2010.05.17/outbox.cif.g08.bks.cpg/sg12_169_cif.got.tgz:336175.got - 2010.06.03 13:09:07.
