data_PCOD9174088
_publ_section_title
;
Structure prediction by ZEFSAII (Michael W. Deem and Ramdas Pophale) SiO2 
 PCOD9174088
Probable space group: C 2/M
;
_chemical_formula_sum "Si O2"
_cell_formula_units_Z 40
_cell_length_a 28.518620
_cell_length_b 8.559279
_cell_length_c 9.292137
_cell_angle_alpha 90.000000
_cell_angle_beta 109.365373
_cell_angle_gamma 90.000000
_cell_volume 2139.872309
_symmetry_space_group_name_H-M "C 2/M"
_symmetry_group_IT_number 12
_symmetry_cell_setting 'monoclinic'
loop_
_space_group_symop_operation_xyz
x,y,z
-x,y,-z
-x,-y,-z
x,-y,z
1/2+x,1/2+y,z
1/2-x,1/2+y,-z
1/2-x,1/2-y,-z
1/2+x,1/2-y,z
loop_
_atom_site_type_symbol
_atom_site_label
_atom_site_fract_x
_atom_site_fract_y
_atom_site_fract_z
Si Si1 0.646882 0.312280 0.562715
Si Si2 0.949287 0.810914 0.030224
Si Si3 0.854549 0.314214 0.764670
Si Si4 0.048877 0.190432 0.635248
Si Si5 0.249106 0.813802 0.335065
O O1 0.649276 0.500000 0.562950
O O2 0.640650 0.254198 0.392189
O O3 0.599417 0.261521 0.607108
O O4 0.699105 0.247438 0.675875
O O5 0.901713 0.738792 0.904134
O O6 0.944904 0.000000 0.019971
O O7 0.952144 0.762292 0.199579
O O8 0.000000 0.767920 0.000000
O O9 0.851383 0.500000 0.751531
O O10 0.802871 0.249578 0.778021
O O11 0.000000 0.243987 0.500000
O O12 0.048149 0.000000 0.632246
O O13 0.250000 0.750000 0.500000
O O14 0.248620 0.000000 0.336279
#
# Coordination Sequence:
#
# PCOD9174088 Si02
#       5
#     8   8   8   8   8
#     4  10  18  32  55  81 109 140 177 219 264 312
#     4  10  20  36  58  81 106 138 177 219 265 316
#     4  11  21  34  53  79 110 142 179 218 261 311
#     4   9  18  33  55  82 107 135 174 218 264 316
#     4  10  18  31  52  78 107 139 178 218 262 312
#
# _framework density 18.692703999999999
#
# number of rings (size 3 to 8) (size 9 to 14) (size 15 to 20)
#    0.000    2.000    0.000    7.800    0.000    3.600 
#    0.000    3.000    0.000    4.200    0.000    0.000 
#    0.000    0.000    0.000    0.000    0.000    0.000 
#
# Total GULP energy -111653.146204 kJ/mol
# GULP energy per Si atom -5582.657310 kJ/mol
# Density = 1.865016 g / cm^3
# Si number density = 18.692704 Si / 1000 Ang^3
#
#
#
# Elastic Constant Matrix: (Units=GPa)
#
#
# Indices 1 2 3 4 5 6 
#
# 1 225.7261 60.4517 92.4849 0.0000 14.6387 0.0000
# 2 60.4517 90.9348 33.5811 0.0000 8.9731 0.0000
# 3 92.4849 33.5811 102.2967 0.0000 9.6646 0.0000
# 4 0.0000 0.0000 0.0000 12.9316 0.0000 9.1089
# 5 14.6387 8.9731 9.6646 0.0000 33.1331 0.0000
# 6 0.0000 0.0000 0.0000 9.1089 0.0000 28.4099
#
#
#
# Elastic Compliance Matrix: (Units=1/GPa)
#
#
# Indices 1 2 3 4 5 6 
#
# 1 0.007672 -0.002824 -0.005924 0.000000 -0.000897 0.000000
# 2 -0.002824 0.013719 -0.001766 0.000000 -0.001953 0.000000
# 3 -0.005924 -0.001766 0.015856 0.000000 -0.001529 0.000000
# 4 0.000000 0.000000 0.000000 0.099890 0.000000 -0.032027
# 5 -0.000897 -0.001953 -0.001529 0.000000 0.031552 0.000000
# 6 0.000000 0.000000 0.000000 -0.032027 0.000000 0.045468
#
#
# Mechanical properties :
#
#
# Convention : Reuss Voigt Hill
#
# Bulk Modulus (GPa) = 61.65921 87.99925 74.82923
# Shear Modulus (GPa) = 20.78217 30.39092 25.58655
#
# Velocity S-wave (km/s) = 3.33795 4.03652 3.70374
# Velocity P-wave (km/s) = 6.92194 8.30082 7.64254
#
# Compressibility (1/GPa) = 0.01621818
#
# Stress axis : x y z
#
# Youngs Moduli (GPa) = 130.34610 72.89159 63.06837
#
# Poissons Ratio (x) = 0.20584 0.37364
# Poissons Ratio (y) = 0.36808 0.11138
# Poissons Ratio (z) = 0.77221 0.12873
#
# Static dielectric constant tensor:
#      x y z
#    x 1.667650 0.000000 0.008300 
#    y 0.000000 1.634240 0.000000 
#    z 0.008300 0.000000 1.597510 
# 
# From -- ./inp_files/101186.got.cif
#   From: 2010.05.17/outbox.cif.g08.bks.cpg/sg12_51_cif.got.tgz:101186.got - 2010.06.03 13:09:07.
