data_PCOD9174417
_publ_section_title
;
Structure prediction by ZEFSAII (Michael W. Deem and Ramdas Pophale) SiO2 
 PCOD9174417
Probable space group: C 2/M
;
_chemical_formula_sum "Si O2"
_cell_formula_units_Z 64
_cell_length_a 15.797796
_cell_length_b 8.533292
_cell_length_c 29.723947
_cell_angle_alpha 90.000000
_cell_angle_beta 54.510559
_cell_angle_gamma 90.000000
_cell_volume 3262.591480
_symmetry_space_group_name_H-M "C 2/M"
_symmetry_group_IT_number 12
_symmetry_cell_setting 'monoclinic'
loop_
_space_group_symop_operation_xyz
x,y,z
-x,y,-z
-x,-y,-z
x,-y,z
1/2+x,1/2+y,z
1/2-x,1/2+y,-z
1/2-x,1/2-y,-z
1/2+x,1/2-y,z
loop_
_atom_site_type_symbol
_atom_site_label
_atom_site_fract_x
_atom_site_fract_y
_atom_site_fract_z
Si Si1 0.545199 0.813983 0.875824
Si Si2 0.351306 0.310917 0.494437
Si Si3 0.214603 0.812536 0.887311
Si Si4 0.778164 0.189373 0.614313
Si Si5 0.853413 0.811589 0.992777
Si Si6 0.547456 0.308696 0.374450
Si Si7 0.455295 0.310878 0.309334
Si Si8 0.051105 0.811904 0.184933
O O1 0.653260 0.758611 0.864172
O O2 0.518043 0.742704 0.835709
O O3 0.543519 0.000000 0.872855
O O4 0.453695 0.758016 0.937538
O O5 0.351409 0.500000 0.493078
O O6 0.250000 0.250000 0.500000
O O7 0.340461 0.264615 0.549860
O O8 0.454099 0.258344 0.436431
O O9 0.155900 0.768913 0.951837
O O10 0.332585 0.754626 0.855017
O O11 0.213464 0.000000 0.884290
O O12 0.843946 0.241216 0.637348
O O13 0.662823 0.256037 0.648667
O O14 0.771789 0.000000 0.616552
O O15 0.857104 0.000000 0.988166
O O16 0.750000 0.750000 0.000000
O O17 0.547441 0.500000 0.374349
O O18 0.521565 0.256400 0.332049
O O19 0.456308 0.500000 0.309328
O O20 0.502218 0.258645 0.247365
O O21 0.056959 0.000000 0.182719
#
# Coordination Sequence:
#
# PCOD9174417 Si02
#       8
#     8   8   8   8   8   8   8   8
#     4  12  25  41  64  93 125 164 205 249 304 361
#     4  10  18  31  55  83 114 150 188 233 290 349
#     4  11  24  42  65  94 126 161 200 248 307 363
#     4  10  20  34  57  87 114 149 194 237 287 352
#     4  11  22  38  64  95 129 162 199 246 302 364
#     4   9  18  35  57  81 115 152 188 233 288 353
#     4  10  22  40  60  83 113 153 194 242 299 346
#     4  11  24  42  63  87 119 160 210 258 304 360
#
# _framework density 19.616309000000001
#
# number of rings (size 3 to 8) (size 9 to 14) (size 15 to 20)
#    0.000    1.500    2.500    3.000    0.000    6.500 
#    0.000    2.500    0.000    1.500    0.000    0.000 
#    0.000    0.000    0.000    0.000    0.000    0.000 
#
# Total GULP energy -178856.200909 kJ/mol
# GULP energy per Si atom -5589.256278 kJ/mol
# Density = 1.957166 g / cm^3
# Si number density = 19.616309 Si / 1000 Ang^3
#
#
#
# Elastic Constant Matrix: (Units=GPa)
#
#
# Indices 1 2 3 4 5 6 
#
# 1 119.8276 5.8556 25.3722 0.0000 40.5197 0.0000
# 2 5.8556 18.9035 20.6939 0.0000 7.2778 0.0000
# 3 25.3722 20.6939 97.3456 0.0000 40.0249 0.0000
# 4 0.0000 0.0000 0.0000 19.1875 0.0000 -8.1366
# 5 40.5197 7.2778 40.0249 0.0000 22.3781 0.0000
# 6 0.0000 0.0000 0.0000 -8.1366 0.0000 23.7721
#
#
#
# Elastic Compliance Matrix: (Units=1/GPa)
#
#
# Indices 1 2 3 4 5 6 
#
# 1 -0.023346 0.011004 -0.045970 0.000000 0.120914 0.000000
# 2 0.011004 0.064996 0.000750 0.000000 -0.042404 0.000000
# 3 -0.045970 0.000750 -0.045460 0.000000 0.164302 0.000000
# 4 0.000000 0.000000 0.000000 0.060966 0.000000 0.020867
# 5 0.120914 -0.042404 0.164302 0.000000 -0.454328 0.000000
# 6 0.000000 0.000000 0.000000 0.020867 0.000000 0.049208
#
#
# Mechanical properties :
#
#
# Convention : Reuss Voigt Hill
#
# Bulk Modulus (GPa) = -13.84246 37.76892 11.96323
# Shear Modulus (GPa) = -16.46840 25.34454 4.43807
#
# Velocity S-wave (km/s) = -2.90060 3.59836 1.50577
# Velocity P-wave (km/s) = 4.27667 6.04648 3.02241
#
# Compressibility (1/GPa) = -0.07224152
#
# Stress axis : x y z
#
# Youngs Moduli (GPa) = -42.83412 15.38548 -21.99730
#
# Poissons Ratio (x) = -0.16930 -1.01121
# Poissons Ratio (y) = 0.47135 0.01649
# Poissons Ratio (z) = -1.96907 -0.01154
#
# Static dielectric constant tensor:
#      x y z
#    x 1.658760 0.000000 0.018770 
#    y 0.000000 1.669130 0.000000 
#    z 0.018770 0.000000 1.680620 
# 
# From -- ./inp_files/375052.got.cif
#   From: 2010.05.17/outbox.cif.g08.bks.cpg/sg12_188_cif.got.tgz:375052.got - 2010.06.03 13:09:07.
