data_PCOD9174629
_publ_section_title
;
Structure prediction by ZEFSAII (Michael W. Deem and Ramdas Pophale) SiO2 
 PCOD9174629
Probable space group: C 2/M
;
_chemical_formula_sum "Si O2"
_cell_formula_units_Z 48
_cell_length_a 20.358704
_cell_length_b 15.306038
_cell_length_c 14.799865
_cell_angle_alpha 90.000000
_cell_angle_beta 31.466433
_cell_angle_gamma 90.000000
_cell_volume 2407.355898
_symmetry_space_group_name_H-M "C 2/M"
_symmetry_group_IT_number 12
_symmetry_cell_setting 'monoclinic'
loop_
_space_group_symop_operation_xyz
x,y,z
-x,y,-z
-x,-y,-z
x,-y,z
1/2+x,1/2+y,z
1/2-x,1/2+y,-z
1/2-x,1/2-y,-z
1/2+x,1/2-y,z
loop_
_atom_site_type_symbol
_atom_site_label
_atom_site_fract_x
_atom_site_fract_y
_atom_site_fract_z
Si Si1 0.209055 0.597541 0.305463
Si Si2 0.073241 0.904276 0.268394
Si Si3 0.571030 0.649738 0.069309
Si Si4 0.229750 0.101198 0.370503
Si Si5 0.268394 0.275800 0.796087
Si Si6 0.709457 0.603696 0.594460
O O1 0.160677 0.500000 0.341246
O O2 0.160819 0.685163 0.313799
O O3 0.205664 0.612327 0.416814
O O4 0.354879 0.601654 0.098874
O O5 0.099899 0.896169 0.130734
O O6 0.145690 0.832625 0.240135
O O7 0.922946 0.896561 0.453991
O O8 0.111025 0.000000 0.257896
O O9 0.422251 0.651718 0.233738
O O10 0.639502 0.743125 0.992866
O O11 0.269207 0.168845 0.247934
O O12 0.264359 0.128271 0.432410
O O13 0.268521 0.000000 0.309590
O O14 0.677588 0.500000 0.623623
#
# Coordination Sequence:
#
# PCOD9174629 Si02
#       6
#     8   8   8   8   8   8
#     4   9  18  29  46  70  97 123 149 186 228 273
#     4  10  18  32  51  68  92 121 154 194 232 269
#     4   9  18  28  45  72  95 119 145 189 230 272
#     4   9  18  32  50  70  92 119 154 193 232 270
#     4  10  20  27  43  73 100 121 146 186 235 276
#     4   9  16  30  51  70  91 120 153 190 232 271
#
# _framework density 19.938887999999999
#
# number of rings (size 3 to 8) (size 9 to 14) (size 15 to 20)
#    1.000    1.667    0.000    4.500    0.000    3.333 
#    0.000    0.000    0.000    2.000    0.000   16.333 
#    0.000    0.000    0.000    0.000    0.000    0.000 
#
# Total GULP energy -133674.315744 kJ/mol
# GULP energy per Si atom -5569.763156 kJ/mol
# Density = 1.989351 g / cm^3
# Si number density = 19.938888 Si / 1000 Ang^3
#
#
#
# Elastic Constant Matrix: (Units=GPa)
#
#
# Indices 1 2 3 4 5 6 
#
# 1 39.8246 25.8949 2.6959 0.0000 15.5437 0.0000
# 2 25.8949 96.8827 11.3233 0.0000 6.6341 0.0000
# 3 2.6959 11.3233 20.5846 0.0000 8.0948 0.0000
# 4 0.0000 0.0000 0.0000 61.2719 0.0000 -32.5159
# 5 15.5437 6.6341 8.0948 0.0000 16.1894 0.0000
# 6 0.0000 0.0000 0.0000 -32.5159 0.0000 69.9644
#
#
#
# Elastic Compliance Matrix: (Units=1/GPa)
#
#
# Indices 1 2 3 4 5 6 
#
# 1 0.055585 -0.013534 0.023614 0.000000 -0.059629 0.000000
# 2 -0.013534 0.014371 -0.011111 0.000000 0.012661 0.000000
# 3 0.023614 -0.011111 0.073097 0.000000 -0.054667 0.000000
# 4 0.000000 0.000000 0.000000 0.021664 0.000000 0.010068
# 5 -0.059629 0.012661 -0.054667 0.000000 0.141166 0.000000
# 6 0.000000 0.000000 0.000000 0.010068 0.000000 0.018972
#
#
# Mechanical properties :
#
#
# Convention : Reuss Voigt Hill
#
# Bulk Modulus (GPa) = 7.09269 26.34667 16.71968
# Shear Modulus (GPa) = 13.37207 37.31033 25.34120
#
# Velocity S-wave (km/s) = 2.59251 4.33047 3.56890
# Velocity P-wave (km/s) = 3.53926 6.18436 5.03849
#
# Compressibility (1/GPa) = 0.14099019
#
# Stress axis : x y z
#
# Youngs Moduli (GPa) = 17.99051 69.58585 13.68040
#
# Poissons Ratio (x) = 0.94174 -0.32304
# Poissons Ratio (y) = 0.24347 0.15201
# Poissons Ratio (z) = -0.42482 0.77320
#
# Static dielectric constant tensor:
#      x y z
#    x 1.698670 0.000000 0.020990 
#    y 0.000000 1.734670 0.000000 
#    z 0.020990 0.000000 1.706450 
# 
# From -- ./inp_files/240216.got.cif
#   From: 2010.05.17/outbox.cif.g08.bks.cpg/sg12_121_cif.got.tgz:240216.got - 2010.06.03 13:09:07.
