data_PCOD9174626
_publ_section_title
;
Structure prediction by ZEFSAII (Michael W. Deem and Ramdas Pophale) SiO2 
 PCOD9174626
Probable space group: C 2/M
;
_chemical_formula_sum "Si O2"
_cell_formula_units_Z 56
_cell_length_a 11.167965
_cell_length_b 14.897108
_cell_length_c 13.207239
_cell_angle_alpha 90.000000
_cell_angle_beta 74.445357
_cell_angle_gamma 90.000000
_cell_volume 2116.817840
_symmetry_space_group_name_H-M "C 2/M"
_symmetry_group_IT_number 12
_symmetry_cell_setting 'monoclinic'
loop_
_space_group_symop_operation_xyz
x,y,z
-x,y,-z
-x,-y,-z
x,-y,z
1/2+x,1/2+y,z
1/2-x,1/2+y,-z
1/2-x,1/2-y,-z
1/2+x,1/2-y,z
loop_
_atom_site_type_symbol
_atom_site_label
_atom_site_fract_x
_atom_site_fract_y
_atom_site_fract_z
Si Si1 0.510152 0.899797 0.382767
Si Si2 0.644155 0.343946 0.435014
Si Si3 0.958020 0.855981 0.157571
Si Si4 0.234387 0.147475 0.624168
Si Si5 0.470114 0.851524 0.170060
Si Si6 0.701073 0.365679 0.199910
Si Si7 0.732043 0.179200 0.095719
O O1 0.500000 0.863744 0.500000
O O2 0.658454 0.902488 0.339125
O O3 0.457688 0.851646 0.295732
O O4 0.458898 0.000000 0.393804
O O5 0.500000 0.334272 0.500000
O O6 0.713711 0.248374 0.403744
O O7 0.710409 0.388241 0.516636
O O8 0.658799 0.389436 0.322840
O O9 0.889077 0.859997 0.281613
O O10 0.974953 0.750468 0.131235
O O11 0.853572 0.878075 0.098133
O O12 0.094624 0.895197 0.145673
O O13 0.344506 0.893854 0.154952
O O14 0.609358 0.881761 0.112726
O O15 0.705721 0.255462 0.189307
O O16 0.750000 0.250000 0.000000
#
# Coordination Sequence:
#
# PCOD9174626 Si02
#       7
#     8   8   8   8   8   8   8
#     4  11  23  36  53  77 115 161 204 235 265 335
#     4  11  19  26  48  81 111 146 173 234 283 341
#     4  10  18  32  50  81 110 143 179 233 294 355
#     4  11  19  29  50  77 109 146 192 224 280 337
#     4  10  19  35  52  76 112 145 190 228 286 346
#     4  10  19  30  45  76 108 142 179 216 285 349
#     4  10  20  33  51  77 113 149 175 229 299 353
#
# _framework density 26.454802999999998
#
# number of rings (size 3 to 8) (size 9 to 14) (size 15 to 20)
#    0.000    1.571    5.714    2.143    2.000    5.143 
#    0.000    0.000    0.000    1.286    0.000    8.000 
#    0.000    5.714    0.000    0.000    0.000    0.000 
#
# Total GULP energy -156328.450214 kJ/mol
# GULP energy per Si atom -5583.158936 kJ/mol
# Density = 2.639459 g / cm^3
# Si number density = 26.454803 Si / 1000 Ang^3
#
#
#
# Elastic Constant Matrix: (Units=GPa)
#
#
# Indices 1 2 3 4 5 6 
#
# 1 287.5508 14.5080 55.0726 0.0000 -7.1616 0.0000
# 2 14.5080 61.8045 4.5060 0.0000 -0.7924 0.0000
# 3 55.0726 4.5060 147.2267 0.0000 18.1269 0.0000
# 4 0.0000 0.0000 0.0000 -8.0622 0.0000 -4.5732
# 5 -7.1616 -0.7924 18.1269 0.0000 23.9710 0.0000
# 6 0.0000 0.0000 0.0000 -4.5732 0.0000 -15.0401
#
#
#
# Elastic Compliance Matrix: (Units=1/GPa)
#
#
# Indices 1 2 3 4 5 6 
#
# 1 0.003911 -0.000759 -0.001743 0.000000 0.002461 0.000000
# 2 -0.000759 0.016386 -0.000282 0.000000 0.000528 0.000000
# 3 -0.001743 -0.000282 0.008290 0.000000 -0.006799 0.000000
# 4 0.000000 0.000000 0.000000 -0.149887 0.000000 0.045576
# 5 0.002461 0.000528 -0.006799 0.000000 0.047611 0.000000
# 6 0.000000 0.000000 0.000000 0.045576 0.000000 -0.080347
#
#
# Mechanical properties :
#
#
# Convention : Reuss Voigt Hill
#
# Bulk Modulus (GPa) = 43.44574 71.63948 57.54261
# Shear Modulus (GPa) = -35.51275 28.34010 -3.58632
#
# Velocity S-wave (km/s) = -3.66784 3.27657 -1.16558
# Velocity P-wave (km/s) = 1.21620 6.43842 4.47069
#
# Compressibility (1/GPa) = 0.02301722
#
# Stress axis : x y z
#
# Youngs Moduli (GPa) = 255.68610 61.02886 120.62888
#
# Poissons Ratio (x) = 0.04635 0.21023
# Poissons Ratio (y) = 0.19418 0.03407
# Poissons Ratio (z) = 0.44561 0.01724
#
# Static dielectric constant tensor:
#      x y z
#    x 2.201060 0.000000 -0.034450 
#    y 0.000000 1.993660 0.000000 
#    z -0.034450 0.000000 2.135380 
# 
# From -- ./inp_files/207234.got.cif
#   From: 2010.05.17/outbox.cif.g08.bks.cpg/sg12_104_cif.got.tgz:207234.got - 2010.06.03 13:09:07.
