data_PCOD9174466
_publ_section_title
;
Structure prediction by ZEFSAII (Michael W. Deem and Ramdas Pophale) SiO2 
 PCOD9174466
Probable space group: C 2/M
;
_chemical_formula_sum "Si O2"
_cell_formula_units_Z 48
_cell_length_a 25.859254
_cell_length_b 8.562884
_cell_length_c 21.065642
_cell_angle_alpha 90.000000
_cell_angle_beta 144.834367
_cell_angle_gamma 90.000000
_cell_volume 2686.516787
_symmetry_space_group_name_H-M "C 2/M"
_symmetry_group_IT_number 12
_symmetry_cell_setting 'monoclinic'
loop_
_space_group_symop_operation_xyz
x,y,z
-x,y,-z
-x,-y,-z
x,-y,z
1/2+x,1/2+y,z
1/2-x,1/2+y,-z
1/2-x,1/2-y,-z
1/2+x,1/2-y,z
loop_
_atom_site_type_symbol
_atom_site_label
_atom_site_fract_x
_atom_site_fract_y
_atom_site_fract_z
Si Si1 0.500157 0.811305 0.628105
Si Si2 0.505346 0.312965 0.776589
Si Si3 0.807545 0.188937 0.617100
Si Si4 0.304818 0.185465 0.994442
Si Si5 0.807624 0.688738 0.235667
Si Si6 0.308326 0.809677 0.379508
O O1 0.504247 0.739851 0.702205
O O2 0.589968 0.769565 0.680019
O O3 0.408670 0.763006 0.501371
O O4 0.498488 0.000000 0.632545
O O5 0.510992 0.500000 0.785058
O O6 0.410906 0.262558 0.712711
O O7 0.593053 0.242548 0.897260
O O8 0.750000 0.250000 0.500000
O O9 0.761170 0.241173 0.636013
O O10 0.804791 0.000000 0.612722
O O11 0.301829 0.000000 0.994272
O O12 0.250000 0.250000 0.000000
O O13 0.257620 0.244068 0.883110
O O14 0.801534 0.500000 0.227429
O O15 0.787789 0.741724 0.287426
O O16 0.307606 0.000000 0.378049
#
# Coordination Sequence:
#
# PCOD9174466 Si02
#       6
#     8   8   8   8   8   8
#     4  10  18  31  56  85 115 147 182 227 280 337
#     4  11  22  35  55  85 116 147 189 234 276 327
#     4  10  20  35  57  84 114 150 191 232 274 327
#     4  12  24  39  59  82 111 147 187 233 283 336
#     4  10  20  35  57  85 115 149 187 230 279 334
#     4   9  18  34  56  84 117 151 188 227 275 335
#
# _framework density 17.867003
#
# number of rings (size 3 to 8) (size 9 to 14) (size 15 to 20)
#    0.000    1.667    3.333    2.500    0.000    2.667 
#    0.000    2.500    0.000    7.000    0.000    0.000 
#    0.000    0.000    0.000    0.000    0.000    0.000 
#
# Total GULP energy -134044.588543 kJ/mol
# GULP energy per Si atom -5585.191189 kJ/mol
# Density = 1.782634 g / cm^3
# Si number density = 17.867003 Si / 1000 Ang^3
#
#
#
# Elastic Constant Matrix: (Units=GPa)
#
#
# Indices 1 2 3 4 5 6 
#
# 1 183.8892 41.0998 115.2693 0.0000 -5.1711 0.0000
# 2 41.0998 27.1460 34.7193 0.0000 2.1004 0.0000
# 3 115.2693 34.7193 146.7299 0.0000 3.2599 0.0000
# 4 0.0000 0.0000 0.0000 28.0089 0.0000 -4.9983
# 5 -5.1711 2.1004 3.2599 0.0000 34.6471 0.0000
# 6 0.0000 0.0000 0.0000 -4.9983 0.0000 17.9968
#
#
#
# Elastic Compliance Matrix: (Units=1/GPa)
#
#
# Indices 1 2 3 4 5 6 
#
# 1 0.012339 -0.009230 -0.007579 0.000000 0.003114 0.000000
# 2 -0.009230 0.059871 -0.006819 0.000000 -0.004366 0.000000
# 3 -0.007579 -0.006819 0.014429 0.000000 -0.002075 0.000000
# 4 0.000000 0.000000 0.000000 0.037565 0.000000 0.010433
# 5 0.003114 -0.004366 -0.002075 0.000000 0.029787 0.000000
# 6 0.000000 0.000000 0.000000 0.010433 0.000000 0.058463
#
#
# Mechanical properties :
#
#
# Convention : Reuss Voigt Hill
#
# Bulk Modulus (GPa) = 25.39100 82.21577 53.80338
# Shear Modulus (GPa) = 18.32596 27.24233 22.78415
#
# Velocity S-wave (km/s) = 3.20611 3.90901 3.57488
# Velocity P-wave (km/s) = 5.28654 8.15409 6.87156
#
# Compressibility (1/GPa) = 0.03938404
#
# Stress axis : x y z
#
# Youngs Moduli (GPa) = 81.04261 16.70253 69.30653
#
# Poissons Ratio (x) = 0.15416 0.52526
# Poissons Ratio (y) = 0.74800 0.47260
# Poissons Ratio (z) = 0.61420 0.11389
#
# Static dielectric constant tensor:
#      x y z
#    x 1.608000 0.000000 0.012040 
#    y 0.000000 1.612490 0.000000 
#    z 0.012040 0.000000 1.583120 
# 
# From -- ./inp_files/327353.got.cif
#   From: 2010.05.17/outbox.cif.g08.bks.cpg/sg12_164_cif.got.tgz:327353.got - 2010.06.03 13:09:07.
