data_PCOD9174262
_publ_section_title
;
Structure prediction by ZEFSAII (Michael W. Deem and Ramdas Pophale) SiO2 
 PCOD9174262
Probable space group: C 2/M
;
_chemical_formula_sum "Si O2"
_cell_formula_units_Z 60
_cell_length_a 11.629564
_cell_length_b 26.783719
_cell_length_c 14.949953
_cell_angle_alpha 90.000000
_cell_angle_beta 43.034191
_cell_angle_gamma 90.000000
_cell_volume 3177.863385
_symmetry_space_group_name_H-M "C 2/M"
_symmetry_group_IT_number 12
_symmetry_cell_setting 'monoclinic'
loop_
_space_group_symop_operation_xyz
x,y,z
-x,y,-z
-x,-y,-z
x,-y,z
1/2+x,1/2+y,z
1/2-x,1/2+y,-z
1/2-x,1/2-y,-z
1/2+x,1/2-y,z
loop_
_atom_site_type_symbol
_atom_site_label
_atom_site_fract_x
_atom_site_fract_y
_atom_site_fract_z
Si Si1 0.692029 0.927135 0.969738
Si Si2 0.666395 0.052904 0.774612
Si Si3 0.820022 0.842092 0.652531
Si Si4 0.541795 0.556080 0.871138
Si Si5 0.693522 0.755684 0.428795
Si Si6 0.257494 0.318749 0.895058
Si Si7 0.388161 0.333840 0.212267
Si Si8 0.000000 0.234652 0.000000
O O1 0.700440 0.944918 0.862330
O O2 0.866070 0.939742 0.917819
O O3 0.658309 0.868145 0.980674
O O4 0.535438 0.947476 0.113685
O O5 0.735780 0.103661 0.693457
O O6 0.733659 0.000000 0.700890
O O7 0.728726 0.794363 0.660476
O O8 0.822883 0.827743 0.756070
O O9 0.000000 0.846350 0.500000
O O10 0.613603 0.500000 0.814279
O O11 0.636720 0.607102 0.788360
O O12 0.500000 0.560105 0.000000
O O13 0.500000 0.755036 0.500000
O O14 0.750000 0.750000 0.500000
O O15 0.766545 0.807541 0.351542
O O16 0.423557 0.320977 0.860592
O O17 0.132968 0.272052 0.971717
O O18 0.382768 0.301946 0.124740
#
# Coordination Sequence:
#
# PCOD9174262 Si02
#       8
#     8   8   8   8   8   8   8   4
#     4   9  18  32  55  81 112 154 187 223 295 356
#     4  10  18  31  53  83 113 144 189 240 285 346
#     4  10  20  36  54  78 111 155 193 232 291 342
#     4  10  20  36  54  81 120 157 191 237 290 354
#     4  11  24  44  65  85 117 161 205 248 297 362
#     4  10  20  35  54  82 121 150 187 243 293 356
#     4  11  22  36  59  87 118 152 202 241 296 363
#     4  12  20  34  53  90 123 146 186 240 310 350
#
# _framework density 18.880610999999998
#
# number of rings (size 3 to 8) (size 9 to 14) (size 15 to 20)
#    0.000    1.733    2.000    5.200    0.000    0.267 
#    2.400    0.000    0.000    2.800    0.000    0.000 
#    0.000    0.000    0.000    0.000    0.000    0.000 
#
# Total GULP energy -167043.850911 kJ/mol
# GULP energy per Si atom -5568.128364 kJ/mol
# Density = 1.883764 g / cm^3
# Si number density = 18.880611 Si / 1000 Ang^3
#
#
#
# Elastic Constant Matrix: (Units=GPa)
#
#
# Indices 1 2 3 4 5 6 
#
# 1 36.5964 27.1441 -1.5682 0.0000 1.5075 0.0000
# 2 27.1441 204.6259 41.5301 0.0000 2.3409 0.0000
# 3 -1.5682 41.5301 51.6638 0.0000 2.1011 0.0000
# 4 0.0000 0.0000 0.0000 -24.7313 0.0000 4.6676
# 5 1.5075 2.3409 2.1011 0.0000 21.4672 0.0000
# 6 0.0000 0.0000 0.0000 4.6676 0.0000 1.2245
#
#
#
# Elastic Compliance Matrix: (Units=1/GPa)
#
#
# Indices 1 2 3 4 5 6 
#
# 1 0.031509 -0.005218 0.005239 0.000000 -0.002156 0.000000
# 2 -0.005218 0.006705 -0.005555 0.000000 0.000179 0.000000
# 3 0.005239 -0.005555 0.024067 0.000000 -0.002118 0.000000
# 4 0.000000 0.000000 0.000000 -0.023517 0.000000 0.089641
# 5 -0.002156 0.000179 -0.002118 0.000000 0.046922 0.000000
# 6 0.000000 0.000000 0.000000 0.089641 0.000000 0.474968
#
#
# Mechanical properties :
#
#
# Convention : Reuss Voigt Hill
#
# Bulk Modulus (GPa) = 19.52712 47.45535 33.49123
# Shear Modulus (GPa) = 8.49195 14.64410 11.56803
#
# Velocity S-wave (km/s) = 2.12308 2.78801 2.47795
# Velocity P-wave (km/s) = 4.04658 5.96263 5.09548
#
# Compressibility (1/GPa) = 0.05121084
#
# Stress axis : x y z
#
# Youngs Moduli (GPa) = 31.73702 149.15128 41.55140
#
# Poissons Ratio (x) = 0.77832 -0.21768
# Poissons Ratio (y) = 0.16561 0.23083
# Poissons Ratio (z) = -0.16627 0.82856
#
# Static dielectric constant tensor:
#      x y z
#    x 1.696460 0.000000 0.009040 
#    y 0.000000 1.724850 0.000000 
#    z 0.009040 0.000000 1.664910 
# 
# From -- ./inp_files/208639.got.cif
#   From: 2010.05.17/outbox.cif.g08.bks.cpg/sg12_105_cif.got.tgz:208639.got - 2010.06.03 13:09:07.
