data_PCOD9174174
_publ_section_title
;
Structure prediction by ZEFSAII (Michael W. Deem and Ramdas Pophale) SiO2 
 PCOD9174174
Probable space group: C 2/M
;
_chemical_formula_sum "Si O2"
_cell_formula_units_Z 32
_cell_length_a 11.350732
_cell_length_b 26.927545
_cell_length_c 8.033467
_cell_angle_alpha 90.000000
_cell_angle_beta 41.133125
_cell_angle_gamma 90.000000
_cell_volume 1615.193821
_symmetry_space_group_name_H-M "C 2/M"
_symmetry_group_IT_number 12
_symmetry_cell_setting 'monoclinic'
loop_
_space_group_symop_operation_xyz
x,y,z
-x,y,-z
-x,-y,-z
x,-y,z
1/2+x,1/2+y,z
1/2-x,1/2+y,-z
1/2-x,1/2-y,-z
1/2+x,1/2-y,z
loop_
_atom_site_type_symbol
_atom_site_label
_atom_site_fract_x
_atom_site_fract_y
_atom_site_fract_z
Si Si1 0.000000 0.263608 0.000000
Si Si2 0.712530 0.675716 0.900466
Si Si3 0.414126 0.161125 0.334570
Si Si4 0.000000 0.910032 0.000000
Si Si5 0.371347 0.055347 0.474890
O O1 0.100106 0.226053 0.018740
O O2 0.132517 0.300432 0.760175
O O3 0.800935 0.671963 0.621364
O O4 0.877645 0.671764 0.847841
O O5 0.582740 0.628063 0.048485
O O6 0.397197 0.102140 0.325715
O O7 0.166497 0.940903 0.755114
O O8 0.500000 0.064023 0.500000
O O9 0.409461 0.000000 0.371010
#
# Coordination Sequence:
#
# PCOD9174174 Si02
#       5
#     4   8   8   4   8
#     4  11  20  28  52  74 100 142 164 197 264 294
#     4   9  18  32  49  71 103 131 167 205 244 299
#     4  10  18  34  47  74 105 130 169 211 242 300
#     4   9  15  30  51  78  99 122 165 215 248 284
#     4  10  18  31  53  76  99 131 169 211 249 289
#
# _framework density 19.811862999999999
#
# number of rings (size 3 to 8) (size 9 to 14) (size 15 to 20)
#    0.000    2.250    5.000    1.875    0.000    0.000 
#    0.000    0.625    0.000    0.000    0.000    1.750 
#    0.000    0.000    0.000    0.000    0.000    0.000 
#
# Total GULP energy -89154.672944 kJ/mol
# GULP energy per Si atom -5572.167059 kJ/mol
# Density = 1.976677 g / cm^3
# Si number density = 19.811863 Si / 1000 Ang^3
#
#
#
# Elastic Constant Matrix: (Units=GPa)
#
#
# Indices 1 2 3 4 5 6 
#
# 1 29.1784 0.6408 18.0155 0.0000 -20.5638 0.0000
# 2 0.6408 161.0930 18.5318 0.0000 0.4699 0.0000
# 3 18.0155 18.5318 38.6698 0.0000 -15.8868 0.0000
# 4 0.0000 0.0000 0.0000 23.8690 0.0000 -4.0595
# 5 -20.5638 0.4699 -15.8868 0.0000 31.6712 0.0000
# 6 0.0000 0.0000 0.0000 -4.0595 0.0000 -0.6227
#
#
#
# Elastic Compliance Matrix: (Units=1/GPa)
#
#
# Indices 1 2 3 4 5 6 
#
# 1 0.072461 0.001822 -0.019288 0.000000 0.037346 0.000000
# 2 0.001822 0.006730 -0.004571 0.000000 -0.001210 0.000000
# 3 -0.019288 -0.004571 0.040205 0.000000 0.007711 0.000000
# 4 0.000000 0.000000 0.000000 0.019867 0.000000 -0.129522
# 5 0.037346 -0.001210 0.007711 0.000000 0.059709 0.000000
# 6 0.000000 0.000000 0.000000 -0.129522 0.000000 -0.761567
#
#
# Mechanical properties :
#
#
# Convention : Reuss Voigt Hill
#
# Bulk Modulus (GPa) = 13.27663 33.70193 23.48928
# Shear Modulus (GPa) = -10.13347 23.76705 6.81679
#
# Velocity S-wave (km/s) = -2.26406 3.46734 1.85694
# Velocity P-wave (km/s) = 0.34453 5.75133 4.05950
#
# Compressibility (1/GPa) = 0.07532032
#
# Stress axis : x y z
#
# Youngs Moduli (GPa) = 13.80053 148.59513 24.87281
#
# Poissons Ratio (x) = -0.27070 0.47976
# Poissons Ratio (y) = -0.02514 0.11369
# Poissons Ratio (z) = 0.26619 0.67920
#
# Static dielectric constant tensor:
#      x y z
#    x 1.744090 0.000000 -0.007500 
#    y 0.000000 1.742240 0.000000 
#    z -0.007500 0.000000 1.712830 
# 
# From -- ./inp_files/51660.got.cif
#   From: 2010.05.17/outbox.cif.g08.bks.cpg/sg12_26_cif.got.tgz:51660.got - 2010.06.03 13:09:07.
