data_PCOD9174887
_publ_section_title
;
Structure prediction by ZEFSAII (Michael W. Deem and Ramdas Pophale) SiO2 
 PCOD9174887
Probable space group: C 2/M
;
_chemical_formula_sum "Si O2"
_cell_formula_units_Z 48
_cell_length_a 19.729932
_cell_length_b 8.403067
_cell_length_c 27.940314
_cell_angle_alpha 90.000000
_cell_angle_beta 34.108947
_cell_angle_gamma 90.000000
_cell_volume 2597.635119
_symmetry_space_group_name_H-M "C 2/M"
_symmetry_group_IT_number 12
_symmetry_cell_setting 'monoclinic'
loop_
_space_group_symop_operation_xyz
x,y,z
-x,y,-z
-x,-y,-z
x,-y,z
1/2+x,1/2+y,z
1/2-x,1/2+y,-z
1/2-x,1/2-y,-z
1/2+x,1/2-y,z
loop_
_atom_site_type_symbol
_atom_site_label
_atom_site_fract_x
_atom_site_fract_y
_atom_site_fract_z
Si Si1 0.570664 0.188872 0.230326
Si Si2 0.042559 0.693972 0.527956
Si Si3 0.374810 0.687410 0.905801
Si Si4 0.867330 0.313403 0.227180
Si Si5 0.687692 0.688436 0.636570
Si Si6 0.833243 0.307352 0.723445
O O1 0.615996 0.275484 0.156146
O O2 0.427685 0.224948 0.318418
O O3 0.639161 0.238765 0.238290
O O4 0.586091 0.000000 0.214481
O O5 0.044367 0.500000 0.526183
O O6 0.945448 0.743196 0.624182
O O7 0.000000 0.746011 0.500000
O O8 0.180181 0.744919 0.457045
O O9 0.385409 0.500000 0.907389
O O10 0.491770 0.771863 0.860347
O O11 0.250000 0.750000 0.000000
O O12 0.854115 0.500000 0.244775
O O13 0.820733 0.218816 0.301296
O O14 0.787236 0.263388 0.229039
O O15 0.676405 0.500000 0.634550
O O16 0.826381 0.500000 0.725505
#
# Coordination Sequence:
#
# PCOD9174887 Si02
#       6
#     8   8   8   8   8   8
#     4  10  21  36  55  81 115 146 181 227 278 329
#     4   9  16  29  52  77 105 145 197 236 268 319
#     4  11  22  40  65  87 110 139 177 219 269 331
#     4  11  21  34  55  83 113 143 183 228 273 324
#     4  10  18  32  54  76 105 149 195 232 273 325
#     4  10  20  36  55  78 111 153 189 227 277 324
#
# _framework density 18.478346999999999
#
# number of rings (size 3 to 8) (size 9 to 14) (size 15 to 20)
#    0.000    1.833    1.667    6.000    0.000    2.000 
#    0.000    3.333    0.000    5.000    0.000    0.000 
#    0.000    0.000    0.000    0.000    0.000    0.000 
#
# Total GULP energy -134035.607041 kJ/mol
# GULP energy per Si atom -5584.816960 kJ/mol
# Density = 1.843629 g / cm^3
# Si number density = 18.478347 Si / 1000 Ang^3
#
#
#
# Elastic Constant Matrix: (Units=GPa)
#
#
# Indices 1 2 3 4 5 6 
#
# 1 115.7485 0.6068 39.6633 0.0000 -12.8735 -0.0001
# 2 0.6068 25.1020 -0.2758 -0.0001 2.7992 -0.0002
# 3 39.6633 -0.2758 108.6573 0.0000 -18.1022 0.0000
# 4 0.0000 -0.0001 0.0000 20.9684 0.0000 -5.6962
# 5 -12.8735 2.7992 -18.1022 0.0000 17.0936 0.0000
# 6 -0.0001 -0.0002 0.0000 -5.6962 0.0000 26.1516
#
#
#
# Elastic Compliance Matrix: (Units=1/GPa)
#
#
# Indices 1 2 3 4 5 6 
#
# 1 0.010170 -0.000800 -0.002934 0.000000 0.004683 0.000000
# 2 -0.000800 0.040775 -0.000992 0.000000 -0.008331 0.000000
# 3 -0.002934 -0.000992 0.012058 0.000000 0.010722 0.000000
# 4 0.000000 0.000000 0.000000 0.050690 0.000000 0.011041
# 5 0.004683 -0.008331 0.010722 0.000000 0.074747 0.000000
# 6 0.000000 0.000000 0.000000 0.011041 0.000000 0.040643
#
#
# Mechanical properties :
#
#
# Convention : Reuss Voigt Hill
#
# Bulk Modulus (GPa) = 18.67433 36.61072 27.64253
# Shear Modulus (GPa) = 19.50175 26.81028 23.15601
#
# Velocity S-wave (km/s) = 3.25219 3.81320 3.54382
# Velocity P-wave (km/s) = 4.92243 6.26443 5.63354
#
# Compressibility (1/GPa) = 0.05354944
#
# Stress axis : x y z
#
# Youngs Moduli (GPa) = 98.32937 24.52487 82.93170
#
# Poissons Ratio (x) = 0.01963 0.24334
# Poissons Ratio (y) = 0.07869 0.08229
# Poissons Ratio (z) = 0.28852 0.02433
#
# Static dielectric constant tensor:
#      x y z
#    x 1.627600 0.000000 -0.009620 
#    y 0.000000 1.625380 0.000000 
#    z -0.009620 0.000000 1.622460 
# 
# From -- ./inp_files/380132.got.cif
#   From: 2010.05.17/outbox.cif.g08.bks.cpg/sg12_191_cif.got.tgz:380132.got - 2010.06.03 13:09:07.
