data_PCOD9174370
_publ_section_title
;
Structure prediction by ZEFSAII (Michael W. Deem and Ramdas Pophale) SiO2 
 PCOD9174370
Probable space group: C 2/M
;
_chemical_formula_sum "Si O2"
_cell_formula_units_Z 64
_cell_length_a 27.264275
_cell_length_b 20.084535
_cell_length_c 11.405850
_cell_angle_alpha 90.000000
_cell_angle_beta 27.958846
_cell_angle_gamma 90.000000
_cell_volume 2928.232089
_symmetry_space_group_name_H-M "C 2/M"
_symmetry_group_IT_number 12
_symmetry_cell_setting 'monoclinic'
loop_
_space_group_symop_operation_xyz
x,y,z
-x,y,-z
-x,-y,-z
x,-y,z
1/2+x,1/2+y,z
1/2-x,1/2+y,-z
1/2-x,1/2-y,-z
1/2+x,1/2-y,z
loop_
_atom_site_type_symbol
_atom_site_label
_atom_site_fract_x
_atom_site_fract_y
_atom_site_fract_z
Si Si1 0.560558 0.831427 0.172212
Si Si2 0.739414 0.577847 0.278449
Si Si3 0.410984 0.929022 0.587895
Si Si4 0.259146 0.327737 0.332609
Si Si5 0.823763 0.785921 0.943069
Si Si6 0.168313 0.075300 0.178178
Si Si7 0.099045 0.718869 0.842441
Si Si8 0.122182 0.079494 0.760952
O O1 0.451710 0.864743 0.435829
O O2 0.659234 0.881273 0.974128
O O3 0.591724 0.767418 0.185269
O O4 0.557942 0.820531 0.039955
O O5 0.767261 0.500000 0.233763
O O6 0.688320 0.603638 0.507041
O O7 0.660171 0.581232 0.336115
O O8 0.500000 0.932788 0.500000
O O9 0.293254 0.924045 0.883430
O O10 0.417151 0.000000 0.508608
O O11 0.260398 0.308617 0.194021
O O12 0.151164 0.325474 0.631557
O O13 0.321923 0.269107 0.264792
O O14 0.325935 0.391823 0.230465
O O15 0.870810 0.855662 0.795327
O O16 0.750000 0.750000 0.000000
O O17 0.131425 0.000000 0.221713
O O18 0.000000 0.756843 0.000000
O O19 0.130800 0.000000 0.743998
O O20 0.000000 0.094753 0.000000
#
# Coordination Sequence:
#
# PCOD9174370 Si02
#       8
#     8   8   8   8   8   8   8   8
#     4  11  20  35  58  86 124 164 202 259 312 366
#     4  10  18  34  61  87 118 160 205 254 306 371
#     4  10  18  31  54  85 120 160 204 244 294 369
#     4  10  22  39  61  84 120 163 200 258 314 371
#     4  11  22  38  58  87 123 161 207 253 311 373
#     4  10  21  36  59  87 122 168 204 248 311 374
#     4  10  22  38  58  85 118 161 202 250 316 374
#     4  10  21  39  66  93 117 157 215 268 316 377
#
# _framework density 21.856190999999999
#
# number of rings (size 3 to 8) (size 9 to 14) (size 15 to 20)
#    0.000    1.750    3.750    0.750    1.750    0.500 
#    0.000    0.000    2.750    1.875    0.000    3.500 
#    0.000    0.000    0.000    0.000    0.000    0.000 
#
# Total GULP energy -178394.761616 kJ/mol
# GULP energy per Si atom -5574.836300 kJ/mol
# Density = 2.180644 g / cm^3
# Si number density = 21.856191 Si / 1000 Ang^3
#
#
#
# Elastic Constant Matrix: (Units=GPa)
#
#
# Indices 1 2 3 4 5 6 
#
# 1 96.5531 44.1274 41.3195 0.0000 15.8797 0.0000
# 2 44.1274 107.0671 32.2173 0.0000 9.0937 0.0000
# 3 41.3195 32.2173 61.0090 0.0000 0.6364 0.0000
# 4 0.0000 0.0000 0.0000 13.6225 0.0000 11.8518
# 5 15.8797 9.0937 0.6364 0.0000 28.4432 0.0000
# 6 0.0000 0.0000 0.0000 11.8518 0.0000 29.0609
#
#
#
# Elastic Compliance Matrix: (Units=1/GPa)
#
#
# Indices 1 2 3 4 5 6 
#
# 1 0.017652 -0.003546 -0.009994 0.000000 -0.008498 0.000000
# 2 -0.003546 0.012160 -0.004000 0.000000 -0.001818 0.000000
# 3 -0.009994 -0.004000 0.025207 0.000000 0.006295 0.000000
# 4 0.000000 0.000000 0.000000 0.113778 0.000000 -0.046402
# 5 -0.008498 -0.001818 0.006295 0.000000 0.040343 0.000000
# 6 0.000000 0.000000 0.000000 -0.046402 0.000000 0.053334
#
#
# Mechanical properties :
#
#
# Convention : Reuss Voigt Hill
#
# Bulk Modulus (GPa) = 50.15797 55.55083 52.85440
# Shear Modulus (GPa) = 16.43651 24.02298 20.22975
#
# Velocity S-wave (km/s) = 2.74529 3.31892 3.04564
# Velocity P-wave (km/s) = 5.74872 6.33709 6.05006
#
# Compressibility (1/GPa) = 0.01993701
#
# Stress axis : x y z
#
# Youngs Moduli (GPa) = 56.65008 82.23865 39.67225
#
# Poissons Ratio (x) = 0.29164 0.39648
# Poissons Ratio (y) = 0.20090 0.15871
# Poissons Ratio (z) = 0.56616 0.32899
#
# Static dielectric constant tensor:
#      x y z
#    x 1.936070 0.000000 0.061980 
#    y 0.000000 1.860550 0.000000 
#    z 0.061980 0.000000 1.844120 
# 
# From -- ./inp_files/184694.got.cif
#   From: 2010.05.17/outbox.cif.g08.bks.cpg/sg12_93_cif.got.tgz:184694.got - 2010.06.03 13:09:07.
