data_PCOD9174354
_publ_section_title
;
Structure prediction by ZEFSAII (Michael W. Deem and Ramdas Pophale) SiO2 
 PCOD9174354
Probable space group: C 2/M
;
_chemical_formula_sum "Si O2"
_cell_formula_units_Z 48
_cell_length_a 14.719343
_cell_length_b 7.654557
_cell_length_c 24.396313
_cell_angle_alpha 90.000000
_cell_angle_beta 137.676500
_cell_angle_gamma 90.000000
_cell_volume 1850.765952
_symmetry_space_group_name_H-M "C 2/M"
_symmetry_group_IT_number 12
_symmetry_cell_setting 'monoclinic'
loop_
_space_group_symop_operation_xyz
x,y,z
-x,y,-z
-x,-y,-z
x,-y,z
1/2+x,1/2+y,z
1/2-x,1/2+y,-z
1/2-x,1/2-y,-z
1/2+x,1/2-y,z
loop_
_atom_site_type_symbol
_atom_site_label
_atom_site_fract_x
_atom_site_fract_y
_atom_site_fract_z
Si Si1 0.645870 0.299922 0.054038
Si Si2 0.408430 0.798830 0.350599
Si Si3 0.841024 0.296712 0.824699
Si Si4 0.832070 0.709661 0.480504
Si Si5 0.931468 0.789383 0.688085
Si Si6 0.587135 0.790845 0.869353
O O1 0.624450 0.500000 0.027304
O O2 0.708044 0.300193 0.143114
O O3 0.761904 0.216947 0.068561
O O4 0.500000 0.216337 0.000000
O O5 0.265115 0.717979 0.271887
O O6 0.515894 0.722897 0.442158
O O7 0.489876 0.787876 0.329137
O O8 0.382032 0.000000 0.353288
O O9 0.850476 0.500000 0.842833
O O10 0.987217 0.226594 0.871937
O O11 0.846051 0.500000 0.482254
O O12 0.750000 0.750000 0.500000
O O13 0.726076 0.766439 0.386767
O O14 0.005527 0.742236 0.776916
O O15 0.936306 0.000000 0.684286
O O16 0.598314 0.000000 0.880491
#
# Coordination Sequence:
#
# PCOD9174354 Si02
#       6
#     8   8   8   8   8   8
#     4  10  22  42  66  88 113 149 188 230 287 351
#     4  10  18  32  54  79 113 155 193 236 289 336
#     4  11  23  38  58  87 119 152 192 237 281 334
#     4   8  16  28  46  76 110 146 191 238 282 330
#     4  10  18  31  54  83 113 149 195 240 282 337
#     4  10  22  39  58  84 120 155 187 232 288 340
#
# _framework density 25.935206999999998
#
# number of rings (size 3 to 8) (size 9 to 14) (size 15 to 20)
#    0.000    2.167    1.667    1.500    0.000    3.667 
#    0.000    0.833    0.000    5.000    0.000    0.000 
#    0.000    0.000    0.000    0.000    0.000    0.000 
#
# Total GULP energy -134178.017584 kJ/mol
# GULP energy per Si atom -5590.750733 kJ/mol
# Density = 2.587618 g / cm^3
# Si number density = 25.935207 Si / 1000 Ang^3
#
#
#
# Elastic Constant Matrix: (Units=GPa)
#
#
# Indices 1 2 3 4 5 6 
#
# 1 95.9914 11.2105 45.2470 0.0000 16.5267 0.0000
# 2 11.2105 78.7602 18.0621 0.0000 7.5714 0.0000
# 3 45.2470 18.0621 137.2288 0.0000 29.8420 0.0000
# 4 0.0000 0.0000 0.0000 26.8235 0.0000 2.5496
# 5 16.5267 7.5714 29.8420 0.0000 55.9690 0.0000
# 6 0.0000 0.0000 0.0000 2.5496 0.0000 4.8313
#
#
#
# Elastic Compliance Matrix: (Units=1/GPa)
#
#
# Indices 1 2 3 4 5 6 
#
# 1 0.012520 -0.000783 -0.003670 0.000000 -0.001634 0.000000
# 2 -0.000783 0.013187 -0.001289 0.000000 -0.000865 0.000000
# 3 -0.003670 -0.001289 0.009494 0.000000 -0.003804 0.000000
# 4 0.000000 0.000000 0.000000 0.039250 0.000000 -0.020713
# 5 -0.001634 -0.000865 -0.003804 0.000000 0.020495 0.000000
# 6 0.000000 0.000000 0.000000 -0.020713 0.000000 0.217915
#
#
# Mechanical properties :
#
#
# Convention : Reuss Voigt Hill
#
# Bulk Modulus (GPa) = 42.16426 51.22440 46.69433
# Shear Modulus (GPa) = 15.04887 33.35548 24.20218
#
# Velocity S-wave (km/s) = 2.41145 3.59013 3.05811
# Velocity P-wave (km/s) = 4.90370 6.08105 5.52383
#
# Compressibility (1/GPa) = 0.02371677
#
# Stress axis : x y z
#
# Youngs Moduli (GPa) = 79.87077 75.83160 105.32993
#
# Poissons Ratio (x) = 0.05941 0.38652
# Poissons Ratio (y) = 0.06257 0.13579
# Poissons Ratio (z) = 0.29310 0.09776
#
# Static dielectric constant tensor:
#      x y z
#    x 2.044870 0.000000 0.022270 
#    y 0.000000 2.047390 0.000000 
#    z 0.022270 0.000000 2.107230 
# 
# From -- ./inp_files/360324.got.cif
#   From: 2010.05.17/outbox.cif.g08.bks.cpg/sg12_181_cif.got.tgz:360324.got - 2010.06.03 13:09:07.
