data_PCOD9174045
_publ_section_title
;
Structure prediction by ZEFSAII (Michael W. Deem and Ramdas Pophale) SiO2 
 PCOD9174045
Probable space group: C 2/M
;
_chemical_formula_sum "Si O2"
_cell_formula_units_Z 56
_cell_length_a 32.411517
_cell_length_b 13.483842
_cell_length_c 9.471640
_cell_angle_alpha 90.000000
_cell_angle_beta 49.396907
_cell_angle_gamma 90.000000
_cell_volume 3142.788021
_symmetry_space_group_name_H-M "C 2/M"
_symmetry_group_IT_number 12
_symmetry_cell_setting 'monoclinic'
loop_
_space_group_symop_operation_xyz
x,y,z
-x,y,-z
-x,-y,-z
x,-y,z
1/2+x,1/2+y,z
1/2-x,1/2+y,-z
1/2-x,1/2-y,-z
1/2+x,1/2-y,z
loop_
_atom_site_type_symbol
_atom_site_label
_atom_site_fract_x
_atom_site_fract_y
_atom_site_fract_z
Si Si1 0.820859 0.737028 0.966188
Si Si2 0.408384 0.388985 0.681935
Si Si3 0.991932 0.890238 0.755099
Si Si4 0.611984 0.116053 0.954704
Si Si5 0.882735 0.618458 0.386020
Si Si6 0.502034 0.179608 0.836122
Si Si7 0.776329 0.618296 0.806106
O O1 0.864102 0.803549 0.783419
O O2 0.793929 0.656670 0.921955
O O3 0.851753 0.681673 0.023149
O O4 0.775357 0.814869 0.119212
O O5 0.383926 0.500000 0.730433
O O6 0.443680 0.382719 0.747424
O O7 0.452391 0.382231 0.458950
O O8 0.989526 0.796315 0.860729
O O9 0.989471 0.000000 0.825287
O O10 0.618599 0.149209 0.776026
O O11 0.626168 0.000000 0.933239
O O12 0.547876 0.129473 0.133897
O O13 0.889926 0.500000 0.370129
O O14 0.935926 0.661687 0.345580
O O15 0.826891 0.640120 0.589948
O O16 0.500000 0.138988 0.000000
O O17 0.765979 0.500000 0.827391
#
# Coordination Sequence:
#
# PCOD9174045 Si02
#       7
#     8   8   8   8   8   8   8
#     4  11  20  34  56  77 102 131 170 219 255 293
#     4   9  17  30  49  71  97 132 167 203 248 300
#     4   9  17  29  46  71 102 132 165 202 246 297
#     4  10  20  34  54  79 103 132 172 213 254 303
#     4   9  19  36  54  74 106 140 168 204 253 309
#     4  10  18  31  52  76 104 137 168 204 255 306
#     4  10  22  37  53  76 104 136 171 209 257 305
#
# _framework density 17.818574000000002
#
# number of rings (size 3 to 8) (size 9 to 14) (size 15 to 20)
#    0.000    2.286    1.429    3.000    0.000    2.571 
#    0.000    0.000    0.000    4.286    0.000    0.000 
#    0.000    0.000    0.000    0.000    0.000    0.000 
#
# Total GULP energy -156055.511985 kJ/mol
# GULP energy per Si atom -5573.411142 kJ/mol
# Density = 1.777802 g / cm^3
# Si number density = 17.818574 Si / 1000 Ang^3
#
#
#
# Elastic Constant Matrix: (Units=GPa)
#
#
# Indices 1 2 3 4 5 6 
#
# 1 96.2211 44.9348 22.3360 0.0000 -12.0144 0.0000
# 2 44.9348 86.0971 24.3816 0.0000 -9.5740 0.0000
# 3 22.3360 24.3816 35.5461 0.0000 -12.0094 0.0000
# 4 0.0000 0.0000 0.0000 26.9692 0.0000 -5.2249
# 5 -12.0144 -9.5740 -12.0094 0.0000 22.2521 0.0000
# 6 0.0000 0.0000 0.0000 -5.2249 0.0000 21.6165
#
#
#
# Elastic Compliance Matrix: (Units=1/GPa)
#
#
# Indices 1 2 3 4 5 6 
#
# 1 0.014554 -0.006153 -0.003870 0.000000 0.003122 0.000000
# 2 -0.006153 0.017036 -0.007907 0.000000 -0.000259 0.000000
# 3 -0.003870 -0.007907 0.041744 0.000000 0.017038 0.000000
# 4 0.000000 0.000000 0.000000 0.038901 0.000000 0.009403
# 5 0.003122 -0.000259 0.017038 0.000000 0.055709 0.000000
# 6 0.000000 0.000000 0.000000 0.009403 0.000000 0.048534
#
#
# Mechanical properties :
#
#
# Convention : Reuss Voigt Hill
#
# Bulk Modulus (GPa) = 26.68470 44.57434 35.62952
# Shear Modulus (GPa) = 18.88006 22.58168 20.73087
#
# Velocity S-wave (km/s) = 3.25864 3.56379 3.41463
# Velocity P-wave (km/s) = 5.40061 6.48106 5.96535
#
# Compressibility (1/GPa) = 0.03747466
#
# Stress axis : x y z
#
# Youngs Moduli (GPa) = 68.70807 58.69826 23.95551
#
# Poissons Ratio (x) = 0.36116 0.09272
# Poissons Ratio (y) = 0.42275 0.18941
# Poissons Ratio (z) = 0.26592 0.46412
#
# Static dielectric constant tensor:
#      x y z
#    x 1.606320 0.000000 -0.014700 
#    y 0.000000 1.607320 0.000000 
#    z -0.014700 0.000000 1.616930 
# 
# From -- ./inp_files/111570.got.cif
#   From: 2010.05.17/outbox.cif.g08.bks.cpg/sg12_56_cif.got.tgz:111570.got - 2010.06.03 13:09:07.
