data_PCOD9174716
_publ_section_title
;
Structure prediction by ZEFSAII (Michael W. Deem and Ramdas Pophale) SiO2 
 PCOD9174716
Probable space group: C 2/M
;
_chemical_formula_sum "Si O2"
_cell_formula_units_Z 64
_cell_length_a 30.952799
_cell_length_b 8.608595
_cell_length_c 15.359333
_cell_angle_alpha 90.000000
_cell_angle_beta 101.210880
_cell_angle_gamma 90.000000
_cell_volume 4014.554673
_symmetry_space_group_name_H-M "C 2/M"
_symmetry_group_IT_number 12
_symmetry_cell_setting 'monoclinic'
loop_
_space_group_symop_operation_xyz
x,y,z
-x,y,-z
-x,-y,-z
x,-y,z
1/2+x,1/2+y,z
1/2-x,1/2+y,-z
1/2-x,1/2-y,-z
1/2+x,1/2-y,z
loop_
_atom_site_type_symbol
_atom_site_label
_atom_site_fract_x
_atom_site_fract_y
_atom_site_fract_z
Si Si1 0.039892 0.813807 0.124550
Si Si2 0.190940 0.811264 0.116587
Si Si3 0.628382 0.312351 0.252130
Si Si4 0.282139 0.685474 0.386908
Si Si5 0.686221 0.185479 0.423857
Si Si6 0.053601 0.684625 0.936826
Si Si7 0.790035 0.686082 0.199606
Si Si8 0.644928 0.686343 0.918496
O O1 0.078788 0.769867 0.205758
O O2 0.992551 0.738245 0.122915
O O3 0.035536 0.000000 0.122399
O O4 0.054279 0.761224 0.033295
O O5 0.160526 0.761499 0.185547
O O6 0.241250 0.760808 0.149524
O O7 0.190775 0.000000 0.116943
O O8 0.170131 0.761698 0.016815
O O9 0.630799 0.500000 0.258133
O O10 0.646520 0.241455 0.347989
O O11 0.283669 0.500000 0.378330
O O12 0.311369 0.738523 0.480177
O O13 0.231872 0.731052 0.392708
O O14 0.294893 0.764339 0.301603
O O15 0.686147 0.000000 0.432690
O O16 0.053891 0.500000 0.946519
O O17 0.096309 0.742159 0.902429
O O18 0.791889 0.500000 0.193209
O O19 0.826669 0.760011 0.152321
O O20 0.641609 0.500000 0.919101
#
# Coordination Sequence:
#
# PCOD9174716 Si02
#       8
#     8   8   8   8   8   8   8   8
#     4  10  19  33  53  73  99 134 169 205 254 307
#     4   9  18  32  49  70 100 137 174 209 244 291
#     4  10  18  32  52  75 101 135 170 204 250 305
#     4  10  20  34  50  71  98 134 172 208 251 302
#     4  10  20  32  50  75 101 130 166 211 257 299
#     4  11  21  33  49  73 101 130 169 215 258 295
#     4  11  21  34  51  73 101 134 173 216 256 292
#     4  11  21  36  52  70  99 138 179 211 249 302
#
# _framework density 15.941992000000001
#
# number of rings (size 3 to 8) (size 9 to 14) (size 15 to 20)
#    0.000    1.750    2.500    4.125    0.000    2.000 
#    0.000    1.875    0.000    0.000    0.000    0.875 
#    0.000    7.000    0.000    0.000    0.000    0.000 
#
# Total GULP energy -178674.594997 kJ/mol
# GULP energy per Si atom -5583.581094 kJ/mol
# Density = 1.590571 g / cm^3
# Si number density = 15.941992 Si / 1000 Ang^3
#
#
#
# Elastic Constant Matrix: (Units=GPa)
#
#
# Indices 1 2 3 4 5 6 
#
# 1 105.3554 16.5470 51.8984 0.0000 8.5782 0.0000
# 2 16.5470 30.2180 15.8550 0.0000 3.6803 0.0000
# 3 51.8984 15.8550 79.4138 0.0000 11.1182 0.0000
# 4 0.0000 0.0000 0.0000 22.7235 0.0000 -0.8720
# 5 8.5782 3.6803 11.1182 0.0000 23.9869 0.0000
# 6 0.0000 0.0000 0.0000 -0.8720 0.0000 22.8249
#
#
#
# Elastic Compliance Matrix: (Units=1/GPa)
#
#
# Indices 1 2 3 4 5 6 
#
# 1 0.014289 -0.003233 -0.008605 0.000000 -0.000625 0.000000
# 2 -0.003233 0.037827 -0.005121 0.000000 -0.002274 0.000000
# 3 -0.008605 -0.005121 0.019995 0.000000 -0.005405 0.000000
# 4 0.000000 0.000000 0.000000 0.044072 0.000000 0.001684
# 5 -0.000625 -0.002274 -0.005405 0.000000 0.044767 0.000000
# 6 0.000000 0.000000 0.000000 0.001684 0.000000 0.043876
#
#
# Mechanical properties :
#
#
# Convention : Reuss Voigt Hill
#
# Bulk Modulus (GPa) = 26.18302 42.62090 34.40196
# Shear Modulus (GPa) = 19.88255 22.61951 21.25103
#
# Velocity S-wave (km/s) = 3.53538 3.77087 3.65502
# Velocity P-wave (km/s) = 5.75541 6.76404 6.28001
#
# Compressibility (1/GPa) = 0.03819269
#
# Stress axis : x y z
#
# Youngs Moduli (GPa) = 69.98170 26.43597 50.01243
#
# Poissons Ratio (x) = 0.08548 0.43037
# Poissons Ratio (y) = 0.22628 0.25610
# Poissons Ratio (z) = 0.60221 0.13537
#
# Static dielectric constant tensor:
#      x y z
#    x 1.525500 0.000000 0.015270 
#    y 0.000000 1.531830 0.000000 
#    z 0.015270 0.000000 1.512830 
# 
# From -- ./inp_files/248231.got.cif
#   From: 2010.05.17/outbox.cif.g08.bks.cpg/sg12_125_cif.got.tgz:248231.got - 2010.06.03 13:09:07.
