data_PCOD9174337
_publ_section_title
;
Structure prediction by ZEFSAII (Michael W. Deem and Ramdas Pophale) SiO2 
 PCOD9174337
Probable space group: C 2/M
;
_chemical_formula_sum "Si O2"
_cell_formula_units_Z 52
_cell_length_a 11.546958
_cell_length_b 31.424213
_cell_length_c 8.195782
_cell_angle_alpha 90.000000
_cell_angle_beta 99.156614
_cell_angle_gamma 90.000000
_cell_volume 2935.976920
_symmetry_space_group_name_H-M "C 2/M"
_symmetry_group_IT_number 12
_symmetry_cell_setting 'monoclinic'
loop_
_space_group_symop_operation_xyz
x,y,z
-x,y,-z
-x,-y,-z
x,-y,z
1/2+x,1/2+y,z
1/2-x,1/2+y,-z
1/2-x,1/2-y,-z
1/2+x,1/2-y,z
loop_
_atom_site_type_symbol
_atom_site_label
_atom_site_fract_x
_atom_site_fract_y
_atom_site_fract_z
Si Si1 0.257029 0.549870 0.436356
Si Si2 0.000000 0.902705 0.500000
Si Si3 0.008630 0.841165 0.186561
Si Si4 0.031237 0.453798 0.193773
Si Si5 0.746061 0.305110 0.327232
Si Si6 0.108871 0.612265 0.633393
Si Si7 0.875304 0.217677 0.374711
O O1 0.264026 0.500000 0.484237
O O2 0.385443 0.569048 0.439921
O O3 0.168769 0.552834 0.262110
O O4 0.191442 0.579550 0.553202
O O5 0.023374 0.874374 0.341490
O O6 0.121374 0.810019 0.211454
O O7 0.900707 0.812593 0.227149
O O8 0.000000 0.858696 0.000000
O O9 0.002222 0.500000 0.266552
O O10 0.954067 0.416133 0.246547
O O11 0.000000 0.456557 0.000000
O O12 0.818037 0.347022 0.299162
O O13 0.819089 0.262477 0.312774
O O14 0.712180 0.303773 0.512969
O O15 0.000000 0.627985 0.500000
O O16 0.000000 0.223447 0.500000
#
# Coordination Sequence:
#
# PCOD9174337 Si02
#       7
#     8   4   8   8   8   8   8
#     4  10  20  35  59  83 109 153 192 231 285 339
#     4  12  21  42  58  82 120 154 194 238 277 342
#     4  11  22  37  57  81 111 151 187 231 285 336
#     4   9  19  35  54  80 114 146 182 234 289 338
#     4  10  18  34  56  79 109 144 183 227 281 330
#     4  10  18  31  54  82 106 139 186 230 274 334
#     4   9  18  35  56  79 107 146 184 226 280 339
#
# _framework density 17.711312
#
# number of rings (size 3 to 8) (size 9 to 14) (size 15 to 20)
#    0.000    2.000    3.846    1.154    0.000    3.692 
#    0.000    0.769    0.000    0.923    0.000    0.000 
#    0.000    0.000    0.000    0.000    0.000    0.000 
#
# Total GULP energy -144780.114797 kJ/mol
# GULP energy per Si atom -5568.465954 kJ/mol
# Density = 1.767100 g / cm^3
# Si number density = 17.711312 Si / 1000 Ang^3
#
#
#
# Elastic Constant Matrix: (Units=GPa)
#
#
# Indices 1 2 3 4 5 6 
#
# 1 84.3042 33.6641 10.2724 0.0000 3.1069 0.0000
# 2 33.6641 79.1294 17.4433 0.0000 5.1825 0.0000
# 3 10.2724 17.4433 67.6491 0.0000 0.1997 0.0000
# 4 0.0000 0.0000 0.0000 16.7985 0.0000 -4.1534
# 5 3.1069 5.1825 0.1997 0.0000 9.2688 0.0000
# 6 0.0000 0.0000 0.0000 -4.1534 0.0000 48.9496
#
#
#
# Elastic Compliance Matrix: (Units=1/GPa)
#
#
# Indices 1 2 3 4 5 6 
#
# 1 0.014336 -0.005853 -0.000663 0.000000 -0.001518 0.000000
# 2 -0.005853 0.016319 -0.003298 0.000000 -0.007092 0.000000
# 3 -0.000663 -0.003298 0.015728 0.000000 0.001728 0.000000
# 4 0.000000 0.000000 0.000000 0.060805 0.000000 0.005159
# 5 -0.001518 -0.007092 0.001728 0.000000 0.112325 0.000000
# 6 0.000000 0.000000 0.000000 0.005159 0.000000 0.020867
#
#
# Mechanical properties :
#
#
# Convention : Reuss Voigt Hill
#
# Bulk Modulus (GPa) = 37.37745 39.31582 38.34663
# Shear Modulus (GPa) = 18.59235 26.31692 22.45464
#
# Velocity S-wave (km/s) = 3.24349 3.85890 3.56450
# Velocity P-wave (km/s) = 5.93098 6.48854 6.21601
#
# Compressibility (1/GPa) = 0.02675410
#
# Stress axis : x y z
#
# Youngs Moduli (GPa) = 69.75502 61.27747 63.58015
#
# Poissons Ratio (x) = 0.35868 0.04216
# Poissons Ratio (y) = 0.40830 0.20970
# Poissons Ratio (z) = 0.04626 0.20210
#
# Static dielectric constant tensor:
#      x y z
#    x 1.617640 0.000000 0.005600 
#    y 0.000000 1.618750 0.000000 
#    z 0.005600 0.000000 1.614230 
# 
# From -- ./inp_files/52658.got.cif
#   From: 2010.05.17/outbox.cif.g08.bks.cpg/sg12_27_cif.got.tgz:52658.got - 2010.06.03 13:09:07.
