data_PCOD9174951
_publ_section_title
;
Structure prediction by ZEFSAII (Michael W. Deem and Ramdas Pophale) SiO2 
 PCOD9174951
Probable space group: C 2/M
;
_chemical_formula_sum "Si O2"
_cell_formula_units_Z 56
_cell_length_a 6.746701
_cell_length_b 24.881355
_cell_length_c 13.070066
_cell_angle_alpha 90.000000
_cell_angle_beta 104.602774
_cell_angle_gamma 90.000000
_cell_volume 2123.159645
_symmetry_space_group_name_H-M "C 2/M"
_symmetry_group_IT_number 12
_symmetry_cell_setting 'monoclinic'
loop_
_space_group_symop_operation_xyz
x,y,z
-x,y,-z
-x,-y,-z
x,-y,z
1/2+x,1/2+y,z
1/2-x,1/2+y,-z
1/2-x,1/2-y,-z
1/2+x,1/2-y,z
loop_
_atom_site_type_symbol
_atom_site_label
_atom_site_fract_x
_atom_site_fract_y
_atom_site_fract_z
Si Si1 0.872994 0.751667 0.713353
Si Si2 0.504823 0.941082 0.767737
Si Si3 0.929278 0.061053 0.167381
Si Si4 0.290676 0.118978 0.036982
Si Si5 0.207344 0.265881 0.877802
Si Si6 0.369942 0.626614 0.638399
Si Si7 0.314321 0.859822 0.596381
O O1 0.938960 0.743845 0.851790
O O2 0.846115 0.813160 0.675536
O O3 0.842600 0.703243 0.626643
O O4 0.138109 0.751261 0.745060
O O5 0.284988 0.940837 0.797841
O O6 0.661490 0.929870 0.880558
O O7 0.479873 0.893675 0.682142
O O8 0.532628 0.000000 0.725095
O O9 0.100549 0.083272 0.267520
O O10 0.966665 0.000000 0.137918
O O11 0.876871 0.102901 0.069582
O O12 0.262767 0.169706 0.107458
O O13 0.500000 0.129667 0.000000
O O14 0.250000 0.250000 0.000000
O O15 0.212588 0.623001 0.524277
O O16 0.594973 0.625846 0.616433
#
# Coordination Sequence:
#
# PCOD9174951 Si02
#       7
#     8   8   8   8   8   8   8
#     4  12  22  40  56  85 119 153 195 233 286 344
#     4   9  17  30  53  83 112 143 186 239 291 336
#     4   9  18  32  54  83 113 147 188 237 290 338
#     4  10  18  32  54  81 115 148 187 235 287 345
#     4  12  24  35  58  85 119 155 188 232 286 346
#     4  10  21  36  57  81 114 153 194 237 284 341
#     4  10  20  36  56  83 115 150 193 240 286 336
#
# _framework density 26.375782000000001
#
# number of rings (size 3 to 8) (size 9 to 14) (size 15 to 20)
#    0.000    1.714    2.857    3.000    2.000    2.286 
#    0.000    2.857    0.000    2.571    0.000    1.000 
#    0.000    0.000    0.000    0.000    0.000    0.000 
#
# Total GULP energy -156620.954197 kJ/mol
# GULP energy per Si atom -5593.605507 kJ/mol
# Density = 2.631575 g / cm^3
# Si number density = 26.375782 Si / 1000 Ang^3
#
#
#
# Elastic Constant Matrix: (Units=GPa)
#
#
# Indices 1 2 3 4 5 6 
#
# 1 148.9696 9.3596 48.7658 0.0000 11.0878 0.0000
# 2 9.3596 152.6607 56.5955 0.0000 -2.1168 0.0000
# 3 48.7658 56.5955 166.5550 0.0000 18.0269 0.0000
# 4 0.0000 0.0000 0.0000 23.3888 0.0000 4.8313
# 5 11.0878 -2.1168 18.0269 0.0000 61.2368 0.0000
# 6 0.0000 0.0000 0.0000 4.8313 0.0000 34.9919
#
#
#
# Elastic Compliance Matrix: (Units=1/GPa)
#
#
# Indices 1 2 3 4 5 6 
#
# 1 0.007473 0.000362 -0.002237 0.000000 -0.000682 0.000000
# 2 0.000362 0.007577 -0.002791 0.000000 0.001018 0.000000
# 3 -0.002237 -0.002791 0.007823 0.000000 -0.001994 0.000000
# 4 0.000000 0.000000 0.000000 0.044011 0.000000 -0.006076
# 5 -0.000682 0.001018 -0.001994 0.000000 0.017076 0.000000
# 6 0.000000 0.000000 0.000000 -0.006076 0.000000 0.029417
#
#
# Mechanical properties :
#
#
# Convention : Reuss Voigt Hill
#
# Bulk Modulus (GPa) = 73.84976 77.51410 75.68193
# Shear Modulus (GPa) = 39.30105 47.48778 43.39442
#
# Velocity S-wave (km/s) = 3.86430 4.24775 4.06055
# Velocity P-wave (km/s) = 6.92605 7.31505 7.12321
#
# Compressibility (1/GPa) = 0.01354100
#
# Stress axis : x y z
#
# Youngs Moduli (GPa) = 133.81213 131.97785 127.82465
#
# Poissons Ratio (x) = -0.04774 0.28597
# Poissons Ratio (y) = -0.04841 0.35673
# Poissons Ratio (z) = 0.29936 0.36832
#
# Static dielectric constant tensor:
#      x y z
#    x 2.314700 0.000000 0.018390 
#    y 0.000000 2.124290 0.000000 
#    z 0.018390 0.000000 2.113370 
# 
# From -- ./inp_files/198964.got.cif
#   From: 2010.05.17/outbox.cif.g08.bks.cpg/sg12_100_cif.got.tgz:198964.got - 2010.06.03 13:09:07.
