data_PCOD9174580
_publ_section_title
;
Structure prediction by ZEFSAII (Michael W. Deem and Ramdas Pophale) SiO2 
 PCOD9174580
Probable space group: C 2/M
;
_chemical_formula_sum "Si O2"
_cell_formula_units_Z 42
_cell_length_a 18.214003
_cell_length_b 14.679020
_cell_length_c 15.347662
_cell_angle_alpha 90.000000
_cell_angle_beta 25.070049
_cell_angle_gamma 90.000000
_cell_volume 1738.720560
_symmetry_space_group_name_H-M "C 2/M"
_symmetry_group_IT_number 12
_symmetry_cell_setting 'monoclinic'
loop_
_space_group_symop_operation_xyz
x,y,z
-x,y,-z
-x,-y,-z
x,-y,z
1/2+x,1/2+y,z
1/2-x,1/2+y,-z
1/2-x,1/2-y,-z
1/2+x,1/2-y,z
loop_
_atom_site_type_symbol
_atom_site_label
_atom_site_fract_x
_atom_site_fract_y
_atom_site_fract_z
Si Si1 0.201926 0.624698 0.785720
Si Si2 0.500000 0.500000 0.500000
Si Si3 0.752259 0.644530 0.964589
Si Si4 0.807112 0.158178 0.176757
Si Si5 0.387924 0.363053 0.410687
Si Si6 0.127169 0.356578 0.542933
O O1 0.349911 0.578039 0.683960
O O2 0.201028 0.731906 0.806583
O O3 0.280882 0.600846 0.606514
O O4 0.000000 0.598004 0.000000
O O5 0.726138 0.637533 0.888204
O O6 0.944147 0.607590 0.774141
O O7 0.750000 0.750000 0.000000
O O8 0.583103 0.604240 0.191102
O O9 0.670823 0.123426 0.395510
O O10 0.000000 0.130224 0.000000
O O11 0.286472 0.384536 0.431567
O O12 0.385512 0.253459 0.429888
#
# Coordination Sequence:
#
# PCOD9174580 Si02
#       6
#     8   2   8   8   8   8
#     4  10  24  37  55  71 101 140 187 228 266 298
#     4  12  26  40  56  70  92 142 202 238 260 300
#     4  10  19  26  46  73 106 136 174 202 245 323
#     4  10  18  32  49  75 110 147 173 204 262 312
#     4   9  18  32  46  74  99 131 170 214 258 308
#     4   9  17  27  46  68 105 134 168 200 245 320
#
# _framework density 24.155692999999999
#
# number of rings (size 3 to 8) (size 9 to 14) (size 15 to 20)
#    0.000    2.286    1.905    0.857   16.000    0.000 
#    0.000    0.000    0.000    0.000    0.000    0.000 
#    0.000    3.048    0.000   10.857    0.381    0.571 
#
# Total GULP energy -117039.729916 kJ/mol
# GULP energy per Si atom -5573.320472 kJ/mol
# Density = 2.410071 g / cm^3
# Si number density = 24.155693 Si / 1000 Ang^3
#
#
#
# Elastic Constant Matrix: (Units=GPa)
#
#
# Indices 1 2 3 4 5 6 
#
# 1 114.6134 -10.5901 51.1092 -0.0015 15.0850 0.0007
# 2 -10.5901 56.4712 13.3258 -0.0076 -4.0921 0.0042
# 3 51.1092 13.3258 260.1297 -0.0105 -14.2842 0.0057
# 4 -0.0015 -0.0076 -0.0105 -45.0935 0.0056 18.5431
# 5 15.0850 -4.0921 -14.2842 0.0056 45.5920 -0.0026
# 6 0.0007 0.0042 0.0057 18.5431 -0.0026 -18.6590
#
#
#
# Elastic Compliance Matrix: (Units=1/GPa)
#
#
# Indices 1 2 3 4 5 6 
#
# 1 0.010538 0.002252 -0.002408 -0.000001 -0.004039 0.000000
# 2 0.002252 0.018487 -0.001363 -0.000002 0.000487 0.000002
# 3 -0.002408 -0.001363 0.004502 0.000000 0.002085 0.000000
# 4 -0.000001 -0.000002 0.000000 -0.037502 0.000002 -0.037269
# 5 -0.004039 0.000487 0.002085 0.000002 0.023967 0.000000
# 6 0.000000 0.000002 0.000000 -0.037269 0.000000 -0.090631
#
#
# Mechanical properties :
#
#
# Convention : Reuss Voigt Hill
#
# Bulk Modulus (GPa) = 32.79777 59.87823 46.33800
# Shear Modulus (GPa) = -87.05058 21.52588 -32.76235
#
# Velocity S-wave (km/s) = -6.00962 2.98842 -3.68679
# Velocity P-wave (km/s) = 5.87766 6.06216 1.04950
#
# Compressibility (1/GPa) = 0.03048988
#
# Stress axis : x y z
#
# Youngs Moduli (GPa) = 94.89216 54.09115 222.14509
#
# Poissons Ratio (x) = -0.12180 0.53485
# Poissons Ratio (y) = -0.21367 0.30272
# Poissons Ratio (z) = 0.22847 0.07371
#
# Static dielectric constant tensor:
#      x y z
#    x 2.066070 0.000000 0.025770 
#    y 0.000000 1.941900 0.000000 
#    z 0.025770 0.000000 1.900840 
# 
# From -- ./inp_files/61296.got.cif
#   From: 2010.05.17/outbox.cif.g08.bks.cpg/sg12_31_cif.got.tgz:61296.got - 2010.06.03 13:09:07.
