data_PCOD9174855
_publ_section_title
;
Structure prediction by ZEFSAII (Michael W. Deem and Ramdas Pophale) SiO2 
 PCOD9174855
Probable space group: C 2/M
;
_chemical_formula_sum "Si O2"
_cell_formula_units_Z 48
_cell_length_a 19.747051
_cell_length_b 10.379833
_cell_length_c 17.795979
_cell_angle_alpha 90.000000
_cell_angle_beta 136.919570
_cell_angle_gamma 90.000000
_cell_volume 2491.441409
_symmetry_space_group_name_H-M "C 2/M"
_symmetry_group_IT_number 12
_symmetry_cell_setting 'monoclinic'
loop_
_space_group_symop_operation_xyz
x,y,z
-x,y,-z
-x,-y,-z
x,-y,z
1/2+x,1/2+y,z
1/2-x,1/2+y,-z
1/2-x,1/2-y,-z
1/2+x,1/2-y,z
loop_
_atom_site_type_symbol
_atom_site_label
_atom_site_fract_x
_atom_site_fract_y
_atom_site_fract_z
Si Si1 0.751609 0.274028 0.387656
Si Si2 0.893781 0.750452 0.200543
Si Si3 0.108720 0.140053 0.391389
Si Si4 0.335917 0.500000 0.320935
Si Si5 0.155366 0.500000 0.271813
Si Si6 0.924365 0.500000 0.121999
Si Si7 0.780594 0.000000 0.107517
Si Si8 0.105085 0.717484 0.620086
O O1 0.845695 0.247138 0.517253
O O2 0.675353 0.360438 0.370999
O O3 0.696013 0.134670 0.338692
O O4 0.798358 0.327935 0.348762
O O5 0.904913 0.625252 0.157850
O O6 0.816473 0.858962 0.107843
O O7 0.881564 0.706524 0.278857
O O8 0.998067 0.824073 0.283049
O O9 0.113205 0.000000 0.432250
O O10 0.218995 0.500000 0.246673
O O11 0.335286 0.500000 0.231593
O O12 0.387637 0.371149 0.390349
O O13 0.036614 0.500000 0.181006
O O14 0.837956 0.500000 0.989753
O O15 0.000000 0.670586 0.500000
#
# Coordination Sequence:
#
# PCOD9174855 Si02
#       8
#     8   8   8   4   4   4   4   8
#     4  10  20  33  51  81 117 152 178 223 276 335
#     4  11  22  38  60  86 111 148 192 231 282 336
#     4  11  20  33  55  80 114 150 193 224 269 342
#     4   8  19  31  56  84 107 137 192 236 279 332
#     4  10  18  33  54  81 111 142 178 226 294 326
#     4  12  24  39  57  81 118 148 185 250 284 321
#     4  10  22  41  62  82 104 147 200 242 285 319
#     4  10  18  32  53  82 115 150 180 222 275 337
#
# _framework density 19.265955000000002
#
# number of rings (size 3 to 8) (size 9 to 14) (size 15 to 20)
#    0.000    1.667    5.000    0.750    0.000    0.333 
#    1.500    0.417    0.000    0.000    0.000    1.167 
#    0.000    0.000    0.000    0.000    0.000    0.000 
#
# Total GULP energy -133627.630576 kJ/mol
# GULP energy per Si atom -5567.817941 kJ/mol
# Density = 1.922210 g / cm^3
# Si number density = 19.265955 Si / 1000 Ang^3
#
#
#
# Elastic Constant Matrix: (Units=GPa)
#
#
# Indices 1 2 3 4 5 6 
#
# 1 79.1236 15.1755 25.9088 0.0000 9.2233 0.0000
# 2 15.1755 64.9816 6.6638 0.0000 5.3636 0.0000
# 3 25.9088 6.6638 59.2991 0.0000 28.7557 0.0000
# 4 0.0000 0.0000 0.0000 10.9639 0.0000 -7.8739
# 5 9.2233 5.3636 28.7557 0.0000 31.4117 0.0000
# 6 0.0000 0.0000 0.0000 -7.8739 0.0000 13.8092
#
#
#
# Elastic Compliance Matrix: (Units=1/GPa)
#
#
# Indices 1 2 3 4 5 6 
#
# 1 0.015467 -0.003064 -0.008029 0.000000 0.003332 0.000000
# 2 -0.003064 0.016239 0.000759 0.000000 -0.002568 0.000000
# 3 -0.008029 0.000759 0.034539 0.000000 -0.029390 0.000000
# 4 0.000000 0.000000 0.000000 0.154459 0.000000 0.088072
# 5 0.003332 -0.002568 -0.029390 0.000000 0.058201 0.000000
# 6 0.000000 0.000000 0.000000 0.088072 0.000000 0.122633
#
#
# Mechanical properties :
#
#
# Convention : Reuss Voigt Hill
#
# Bulk Modulus (GPa) = 21.94120 33.21116 27.57618
# Shear Modulus (GPa) = 11.43129 21.61404 16.52266
#
# Velocity S-wave (km/s) = 2.43850 3.35308 2.93167
# Velocity P-wave (km/s) = 4.39792 5.68036 5.07977
#
# Compressibility (1/GPa) = 0.04557636
#
# Stress axis : x y z
#
# Youngs Moduli (GPa) = 64.65469 61.58172 28.95319
#
# Poissons Ratio (x) = 0.18867 0.23247
# Poissons Ratio (y) = 0.19808 -0.02198
# Poissons Ratio (z) = 0.51912 -0.04674
#
# Static dielectric constant tensor:
#      x y z
#    x 1.724190 0.000000 -0.023040 
#    y 0.000000 1.746490 0.000000 
#    z -0.023040 0.000000 1.643130 
# 
# From -- ./inp_files/276758.got.cif
#   From: 2010.05.17/outbox.cif.g08.bks.cpg/sg12_139_cif.got.tgz:276758.got - 2010.06.03 13:09:07.
