data_PCOD9174724
_publ_section_title
;
Structure prediction by ZEFSAII (Michael W. Deem and Ramdas Pophale) SiO2 
 PCOD9174724
Probable space group: C 2/M
;
_chemical_formula_sum "Si O2"
_cell_formula_units_Z 56
_cell_length_a 21.036679
_cell_length_b 7.471210
_cell_length_c 23.733828
_cell_angle_alpha 90.000000
_cell_angle_beta 46.623877
_cell_angle_gamma 90.000000
_cell_volume 2711.360379
_symmetry_space_group_name_H-M "C 2/M"
_symmetry_group_IT_number 12
_symmetry_cell_setting 'monoclinic'
loop_
_space_group_symop_operation_xyz
x,y,z
-x,y,-z
-x,-y,-z
x,-y,z
1/2+x,1/2+y,z
1/2-x,1/2+y,-z
1/2-x,1/2-y,-z
1/2+x,1/2-y,z
loop_
_atom_site_type_symbol
_atom_site_label
_atom_site_fract_x
_atom_site_fract_y
_atom_site_fract_z
Si Si1 0.021878 0.291580 0.328276
Si Si2 0.943950 0.719339 0.257131
Si Si3 0.238483 0.717702 0.917864
Si Si4 0.219147 0.205151 0.230074
Si Si5 0.573472 0.283694 0.500025
Si Si6 0.753195 0.280557 0.334472
Si Si7 0.893796 0.289413 0.909516
O O1 0.042623 0.500000 0.306975
O O2 0.114015 0.204061 0.288192
O O3 0.979858 0.222589 0.296101
O O4 0.955368 0.273994 0.420499
O O5 0.944375 0.500000 0.256982
O O6 0.845416 0.774977 0.304320
O O7 0.013251 0.781259 0.167792
O O8 0.237448 0.500000 0.917776
O O9 0.243840 0.783632 0.850615
O O10 0.325544 0.769100 0.899397
O O11 0.156527 0.782666 0.005025
O O12 0.243520 0.282761 0.275820
O O13 0.250413 0.000000 0.212447
O O14 0.500000 0.223750 0.500000
O O15 0.572912 0.500000 0.499937
O O16 0.668646 0.223567 0.421556
O O17 0.751082 0.500000 0.335024
O O18 0.905896 0.500000 0.912499
#
# Coordination Sequence:
#
# PCOD9174724 Si02
#       7
#     8   8   8   8   8   8   8
#     4  11  21  32  51  76 101 128 162 205 250 292
#     4   9  18  32  49  72 102 135 163 195 247 300
#     4   9  17  27  47  76 100 124 163 207 239 278
#     4  10  18  32  52  75  98 128 170 206 239 286
#     4  10  19  34  54  75  96 128 169 204 243 291
#     4   9  18  33  52  70  97 134 167 199 243 298
#     4   9  16  29  47  71 102 131 159 196 245 293
#
# _framework density 20.653839000000001
#
# number of rings (size 3 to 8) (size 9 to 14) (size 15 to 20)
#    0.000    2.429    2.857    0.429    0.000    0.857 
#    0.000    0.714    0.000    8.571    0.000    0.000 
#    0.000    5.714    0.000    0.000    0.000    0.000 
#
# Total GULP energy -156300.339229 kJ/mol
# GULP energy per Si atom -5582.154972 kJ/mol
# Density = 2.060683 g / cm^3
# Si number density = 20.653839 Si / 1000 Ang^3
#
#
#
# Elastic Constant Matrix: (Units=GPa)
#
#
# Indices 1 2 3 4 5 6 
#
# 1 93.9543 -7.0029 49.8454 -0.0006 -8.5265 0.0007
# 2 -7.0029 58.5915 -5.9769 -0.0025 -1.9164 0.0094
# 3 49.8454 -5.9769 151.6600 -0.0014 -2.0176 0.0006
# 4 -0.0006 -0.0025 -0.0014 -52.8166 0.0013 30.1365
# 5 -8.5265 -1.9164 -2.0176 0.0013 36.7264 -0.0008
# 6 0.0007 0.0094 0.0006 30.1365 -0.0008 -3.4581
#
#
#
# Elastic Compliance Matrix: (Units=1/GPa)
#
#
# Indices 1 2 3 4 5 6 
#
# 1 0.013267 0.001245 -0.004273 -0.000001 0.002910 -0.000001
# 2 0.001245 0.017285 0.000288 -0.000007 0.001207 -0.000010
# 3 -0.004273 0.000288 0.008002 0.000000 -0.000537 0.000000
# 4 -0.000001 -0.000007 0.000000 0.004766 0.000000 0.041535
# 5 0.002910 0.001207 -0.000537 0.000000 0.027938 -0.000001
# 6 -0.000001 -0.000010 0.000000 0.041535 -0.000001 0.072794
#
#
# Mechanical properties :
#
#
# Convention : Reuss Voigt Hill
#
# Bulk Modulus (GPa) = 30.23416 41.99300 36.11358
# Shear Modulus (GPa) = 31.14176 13.91302 22.52739
#
# Velocity S-wave (km/s) = 3.88725 2.59825 3.30618
# Velocity P-wave (km/s) = 5.90067 5.42007 5.66547
#
# Compressibility (1/GPa) = 0.03307517
#
# Stress axis : x y z
#
# Youngs Moduli (GPa) = 75.37405 57.85370 124.96592
#
# Poissons Ratio (x) = -0.07203 0.53394
# Poissons Ratio (y) = -0.09384 -0.03600
# Poissons Ratio (z) = 0.32205 -0.01667
#
# Static dielectric constant tensor:
#      x y z
#    x 1.684230 0.000000 0.010450 
#    y 0.000000 1.794230 0.000000 
#    z 0.010450 0.000000 1.741250 
# 
# From -- ./inp_files/280366.got.cif
#   From: 2010.05.17/outbox.cif.g08.bks.cpg/sg12_141_cif.got.tgz:280366.got - 2010.06.03 13:09:07.
