data_PCOD9174108
_publ_section_title
;
Structure prediction by ZEFSAII (Michael W. Deem and Ramdas Pophale) SiO2 
 PCOD9174108
Probable space group: C 2/M
;
_chemical_formula_sum "Si O2"
_cell_formula_units_Z 56
_cell_length_a 28.859211
_cell_length_b 13.565173
_cell_length_c 11.302096
_cell_angle_alpha 90.000000
_cell_angle_beta 130.879699
_cell_angle_gamma 90.000000
_cell_volume 3345.335192
_symmetry_space_group_name_H-M "C 2/M"
_symmetry_group_IT_number 12
_symmetry_cell_setting 'monoclinic'
loop_
_space_group_symop_operation_xyz
x,y,z
-x,y,-z
-x,-y,-z
x,-y,z
1/2+x,1/2+y,z
1/2-x,1/2+y,-z
1/2-x,1/2-y,-z
1/2+x,1/2-y,z
loop_
_atom_site_type_symbol
_atom_site_label
_atom_site_fract_x
_atom_site_fract_y
_atom_site_fract_z
Si Si1 0.227603 0.615856 0.560148
Si Si2 0.348823 0.288409 0.659031
Si Si3 0.460683 0.613854 0.281925
Si Si4 0.601788 0.383462 0.495358
Si Si5 0.766358 0.617262 0.147000
Si Si6 0.656180 0.706157 0.809953
Si Si7 0.436248 0.609017 0.962742
O O1 0.218164 0.500000 0.530926
O O2 0.287837 0.650824 0.590532
O O3 0.172656 0.680041 0.413808
O O4 0.235393 0.636504 0.714198
O O5 0.383465 0.333935 0.604566
O O6 0.392845 0.304859 0.844098
O O7 0.448771 0.500000 0.304335
O O8 0.532015 0.638313 0.420312
O O9 0.411288 0.689557 0.250034
O O10 0.450150 0.612936 0.123775
O O11 0.604830 0.500000 0.485296
O O12 0.650508 0.347950 0.673860
O O13 0.774103 0.500000 0.143216
O O14 0.819516 0.684238 0.176937
O O15 0.704160 0.653388 0.978411
O O16 0.407931 0.500000 0.890039
O O17 0.500000 0.613235 0.000000
#
# Coordination Sequence:
#
# PCOD9174108 Si02
#       7
#     8   8   8   8   8   8   8
#     4  10  21  37  56  76 103 140 181 218 258 311
#     4  11  20  33  55  81 105 136 175 216 265 309
#     4  10  20  33  53  79 111 143 170 209 265 321
#     4  11  20  32  51  82 113 137 167 216 267 315
#     4  10  21  38  56  74 104 144 181 218 256 307
#     4  11  21  34  54  79 105 141 178 213 262 311
#     4  10  18  31  52  79 108 138 169 206 257 319
#
# _framework density 16.739727999999999
#
# number of rings (size 3 to 8) (size 9 to 14) (size 15 to 20)
#    0.000    1.571    2.857    3.857    0.000    3.429 
#    0.000    0.000    0.000    3.000    0.000    0.000 
#    0.000    0.000    0.000    0.000    0.000    0.000 
#
# Total GULP energy -156208.276504 kJ/mol
# GULP energy per Si atom -5578.867018 kJ/mol
# Density = 1.670163 g / cm^3
# Si number density = 16.739728 Si / 1000 Ang^3
#
#
#
# Elastic Constant Matrix: (Units=GPa)
#
#
# Indices 1 2 3 4 5 6 
#
# 1 69.4588 41.1738 6.5316 0.0000 4.2865 0.0000
# 2 41.1738 97.4734 40.2573 0.0000 9.2178 0.0000
# 3 6.5316 40.2573 91.5188 0.0000 2.5402 0.0000
# 4 0.0000 0.0000 0.0000 27.7096 0.0000 -0.7353
# 5 4.2865 9.2178 2.5402 0.0000 21.8548 0.0000
# 6 0.0000 0.0000 0.0000 -0.7353 0.0000 22.2136
#
#
#
# Elastic Compliance Matrix: (Units=1/GPa)
#
#
# Indices 1 2 3 4 5 6 
#
# 1 0.019763 -0.009469 0.002760 0.000000 -0.000203 0.000000
# 2 -0.009469 0.017566 -0.006919 0.000000 -0.004747 0.000000
# 3 0.002760 -0.006919 0.013752 0.000000 0.000779 0.000000
# 4 0.000000 0.000000 0.000000 0.036120 0.000000 0.001196
# 5 -0.000203 -0.004747 0.000779 0.000000 0.047708 0.000000
# 6 0.000000 0.000000 0.000000 0.001196 0.000000 0.045057
#
#
# Mechanical properties :
#
#
# Convention : Reuss Voigt Hill
#
# Bulk Modulus (GPa) = 41.97305 48.26402 45.11854
# Shear Modulus (GPa) = 23.23822 25.72151 24.47986
#
# Velocity S-wave (km/s) = 3.72991 3.92414 3.82826
# Velocity P-wave (km/s) = 6.60893 7.03040 6.82292
#
# Compressibility (1/GPa) = 0.02382481
#
# Stress axis : x y z
#
# Youngs Moduli (GPa) = 50.59966 56.92947 72.71818
#
# Poissons Ratio (x) = 0.53906 -0.20073
# Poissons Ratio (y) = 0.47912 0.50315
# Poissons Ratio (z) = -0.13967 0.39391
#
# Static dielectric constant tensor:
#      x y z
#    x 1.578680 0.000000 -0.009870 
#    y 0.000000 1.538780 0.000000 
#    z -0.009870 0.000000 1.581290 
# 
# From -- ./inp_files/164832.got.cif
#   From: 2010.05.17/outbox.cif.g08.bks.cpg/sg12_83_cif.got.tgz:164832.got - 2010.06.03 13:09:07.
