data_PCOD9174900
_publ_section_title
;
Structure prediction by ZEFSAII (Michael W. Deem and Ramdas Pophale) SiO2 
 PCOD9174900
Probable space group: C 2/M
;
_chemical_formula_sum "Si O2"
_cell_formula_units_Z 36
_cell_length_a 27.093622
_cell_length_b 9.734635
_cell_length_c 24.097648
_cell_angle_alpha 90.000000
_cell_angle_beta 165.650170
_cell_angle_gamma 90.000000
_cell_volume 1575.200070
_symmetry_space_group_name_H-M "C 2/M"
_symmetry_group_IT_number 12
_symmetry_cell_setting 'monoclinic'
loop_
_space_group_symop_operation_xyz
x,y,z
-x,y,-z
-x,-y,-z
x,-y,z
1/2+x,1/2+y,z
1/2-x,1/2+y,-z
1/2-x,1/2-y,-z
1/2+x,1/2-y,z
loop_
_atom_site_type_symbol
_atom_site_label
_atom_site_fract_x
_atom_site_fract_y
_atom_site_fract_z
Si Si1 0.943767 0.647278 0.002465
Si Si2 0.529458 0.656938 0.872200
Si Si3 0.458403 0.168497 0.219346
Si Si4 0.516423 0.153675 0.402560
Si Si5 0.500000 0.294865 0.500000
O O1 0.025499 0.500000 0.111900
O O2 0.011614 0.774182 0.113280
O O3 0.704009 0.638386 0.742814
O O4 0.000000 0.662203 0.000000
O O5 0.457946 0.500000 0.786615
O O6 0.773019 0.650405 0.136233
O O7 0.464012 0.761454 0.752414
O O8 0.569790 0.203089 0.398547
O O9 0.437898 0.000000 0.193266
O O10 0.250000 0.250000 0.000000
O O11 0.569498 0.221229 0.518764
O O12 0.592815 0.000000 0.489235
#
# Coordination Sequence:
#
# PCOD9174900 Si02
#       5
#     8   8   8   8   4
#     4  10  21  36  54  78 107 137 170 212 262 313
#     4   9  17  30  48  72 101 135 176 218 261 308
#     4   9  15  25  43  70 103 138 176 216 261 310
#     4   8  15  26  44  72 104 137 170 210 259 304
#     4  10  18  32  54  78 105 138 175 210 253 312
#
# _framework density 22.854239
#
# number of rings (size 3 to 8) (size 9 to 14) (size 15 to 20)
#    0.000    2.889    0.000    3.333    0.000    1.333 
#    0.000    3.333    0.000    1.333    0.000    0.000 
#    0.000    0.000    0.000    0.000    0.000    0.000 
#
# Total GULP energy -100225.388899 kJ/mol
# GULP energy per Si atom -5568.077161 kJ/mol
# Density = 2.280222 g / cm^3
# Si number density = 22.854239 Si / 1000 Ang^3
#
#
#
# Elastic Constant Matrix: (Units=GPa)
#
#
# Indices 1 2 3 4 5 6 
#
# 1 146.5665 88.7664 -5.6819 -0.0021 -30.8340 0.0059
# 2 88.7664 146.5235 26.7080 0.0084 -30.0193 -0.0096
# 3 -5.6819 26.7080 76.7303 -0.0051 -4.4137 0.0062
# 4 -0.0021 0.0084 -0.0051 -23.4554 0.0023 53.8583
# 5 -30.8340 -30.0193 -4.4137 0.0023 38.0076 -0.0019
# 6 0.0059 -0.0096 0.0062 53.8583 -0.0019 -94.2698
#
#
#
# Elastic Compliance Matrix: (Units=1/GPa)
#
#
# Indices 1 2 3 4 5 6 
#
# 1 0.012290 -0.007139 0.003669 0.000001 0.004757 0.000002
# 2 -0.007139 0.012788 -0.004764 -0.000005 0.003755 -0.000005
# 3 0.003669 -0.004764 0.015018 0.000004 0.000958 0.000004
# 4 0.000001 -0.000005 0.000004 0.136706 -0.000008 0.078103
# 5 0.004757 0.003755 0.000958 -0.000008 0.033247 -0.000005
# 6 0.000002 -0.000005 0.000004 0.078103 -0.000005 0.034014
#
#
# Mechanical properties :
#
#
# Convention : Reuss Voigt Hill
#
# Bulk Modulus (GPa) = 42.32583 65.48948 53.90765
# Shear Modulus (GPa) = 18.62850 1.39166 10.01008
#
# Velocity S-wave (km/s) = 2.85809 0.78118 2.09511
# Velocity P-wave (km/s) = 5.42694 5.43426 5.43060
#
# Compressibility (1/GPa) = 0.02362624
#
# Stress axis : x y z
#
# Youngs Moduli (GPa) = 81.36803 78.20047 66.58863
#
# Poissons Ratio (x) = 0.55831 -0.24430
# Poissons Ratio (y) = 0.58092 0.31721
# Poissons Ratio (z) = -0.29852 0.37253
#
# Static dielectric constant tensor:
#      x y z
#    x 1.885960 0.000000 0.050290 
#    y 0.000000 1.830070 0.000000 
#    z 0.050290 0.000000 1.959780 
# 
# From -- ./inp_files/101272.got.cif
#   From: 2010.05.17/outbox.cif.g08.bks.cpg/sg12_51_cif.got.tgz:101272.got - 2010.06.03 13:09:07.
