data_PCOD9174649
_publ_section_title
;
Structure prediction by ZEFSAII (Michael W. Deem and Ramdas Pophale) SiO2 
 PCOD9174649
Probable space group: C 2/M
;
_chemical_formula_sum "Si O2"
_cell_formula_units_Z 48
_cell_length_a 20.150134
_cell_length_b 9.116751
_cell_length_c 16.707578
_cell_angle_alpha 90.000000
_cell_angle_beta 114.467219
_cell_angle_gamma 90.000000
_cell_volume 2793.621657
_symmetry_space_group_name_H-M "C 2/M"
_symmetry_group_IT_number 12
_symmetry_cell_setting 'monoclinic'
loop_
_space_group_symop_operation_xyz
x,y,z
-x,y,-z
-x,-y,-z
x,-y,z
1/2+x,1/2+y,z
1/2-x,1/2+y,-z
1/2-x,1/2-y,-z
1/2+x,1/2-y,z
loop_
_atom_site_type_symbol
_atom_site_label
_atom_site_fract_x
_atom_site_fract_y
_atom_site_fract_z
Si Si1 0.429541 0.826503 0.258514
Si Si2 0.796625 0.825048 0.453721
Si Si3 0.707009 0.168908 0.095736
Si Si4 0.362969 0.668297 0.080334
Si Si5 0.550888 0.828085 0.447210
Si Si6 0.277463 0.825619 0.275710
O O1 0.418513 0.737656 0.171585
O O2 0.501086 0.792237 0.345667
O O3 0.358529 0.800400 0.279149
O O4 0.429419 0.000000 0.240352
O O5 0.750000 0.750000 0.500000
O O6 0.879877 0.774582 0.508691
O O7 0.772345 0.759975 0.356083
O O8 0.789546 0.000000 0.451467
O O9 0.784495 0.170551 0.086837
O O10 0.721321 0.263816 0.181985
O O11 0.690253 0.000000 0.106153
O O12 0.649033 0.239025 0.006028
O O13 0.380344 0.500000 0.070873
O O14 0.500000 0.816232 0.500000
O O15 0.573853 0.000000 0.453512
O O16 0.269059 0.000000 0.282941
#
# Coordination Sequence:
#
# PCOD9174649 Si02
#       6
#     8   8   8   8   8   8
#     4   9  17  29  49  73 102 137 170 209 261 315
#     4  12  25  39  55  77 106 141 181 224 267 314
#     4   9  16  26  41  65  97 133 171 210 257 311
#     4   9  16  25  39  64  99 134 169 211 256 304
#     4  10  19  36  57  79 106 140 177 217 268 320
#     4  10  18  32  51  73 101 136 174 214 264 315
#
# _framework density 17.181998
#
# number of rings (size 3 to 8) (size 9 to 14) (size 15 to 20)
#    0.000    2.167    1.667    3.000    0.000    5.667 
#    0.000    0.000    0.000    0.000    0.000    1.167 
#    0.000    9.333    0.000    0.000    0.000    0.000 
#
# Total GULP energy -133902.908330 kJ/mol
# GULP energy per Si atom -5579.287847 kJ/mol
# Density = 1.714289 g / cm^3
# Si number density = 17.181998 Si / 1000 Ang^3
#
#
#
# Elastic Constant Matrix: (Units=GPa)
#
#
# Indices 1 2 3 4 5 6 
#
# 1 26.1416 35.9051 30.7727 0.0000 -5.4724 0.0000
# 2 35.9051 130.9978 89.6210 0.0000 -4.4861 0.0000
# 3 30.7727 89.6210 149.7946 0.0000 7.1145 0.0000
# 4 0.0000 0.0000 0.0000 37.0835 0.0000 2.5172
# 5 -5.4724 -4.4861 7.1145 0.0000 10.8883 0.0000
# 6 0.0000 0.0000 0.0000 2.5172 0.0000 17.5293
#
#
#
# Elastic Compliance Matrix: (Units=1/GPa)
#
#
# Indices 1 2 3 4 5 6 
#
# 1 0.075217 -0.012600 -0.009766 0.000000 0.038993 0.000000
# 2 -0.012600 0.016369 -0.007456 0.000000 0.005283 0.000000
# 3 -0.009766 -0.007456 0.013955 0.000000 -0.017098 0.000000
# 4 0.000000 0.000000 0.000000 0.027232 0.000000 -0.003910
# 5 0.038993 0.005283 -0.017098 0.000000 0.124788 0.000000
# 6 0.000000 0.000000 0.000000 -0.003910 0.000000 0.057609
#
#
# Mechanical properties :
#
#
# Convention : Reuss Voigt Hill
#
# Bulk Modulus (GPa) = 21.78733 68.83685 45.31209
# Shear Modulus (GPa) = 12.81681 23.14257 17.97969
#
# Velocity S-wave (km/s) = 2.73416 3.67401 3.23836
# Velocity P-wave (km/s) = 4.76187 7.62549 6.35702
#
# Compressibility (1/GPa) = 0.04589824
#
# Stress axis : x y z
#
# Youngs Moduli (GPa) = 13.29484 61.09080 71.65896
#
# Poissons Ratio (x) = 0.76973 0.69980
# Poissons Ratio (y) = 0.16751 0.53429
# Poissons Ratio (z) = 0.12983 0.45550
#
# Static dielectric constant tensor:
#      x y z
#    x 1.564140 0.000000 0.005730 
#    y 0.000000 1.572950 0.000000 
#    z 0.005730 0.000000 1.578680 
# 
# From -- ./inp_files/230367.got.cif
#   From: 2010.05.17/outbox.cif.g08.bks.cpg/sg12_116_cif.got.tgz:230367.got - 2010.06.03 13:09:07.
