data_PCOD9174851
_publ_section_title
;
Structure prediction by ZEFSAII (Michael W. Deem and Ramdas Pophale) SiO2 
 PCOD9174851
Probable space group: C 2/M
;
_chemical_formula_sum "Si O2"
_cell_formula_units_Z 56
_cell_length_a 20.206415
_cell_length_b 8.720997
_cell_length_c 26.407310
_cell_angle_alpha 90.000000
_cell_angle_beta 40.502790
_cell_angle_gamma 90.000000
_cell_volume 3022.377760
_symmetry_space_group_name_H-M "C 2/M"
_symmetry_group_IT_number 12
_symmetry_cell_setting 'monoclinic'
loop_
_space_group_symop_operation_xyz
x,y,z
-x,y,-z
-x,-y,-z
x,-y,z
1/2+x,1/2+y,z
1/2-x,1/2+y,-z
1/2-x,1/2-y,-z
1/2+x,1/2-y,z
loop_
_atom_site_type_symbol
_atom_site_label
_atom_site_fract_x
_atom_site_fract_y
_atom_site_fract_z
Si Si1 0.316659 0.681326 0.825167
Si Si2 0.392476 0.683613 0.087018
Si Si3 0.568967 0.815919 0.827048
Si Si4 0.643848 0.682134 0.080948
Si Si5 0.672484 0.684177 0.502932
Si Si6 0.008194 0.683525 0.664387
Si Si7 0.159569 0.314146 0.667852
O O1 0.311439 0.500000 0.819509
O O2 0.204515 0.751241 0.886017
O O3 0.358989 0.707813 0.857040
O O4 0.395256 0.756586 0.740260
O O5 0.389392 0.500000 0.087786
O O6 0.388193 0.743275 0.146865
O O7 0.500000 0.733739 0.000000
O O8 0.451983 0.764329 0.888683
O O9 0.627579 0.761966 0.742113
O O10 0.574731 0.000000 0.826651
O O11 0.639395 0.500000 0.073580
O O12 0.750000 0.750000 0.000000
O O13 0.669859 0.500000 0.507690
O O14 0.750000 0.750000 0.500000
O O15 0.563801 0.750835 0.582309
O O16 0.728199 0.728262 0.418020
O O17 0.009829 0.500000 0.661747
O O18 0.077308 0.733839 0.672869
O O19 0.155766 0.500000 0.670795
#
# Coordination Sequence:
#
# PCOD9174851 Si02
#       7
#     8   8   8   8   8   8   8
#     4  11  23  38  58  84 112 147 190 236 281 336
#     4  11  25  43  60  80 110 150 192 235 286 342
#     4  11  21  37  60  84 113 148 187 232 281 336
#     4  11  23  37  56  84 113 143 183 232 286 338
#     4   9  16  28  47  77 114 150 186 224 273 331
#     4  10  18  32  53  81 115 150 186 227 281 334
#     4   8  16  30  51  80 113 148 182 222 276 331
#
# _framework density 18.528458000000001
#
# number of rings (size 3 to 8) (size 9 to 14) (size 15 to 20)
#    0.000    1.857    1.429    4.286    0.000    5.143 
#    0.000    2.143    0.000    0.857    0.000    6.000 
#    0.000    0.000    0.000    0.000    0.000    0.000 
#
# Total GULP energy -156295.213942 kJ/mol
# GULP energy per Si atom -5581.971927 kJ/mol
# Density = 1.848629 g / cm^3
# Si number density = 18.528458 Si / 1000 Ang^3
#
#
#
# Elastic Constant Matrix: (Units=GPa)
#
#
# Indices 1 2 3 4 5 6 
#
# 1 23.3475 13.0127 -17.3993 0.0001 0.0206 -0.0001
# 2 13.0127 40.5569 16.6251 -0.0001 -6.0268 -0.0001
# 3 -17.3993 16.6251 98.5980 0.0001 0.3371 -0.0001
# 4 0.0001 -0.0001 0.0001 30.7434 0.0000 -3.6096
# 5 0.0206 -6.0268 0.3371 0.0000 25.3512 0.0000
# 6 -0.0001 -0.0001 -0.0001 -3.6096 0.0000 25.8374
#
#
#
# Elastic Compliance Matrix: (Units=1/GPa)
#
#
# Indices 1 2 3 4 5 6 
#
# 1 0.075452 -0.033191 0.018939 0.000000 -0.008204 0.000000
# 2 -0.033191 0.042154 -0.013000 0.000000 0.010221 0.000000
# 3 0.018939 -0.013000 0.015688 0.000000 -0.003314 0.000000
# 4 0.000000 0.000000 0.000000 0.033070 0.000000 0.004620
# 5 -0.008204 0.010221 -0.003314 0.000000 0.041926 0.000000
# 6 0.000000 0.000000 0.000000 0.004620 0.000000 0.039349
#
#
# Mechanical properties :
#
#
# Convention : Reuss Voigt Hill
#
# Bulk Modulus (GPa) = 12.69207 20.77548 16.73378
# Shear Modulus (GPa) = 15.22509 26.40399 20.81454
#
# Velocity S-wave (km/s) = 2.86966 3.77908 3.35533
# Velocity P-wave (km/s) = 4.22432 5.50264 4.90530
#
# Compressibility (1/GPa) = 0.07878932
#
# Stress axis : x y z
#
# Youngs Moduli (GPa) = 13.25354 23.72256 63.74435
#
# Poissons Ratio (x) = 0.78738 -1.20727
# Poissons Ratio (y) = 0.43990 0.82867
# Poissons Ratio (z) = -0.25101 0.30839
#
# Static dielectric constant tensor:
#      x y z
#    x 1.630310 0.000000 0.010810 
#    y 0.000000 1.620140 0.000000 
#    z 0.010810 0.000000 1.676720 
# 
# From -- ./inp_files/362999.got.cif
#   From: 2010.05.17/outbox.cif.g08.bks.cpg/sg12_182_cif.got.tgz:362999.got - 2010.06.03 13:09:07.
