data_PCOD9174092
_publ_section_title
;
Structure prediction by ZEFSAII (Michael W. Deem and Ramdas Pophale) SiO2 
 PCOD9174092
Probable space group: C 2/M
;
_chemical_formula_sum "Si O2"
_cell_formula_units_Z 56
_cell_length_a 26.857804
_cell_length_b 7.851235
_cell_length_c 14.920372
_cell_angle_alpha 90.000000
_cell_angle_beta 55.411307
_cell_angle_gamma 90.000000
_cell_volume 2590.114901
_symmetry_space_group_name_H-M "C 2/M"
_symmetry_group_IT_number 12
_symmetry_cell_setting 'monoclinic'
loop_
_space_group_symop_operation_xyz
x,y,z
-x,y,-z
-x,-y,-z
x,-y,z
1/2+x,1/2+y,z
1/2-x,1/2+y,-z
1/2-x,1/2-y,-z
1/2+x,1/2-y,z
loop_
_atom_site_type_symbol
_atom_site_label
_atom_site_fract_x
_atom_site_fract_y
_atom_site_fract_z
Si Si1 0.895556 0.206397 0.309281
Si Si2 0.342466 0.698859 0.548721
Si Si3 0.292174 0.697381 0.276577
Si Si4 0.381159 0.209703 0.894249
Si Si5 0.014549 0.299597 0.083173
Si Si6 0.131611 0.305594 0.284957
Si Si7 0.235036 0.303770 0.886334
O O1 0.881705 0.260882 0.425024
O O2 0.838848 0.255362 0.304440
O O3 0.955918 0.280061 0.204961
O O4 0.900460 0.000000 0.303000
O O5 0.329446 0.500000 0.547306
O O6 0.277098 0.787371 0.620138
O O7 0.373874 0.717554 0.613457
O O8 0.305046 0.500000 0.243714
O O9 0.296763 0.797278 0.178782
O O10 0.428556 0.270767 0.919884
O O11 0.397008 0.265957 0.777150
O O12 0.381057 0.000000 0.893152
O O13 0.313717 0.261018 0.992847
O O14 0.027797 0.500000 0.056280
O O15 0.000000 0.225056 0.000000
O O16 0.112203 0.500000 0.316438
O O17 0.203467 0.299722 0.188690
O O18 0.250918 0.500000 0.888992
#
# Coordination Sequence:
#
# PCOD9174092 Si02
#       7
#     8   8   8   8   8   8   8
#     4  10  22  37  53  76 106 138 171 213 260 305
#     4  10  20  35  53  76 106 136 172 213 255 305
#     4  10  19  32  51  78 109 137 169 208 257 311
#     4   9  19  34  52  76 105 137 173 213 254 302
#     4  10  21  38  59  80 102 133 174 213 251 302
#     4  10  19  33  52  76 107 137 170 212 257 304
#     4  10  18  31  52  78 108 138 170 209 256 306
#
# _framework density 21.620660999999998
#
# number of rings (size 3 to 8) (size 9 to 14) (size 15 to 20)
#    0.000    2.143    0.000    5.143    0.000    3.714 
#    0.000    5.714    0.000    4.286    0.000    0.000 
#    0.000    0.000    0.000    0.000    0.000    0.000 
#
# Total GULP energy -156377.480826 kJ/mol
# GULP energy per Si atom -5584.910029 kJ/mol
# Density = 2.157145 g / cm^3
# Si number density = 21.620661 Si / 1000 Ang^3
#
#
#
# Elastic Constant Matrix: (Units=GPa)
#
#
# Indices 1 2 3 4 5 6 
#
# 1 80.9967 -3.5779 21.3478 0.0000 25.1766 0.0000
# 2 -3.5779 34.9506 -13.5017 0.0000 1.9270 0.0000
# 3 21.3478 -13.5017 88.1680 0.0000 19.0831 0.0000
# 4 0.0000 0.0000 0.0000 20.6210 0.0000 -4.3287
# 5 25.1766 1.9270 19.0831 0.0000 27.4199 0.0000
# 6 0.0000 0.0000 0.0000 -4.3287 0.0000 7.3041
#
#
#
# Elastic Compliance Matrix: (Units=1/GPa)
#
#
# Indices 1 2 3 4 5 6 
#
# 1 0.017537 0.002525 -0.000396 0.000000 -0.016004 0.000000
# 2 0.002525 0.031738 0.006162 0.000000 -0.008837 0.000000
# 3 -0.000396 0.006162 0.014595 0.000000 -0.010227 0.000000
# 4 0.000000 0.000000 0.000000 0.055384 0.000000 0.032823
# 5 -0.016004 -0.008837 -0.010227 0.000000 0.058904 0.000000
# 6 0.000000 0.000000 0.000000 0.032823 0.000000 0.156361
#
#
# Mechanical properties :
#
#
# Convention : Reuss Voigt Hill
#
# Bulk Modulus (GPa) = 12.42994 23.62799 18.02896
# Shear Modulus (GPa) = 14.50313 24.39212 19.44762
#
# Velocity S-wave (km/s) = 2.59279 3.36249 3.00241
# Velocity P-wave (km/s) = 3.83732 5.10169 4.51399
#
# Compressibility (1/GPa) = 0.08045090
#
# Stress axis : x y z
#
# Youngs Moduli (GPa) = 57.02365 31.50820 68.51706
#
# Poissons Ratio (x) = -0.07955 0.02710
# Poissons Ratio (y) = -0.14397 -0.42217
# Poissons Ratio (z) = 0.02255 -0.19414
#
# Static dielectric constant tensor:
#      x y z
#    x 1.807140 0.000000 0.046380 
#    y 0.000000 1.768400 0.000000 
#    z 0.046380 0.000000 1.770630 
# 
# From -- ./inp_files/248882.got.cif
#   From: 2010.05.17/outbox.cif.g08.bks.cpg/sg12_125_cif.got.tgz:248882.got - 2010.06.03 13:09:07.
