data_PCOD9174079
_publ_section_title
;
Structure prediction by ZEFSAII (Michael W. Deem and Ramdas Pophale) SiO2 
 PCOD9174079
Probable space group: C 2/M
;
_chemical_formula_sum "Si O2"
_cell_formula_units_Z 64
_cell_length_a 12.309278
_cell_length_b 17.797657
_cell_length_c 14.738448
_cell_angle_alpha 90.000000
_cell_angle_beta 118.114470
_cell_angle_gamma 90.000000
_cell_volume 2847.866544
_symmetry_space_group_name_H-M "C 2/M"
_symmetry_group_IT_number 12
_symmetry_cell_setting 'monoclinic'
loop_
_space_group_symop_operation_xyz
x,y,z
-x,y,-z
-x,-y,-z
x,-y,z
1/2+x,1/2+y,z
1/2-x,1/2+y,-z
1/2-x,1/2-y,-z
1/2+x,1/2-y,z
loop_
_atom_site_type_symbol
_atom_site_label
_atom_site_fract_x
_atom_site_fract_y
_atom_site_fract_z
Si Si1 0.265626 0.725104 0.903615
Si Si2 0.135239 0.835219 0.633735
Si Si3 0.602918 0.804292 0.194036
Si Si4 0.617334 0.416205 0.980965
Si Si5 0.753286 0.412480 0.518844
Si Si6 0.373869 0.842716 0.401159
Si Si7 0.481148 0.912376 0.271108
Si Si8 0.964798 0.821662 0.227396
O O1 0.378353 0.767844 0.897635
O O2 0.144000 0.758828 0.810412
O O3 0.250000 0.750000 0.000000
O O4 0.291682 0.637455 0.926487
O O5 0.268499 0.843889 0.733792
O O6 0.150988 0.879891 0.546833
O O7 0.122296 0.747199 0.604803
O O8 0.038335 0.856738 0.674001
O O9 0.500800 0.863990 0.186492
O O10 0.581022 0.729486 0.246479
O O11 0.665330 0.500000 0.982492
O O12 0.573485 0.376996 0.869440
O O13 0.500000 0.420893 0.000000
O O14 0.733342 0.500000 0.494020
O O15 0.769239 0.370139 0.429352
O O16 0.885672 0.404810 0.624248
O O17 0.500000 0.866990 0.500000
O O18 0.382555 0.880616 0.305465
O O19 0.459349 0.000000 0.244722
#
# Coordination Sequence:
#
# PCOD9174079 Si02
#       8
#     8   8   8   8   8   8   8   8
#     4   9  19  33  53  79 101 136 174 208 256 308
#     4  10  20  32  52  80 101 138 183 214 263 315
#     4  10  18  33  52  74 110 136 172 218 257 316
#     4  10  19  33  55  81 105 135 176 215 253 299
#     4   9  18  31  48  71 102 133 169 221 265 305
#     4  10  18  31  52  78 102 136 179 223 262 317
#     4   9  17  30  50  76 102 132 170 216 268 312
#     4  10  19  34  55  77 103 142 174 214 262 309
#
# _framework density 22.472963
#
# number of rings (size 3 to 8) (size 9 to 14) (size 15 to 20)
#    0.000    2.375    2.500    0.750    0.000    2.000 
#    0.000    6.875    0.000    1.875    0.000    9.625 
#    0.000    0.000    0.000    0.000    0.000    0.000 
#
# Total GULP energy -178382.841242 kJ/mol
# GULP energy per Si atom -5574.463789 kJ/mol
# Density = 2.242181 g / cm^3
# Si number density = 22.472963 Si / 1000 Ang^3
#
#
#
# Elastic Constant Matrix: (Units=GPa)
#
#
# Indices 1 2 3 4 5 6 
#
# 1 52.9907 3.5606 38.3513 0.0000 -32.5078 0.0000
# 2 3.5606 115.6228 44.0263 0.0000 -28.9726 0.0000
# 3 38.3513 44.0263 111.8724 0.0000 -43.1637 0.0000
# 4 0.0000 0.0000 0.0000 28.3978 0.0000 -6.7920
# 5 -32.5078 -28.9726 -43.1637 0.0000 56.2413 0.0000
# 6 0.0000 0.0000 0.0000 -6.7920 0.0000 26.0160
#
#
#
# Elastic Compliance Matrix: (Units=1/GPa)
#
#
# Indices 1 2 3 4 5 6 
#
# 1 0.034596 0.006174 -0.007597 0.000000 0.017347 0.000000
# 2 0.006174 0.011665 -0.004279 0.000000 0.006294 0.000000
# 3 -0.007597 -0.004279 0.015176 0.000000 0.005052 0.000000
# 4 0.000000 0.000000 0.000000 0.037559 0.000000 0.009806
# 5 0.017347 0.006294 0.005052 0.000000 0.034927 0.000000
# 6 0.000000 0.000000 0.000000 0.009806 0.000000 0.040998
#
#
# Mechanical properties :
#
#
# Convention : Reuss Voigt Hill
#
# Bulk Modulus (GPa) = 19.98622 50.26249 35.12436
# Shear Modulus (GPa) = 24.63022 35.10087 29.86554
#
# Velocity S-wave (km/s) = 3.31417 3.95640 3.64944
# Velocity P-wave (km/s) = 4.85363 6.57914 5.78112
#
# Compressibility (1/GPa) = 0.05003446
#
# Stress axis : x y z
#
# Youngs Moduli (GPa) = 28.90488 85.72569 65.89285
#
# Poissons Ratio (x) = -0.52928 0.50057
# Poissons Ratio (y) = -0.17846 0.28194
# Poissons Ratio (z) = 0.21958 0.36681
#
# Static dielectric constant tensor:
#      x y z
#    x 1.913500 0.000000 0.017780 
#    y 0.000000 1.826290 0.000000 
#    z 0.017780 0.000000 1.953850 
# 
# From -- ./inp_files/206666.got.cif
#   From: 2010.05.17/outbox.cif.g08.bks.cpg/sg12_104_cif.got.tgz:206666.got - 2010.06.03 13:09:07.
