data_PCOD9174700
_publ_section_title
;
Structure prediction by ZEFSAII (Michael W. Deem and Ramdas Pophale) SiO2 
 PCOD9174700
Probable space group: C 2/M
;
_chemical_formula_sum "Si O2"
_cell_formula_units_Z 64
_cell_length_a 20.501519
_cell_length_b 8.692172
_cell_length_c 19.023819
_cell_angle_alpha 90.000000
_cell_angle_beta 119.455653
_cell_angle_gamma 90.000000
_cell_volume 2951.880977
_symmetry_space_group_name_H-M "C 2/M"
_symmetry_group_IT_number 12
_symmetry_cell_setting 'monoclinic'
loop_
_space_group_symop_operation_xyz
x,y,z
-x,y,-z
-x,-y,-z
x,-y,z
1/2+x,1/2+y,z
1/2-x,1/2+y,-z
1/2-x,1/2-y,-z
1/2+x,1/2-y,z
loop_
_atom_site_type_symbol
_atom_site_label
_atom_site_fract_x
_atom_site_fract_y
_atom_site_fract_z
Si Si1 0.535767 0.828965 0.439650
Si Si2 0.209811 0.825967 0.412117
Si Si3 0.337474 0.332165 0.425143
Si Si4 0.097031 0.826393 0.696529
Si Si5 0.818651 0.183606 0.992261
Si Si6 0.514184 0.312820 0.926262
Si Si7 0.238743 0.314542 0.181430
Si Si8 0.370315 0.687940 0.759508
O O1 0.500000 0.833966 0.500000
O O2 0.600652 0.703422 0.482814
O O3 0.475072 0.780470 0.349585
O O4 0.565574 0.000000 0.441622
O O5 0.250000 0.750000 0.500000
O O6 0.279691 0.806805 0.395534
O O7 0.142075 0.762598 0.328450
O O8 0.193191 0.000000 0.420013
O O9 0.301138 0.500000 0.416068
O O10 0.376797 0.338877 0.370911
O O11 0.172952 0.770876 0.774053
O O12 0.078131 0.000000 0.711298
O O13 0.803976 0.235922 0.905055
O O14 0.816905 0.000000 0.997168
O O15 0.750000 0.250000 0.000000
O O16 0.903121 0.235921 0.055160
O O17 0.513830 0.500000 0.927810
O O18 0.448020 0.266883 0.838211
O O19 0.500000 0.262781 0.000000
O O20 0.236880 0.500000 0.176276
O O21 0.195107 0.260830 0.227516
O O22 0.364893 0.500000 0.758292
#
# Coordination Sequence:
#
# PCOD9174700 Si02
#       8
#     8   8   8   8   8   8   8   8
#     4   9  17  28  45  72 103 136 180 233 284 334
#     4  11  23  37  56  81 114 153 200 255 314 374
#     4  10  18  32  52  73 104 144 187 236 297 363
#     4   9  18  31  49  76 109 145 185 233 291 355
#     4  11  23  41  64  91 129 170 207 255 316 388
#     4   9  17  35  65  96 124 159 206 259 316 378
#     4  11  21  35  58  90 124 159 201 253 313 376
#     4  10  20  37  62  91 118 155 209 260 311 374
#
# _framework density 21.681092
#
# number of rings (size 3 to 8) (size 9 to 14) (size 15 to 20)
#    0.000    2.000    2.500    1.875    0.000    3.500 
#    0.000    3.125    0.000    6.000    0.000    0.000 
#    0.000    0.000    0.000    0.000    0.000    0.000 
#
# Total GULP energy -178405.659804 kJ/mol
# GULP energy per Si atom -5575.176869 kJ/mol
# Density = 2.163174 g / cm^3
# Si number density = 21.681092 Si / 1000 Ang^3
#
#
#
# Elastic Constant Matrix: (Units=GPa)
#
#
# Indices 1 2 3 4 5 6 
#
# 1 59.3751 11.8649 29.2509 0.0000 10.4630 0.0000
# 2 11.8649 40.2847 14.2106 0.0000 7.0954 0.0000
# 3 29.2509 14.2106 134.7291 0.0000 20.1244 0.0000
# 4 0.0000 0.0000 0.0000 22.5319 0.0000 0.9666
# 5 10.4630 7.0954 20.1244 0.0000 35.4225 0.0000
# 6 0.0000 0.0000 0.0000 0.9666 0.0000 26.1935
#
#
#
# Elastic Compliance Matrix: (Units=1/GPa)
#
#
# Indices 1 2 3 4 5 6 
#
# 1 0.019896 -0.004105 -0.003422 0.000000 -0.003110 0.000000
# 2 -0.004105 0.027147 -0.001465 0.000000 -0.003393 0.000000
# 3 -0.003422 -0.001465 0.008878 0.000000 -0.003740 0.000000
# 4 0.000000 0.000000 0.000000 0.044452 0.000000 -0.001640
# 5 -0.003110 -0.003393 -0.003740 0.000000 0.031954 0.000000
# 6 0.000000 0.000000 0.000000 -0.001640 0.000000 0.038238
#
#
# Mechanical properties :
#
#
# Convention : Reuss Voigt Hill
#
# Bulk Modulus (GPa) = 26.35963 38.33796 32.34880
# Shear Modulus (GPa) = 24.85146 28.76709 26.80928
#
# Velocity S-wave (km/s) = 3.38927 3.64652 3.52024
# Velocity P-wave (km/s) = 5.24409 5.95403 5.61030
#
# Compressibility (1/GPa) = 0.03793679
#
# Stress axis : x y z
#
# Youngs Moduli (GPa) = 50.26044 36.83674 112.63262
#
# Poissons Ratio (x) = 0.15121 0.38544
# Poissons Ratio (y) = 0.20632 0.16504
# Poissons Ratio (z) = 0.17200 0.05398
#
# Static dielectric constant tensor:
#      x y z
#    x 1.786100 0.000000 0.070120 
#    y 0.000000 1.783550 0.000000 
#    z 0.070120 0.000000 1.755000 
# 
# From -- ./inp_files/324262.got.cif
#   From: 2010.05.17/outbox.cif.g08.bks.cpg/sg12_163_cif.got.tgz:324262.got - 2010.06.03 13:09:07.
