data_PCOD9174274
_publ_section_title
;
Structure prediction by ZEFSAII (Michael W. Deem and Ramdas Pophale) SiO2 
 PCOD9174274
Probable space group: C 2/M
;
_chemical_formula_sum "Si O2"
_cell_formula_units_Z 48
_cell_length_a 17.811842
_cell_length_b 20.364279
_cell_length_c 8.122303
_cell_angle_alpha 90.000000
_cell_angle_beta 64.647420
_cell_angle_gamma 90.000000
_cell_volume 2662.419764
_symmetry_space_group_name_H-M "C 2/M"
_symmetry_group_IT_number 12
_symmetry_cell_setting 'monoclinic'
loop_
_space_group_symop_operation_xyz
x,y,z
-x,y,-z
-x,-y,-z
x,-y,z
1/2+x,1/2+y,z
1/2-x,1/2+y,-z
1/2-x,1/2-y,-z
1/2+x,1/2-y,z
loop_
_atom_site_type_symbol
_atom_site_label
_atom_site_fract_x
_atom_site_fract_y
_atom_site_fract_z
Si Si1 0.342906 0.736017 0.983762
Si Si2 0.420011 0.208484 0.467192
Si Si3 0.910345 0.356451 0.116368
Si Si4 0.588402 0.653580 0.377834
Si Si5 0.242629 0.185766 0.628143
Si Si6 0.740404 0.577044 0.361451
O O1 0.387939 0.802690 0.998294
O O2 0.325178 0.697736 0.170121
O O3 0.250000 0.750000 0.000000
O O4 0.397240 0.694188 0.804597
O O5 0.500000 0.190122 0.500000
O O6 0.420189 0.181181 0.282411
O O7 0.411777 0.287393 0.486933
O O8 0.334047 0.182109 0.624109
O O9 0.830904 0.403478 0.206193
O O10 0.000000 0.387961 0.000000
O O11 0.500000 0.620491 0.500000
O O12 0.665924 0.605315 0.320185
O O13 0.250000 0.250000 0.500000
O O14 0.230754 0.120548 0.534890
O O15 0.733906 0.500000 0.392814
#
# Coordination Sequence:
#
# PCOD9174274 Si02
#       6
#     8   8   8   8   8   8
#     4  12  19  34  64  93 119 153 192 254 310 345
#     4  10  18  31  53  86 119 147 187 251 299 339
#     4  11  21  34  58  92 121 157 199 248 295 360
#     4  11  21  35  59  92 121 152 197 253 300 364
#     4  11  18  37  60  83 116 156 201 247 290 352
#     4  11  23  41  59  80 123 172 198 244 307 356
#
# _framework density 18.028711999999999
#
# number of rings (size 3 to 8) (size 9 to 14) (size 15 to 20)
#    0.000    1.000    8.333    2.000    0.000    0.667 
#    0.000    0.833    0.000    9.000    0.000    0.000 
#    0.000    0.000    0.000    0.000    0.000    0.000 
#
# Total GULP energy -133799.419684 kJ/mol
# GULP energy per Si atom -5574.975820 kJ/mol
# Density = 1.798768 g / cm^3
# Si number density = 18.028712 Si / 1000 Ang^3
#
#
#
# Elastic Constant Matrix: (Units=GPa)
#
#
# Indices 1 2 3 4 5 6 
#
# 1 94.6202 23.6599 29.8240 0.0000 -5.6247 0.0000
# 2 23.6599 98.0228 34.1764 0.0000 7.8572 0.0000
# 3 29.8240 34.1764 101.7461 0.0000 -15.9417 0.0000
# 4 0.0000 0.0000 0.0000 13.9867 0.0000 3.1999
# 5 -5.6247 7.8572 -15.9417 0.0000 27.5715 0.0000
# 6 0.0000 0.0000 0.0000 3.1999 0.0000 6.6693
#
#
#
# Elastic Compliance Matrix: (Units=1/GPa)
#
#
# Indices 1 2 3 4 5 6 
#
# 1 0.012001 -0.002133 -0.002554 0.000000 0.001579 0.000000
# 2 -0.002133 0.012945 -0.004804 0.000000 -0.006902 0.000000
# 3 -0.002554 -0.004804 0.013551 0.000000 0.008683 0.000000
# 4 0.000000 0.000000 0.000000 0.080313 0.000000 -0.038534
# 5 0.001579 -0.006902 0.008683 0.000000 0.043579 0.000000
# 6 0.000000 0.000000 0.000000 -0.038534 0.000000 0.168429
#
#
# Mechanical properties :
#
#
# Convention : Reuss Voigt Hill
#
# Bulk Modulus (GPa) = 51.24308 52.18994 51.71651
# Shear Modulus (GPa) = 14.03294 23.42741 18.73017
#
# Velocity S-wave (km/s) = 2.79295 3.60870 3.22671
# Velocity P-wave (km/s) = 6.23582 6.80990 6.52917
#
# Compressibility (1/GPa) = 0.01951483
#
# Stress axis : x y z
#
# Youngs Moduli (GPa) = 83.32832 77.25092 73.79375
#
# Poissons Ratio (x) = 0.16476 0.18845
# Poissons Ratio (y) = 0.17772 0.35453
# Poissons Ratio (z) = 0.21280 0.37114
#
# Static dielectric constant tensor:
#      x y z
#    x 1.729600 0.000000 -0.010530 
#    y 0.000000 1.568000 0.000000 
#    z -0.010530 0.000000 1.661760 
# 
# From -- ./inp_files/76725.got.cif
#   From: 2010.05.17/outbox.cif.g08.bks.cpg/sg12_39_cif.got.tgz:76725.got - 2010.06.03 13:09:07.
