data_PCOD9174699
_publ_section_title
;
Structure prediction by ZEFSAII (Michael W. Deem and Ramdas Pophale) SiO2 
 PCOD9174699
Probable space group: C 2/M
;
_chemical_formula_sum "Si O2"
_cell_formula_units_Z 56
_cell_length_a 20.445164
_cell_length_b 13.260702
_cell_length_c 12.504280
_cell_angle_alpha 90.000000
_cell_angle_beta 113.757367
_cell_angle_gamma 90.000000
_cell_volume 3102.845406
_symmetry_space_group_name_H-M "C 2/M"
_symmetry_group_IT_number 12
_symmetry_cell_setting 'monoclinic'
loop_
_space_group_symop_operation_xyz
x,y,z
-x,y,-z
-x,-y,-z
x,-y,z
1/2+x,1/2+y,z
1/2-x,1/2+y,-z
1/2-x,1/2-y,-z
1/2+x,1/2-y,z
loop_
_atom_site_type_symbol
_atom_site_label
_atom_site_fract_x
_atom_site_fract_y
_atom_site_fract_z
Si Si1 0.938002 0.115461 0.271754
Si Si2 0.204697 0.886888 0.687919
Si Si3 0.328922 0.295581 0.547021
Si Si4 0.935321 0.192881 0.032428
Si Si5 0.845023 0.746831 0.788588
Si Si6 0.484451 0.884667 0.831850
Si Si7 0.529040 0.805315 0.405183
O O1 0.861920 0.133755 0.278480
O O2 0.930572 0.133782 0.139946
O O3 0.993612 0.196358 0.354922
O O4 0.959353 0.000000 0.307155
O O5 0.175465 0.879420 0.547013
O O6 0.268888 0.807923 0.744190
O O7 0.231226 0.000000 0.725690
O O8 0.250000 0.250000 0.500000
O O9 0.348999 0.315679 0.683925
O O10 0.386259 0.214304 0.541793
O O11 0.958275 0.307357 0.080436
O O12 0.866468 0.196931 0.911275
O O13 0.000000 0.154565 0.000000
O O14 0.907293 0.663215 0.810616
O O15 0.490511 0.875240 0.707517
O O16 0.491580 0.000000 0.869626
O O17 0.500000 0.839693 0.500000
#
# Coordination Sequence:
#
# PCOD9174699 Si02
#       7
#     8   8   8   8   8   8   8
#     4  10  21  34  51  77 104 133 173 217 255 299
#     4  10  19  31  50  76 101 129 171 216 256 302
#     4   9  18  33  50  73 100 132 166 207 255 302
#     4   9  19  35  52  73 101 133 171 211 256 309
#     4   9  18  32  52  72  99 136 168 205 259 308
#     4   9  18  31  50  77 101 126 166 211 255 305
#     4  10  18  32  52  73 104 135 167 208 254 310
#
# _framework density 18.04795
#
# number of rings (size 3 to 8) (size 9 to 14) (size 15 to 20)
#    0.000    2.571    1.429    1.286    0.000    5.143 
#    0.000    0.714    0.000    0.000    0.000    0.000 
#    0.000    0.000    0.000    0.000    0.000    0.000 
#
# Total GULP energy -156005.889178 kJ/mol
# GULP energy per Si atom -5571.638899 kJ/mol
# Density = 1.800687 g / cm^3
# Si number density = 18.047950 Si / 1000 Ang^3
#
#
#
# Elastic Constant Matrix: (Units=GPa)
#
#
# Indices 1 2 3 4 5 6 
#
# 1 77.4224 12.8738 37.3722 0.0000 -13.7263 0.0000
# 2 12.8738 37.7827 4.6623 0.0000 -2.3090 0.0000
# 3 37.3722 4.6623 92.5451 0.0000 -13.5404 0.0000
# 4 0.0000 0.0000 0.0000 3.5255 0.0000 3.5526
# 5 -13.7263 -2.3090 -13.5404 0.0000 33.1281 0.0000
# 6 0.0000 0.0000 0.0000 3.5526 0.0000 -0.3664
#
#
#
# Elastic Compliance Matrix: (Units=1/GPa)
#
#
# Indices 1 2 3 4 5 6 
#
# 1 0.017493 -0.004931 -0.006175 0.000000 0.004381 0.000000
# 2 -0.004931 0.028083 0.000600 0.000000 0.000159 0.000000
# 3 -0.006175 0.000600 0.013721 0.000000 0.003092 0.000000
# 4 0.000000 0.000000 0.000000 0.026334 0.000000 0.255352
# 5 0.004381 0.000159 0.003092 0.000000 0.033276 0.000000
# 6 0.000000 0.000000 0.000000 0.255352 0.000000 -0.253406
#
#
# Mechanical properties :
#
#
# Convention : Reuss Voigt Hill
#
# Bulk Modulus (GPa) = 26.11954 35.28521 30.70237
# Shear Modulus (GPa) = -49.64020 17.44690 -16.09665
#
# Velocity S-wave (km/s) = -5.25017 3.11255 -2.98968
# Velocity P-wave (km/s) = 4.71685 5.70180 2.26515
#
# Compressibility (1/GPa) = 0.03828551
#
# Stress axis : x y z
#
# Youngs Moduli (GPa) = 57.16438 35.60872 72.87956
#
# Poissons Ratio (x) = 0.17558 0.45003
# Poissons Ratio (y) = 0.28187 -0.04371
# Poissons Ratio (z) = 0.35299 -0.02136
#
# Static dielectric constant tensor:
#      x y z
#    x 1.611310 0.000000 -0.008430 
#    y 0.000000 1.591600 0.000000 
#    z -0.008430 0.000000 1.657510 
# 
# From -- ./inp_files/156150.got.cif
#   From: 2010.05.17/outbox.cif.g08.bks.cpg/sg12_79_cif.got.tgz:156150.got - 2010.06.03 13:09:07.
