data_PCOD9174401
_publ_section_title
;
Structure prediction by ZEFSAII (Michael W. Deem and Ramdas Pophale) SiO2 
 PCOD9174401
Probable space group: C 2/M
;
_chemical_formula_sum "Si O2"
_cell_formula_units_Z 56
_cell_length_a 19.875551
_cell_length_b 14.495685
_cell_length_c 15.073141
_cell_angle_alpha 90.000000
_cell_angle_beta 33.988889
_cell_angle_gamma 90.000000
_cell_volume 2427.719160
_symmetry_space_group_name_H-M "C 2/M"
_symmetry_group_IT_number 12
_symmetry_cell_setting 'monoclinic'
loop_
_space_group_symop_operation_xyz
x,y,z
-x,y,-z
-x,-y,-z
x,-y,z
1/2+x,1/2+y,z
1/2-x,1/2+y,-z
1/2-x,1/2-y,-z
1/2+x,1/2-y,z
loop_
_atom_site_type_symbol
_atom_site_label
_atom_site_fract_x
_atom_site_fract_y
_atom_site_fract_z
Si Si1 0.682299 0.103568 0.425162
Si Si2 0.862833 0.611724 0.157882
Si Si3 0.685970 0.610109 0.881742
Si Si4 0.547126 0.611672 0.199285
Si Si5 0.272081 0.649453 0.512480
Si Si6 0.229616 0.387122 0.927597
Si Si7 0.422546 0.111169 0.743179
O O1 0.783953 0.145845 0.249620
O O2 0.726726 0.093848 0.476626
O O3 0.550624 0.149702 0.571575
O O4 0.662613 0.000000 0.409538
O O5 0.866228 0.500000 0.148640
O O6 0.801431 0.633400 0.318051
O O7 0.790059 0.644718 0.150803
O O8 0.000000 0.644968 0.000000
O O9 0.659081 0.500000 0.903424
O O10 0.811217 0.624114 0.798489
O O11 0.583979 0.646047 0.060344
O O12 0.557453 0.500000 0.186008
O O13 0.412744 0.634012 0.372977
O O14 0.647223 0.644120 0.160360
O O15 0.250000 0.750000 0.500000
O O16 0.230763 0.500000 0.926442
O O17 0.121128 0.358147 0.111743
O O18 0.437862 0.000000 0.733620
#
# Coordination Sequence:
#
# PCOD9174401 Si02
#       7
#     8   8   8   8   8   8   8
#     4  10  18  31  55  81 108 147 191 231 272 324
#     4  10  20  38  66  94 114 143 194 249 295 343
#     4   8  15  28  53  88 113 136 174 224 282 335
#     4   9  18  36  60  86 115 145 187 240 288 343
#     4  12  26  40  51  75 116 157 192 233 292 348
#     4   8  15  29  57  92 116 140 180 240 301 335
#     4   8  13  25  51  87 118 134 165 230 289 331
#
# _framework density 23.066917
#
# number of rings (size 3 to 8) (size 9 to 14) (size 15 to 20)
#    0.000    2.714    0.000    4.286    0.000    5.143 
#    2.571    4.286    6.286    2.571    0.000    0.000 
#    0.000    0.000    0.000    0.000    0.000    0.000 
#
# Total GULP energy -156364.492702 kJ/mol
# GULP energy per Si atom -5584.446168 kJ/mol
# Density = 2.301442 g / cm^3
# Si number density = 23.066917 Si / 1000 Ang^3
#
#
#
# Elastic Constant Matrix: (Units=GPa)
#
#
# Indices 1 2 3 4 5 6 
#
# 1 68.0851 -9.4662 74.2992 0.0000 27.0631 0.0000
# 2 -9.4662 36.2523 -7.3079 0.0000 2.8623 0.0000
# 3 74.2992 -7.3079 202.4768 0.0000 18.3030 0.0000
# 4 0.0000 0.0000 0.0000 -80.4803 0.0000 59.0853
# 5 27.0631 2.8623 18.3030 0.0000 43.4538 0.0000
# 6 0.0000 0.0000 0.0000 59.0853 0.0000 -12.9798
#
#
#
# Elastic Compliance Matrix: (Units=1/GPa)
#
#
# Indices 1 2 3 4 5 6 
#
# 1 0.034611 0.008242 -0.010817 0.000000 -0.017542 0.000000
# 2 0.008242 0.029980 -0.001351 0.000000 -0.006539 0.000000
# 3 -0.010817 -0.001351 0.008569 0.000000 0.003217 0.000000
# 4 0.000000 0.000000 0.000000 0.005306 0.000000 0.024151
# 5 -0.017542 -0.006539 0.003217 0.000000 0.033014 0.000000
# 6 0.000000 0.000000 0.000000 0.024151 0.000000 0.032897
#
#
# Mechanical properties :
#
#
# Convention : Reuss Voigt Hill
#
# Bulk Modulus (GPa) = 15.31230 46.87382 31.09306
# Shear Modulus (GPa) = 28.73588 6.61802 17.67695
#
# Velocity S-wave (km/s) = 3.53336 1.69567 2.77128
# Velocity P-wave (km/s) = 4.82689 4.91921 4.87327
#
# Compressibility (1/GPa) = 0.06530697
#
# Stress axis : x y z
#
# Youngs Moduli (GPa) = 28.89267 33.35504 116.70376
#
# Poissons Ratio (x) = -0.27491 1.26242
# Poissons Ratio (y) = -0.23813 0.15770
# Poissons Ratio (z) = 0.31254 0.04507
#
# Static dielectric constant tensor:
#      x y z
#    x 1.869770 0.000000 -0.004630 
#    y 0.000000 1.896460 0.000000 
#    z -0.004630 0.000000 1.977130 
# 
# From -- ./inp_files/234655.got.cif
#   From: 2010.05.17/outbox.cif.g08.bks.cpg/sg12_118_cif.got.tgz:234655.got - 2010.06.03 13:09:07.
