data_PCOD9174010
_publ_section_title
;
Structure prediction by ZEFSAII (Michael W. Deem and Ramdas Pophale) SiO2 
 PCOD9174010
Probable space group: C 2/M
;
_chemical_formula_sum "Si O2"
_cell_formula_units_Z 64
_cell_length_a 14.906162
_cell_length_b 7.442466
_cell_length_c 28.046022
_cell_angle_alpha 90.000000
_cell_angle_beta 112.111728
_cell_angle_gamma 90.000000
_cell_volume 2882.549028
_symmetry_space_group_name_H-M "C 2/M"
_symmetry_group_IT_number 12
_symmetry_cell_setting 'monoclinic'
loop_
_space_group_symop_operation_xyz
x,y,z
-x,y,-z
-x,-y,-z
x,-y,z
1/2+x,1/2+y,z
1/2-x,1/2+y,-z
1/2-x,1/2-y,-z
1/2+x,1/2-y,z
loop_
_atom_site_type_symbol
_atom_site_label
_atom_site_fract_x
_atom_site_fract_y
_atom_site_fract_z
Si Si1 0.235942 0.710250 0.137742
Si Si2 0.437352 0.711156 0.137512
Si Si3 0.528784 0.782706 0.058412
Si Si4 0.354363 0.282269 0.783267
Si Si5 0.502450 0.720279 0.375066
Si Si6 0.670448 0.282561 0.598963
Si Si7 0.362173 0.286028 0.511606
Si Si8 0.370639 0.707140 0.681042
O O1 0.236515 0.500000 0.124853
O O2 0.336920 0.786417 0.138089
O O3 0.135571 0.784297 0.095539
O O4 0.221801 0.722975 0.191882
O O5 0.437547 0.500000 0.149472
O O6 0.451862 0.730705 0.083739
O O7 0.538253 0.781716 0.179472
O O8 0.531557 0.000000 0.058803
O O9 0.500000 0.721948 0.000000
O O10 0.351277 0.500000 0.784310
O O11 0.341308 0.217676 0.726489
O O12 0.506204 0.500000 0.374836
O O13 0.395683 0.772165 0.369908
O O14 0.572348 0.782095 0.432168
O O15 0.541752 0.785827 0.332306
O O16 0.674961 0.500000 0.598470
O O17 0.623297 0.221604 0.539667
O O18 0.778250 0.213960 0.627911
O O19 0.379141 0.500000 0.513818
O O20 0.250000 0.250000 0.500000
O O21 0.396302 0.500000 0.695621
#
# Coordination Sequence:
#
# PCOD9174010 Si02
#       8
#     8   8   8   8   8   8   8   8
#     4   9  18  33  53  75  99 131 170 209 247 289
#     4   9  18  33  52  74  99 130 172 213 245 287
#     4   9  18  32  49  74 109 141 167 201 249 298
#     4   9  19  34  51  71  96 127 164 206 250 296
#     4   9  18  33  52  72  98 130 160 194 242 296
#     4  10  20  33  52  76  98 125 164 202 238 291
#     4  10  18  31  52  74  97 127 161 197 239 290
#     4  10  20  35  52  71  98 129 159 198 252 301
#
# _framework density 22.202573000000001
#
# number of rings (size 3 to 8) (size 9 to 14) (size 15 to 20)
#    0.000    2.625    1.250    0.375    0.000    4.250 
#    0.000    3.750    0.000    1.500    0.000    0.000 
#    0.000    0.000    0.000    0.000    0.000    0.000 
#
# Total GULP energy -178564.262361 kJ/mol
# GULP energy per Si atom -5580.133199 kJ/mol
# Density = 2.215204 g / cm^3
# Si number density = 22.202573 Si / 1000 Ang^3
#
#
#
# Elastic Constant Matrix: (Units=GPa)
#
#
# Indices 1 2 3 4 5 6 
#
# 1 141.3270 -4.3647 21.7796 0.0000 -33.5286 0.0000
# 2 -4.3647 64.1288 -10.6872 0.0000 4.2149 0.0000
# 3 21.7796 -10.6872 80.2632 0.0000 -27.2235 0.0000
# 4 0.0000 0.0000 0.0000 6.7898 0.0000 30.1371
# 5 -33.5286 4.2149 -27.2235 0.0000 22.8252 0.0000
# 6 0.0000 0.0000 0.0000 30.1371 0.0000 -174.3563
#
#
#
# Elastic Compliance Matrix: (Units=1/GPa)
#
#
# Indices 1 2 3 4 5 6 
#
# 1 0.011746 0.000062 0.004483 0.000000 0.022589 0.000000
# 2 0.000062 0.015954 0.001913 0.000000 -0.000574 0.000000
# 3 0.004483 0.001913 0.022858 0.000000 0.033493 0.000000
# 4 0.000000 0.000000 0.000000 0.083341 0.000000 0.014405
# 5 0.022589 -0.000574 0.033493 0.000000 0.117046 0.000000
# 6 0.000000 0.000000 0.000000 0.014405 0.000000 -0.003245
#
#
# Mechanical properties :
#
#
# Convention : Reuss Voigt Hill
#
# Bulk Modulus (GPa) = 15.75483 33.24158 24.49821
# Shear Modulus (GPa) = 19.53572 -10.34883 4.59344
#
# Velocity S-wave (km/s) = 2.96950 -2.16130 1.43992
# Velocity P-wave (km/s) = 4.34380 2.96246 3.71785
#
# Compressibility (1/GPa) = 0.06347261
#
# Stress axis : x y z
#
# Youngs Moduli (GPa) = 85.13617 62.67884 43.74920
#
# Poissons Ratio (x) = -0.00388 -0.19611
# Poissons Ratio (y) = -0.00526 -0.08369
# Poissons Ratio (z) = -0.38163 -0.11991
#
# Static dielectric constant tensor:
#      x y z
#    x 1.810200 0.000000 -0.014510 
#    y 0.000000 1.869310 0.000000 
#    z -0.014510 0.000000 1.816020 
# 
# From -- ./inp_files/359829.got.cif
#   From: 2010.05.17/outbox.cif.g08.bks.cpg/sg12_180_cif.got.tgz:359829.got - 2010.06.03 13:09:07.
