data_PCOD9174558
_publ_section_title
;
Structure prediction by ZEFSAII (Michael W. Deem and Ramdas Pophale) SiO2 
 PCOD9174558
Probable space group: C 2/M
;
_chemical_formula_sum "Si O2"
_cell_formula_units_Z 56
_cell_length_a 34.087890
_cell_length_b 17.783272
_cell_length_c 5.400677
_cell_angle_alpha 90.000000
_cell_angle_beta 63.878874
_cell_angle_gamma 90.000000
_cell_volume 2939.484559
_symmetry_space_group_name_H-M "C 2/M"
_symmetry_group_IT_number 12
_symmetry_cell_setting 'monoclinic'
loop_
_space_group_symop_operation_xyz
x,y,z
-x,y,-z
-x,-y,-z
x,-y,z
1/2+x,1/2+y,z
1/2-x,1/2+y,-z
1/2-x,1/2-y,-z
1/2+x,1/2-y,z
loop_
_atom_site_type_symbol
_atom_site_label
_atom_site_fract_x
_atom_site_fract_y
_atom_site_fract_z
Si Si1 0.960013 0.585801 0.363708
Si Si2 0.556380 0.856419 0.089800
Si Si3 0.514652 0.415583 0.708743
Si Si4 0.284269 0.317544 0.399065
Si Si5 0.608595 0.375681 0.360887
Si Si6 0.208212 0.086506 0.121082
Si Si7 0.614293 0.289320 0.845887
O O1 0.976129 0.500000 0.326051
O O2 0.932657 0.603982 0.682750
O O3 0.002935 0.639763 0.241460
O O4 0.933534 0.598468 0.187778
O O5 0.582301 0.779218 0.997109
O O6 0.500000 0.375401 0.500000
O O7 0.494271 0.500000 0.765836
O O8 0.566209 0.421669 0.553060
O O9 0.500000 0.376435 0.000000
O O10 0.250000 0.250000 0.500000
O O11 0.279999 0.369344 0.657938
O O12 0.333311 0.281966 0.264297
O O13 0.279009 0.367294 0.162988
O O14 0.655244 0.414224 0.260673
O O15 0.608159 0.310978 0.574429
O O16 0.603454 0.350890 0.089111
O O17 0.223817 0.000000 0.076282
#
# Coordination Sequence:
#
# PCOD9174558 Si02
#       7
#     8   8   8   8   8   8   8
#     4  10  19  33  53  72  97 136 180 224 271 318
#     4  10  18  32  48  73  99 130 170 222 259 313
#     4  10  20  34  48  67  97 139 179 214 260 306
#     4  10  21  38  61  86 117 153 180 225 304 358
#     4  10  20  36  50  76 104 141 180 225 270 312
#     4  10  20  36  63  88 110 144 194 242 271 326
#     4  10  21  35  53  76 108 137 179 218 269 333
#
# _framework density 19.050958999999999
#
# number of rings (size 3 to 8) (size 9 to 14) (size 15 to 20)
#    0.000    2.000    0.000    5.143    0.000    0.000 
#   15.429    4.286    0.000    6.857    0.000    0.000 
#    0.000    0.000    0.000    0.000    0.000    0.000 
#
# Total GULP energy -155876.024303 kJ/mol
# GULP energy per Si atom -5567.000868 kJ/mol
# Density = 1.900760 g / cm^3
# Si number density = 19.050959 Si / 1000 Ang^3
#
#
#
# Elastic Constant Matrix: (Units=GPa)
#
#
# Indices 1 2 3 4 5 6 
#
# 1 46.9511 33.9586 43.0149 0.0000 9.8536 0.0000
# 2 33.9586 92.6989 39.8238 0.0000 -4.0186 0.0000
# 3 43.0149 39.8238 130.7805 0.0000 33.6825 0.0000
# 4 0.0000 0.0000 0.0000 7.4261 0.0000 -6.9838
# 5 9.8536 -4.0186 33.6825 0.0000 43.0625 0.0000
# 6 0.0000 0.0000 0.0000 -6.9838 0.0000 16.4464
#
#
#
# Elastic Compliance Matrix: (Units=1/GPa)
#
#
# Indices 1 2 3 4 5 6 
#
# 1 0.036750 -0.010020 -0.008302 0.000000 -0.002850 0.000000
# 2 -0.010020 0.016128 -0.003248 0.000000 0.006338 0.000000
# 3 -0.008302 -0.003248 0.013719 0.000000 -0.009134 0.000000
# 4 0.000000 0.000000 0.000000 0.224190 0.000000 0.095200
# 5 -0.002850 0.006338 -0.009134 0.000000 0.031610 0.000000
# 6 0.000000 0.000000 0.000000 0.095200 0.000000 0.101229
#
#
# Mechanical properties :
#
#
# Convention : Reuss Voigt Hill
#
# Bulk Modulus (GPa) = 42.63126 56.00278 49.31702
# Shear Modulus (GPa) = 10.53552 23.62922 17.08237
#
# Velocity S-wave (km/s) = 2.35418 3.52563 2.99769
# Velocity P-wave (km/s) = 5.46037 6.78480 6.15830
#
# Compressibility (1/GPa) = 0.02345697
#
# Stress axis : x y z
#
# Youngs Moduli (GPa) = 27.21080 62.00280 72.89401
#
# Poissons Ratio (x) = 0.62124 0.60519
# Poissons Ratio (y) = 0.27264 0.23677
# Poissons Ratio (z) = 0.22591 0.20139
#
# Static dielectric constant tensor:
#      x y z
#    x 1.691980 0.000000 0.098460 
#    y 0.000000 1.682590 0.000000 
#    z 0.098460 0.000000 1.824870 
# 
# From -- ./inp_files/31973.got.cif
#   From: 2010.05.17/outbox.cif.g08.bks.cpg/sg12_16_cif.got.tgz:31973.got - 2010.06.03 13:09:07.
