data_PCOD9174874
_publ_section_title
;
Structure prediction by ZEFSAII (Michael W. Deem and Ramdas Pophale) SiO2 
 PCOD9174874
Probable space group: C 2/M
;
_chemical_formula_sum "Si O2"
_cell_formula_units_Z 64
_cell_length_a 20.451489
_cell_length_b 9.132069
_cell_length_c 21.261627
_cell_angle_alpha 90.000000
_cell_angle_beta 120.583456
_cell_angle_gamma 90.000000
_cell_volume 3418.517113
_symmetry_space_group_name_H-M "C 2/M"
_symmetry_group_IT_number 12
_symmetry_cell_setting 'monoclinic'
loop_
_space_group_symop_operation_xyz
x,y,z
-x,y,-z
-x,-y,-z
x,-y,z
1/2+x,1/2+y,z
1/2-x,1/2+y,-z
1/2-x,1/2-y,-z
1/2+x,1/2-y,z
loop_
_atom_site_type_symbol
_atom_site_label
_atom_site_fract_x
_atom_site_fract_y
_atom_site_fract_z
Si Si1 0.189246 0.325442 0.556408
Si Si2 0.521736 0.677433 0.698439
Si Si3 0.854713 0.176086 0.596372
Si Si4 0.069779 0.824642 0.581092
Si Si5 0.969867 0.167348 0.912736
Si Si6 0.664863 0.322988 0.847759
Si Si7 0.116068 0.670614 0.943867
Si Si8 0.674425 0.171341 0.116140
O O1 0.179078 0.500000 0.549490
O O2 0.156633 0.253937 0.476339
O O3 0.279380 0.293534 0.599790
O O4 0.143695 0.256098 0.591526
O O5 0.522726 0.500000 0.701846
O O6 0.434572 0.722555 0.665643
O O7 0.546118 0.718051 0.639699
O O8 0.586300 0.727519 0.777783
O O9 0.857668 0.000000 0.586675
O O10 0.000000 0.792058 0.500000
O O11 0.081955 0.000000 0.585663
O O12 0.886231 0.236535 0.874124
O O13 0.031879 0.259952 0.905244
O O14 0.968811 0.000000 0.890065
O O15 0.000000 0.167832 0.000000
O O16 0.666417 0.500000 0.853023
O O17 0.665919 0.256117 0.917571
O O18 0.737849 0.281163 0.841628
O O19 0.112912 0.500000 0.926302
O O20 0.149350 0.682887 0.030568
O O21 0.669058 0.000000 0.131077
#
# Coordination Sequence:
#
# PCOD9174874 Si02
#       8
#     8   8   8   8   8   8   8   8
#     4  10  19  29  49  79 103 123 157 208 250 283
#     4   9  18  34  54  72  95 134 174 205 243 299
#     4   9  17  33  52  71  99 133 164 195 242 302
#     4  10  18  32  54  74  96 130 166 198 241 303
#     4   9  17  30  51  77 101 128 167 212 253 297
#     4  10  20  34  52  74 101 135 174 212 252 302
#     4  10  19  32  51  75 104 136 170 210 258 304
#     4   9  18  32  51  76 105 135 168 211 258 302
#
# _framework density 18.721568000000001
#
# number of rings (size 3 to 8) (size 9 to 14) (size 15 to 20)
#    0.000    2.500    1.250    1.500    0.000    3.250 
#    0.000    2.500    0.000    3.000    0.000    0.000 
#    0.000    0.000    0.000    0.000    0.000    0.000 
#
# Total GULP energy -178483.261934 kJ/mol
# GULP energy per Si atom -5577.601935 kJ/mol
# Density = 1.867896 g / cm^3
# Si number density = 18.721568 Si / 1000 Ang^3
#
#
#
# Elastic Constant Matrix: (Units=GPa)
#
#
# Indices 1 2 3 4 5 6 
#
# 1 92.6500 28.2735 17.8726 0.0000 34.1486 0.0000
# 2 28.2735 31.6628 13.3546 0.0000 13.8513 0.0000
# 3 17.8726 13.3546 39.4951 0.0000 23.3122 0.0000
# 4 0.0000 0.0000 0.0000 11.2940 0.0000 2.6584
# 5 34.1486 13.8513 23.3122 0.0000 31.5584 0.0000
# 6 0.0000 0.0000 0.0000 2.6584 0.0000 32.7310
#
#
#
# Elastic Compliance Matrix: (Units=1/GPa)
#
#
# Indices 1 2 3 4 5 6 
#
# 1 0.022163 -0.012618 0.009085 0.000000 -0.025155 0.000000
# 2 -0.012618 0.046952 -0.010747 0.000000 0.000985 0.000000
# 3 0.009085 -0.010747 0.049400 0.000000 -0.041606 0.000000
# 4 0.000000 0.000000 0.000000 0.090269 0.000000 -0.007331
# 5 -0.025155 0.000985 -0.041606 0.000000 0.089209 0.000000
# 6 0.000000 0.000000 0.000000 -0.007331 0.000000 0.031148
#
#
# Mechanical properties :
#
#
# Convention : Reuss Voigt Hill
#
# Bulk Modulus (GPa) = 11.11665 31.42323 21.26994
# Shear Modulus (GPa) = 12.89704 22.07049 17.48376
#
# Velocity S-wave (km/s) = 2.62751 3.43721 3.05927
# Velocity P-wave (km/s) = 3.89305 5.70732 4.88515
#
# Compressibility (1/GPa) = 0.08995512
#
# Stress axis : x y z
#
# Youngs Moduli (GPa) = 45.12070 21.29824 20.24272
#
# Poissons Ratio (x) = 0.26874 -0.18391
# Poissons Ratio (y) = 0.56933 0.21756
# Poissons Ratio (z) = -0.40993 0.22890
#
# Static dielectric constant tensor:
#      x y z
#    x 1.664690 0.000000 -0.012040 
#    y 0.000000 1.622380 0.000000 
#    z -0.012040 0.000000 1.734830 
# 
# From -- ./inp_files/346283.got.cif
#   From: 2010.05.17/outbox.cif.g08.bks.cpg/sg12_174_cif.got.tgz:346283.got - 2010.06.03 13:09:07.
