data_PCOD9174541
_publ_section_title
;
Structure prediction by ZEFSAII (Michael W. Deem and Ramdas Pophale) SiO2 
 PCOD9174541
Probable space group: C 2/M
;
_chemical_formula_sum "Si O2"
_cell_formula_units_Z 64
_cell_length_a 9.835599
_cell_length_b 20.150363
_cell_length_c 22.624468
_cell_angle_alpha 90.000000
_cell_angle_beta 132.100724
_cell_angle_gamma 90.000000
_cell_volume 3326.954567
_symmetry_space_group_name_H-M "C 2/M"
_symmetry_group_IT_number 12
_symmetry_cell_setting 'monoclinic'
loop_
_space_group_symop_operation_xyz
x,y,z
-x,y,-z
-x,-y,-z
x,-y,z
1/2+x,1/2+y,z
1/2-x,1/2+y,-z
1/2-x,1/2-y,-z
1/2+x,1/2-y,z
loop_
_atom_site_type_symbol
_atom_site_label
_atom_site_fract_x
_atom_site_fract_y
_atom_site_fract_z
Si Si1 0.961949 0.570713 0.263723
Si Si2 0.503363 0.215756 0.318002
Si Si3 0.115755 0.074971 0.656011
Si Si4 0.614287 0.185934 0.910777
Si Si5 0.368978 0.601416 0.911185
Si Si6 0.662201 0.340586 0.915414
Si Si7 0.292673 0.342777 0.209289
Si Si8 0.572205 0.711204 0.586180
O O1 0.940333 0.500000 0.290504
O O2 0.814034 0.569267 0.167724
O O3 0.933336 0.640457 0.289228
O O4 0.170582 0.572225 0.301189
O O5 0.379601 0.270718 0.248987
O O6 0.504938 0.239800 0.386332
O O7 0.707519 0.218488 0.350879
O O8 0.110239 0.102603 0.721421
O O9 0.029462 0.134786 0.592297
O O10 0.042233 0.000000 0.628300
O O11 0.783973 0.166555 0.918331
O O12 0.599163 0.264666 0.906249
O O13 0.419869 0.158647 0.834149
O O14 0.664966 0.156324 0.989788
O O15 0.501774 0.614920 0.895338
O O16 0.500000 0.571270 0.000000
O O17 0.696610 0.354438 0.857310
O O18 0.500000 0.725060 0.500000
#
# Coordination Sequence:
#
# PCOD9174541 Si02
#       8
#     8   8   8   8   8   8   8   8
#     4  10  19  35  56  76 109 150 190 229 268 323
#     4  10  22  35  59  89 112 140 184 221 272 328
#     4   9  20  37  58  84 109 145 186 222 267 325
#     4  10  18  32  46  74 108 150 189 231 281 324
#     4  10  20  32  48  74 106 145 195 236 274 320
#     4  10  20  28  48  75 111 144 187 239 281 319
#     4  11  20  32  56  79 110 147 183 233 278 318
#     4  10  21  39  63  89 116 143 170 218 273 331
#
# _framework density 19.236813000000001
#
# number of rings (size 3 to 8) (size 9 to 14) (size 15 to 20)
#    0.000    2.000    1.250    3.000    5.250    2.500 
#    0.000    0.625    0.000    2.625    0.000    0.000 
#    0.000    0.000    0.000    0.000    0.000    0.000 
#
# Total GULP energy -178383.021421 kJ/mol
# GULP energy per Si atom -5574.469419 kJ/mol
# Density = 1.919303 g / cm^3
# Si number density = 19.236813 Si / 1000 Ang^3
#
#
#
# Elastic Constant Matrix: (Units=GPa)
#
#
# Indices 1 2 3 4 5 6 
#
# 1 48.1143 18.6984 1.7609 0.0000 -7.5769 0.0000
# 2 18.6984 114.9387 13.9752 0.0000 -13.9902 0.0000
# 3 1.7609 13.9752 40.3668 0.0000 -16.1193 0.0000
# 4 0.0000 0.0000 0.0000 -0.0371 0.0000 -2.2196
# 5 -7.5769 -13.9902 -16.1193 0.0000 21.7590 0.0000
# 6 0.0000 0.0000 0.0000 -2.2196 0.0000 10.7902
#
#
#
# Elastic Compliance Matrix: (Units=1/GPa)
#
#
# Indices 1 2 3 4 5 6 
#
# 1 0.023250 -0.003155 0.003552 0.000001 0.008698 0.000000
# 2 -0.003155 0.009908 -0.001686 0.000000 0.004023 0.000000
# 3 0.003552 -0.001686 0.035875 0.000003 0.026729 0.000001
# 4 0.000001 0.000000 0.000003 -2.025758 0.000004 -0.416710
# 5 0.008698 0.004023 0.026729 0.000004 0.071375 0.000001
# 6 0.000000 0.000000 0.000001 -0.416710 0.000001 0.006958
#
#
# Mechanical properties :
#
#
# Convention : Reuss Voigt Hill
#
# Bulk Modulus (GPa) = 15.04814 30.25430 22.65122
# Shear Modulus (GPa) = -2.69737 17.76811 7.53537
#
# Velocity S-wave (km/s) = -1.18543 3.04246 1.98133
# Velocity P-wave (km/s) = 2.44252 5.30128 4.12731
#
# Compressibility (1/GPa) = 0.06645341
#
# Stress axis : x y z
#
# Youngs Moduli (GPa) = 43.01092 100.92562 27.87431
#
# Poissons Ratio (x) = 0.31846 -0.09900
# Poissons Ratio (y) = 0.13572 0.04701
# Poissons Ratio (z) = -0.15276 0.17020
#
# Static dielectric constant tensor:
#      x y z
#    x 1.650260 0.000000 -0.002360 
#    y 0.000000 1.702320 0.000000 
#    z -0.002360 0.000000 1.697790 
# 
# From -- ./inp_files/301757.got.cif
#   From: 2010.05.17/outbox.cif.g08.bks.cpg/sg12_151_cif.got.tgz:301757.got - 2010.06.03 13:09:07.
