data_PCOD9174470
_publ_section_title
;
Structure prediction by ZEFSAII (Michael W. Deem and Ramdas Pophale) SiO2 
 PCOD9174470
Probable space group: C 2/M
;
_chemical_formula_sum "Si O2"
_cell_formula_units_Z 56
_cell_length_a 15.836709
_cell_length_b 16.461431
_cell_length_c 9.074520
_cell_angle_alpha 90.000000
_cell_angle_beta 69.077541
_cell_angle_gamma 90.000000
_cell_volume 2209.698814
_symmetry_space_group_name_H-M "C 2/M"
_symmetry_group_IT_number 12
_symmetry_cell_setting 'monoclinic'
loop_
_space_group_symop_operation_xyz
x,y,z
-x,y,-z
-x,-y,-z
x,-y,z
1/2+x,1/2+y,z
1/2-x,1/2+y,-z
1/2-x,1/2-y,-z
1/2+x,1/2-y,z
loop_
_atom_site_type_symbol
_atom_site_label
_atom_site_fract_x
_atom_site_fract_y
_atom_site_fract_z
Si Si1 0.397859 0.328877 0.051478
Si Si2 0.148669 0.911561 0.492119
Si Si3 0.788377 0.587844 0.143900
Si Si4 0.142402 0.749975 0.605961
Si Si5 0.868718 0.688806 0.860729
Si Si6 0.238026 0.411610 0.278193
Si Si7 0.050859 0.592003 0.722796
O O1 0.375114 0.270166 0.208423
O O2 0.326914 0.400251 0.120955
O O3 0.500000 0.358055 0.000000
O O4 0.393840 0.277349 0.902789
O O5 0.098386 0.827198 0.550612
O O6 0.221021 0.912347 0.582827
O O7 0.206126 0.905176 0.307898
O O8 0.102323 0.000000 0.525719
O O9 0.783225 0.500000 0.072710
O O10 0.904645 0.664500 0.399216
O O11 0.879624 0.587337 0.184470
O O12 0.795356 0.659296 0.025294
O O13 0.250000 0.750000 0.500000
O O14 0.824030 0.663809 0.734413
O O15 0.954186 0.628683 0.825257
O O16 0.194043 0.500000 0.283783
O O17 0.044823 0.500000 0.666176
#
# Coordination Sequence:
#
# PCOD9174470 Si02
#       7
#     8   8   8   8   8   8   8
#     4  11  21  38  61  89 119 159 212 257 298 360
#     4   9  19  36  56  82 114 158 206 246 291 358
#     4  10  18  31  56  86 115 151 203 246 292 358
#     4  11  19  34  57  84 117 155 202 251 296 355
#     4  12  20  37  57  92 124 158 196 255 317 366
#     4  10  23  38  57  86 127 167 201 247 314 370
#     4  11  21  32  54  88 122 153 199 253 306 364
#
# _framework density 25.342818999999999
#
# number of rings (size 3 to 8) (size 9 to 14) (size 15 to 20)
#    0.000    1.429    4.286    2.143    0.000    1.429 
#    0.000    0.714    0.000    3.429    0.000    3.000 
#    0.000   16.000    0.000    0.000    0.000    0.000 
#
# Total GULP energy -156419.829551 kJ/mol
# GULP energy per Si atom -5586.422484 kJ/mol
# Density = 2.528514 g / cm^3
# Si number density = 25.342819 Si / 1000 Ang^3
#
#
#
# Elastic Constant Matrix: (Units=GPa)
#
#
# Indices 1 2 3 4 5 6 
#
# 1 41.7923 15.5816 10.0953 0.0000 -3.3640 0.0000
# 2 15.5816 143.2493 16.5170 0.0000 -12.2398 0.0000
# 3 10.0953 16.5170 86.9262 0.0000 1.3463 0.0000
# 4 0.0000 0.0000 0.0000 24.0395 0.0000 -13.9073
# 5 -3.3640 -12.2398 1.3463 0.0000 27.1948 0.0000
# 6 0.0000 0.0000 0.0000 -13.9073 0.0000 17.4292
#
#
#
# Elastic Compliance Matrix: (Units=1/GPa)
#
#
# Indices 1 2 3 4 5 6 
#
# 1 0.025586 -0.002294 -0.002571 0.000000 0.002260 0.000000
# 2 -0.002294 0.007648 -0.001237 0.000000 0.003220 0.000000
# 3 -0.002571 -0.001237 0.012060 0.000000 -0.001472 0.000000
# 4 0.000000 0.000000 0.000000 0.077265 0.000000 0.061652
# 5 0.002260 0.003220 -0.001472 0.000000 0.038573 0.000000
# 6 0.000000 0.000000 0.000000 0.061652 0.000000 0.106569
#
#
# Mechanical properties :
#
#
# Convention : Reuss Voigt Hill
#
# Bulk Modulus (GPa) = 30.21842 39.59505 34.90674
# Shear Modulus (GPa) = 17.18603 29.05096 23.11850
#
# Velocity S-wave (km/s) = 2.60694 3.38941 3.02359
# Velocity P-wave (km/s) = 4.58380 5.56553 5.09835
#
# Compressibility (1/GPa) = 0.03309240
#
# Stress axis : x y z
#
# Youngs Moduli (GPa) = 39.08413 130.75287 82.91636
#
# Poissons Ratio (x) = 0.29988 0.21315
# Poissons Ratio (y) = 0.08964 0.10254
# Poissons Ratio (z) = 0.10047 0.16170
#
# Static dielectric constant tensor:
#      x y z
#    x 2.015200 0.000000 0.023890 
#    y 0.000000 2.108230 0.000000 
#    z 0.023890 0.000000 2.041350 
# 
# From -- ./inp_files/157713.got.cif
#   From: 2010.05.17/outbox.cif.g08.bks.cpg/sg12_79_cif.got.tgz:157713.got - 2010.06.03 13:09:07.
