data_PCOD9174507
_publ_section_title
;
Structure prediction by ZEFSAII (Michael W. Deem and Ramdas Pophale) SiO2 
 PCOD9174507
Probable space group: C 2/M
;
_chemical_formula_sum "Si O2"
_cell_formula_units_Z 44
_cell_length_a 13.826321
_cell_length_b 19.197385
_cell_length_c 12.204897
_cell_angle_alpha 90.000000
_cell_angle_beta 128.206955
_cell_angle_gamma 90.000000
_cell_volume 2545.568602
_symmetry_space_group_name_H-M "C 2/M"
_symmetry_group_IT_number 12
_symmetry_cell_setting 'monoclinic'
loop_
_space_group_symop_operation_xyz
x,y,z
-x,y,-z
-x,-y,-z
x,-y,z
1/2+x,1/2+y,z
1/2-x,1/2+y,-z
1/2-x,1/2-y,-z
1/2+x,1/2-y,z
loop_
_atom_site_type_symbol
_atom_site_label
_atom_site_fract_x
_atom_site_fract_y
_atom_site_fract_z
Si Si1 0.733030 0.699219 0.799895
Si Si2 0.365782 0.422238 0.385816
Si Si3 0.871151 0.708631 0.471129
Si Si4 0.802416 0.919422 0.587257
Si Si5 0.500000 0.248104 0.000000
Si Si6 0.982257 0.199333 0.745157
O O1 0.712074 0.619723 0.753809
O O2 0.702919 0.743092 0.667574
O O3 0.622517 0.713866 0.806797
O O4 0.871915 0.709281 0.933631
O O5 0.500000 0.387296 0.500000
O O6 0.391190 0.500000 0.364866
O O7 0.295167 0.423327 0.450819
O O8 0.798156 0.636551 0.441074
O O9 0.901233 0.751835 0.604615
O O10 0.000000 0.694294 0.500000
O O11 0.932470 0.879611 0.696600
O O12 0.796268 0.000000 0.623527
O O13 0.527666 0.287031 0.132936
#
# Coordination Sequence:
#
# PCOD9174507 Si02
#       6
#     8   8   8   8   4   8
#     4  11  20  36  58  84 111 149 187 235 277 329
#     4  10  18  31  57  89 111 135 180 238 285 321
#     4  10  20  37  62  83 110 143 188 239 277 322
#     4  11  20  33  57  87 114 141 180 232 284 327
#     4  12  24  34  54  80 120 150 186 228 278 336
#     4  11  21  37  58  84 111 147 192 231 275 329
#
# _framework density 17.284939999999999
#
# number of rings (size 3 to 8) (size 9 to 14) (size 15 to 20)
#    0.000    1.273    5.455    2.727    0.000    0.364 
#    0.000    0.909    0.000    1.091    0.000    0.000 
#    0.000    0.000    0.000    0.000    0.000    0.000 
#
# Total GULP energy -122492.159897 kJ/mol
# GULP energy per Si atom -5567.825450 kJ/mol
# Density = 1.724560 g / cm^3
# Si number density = 17.284940 Si / 1000 Ang^3
#
#
#
# Elastic Constant Matrix: (Units=GPa)
#
#
# Indices 1 2 3 4 5 6 
#
# 1 84.9959 32.1886 30.2053 0.0000 4.8777 0.0000
# 2 32.1886 102.4038 27.0625 0.0000 4.2651 0.0000
# 3 30.2053 27.0625 64.0888 0.0000 2.4458 0.0000
# 4 0.0000 0.0000 0.0000 8.7820 0.0000 2.2746
# 5 4.8777 4.2651 2.4458 0.0000 38.8582 0.0000
# 6 0.0000 0.0000 0.0000 2.2746 0.0000 27.2263
#
#
#
# Elastic Compliance Matrix: (Units=1/GPa)
#
#
# Indices 1 2 3 4 5 6 
#
# 1 0.015067 -0.003177 -0.005715 0.000000 -0.001183 0.000000
# 2 -0.003177 0.011694 -0.003415 0.000000 -0.000670 0.000000
# 3 -0.005715 -0.003415 0.019745 0.000000 -0.000151 0.000000
# 4 0.000000 0.000000 0.000000 0.116387 0.000000 -0.009723
# 5 -0.001183 -0.000670 -0.000151 0.000000 0.025966 0.000000
# 6 0.000000 0.000000 0.000000 -0.009723 0.000000 0.037542
#
#
# Mechanical properties :
#
#
# Convention : Reuss Voigt Hill
#
# Bulk Modulus (GPa) = 45.67731 47.82237 46.74984
# Shear Modulus (GPa) = 19.35647 25.77545 22.56596
#
# Velocity S-wave (km/s) = 3.35004 3.86581 3.61713
# Velocity P-wave (km/s) = 6.43795 6.90312 6.67459
#
# Compressibility (1/GPa) = 0.02189271
#
# Stress axis : x y z
#
# Youngs Moduli (GPa) = 66.37041 85.51226 50.64669
#
# Poissons Ratio (x) = 0.27163 0.28943
# Poissons Ratio (y) = 0.21083 0.17298
# Poissons Ratio (z) = 0.37928 0.29206
#
# Static dielectric constant tensor:
#      x y z
#    x 1.666400 0.000000 0.024950 
#    y 0.000000 1.607910 0.000000 
#    z 0.024950 0.000000 1.630310 
# 
# From -- ./inp_files/145809.got.cif
#   From: 2010.05.17/outbox.cif.g08.bks.cpg/sg12_73_cif.got.tgz:145809.got - 2010.06.03 13:09:07.
