data_PCOD9174521
_publ_section_title
;
Structure prediction by ZEFSAII (Michael W. Deem and Ramdas Pophale) SiO2 
 PCOD9174521
Probable space group: C 2/M
;
_chemical_formula_sum "Si O2"
_cell_formula_units_Z 40
_cell_length_a 18.601354
_cell_length_b 12.235761
_cell_length_c 18.853840
_cell_angle_alpha 90.000000
_cell_angle_beta 32.270391
_cell_angle_gamma 90.000000
_cell_volume 2291.120143
_symmetry_space_group_name_H-M "C 2/M"
_symmetry_group_IT_number 12
_symmetry_cell_setting 'monoclinic'
loop_
_space_group_symop_operation_xyz
x,y,z
-x,y,-z
-x,-y,-z
x,-y,z
1/2+x,1/2+y,z
1/2-x,1/2+y,-z
1/2-x,1/2-y,-z
1/2+x,1/2-y,z
loop_
_atom_site_type_symbol
_atom_site_label
_atom_site_fract_x
_atom_site_fract_y
_atom_site_fract_z
Si Si1 0.999431 0.500000 0.162104
Si Si2 0.412442 0.368998 0.002154
Si Si3 0.211079 0.500000 0.867245
Si Si4 0.000000 0.182569 0.500000
Si Si5 0.358095 0.268559 0.758905
Si Si6 0.087984 0.264089 0.135355
Si Si7 0.712746 0.500000 0.355892
O O1 0.053634 0.389308 0.150616
O O2 0.838274 0.500000 0.302984
O O3 0.070187 0.500000 0.025311
O O4 0.409230 0.500000 0.995368
O O5 0.263423 0.318836 0.137320
O O6 0.500000 0.344174 0.000000
O O7 0.464552 0.309335 0.886575
O O8 0.291069 0.389250 0.819041
O O9 0.211351 0.500000 0.782780
O O10 0.934755 0.244015 0.620649
O O11 0.885087 0.103940 0.562512
O O12 0.450663 0.262248 0.751561
O O13 0.250000 0.250000 0.000000
#
# Coordination Sequence:
#
# PCOD9174521 Si02
#       7
#     4   8   4   4   8   8   4
#     4  12  20  33  58  90 117 135 184 237 297 332
#     4  10  22  36  56  85 118 145 181 230 283 337
#     4  10  18  31  58  89 108 138 181 233 298 341
#     4   9  20  40  55  78 112 154 191 229 284 324
#     4  10  21  35  60  79 113 152 190 228 279 337
#     4  10  22  33  57  86 114 146 176 233 287 341
#     4   9  21  34  56  84 114 138 182 247 281 332
#
# _framework density 17.458708999999999
#
# number of rings (size 3 to 8) (size 9 to 14) (size 15 to 20)
#    0.000    2.000    4.000    0.900   12.600    0.000 
#    0.000    1.500    0.000    0.000    0.000    0.000 
#    0.000    0.000    0.000    0.000    0.000    0.000 
#
# Total GULP energy -111369.243294 kJ/mol
# GULP energy per Si atom -5568.462165 kJ/mol
# Density = 1.741897 g / cm^3
# Si number density = 17.458709 Si / 1000 Ang^3
#
#
#
# Elastic Constant Matrix: (Units=GPa)
#
#
# Indices 1 2 3 4 5 6 
#
# 1 108.9063 58.2036 33.5755 0.0000 9.4583 0.0000
# 2 58.2036 108.4338 20.2874 0.0000 4.6518 0.0000
# 3 33.5755 20.2874 80.3616 0.0000 13.8033 0.0000
# 4 0.0000 0.0000 0.0000 13.7154 0.0000 -7.1900
# 5 9.4583 4.6518 13.8033 0.0000 32.8714 0.0000
# 6 0.0000 0.0000 0.0000 -7.1900 0.0000 -98.6664
#
#
#
# Elastic Compliance Matrix: (Units=1/GPa)
#
#
# Indices 1 2 3 4 5 6 
#
# 1 0.014160 -0.006799 -0.003950 0.000000 -0.001453 0.000000
# 2 -0.006799 0.012948 -0.000484 0.000000 0.000327 0.000000
# 3 -0.003950 -0.000484 0.015098 0.000000 -0.005135 0.000000
# 4 0.000000 0.000000 0.000000 0.070228 0.000000 -0.005118
# 5 -0.001453 0.000327 -0.005135 0.000000 0.032950 0.000000
# 6 0.000000 0.000000 0.000000 -0.005118 0.000000 -0.009762
#
#
# Mechanical properties :
#
#
# Convention : Reuss Voigt Hill
#
# Bulk Modulus (GPa) = 50.65943 57.98164 54.32054
# Shear Modulus (GPa) = 30.36393 1.95976 16.16184
#
# Velocity S-wave (km/s) = 4.17488 1.06064 3.04586
# Velocity P-wave (km/s) = 7.23320 5.89769 6.59932
#
# Compressibility (1/GPa) = 0.01973966
#
# Stress axis : x y z
#
# Youngs Moduli (GPa) = 70.62170 77.22980 66.23244
#
# Poissons Ratio (x) = 0.52510 0.26162
# Poissons Ratio (y) = 0.48017 0.03208
# Poissons Ratio (z) = 0.27895 0.03740
#
# Static dielectric constant tensor:
#      x y z
#    x 1.657580 0.000000 0.028090 
#    y 0.000000 1.594760 0.000000 
#    z 0.028090 0.000000 1.610730 
# 
# From -- ./inp_files/152786.got.cif
#   From: 2010.05.17/outbox.cif.g08.bks.cpg/sg12_77_cif.got.tgz:152786.got - 2010.06.03 13:09:07.
