data_PCOD9174593
_publ_section_title
;
Structure prediction by ZEFSAII (Michael W. Deem and Ramdas Pophale) SiO2 
 PCOD9174593
Probable space group: C 2/M
;
_chemical_formula_sum "Si O2"
_cell_formula_units_Z 44
_cell_length_a 27.557447
_cell_length_b 15.125745
_cell_length_c 5.369521
_cell_angle_alpha 90.000000
_cell_angle_beta 94.784609
_cell_angle_gamma 90.000000
_cell_volume 2230.361563
_symmetry_space_group_name_H-M "C 2/M"
_symmetry_group_IT_number 12
_symmetry_cell_setting 'monoclinic'
loop_
_space_group_symop_operation_xyz
x,y,z
-x,y,-z
-x,-y,-z
x,-y,z
1/2+x,1/2+y,z
1/2-x,1/2+y,-z
1/2-x,1/2-y,-z
1/2+x,1/2-y,z
loop_
_atom_site_type_symbol
_atom_site_label
_atom_site_fract_x
_atom_site_fract_y
_atom_site_fract_z
Si Si1 0.899870 0.198257 0.095931
Si Si2 0.692492 0.500000 0.401156
Si Si3 0.870892 0.000000 0.127220
Si Si4 0.552623 0.695491 0.384311
Si Si5 0.197884 0.300030 0.996148
Si Si6 0.032375 0.000000 0.269052
Si Si7 0.728379 0.849147 0.509717
O O1 0.935908 0.231423 0.889589
O O2 0.900450 0.091485 0.124301
O O3 0.912021 0.228834 0.382172
O O4 0.845905 0.230529 0.002384
O O5 0.657863 0.500000 0.626132
O O6 0.727127 0.415156 0.436731
O O7 0.664651 0.500000 0.127236
O O8 0.500000 0.704091 0.500000
O O9 0.560326 0.591535 0.324027
O O10 0.194545 0.352373 0.736663
O O11 0.250000 0.250000 0.000000
O O12 0.200827 0.361679 0.238347
O O13 0.000000 0.000000 0.500000
O O14 0.000000 0.000000 0.000000
O O15 0.750000 0.750000 0.500000
#
# Coordination Sequence:
#
# PCOD9174593 Si02
#       7
#     8   4   4   8   8   4   8
#     4  12  22  35  54  76 102 144 184 229 278 319
#     4  12  22  35  56  76 107 150 189 232 267 312
#     4  12  22  33  47  78 104 132 196 240 255 312
#     4  11  22  36  51  72 101 138 185 234 276 323
#     4  10  20  35  52  71 102 137 173 216 269 322
#     4  10  18  32  50  68  98 142 180 228 283 310
#     4  10  19  34  51  73 102 141 179 220 269 316
#
# _framework density 19.727744000000001
#
# number of rings (size 3 to 8) (size 9 to 14) (size 15 to 20)
#    0.000    1.091    0.000   11.455    0.000    0.000 
#    0.000    0.000    0.000    0.000    0.000    0.000 
#    0.000    0.000    0.000   57.273    0.000    1.818 
#
# Total GULP energy -122662.797302 kJ/mol
# GULP energy per Si atom -5575.581696 kJ/mol
# Density = 1.968284 g / cm^3
# Si number density = 19.727744 Si / 1000 Ang^3
#
#
#
# Elastic Constant Matrix: (Units=GPa)
#
#
# Indices 1 2 3 4 5 6 
#
# 1 72.1412 9.2853 24.8439 0.0000 -15.2609 0.0000
# 2 9.2853 26.5649 9.7596 0.0000 -1.4296 0.0000
# 3 24.8439 9.7596 190.9994 0.0000 -20.6468 0.0000
# 4 0.0000 0.0000 0.0000 16.2624 0.0000 7.1129
# 5 -15.2609 -1.4296 -20.6468 0.0000 44.9369 0.0000
# 6 0.0000 0.0000 0.0000 7.1129 0.0000 24.9292
#
#
#
# Elastic Compliance Matrix: (Units=1/GPa)
#
#
# Indices 1 2 3 4 5 6 
#
# 1 0.015921 -0.004829 -0.001322 0.000000 0.004646 0.000000
# 2 -0.004829 0.039834 -0.001523 0.000000 -0.001073 0.000000
# 3 -0.001322 -0.001523 0.005716 0.000000 0.002129 0.000000
# 4 0.000000 0.000000 0.000000 0.070259 0.000000 -0.020047
# 5 0.004646 -0.001073 0.002129 0.000000 0.024775 0.000000
# 6 0.000000 0.000000 0.000000 -0.020047 0.000000 0.045833
#
#
# Mechanical properties :
#
#
# Convention : Reuss Voigt Hill
#
# Bulk Modulus (GPa) = 21.68187 41.94258 31.81223
# Shear Modulus (GPa) = 21.45360 33.61348 27.53354
#
# Velocity S-wave (km/s) = 3.30128 4.13227 3.73993
# Velocity P-wave (km/s) = 5.05427 6.63886 5.90000
#
# Compressibility (1/GPa) = 0.04612147
#
# Stress axis : x y z
#
# Youngs Moduli (GPa) = 62.80873 25.10448 174.96273
#
# Poissons Ratio (x) = 0.12124 0.23129
# Poissons Ratio (y) = 0.30332 0.26650
# Poissons Ratio (z) = 0.08303 0.03824
#
# Static dielectric constant tensor:
#      x y z
#    x 1.923210 0.000000 -0.158520 
#    y 0.000000 1.656820 0.000000 
#    z -0.158520 0.000000 1.944360 
# 
# From -- ./inp_files/28398.got.cif
#   From: 2010.05.17/outbox.cif.g08.bks.cpg/sg12_15_cif.got.tgz:28398.got - 2010.06.03 13:09:07.
