data_PCOD9174516
_publ_section_title
;
Structure prediction by ZEFSAII (Michael W. Deem and Ramdas Pophale) SiO2 
 PCOD9174516
Probable space group: C 2/M
;
_chemical_formula_sum "Si O2"
_cell_formula_units_Z 60
_cell_length_a 21.966849
_cell_length_b 15.042247
_cell_length_c 24.091495
_cell_angle_alpha 90.000000
_cell_angle_beta 20.478458
_cell_angle_gamma 90.000000
_cell_volume 2785.047133
_symmetry_space_group_name_H-M "C 2/M"
_symmetry_group_IT_number 12
_symmetry_cell_setting 'monoclinic'
loop_
_space_group_symop_operation_xyz
x,y,z
-x,y,-z
-x,-y,-z
x,-y,z
1/2+x,1/2+y,z
1/2-x,1/2+y,-z
1/2-x,1/2-y,-z
1/2+x,1/2-y,z
loop_
_atom_site_type_symbol
_atom_site_label
_atom_site_fract_x
_atom_site_fract_y
_atom_site_fract_z
Si Si1 0.200822 0.758404 0.688776
Si Si2 0.447900 0.849824 0.625213
Si Si3 0.974946 0.601222 0.888575
Si Si4 0.260983 0.096907 0.961176
Si Si5 0.859953 0.500000 0.463045
Si Si6 0.180744 0.237028 0.169486
Si Si7 0.415130 0.351106 0.321399
Si Si8 0.381609 0.402229 0.155938
O O1 0.397280 0.788786 0.529741
O O2 0.149451 0.780765 0.669409
O O3 0.092415 0.825422 0.821423
O O4 0.149224 0.658251 0.745705
O O5 0.536259 0.922469 0.589667
O O6 0.332735 0.783619 0.760387
O O7 0.317363 0.896239 0.694356
O O8 0.984182 0.500000 0.899937
O O9 0.913037 0.599939 0.877095
O O10 0.823582 0.659909 0.045951
O O11 0.276274 0.183548 0.910484
O O12 0.277769 0.000000 0.917520
O O13 0.080285 0.101931 0.149384
O O14 0.736671 0.421686 0.539903
O O15 0.998589 0.195513 0.303570
O O16 0.412021 0.500000 0.155668
O O17 0.500000 0.394982 0.000000
#
# Coordination Sequence:
#
# PCOD9174516 Si02
#       8
#     8   8   8   8   4   8   8   8
#     4  11  22  39  63  88 127 165 205 261 316 377
#     4  11  25  41  59  92 132 168 204 257 321 385
#     4  10  20  39  62  90 118 162 214 264 310 358
#     4  10  18  31  58  86 123 159 211 258 304 375
#     4  10  22  36  56  86 131 168 207 241 312 386
#     4  11  21  38  60  88 130 166 215 260 308 378
#     4  10  19  36  57  88 119 171 210 249 310 370
#     4  11  25  43  66  95 125 163 214 264 318 383
#
# _framework density 21.543621000000002
#
# number of rings (size 3 to 8) (size 9 to 14) (size 15 to 20)
#    0.000    1.467    4.000    2.000    5.600    2.667 
#    0.000    0.667    0.000    5.200    0.000    0.000 
#    0.000    0.000    0.000    0.000    0.000    0.000 
#
# Total GULP energy -167173.704760 kJ/mol
# GULP energy per Si atom -5572.456825 kJ/mol
# Density = 2.149459 g / cm^3
# Si number density = 21.543621 Si / 1000 Ang^3
#
#
#
# Elastic Constant Matrix: (Units=GPa)
#
#
# Indices 1 2 3 4 5 6 
#
# 1 22.8934 12.5685 7.9295 -0.0081 -11.7126 0.0024
# 2 12.5685 177.7889 36.8722 -0.0209 2.2672 0.0058
# 3 7.9295 36.8722 59.0801 -0.0286 -13.1854 0.0081
# 4 -0.0081 -0.0209 -0.0286 20.7466 0.0069 -10.0628
# 5 -11.7126 2.2672 -13.1854 0.0069 32.8674 -0.0011
# 6 0.0024 0.0058 0.0081 -10.0628 -0.0011 16.7445
#
#
#
# Elastic Compliance Matrix: (Units=1/GPa)
#
#
# Indices 1 2 3 4 5 6 
#
# 1 0.056469 -0.004151 -0.000476 0.000011 0.020218 0.000002
# 2 -0.004151 0.006923 -0.004614 0.000000 -0.003808 0.000000
# 3 -0.000476 -0.004614 0.021860 0.000026 0.008918 0.000007
# 4 0.000011 0.000000 0.000026 0.068031 0.000001 0.040884
# 5 0.020218 -0.003808 0.008918 0.000001 0.041471 -0.000002
# 6 0.000002 0.000000 0.000007 0.040884 -0.000002 0.084291
#
#
# Mechanical properties :
#
#
# Convention : Reuss Voigt Hill
#
# Bulk Modulus (GPa) = 14.97665 41.61140 28.29403
# Shear Modulus (GPa) = 15.63565 27.56451 21.60008
#
# Velocity S-wave (km/s) = 2.69693 3.58085 3.16985
# Velocity P-wave (km/s) = 4.08225 6.03768 5.15356
#
# Compressibility (1/GPa) = 0.06677061
#
# Stress axis : x y z
#
# Youngs Moduli (GPa) = 17.70897 144.43563 45.74601
#
# Poissons Ratio (x) = 0.59956 0.02177
# Poissons Ratio (y) = 0.07351 0.21106
# Poissons Ratio (z) = 0.00843 0.66638
#
# Static dielectric constant tensor:
#      x y z
#    x 1.771290 0.000000 0.031050 
#    y 0.000000 1.757700 0.000010 
#    z 0.031050 0.000010 1.884120 
# 
# From -- ./inp_files/96408.got.cif
#   From: 2010.05.17/outbox.cif.g08.bks.cpg/sg12_49_cif.got.tgz:96408.got - 2010.06.03 13:09:07.
