data_PCOD9174863
_publ_section_title
;
Structure prediction by ZEFSAII (Michael W. Deem and Ramdas Pophale) SiO2 
 PCOD9174863
Probable space group: C 2/M
;
_chemical_formula_sum "Si O2"
_cell_formula_units_Z 52
_cell_length_a 18.885204
_cell_length_b 9.902406
_cell_length_c 11.411003
_cell_angle_alpha 90.000000
_cell_angle_beta 104.237761
_cell_angle_gamma 90.000000
_cell_volume 2068.411932
_symmetry_space_group_name_H-M "C 2/M"
_symmetry_group_IT_number 12
_symmetry_cell_setting 'monoclinic'
loop_
_space_group_symop_operation_xyz
x,y,z
-x,y,-z
-x,-y,-z
x,-y,z
1/2+x,1/2+y,z
1/2-x,1/2+y,-z
1/2-x,1/2-y,-z
1/2+x,1/2-y,z
loop_
_atom_site_type_symbol
_atom_site_label
_atom_site_fract_x
_atom_site_fract_y
_atom_site_fract_z
Si Si1 0.405649 0.157950 0.437074
Si Si2 0.283029 0.247148 0.198292
Si Si3 0.681991 0.349128 0.447464
Si Si4 0.633789 0.854916 0.158233
Si Si5 0.000486 0.348703 0.255387
Si Si6 0.598981 0.659273 0.935705
Si Si7 0.297680 0.500000 0.783631
O O1 0.339119 0.186733 0.317028
O O2 0.386995 0.276067 0.521456
O O3 0.476270 0.166738 0.380567
O O4 0.397817 0.000000 0.473172
O O5 0.220330 0.348968 0.213198
O O6 0.330698 0.311569 0.115914
O O7 0.236511 0.116431 0.145769
O O8 0.692570 0.500000 0.504906
O O9 0.750000 0.250000 0.500000
O O10 0.679172 0.384953 0.307588
O O11 0.584909 0.852595 0.254772
O O12 0.617481 0.000000 0.093695
O O13 0.604442 0.741181 0.058221
O O14 0.971312 0.500000 0.211913
O O15 0.964768 0.228772 0.166849
O O16 0.588666 0.500000 0.953812
#
# Coordination Sequence:
#
# PCOD9174863 Si02
#       7
#     8   8   8   8   8   8   4
#     4  10  18  36  61  88 115 151 191 243 289 337
#     4  11  21  37  58  84 122 152 193 234 298 345
#     4  10  18  32  53  85 116 139 191 233 288 343
#     4  11  24  40  59  85 115 162 199 235 287 347
#     4   9  21  40  61  82 118 159 199 235 280 345
#     4  11  24  38  59  90 117 151 197 246 287 337
#     4  10  22  36  56  89 118 157 185 242 305 343
#
# _framework density 25.140059999999998
#
# number of rings (size 3 to 8) (size 9 to 14) (size 15 to 20)
#    0.462    1.231    2.308    2.308    3.231    5.538 
#    0.000    0.000    0.000    1.846    0.000    3.231 
#    0.000    0.000    0.000    0.000    0.000    0.000 
#
# Total GULP energy -144805.915422 kJ/mol
# GULP energy per Si atom -5569.458285 kJ/mol
# Density = 2.508284 g / cm^3
# Si number density = 25.140060 Si / 1000 Ang^3
#
#
#
# Elastic Constant Matrix: (Units=GPa)
#
#
# Indices 1 2 3 4 5 6 
#
# 1 151.7518 56.0841 21.4347 0.0000 -48.9304 0.0000
# 2 56.0841 226.5439 36.6921 0.0000 -11.5735 0.0000
# 3 21.4347 36.6921 78.3999 0.0000 -11.1593 0.0000
# 4 0.0000 0.0000 0.0000 40.1796 0.0000 -23.0813
# 5 -48.9304 -11.5735 -11.1593 0.0000 26.4364 0.0000
# 6 0.0000 0.0000 0.0000 -23.0813 0.0000 7.9591
#
#
#
# Elastic Compliance Matrix: (Units=1/GPa)
#
#
# Indices 1 2 3 4 5 6 
#
# 1 0.018015 -0.002977 0.001094 0.000000 0.032503 0.000000
# 2 -0.002977 0.005305 -0.002258 0.000000 -0.004140 0.000000
# 3 0.001094 -0.002258 0.014534 0.000000 0.007171 0.000000
# 4 0.000000 0.000000 0.000000 -0.037375 0.000000 -0.108387
# 5 0.032503 -0.004140 0.007171 0.000000 0.099200 0.000000
# 6 0.000000 0.000000 0.000000 -0.108387 0.000000 -0.188677
#
#
# Mechanical properties :
#
#
# Convention : Reuss Voigt Hill
#
# Bulk Modulus (GPa) = 33.81530 76.12415 54.96973
# Shear Modulus (GPa) = -70.56356 37.74732 -16.40812
#
# Velocity S-wave (km/s) = -5.30369 3.87910 -2.55751
# Velocity P-wave (km/s) = 4.90158 7.09993 3.63204
#
# Compressibility (1/GPa) = 0.02957241
#
# Stress axis : x y z
#
# Youngs Moduli (GPa) = 55.50789 188.48870 68.80548
#
# Poissons Ratio (x) = 0.56107 -0.07528
# Poissons Ratio (y) = 0.16523 0.15539
# Poissons Ratio (z) = -0.06073 0.42569
#
# Static dielectric constant tensor:
#      x y z
#    x 2.128460 0.000000 0.146110 
#    y 0.000000 1.987460 0.000000 
#    z 0.146110 0.000000 2.096120 
# 
# From -- ./inp_files/230170.got.cif
#   From: 2010.05.17/outbox.cif.g08.bks.cpg/sg12_116_cif.got.tgz:230170.got - 2010.06.03 13:09:07.
