data_PCOD9174667
_publ_section_title
;
Structure prediction by ZEFSAII (Michael W. Deem and Ramdas Pophale) SiO2 
 PCOD9174667
Probable space group: C 2/M
;
_chemical_formula_sum "Si O2"
_cell_formula_units_Z 48
_cell_length_a 23.376791
_cell_length_b 8.741513
_cell_length_c 17.869108
_cell_angle_alpha 90.000000
_cell_angle_beta 47.292486
_cell_angle_gamma 90.000000
_cell_volume 2683.234840
_symmetry_space_group_name_H-M "C 2/M"
_symmetry_group_IT_number 12
_symmetry_cell_setting 'monoclinic'
loop_
_space_group_symop_operation_xyz
x,y,z
-x,y,-z
-x,-y,-z
x,-y,z
1/2+x,1/2+y,z
1/2-x,1/2+y,-z
1/2-x,1/2-y,-z
1/2+x,1/2-y,z
loop_
_atom_site_type_symbol
_atom_site_label
_atom_site_fract_x
_atom_site_fract_y
_atom_site_fract_z
Si Si1 0.625488 0.182940 0.621650
Si Si2 0.021985 0.176412 0.181379
Si Si3 0.445315 0.167519 0.119717
Si Si4 0.257736 0.817297 0.611765
Si Si5 0.190362 0.684519 0.992466
Si Si6 0.727952 0.823517 0.790341
O O1 0.538498 0.249001 0.706308
O O2 0.670260 0.227407 0.505772
O O3 0.681937 0.241275 0.639049
O O4 0.623375 0.000000 0.626344
O O5 0.972764 0.198949 0.148929
O O6 0.035814 0.000000 0.186756
O O7 0.104132 0.257569 0.091309
O O8 0.359583 0.177597 0.163933
O O9 0.454879 0.000000 0.149621
O O10 0.500000 0.167208 0.000000
O O11 0.270957 0.766640 0.685786
O O12 0.247163 0.000000 0.618150
O O13 0.189306 0.500000 0.992941
O O14 0.219097 0.733784 0.883535
O O15 0.250000 0.750000 0.000000
O O16 0.755340 0.000000 0.768447
#
# Coordination Sequence:
#
# PCOD9174667 Si02
#       6
#     8   8   8   8   8   8
#     4  10  20  34  51  76 115 155 184 220 272 326
#     4  12  23  34  54  83 112 146 185 228 272 324
#     4  10  18  32  51  76 110 148 180 215 272 335
#     4  10  20  32  51  81 114 148 187 225 266 323
#     4  11  24  43  61  81 108 144 186 230 280 331
#     4  10  20  34  56  80 112 150 180 218 276 334
#
# _framework density 17.888855
#
# number of rings (size 3 to 8) (size 9 to 14) (size 15 to 20)
#    0.000    1.500    3.333    3.000    0.000    3.667 
#    0.000    0.000    0.000    1.000    0.000    7.000 
#    0.000    0.000    0.000    0.000    0.000    0.000 
#
# Total GULP energy -133797.137349 kJ/mol
# GULP energy per Si atom -5574.880723 kJ/mol
# Density = 1.784814 g / cm^3
# Si number density = 17.888855 Si / 1000 Ang^3
#
#
#
# Elastic Constant Matrix: (Units=GPa)
#
#
# Indices 1 2 3 4 5 6 
#
# 1 62.4474 25.4593 51.9357 0.0006 11.4390 -0.0003
# 2 25.4593 68.3395 38.3530 0.0025 7.6578 -0.0014
# 3 51.9357 38.3530 160.3407 0.0002 17.3516 -0.0002
# 4 0.0006 0.0025 0.0002 27.7779 0.0000 -1.0583
# 5 11.4390 7.6578 17.3516 0.0000 12.7905 -0.0001
# 6 -0.0003 -0.0014 -0.0002 -1.0583 -0.0001 23.8119
#
#
#
# Elastic Compliance Matrix: (Units=1/GPa)
#
#
# Indices 1 2 3 4 5 6 
#
# 1 0.024768 -0.004765 -0.005619 0.000000 -0.011675 0.000000
# 2 -0.004765 0.018147 -0.002441 -0.000001 -0.003292 0.000001
# 3 -0.005619 -0.002441 0.009305 0.000000 -0.006136 0.000000
# 4 0.000000 -0.000001 0.000000 0.036061 0.000001 0.001603
# 5 -0.011675 -0.003292 -0.006136 0.000001 0.098919 0.000000
# 6 0.000000 0.000001 0.000000 0.001603 0.000000 0.042067
#
#
# Mechanical properties :
#
#
# Convention : Reuss Voigt Hill
#
# Bulk Modulus (GPa) = 37.63842 58.06929 47.85385
# Shear Modulus (GPa) = 18.95559 24.56802 21.76181
#
# Velocity S-wave (km/s) = 3.25873 3.70992 3.49162
# Velocity P-wave (km/s) = 5.93674 7.13323 6.56231
#
# Compressibility (1/GPa) = 0.02656860
#
# Stress axis : x y z
#
# Youngs Moduli (GPa) = 40.37412 55.10602 107.47193
#
# Poissons Ratio (x) = 0.26260 0.60393
# Poissons Ratio (y) = 0.19240 0.26233
# Poissons Ratio (z) = 0.22688 0.13451
#
# Static dielectric constant tensor:
#      x y z
#    x 1.578570 0.000000 0.004170 
#    y 0.000000 1.697200 0.000000 
#    z 0.004170 0.000000 1.684140 
# 
# From -- ./inp_files/287265.got.cif
#   From: 2010.05.17/outbox.cif.g08.bks.cpg/sg12_144_cif.got.tgz:287265.got - 2010.06.03 13:09:07.
