data_PCOD9174120
_publ_section_title
;
Structure prediction by ZEFSAII (Michael W. Deem and Ramdas Pophale) SiO2 
 PCOD9174120
Probable space group: C 2/M
;
_chemical_formula_sum "Si O2"
_cell_formula_units_Z 64
_cell_length_a 30.021260
_cell_length_b 15.035612
_cell_length_c 13.563300
_cell_angle_alpha 90.000000
_cell_angle_beta 143.597081
_cell_angle_gamma 90.000000
_cell_volume 3633.346080
_symmetry_space_group_name_H-M "C 2/M"
_symmetry_group_IT_number 12
_symmetry_cell_setting 'monoclinic'
loop_
_space_group_symop_operation_xyz
x,y,z
-x,y,-z
-x,-y,-z
x,-y,z
1/2+x,1/2+y,z
1/2-x,1/2+y,-z
1/2-x,1/2-y,-z
1/2+x,1/2-y,z
loop_
_atom_site_type_symbol
_atom_site_label
_atom_site_fract_x
_atom_site_fract_y
_atom_site_fract_z
Si Si1 0.327701 0.393658 0.231739
Si Si2 0.651700 0.105127 0.947602
Si Si3 0.147756 0.154552 0.500517
Si Si4 0.436462 0.732300 0.304247
Si Si5 0.838661 0.740774 0.651001
Si Si6 0.681138 0.897420 0.227617
Si Si7 0.014182 0.098430 0.772883
Si Si8 0.083227 0.903199 0.103631
O O1 0.347271 0.500000 0.267113
O O2 0.347209 0.350583 0.372714
O O3 0.373226 0.335231 0.234606
O O4 0.237588 0.388182 0.061415
O O5 0.600259 0.176034 0.799353
O O6 0.630181 0.000000 0.901132
O O7 0.655395 0.129327 0.071195
O O8 0.140540 0.247184 0.427030
O O9 0.227813 0.114240 0.609382
O O10 0.071318 0.102770 0.340088
O O11 0.500000 0.747675 0.500000
O O12 0.473910 0.677474 0.281854
O O13 0.750000 0.750000 0.500000
O O14 0.856492 0.656483 0.750420
O O15 0.872610 0.824955 0.767427
O O16 0.664056 0.000000 0.208283
O O17 0.025278 0.000000 0.747969
O O18 0.070738 0.108623 0.964810
O O19 0.118292 0.000000 0.183988
O O20 0.000000 0.903739 0.000000
#
# Coordination Sequence:
#
# PCOD9174120 Si02
#       8
#     8   8   8   8   8   8   8   8
#     4  10  20  36  57  81 111 145 182 222 270 328
#     4   9  20  39  59  76 103 148 192 226 262 318
#     4  10  18  31  52  80 110 143 176 215 266 328
#     4  12  23  33  54  86 114 139 179 232 282 317
#     4  10  20  32  52  81 108 136 177 226 264 308
#     4   9  18  34  57  79 103 140 187 229 265 314
#     4  11  21  33  51  80 117 145 171 215 277 339
#     4  10  20  33  52  78 107 142 174 211 268 331
#
# _framework density 17.614618
#
# number of rings (size 3 to 8) (size 9 to 14) (size 15 to 20)
#    0.000    1.875    2.500    3.375    0.000    3.250 
#    0.000    0.000    0.000    1.875    0.000    0.000 
#    0.000    0.000    0.000    0.000    0.000    0.000 
#
# Total GULP energy -178245.783506 kJ/mol
# GULP energy per Si atom -5570.180735 kJ/mol
# Density = 1.757453 g / cm^3
# Si number density = 17.614618 Si / 1000 Ang^3
#
#
#
# Elastic Constant Matrix: (Units=GPa)
#
#
# Indices 1 2 3 4 5 6 
#
# 1 48.9524 50.0245 25.8134 0.0000 -9.4145 0.0000
# 2 50.0245 105.9801 59.5966 0.0000 -9.0663 0.0000
# 3 25.8134 59.5966 85.0558 0.0000 -5.0109 0.0000
# 4 0.0000 0.0000 0.0000 0.3419 0.0000 -0.7424
# 5 -9.4145 -9.0663 -5.0109 0.0000 18.3431 0.0000
# 6 0.0000 0.0000 0.0000 -0.7424 0.0000 30.3612
#
#
#
# Elastic Compliance Matrix: (Units=1/GPa)
#
#
# Indices 1 2 3 4 5 6 
#
# 1 0.042128 -0.019886 0.001873 0.000000 0.012305 0.000000
# 2 -0.019886 0.025384 -0.011803 0.000000 -0.000884 0.000000
# 3 0.001873 -0.011803 0.019485 0.000000 0.000451 0.000000
# 4 0.000000 0.000000 0.000000 3.088477 0.000000 0.075524
# 5 0.012305 -0.000884 0.000451 0.000000 0.060518 0.000000
# 6 0.000000 0.000000 0.000000 0.075524 0.000000 0.034784
#
#
# Mechanical properties :
#
#
# Convention : Reuss Voigt Hill
#
# Bulk Modulus (GPa) = 36.54198 56.76195 46.65197
# Shear Modulus (GPa) = 1.49722 16.77950 9.13836
#
# Velocity S-wave (km/s) = 0.92295 3.08975 2.28018
# Velocity P-wave (km/s) = 4.68253 6.70992 5.78572
#
# Compressibility (1/GPa) = 0.02736578
#
# Stress axis : x y z
#
# Youngs Moduli (GPa) = 23.73702 39.39527 51.32166
#
# Poissons Ratio (x) = 0.78341 -0.09613
# Poissons Ratio (y) = 0.47203 0.60574
# Poissons Ratio (z) = -0.04446 0.46497
#
# Static dielectric constant tensor:
#      x y z
#    x 1.612080 0.000000 -0.025770 
#    y 0.000000 1.604800 0.000000 
#    z -0.025770 0.000000 1.621890 
# 
# From -- ./inp_files/189493.got.cif
#   From: 2010.05.17/outbox.cif.g08.bks.cpg/sg12_95_cif.got.tgz:189493.got - 2010.06.03 13:09:07.
