data_PCOD9174740
_publ_section_title
;
Structure prediction by ZEFSAII (Michael W. Deem and Ramdas Pophale) SiO2 
 PCOD9174740
Probable space group: C 2/M
;
_chemical_formula_sum "Si O2"
_cell_formula_units_Z 64
_cell_length_a 23.312757
_cell_length_b 11.232807
_cell_length_c 25.576572
_cell_angle_alpha 90.000000
_cell_angle_beta 147.402791
_cell_angle_gamma 90.000000
_cell_volume 3608.238418
_symmetry_space_group_name_H-M "C 2/M"
_symmetry_group_IT_number 12
_symmetry_cell_setting 'monoclinic'
loop_
_space_group_symop_operation_xyz
x,y,z
-x,y,-z
-x,-y,-z
x,-y,z
1/2+x,1/2+y,z
1/2-x,1/2+y,-z
1/2-x,1/2-y,-z
1/2+x,1/2-y,z
loop_
_atom_site_type_symbol
_atom_site_label
_atom_site_fract_x
_atom_site_fract_y
_atom_site_fract_z
Si Si1 0.718436 0.639383 0.576046
Si Si2 0.505610 0.642530 0.360959
Si Si3 0.682835 0.243570 0.023898
Si Si4 0.340866 0.137452 0.777900
Si Si5 0.419974 0.268945 0.694591
Si Si6 0.735779 0.640611 0.810421
Si Si7 0.878339 0.369642 0.125572
Si Si8 0.472577 0.367984 0.845195
O O1 0.728144 0.500000 0.567767
O O2 0.597460 0.678072 0.472490
O O3 0.757273 0.646216 0.665785
O O4 0.800623 0.720385 0.606865
O O5 0.498778 0.500000 0.358019
O O6 0.547435 0.678938 0.335942
O O7 0.386057 0.686761 0.280002
O O8 0.693050 0.203854 0.091116
O O9 0.800309 0.277613 0.094025
O O10 0.641299 0.144540 0.951337
O O11 0.598685 0.349356 0.950311
O O12 0.283393 0.151688 0.789264
O O13 0.419602 0.249806 0.830224
O O14 0.385182 0.000000 0.809624
O O15 0.500327 0.160311 0.768650
O O16 0.443849 0.356569 0.761579
O O17 0.734524 0.500000 0.822543
O O18 0.849952 0.500000 0.121827
O O19 0.440101 0.500000 0.838859
#
# Coordination Sequence:
#
# PCOD9174740 Si02
#       8
#     8   8   8   8   8   8   8   8
#     4   9  18  32  52  79 106 136 173 223 271 315
#     4  10  19  31  51  79 108 134 173 222 272 318
#     4  10  20  33  49  76 105 139 177 217 261 320
#     4   9  20  38  58  79 105 140 183 226 270 317
#     4  10  18  32  52  77 108 140 174 211 263 325
#     4  10  20  35  54  77 106 140 180 225 267 315
#     4  10  19  31  49  73 106 142 174 212 262 318
#     4  10  21  36  56  80 109 144 181 220 267 321
#
# _framework density 17.737186999999999
#
# number of rings (size 3 to 8) (size 9 to 14) (size 15 to 20)
#    0.000    2.250    1.250    1.875    0.000    4.500 
#    0.000    5.625    0.000    0.750    0.000    3.500 
#    0.000    0.000    0.000    0.000    0.000    0.000 
#
# Total GULP energy -178281.112469 kJ/mol
# GULP energy per Si atom -5571.284765 kJ/mol
# Density = 1.769682 g / cm^3
# Si number density = 17.737187 Si / 1000 Ang^3
#
#
#
# Elastic Constant Matrix: (Units=GPa)
#
#
# Indices 1 2 3 4 5 6 
#
# 1 54.2243 18.6991 15.1285 0.0000 -7.7447 0.0000
# 2 18.6991 60.1762 17.9027 0.0000 3.8439 0.0000
# 3 15.1285 17.9027 57.1192 0.0000 5.8911 0.0000
# 4 0.0000 0.0000 0.0000 1.6440 0.0000 2.7725
# 5 -7.7447 3.8439 5.8911 0.0000 14.1289 0.0000
# 6 0.0000 0.0000 0.0000 2.7725 0.0000 20.9288
#
#
#
# Elastic Compliance Matrix: (Units=1/GPa)
#
#
# Indices 1 2 3 4 5 6 
#
# 1 0.025328 -0.007155 -0.006372 0.000000 0.018487 0.000000
# 2 -0.007155 0.020448 -0.003694 0.000000 -0.007945 0.000000
# 3 -0.006372 -0.003694 0.021536 0.000000 -0.011467 0.000000
# 4 0.000000 0.000000 0.000000 0.783260 0.000000 -0.103762
# 5 0.018487 -0.007945 -0.011467 0.000000 0.087853 0.000000
# 6 0.000000 0.000000 0.000000 -0.103762 0.000000 0.061527
#
#
# Mechanical properties :
#
#
# Convention : Reuss Voigt Hill
#
# Bulk Modulus (GPa) = 30.42549 30.55338 30.48943
# Shear Modulus (GPa) = 4.78308 15.32630 10.05469
#
# Velocity S-wave (km/s) = 1.64393 2.94271 2.38349
# Velocity P-wave (km/s) = 4.56005 5.36741 4.98012
#
# Compressibility (1/GPa) = 0.03286718
#
# Stress axis : x y z
#
# Youngs Moduli (GPa) = 39.48232 48.90471 46.43478
#
# Poissons Ratio (x) = 0.34994 0.29590
# Poissons Ratio (y) = 0.28251 0.17154
# Poissons Ratio (z) = 0.25159 0.18067
#
# Static dielectric constant tensor:
#      x y z
#    x 1.604270 0.000000 0.009930 
#    y 0.000000 1.607000 0.000000 
#    z 0.009930 0.000000 1.609390 
# 
# From -- ./inp_files/174659.got.cif
#   From: 2010.05.17/outbox.cif.g08.bks.cpg/sg12_88_cif.got.tgz:174659.got - 2010.06.03 13:09:07.
