data_PCOD9174406
_publ_section_title
;
Structure prediction by ZEFSAII (Michael W. Deem and Ramdas Pophale) SiO2 
 PCOD9174406
Probable space group: C 2/M
;
_chemical_formula_sum "Si O2"
_cell_formula_units_Z 64
_cell_length_a 22.316423
_cell_length_b 9.916450
_cell_length_c 17.925548
_cell_angle_alpha 90.000000
_cell_angle_beta 126.588448
_cell_angle_gamma 90.000000
_cell_volume 3185.188110
_symmetry_space_group_name_H-M "C 2/M"
_symmetry_group_IT_number 12
_symmetry_cell_setting 'monoclinic'
loop_
_space_group_symop_operation_xyz
x,y,z
-x,y,-z
-x,-y,-z
x,-y,z
1/2+x,1/2+y,z
1/2-x,1/2+y,-z
1/2-x,1/2-y,-z
1/2+x,1/2-y,z
loop_
_atom_site_type_symbol
_atom_site_label
_atom_site_fract_x
_atom_site_fract_y
_atom_site_fract_z
Si Si1 0.152309 0.644501 0.374761
Si Si2 0.136885 0.652250 0.761105
Si Si3 0.515449 0.653509 0.626282
Si Si4 0.309491 0.341315 0.881431
Si Si5 0.053754 0.337453 0.968065
Si Si6 0.725996 0.343797 0.315138
Si Si7 0.988593 0.277516 0.224644
Si Si8 0.882974 0.343251 0.482046
O O1 0.187120 0.500000 0.382731
O O2 0.187380 0.755284 0.348667
O O3 0.156711 0.667618 0.466060
O O4 0.063995 0.640368 0.293356
O O5 0.133606 0.500000 0.727327
O O6 0.310144 0.324627 0.792405
O O7 0.223121 0.684187 0.839605
O O8 0.086801 0.654653 0.799283
O O9 0.520305 0.500000 0.605337
O O10 0.591550 0.739478 0.678426
O O11 0.500596 0.658651 0.705754
O O12 0.451007 0.739187 0.537554
O O13 0.326205 0.500000 0.910833
O O14 0.367829 0.236595 0.958441
O O15 0.060420 0.500000 0.960045
O O16 0.020372 0.264333 0.869997
O O17 0.000000 0.319992 0.000000
O O18 0.719431 0.500000 0.330777
O O19 0.814444 0.315280 0.376406
O O20 0.908635 0.500000 0.493435
#
# Coordination Sequence:
#
# PCOD9174406 Si02
#       8
#     8   8   8   8   8   8   8   8
#     4  10  18  31  55  82 107 140 184 228 274 326
#     4   9  18  37  61  79 107 147 183 223 271 327
#     4   9  19  33  56  86 111 136 178 232 276 318
#     4  10  23  40  57  81 113 147 185 228 274 322
#     4  11  23  39  60  85 113 147 186 222 267 328
#     4  10  21  36  52  77 113 149 184 225 277 329
#     4   9  20  35  59  80 109 144 179 223 271 329
#     4   9  18  33  54  78 109 148 186 222 270 332
#
# _framework density 20.093005000000002
#
# number of rings (size 3 to 8) (size 9 to 14) (size 15 to 20)
#    0.750    1.625    0.000    2.625    0.000    5.750 
#    0.000    0.625    0.000    3.750    0.000    0.000 
#    0.000    0.000    0.000    0.000    0.000    0.000 
#
# Total GULP energy -178308.410194 kJ/mol
# GULP energy per Si atom -5572.137819 kJ/mol
# Density = 2.004727 g / cm^3
# Si number density = 20.093005 Si / 1000 Ang^3
#
#
#
# Elastic Constant Matrix: (Units=GPa)
#
#
# Indices 1 2 3 4 5 6 
#
# 1 73.1010 24.1109 -0.1117 0.0000 -2.3414 0.0000
# 2 24.1109 56.8737 9.0295 0.0000 4.2559 0.0000
# 3 -0.1117 9.0295 52.6514 0.0000 -4.0911 0.0000
# 4 0.0000 0.0000 0.0000 -56.1952 0.0000 -10.5238
# 5 -2.3414 4.2559 -4.0911 0.0000 25.3855 0.0000
# 6 0.0000 0.0000 0.0000 -10.5238 0.0000 17.5909
#
#
#
# Elastic Compliance Matrix: (Units=1/GPa)
#
#
# Indices 1 2 3 4 5 6 
#
# 1 0.016194 -0.007329 0.001522 0.000000 0.002968 0.000000
# 2 -0.007329 0.021718 -0.004127 0.000000 -0.004982 0.000000
# 3 0.001522 -0.004127 0.020019 0.000000 0.004059 0.000000
# 4 0.000000 0.000000 0.000000 -0.016002 0.000000 -0.009573
# 5 0.002968 -0.004982 0.004059 0.000000 0.041156 0.000000
# 6 0.000000 0.000000 0.000000 -0.009573 0.000000 0.051120
#
#
# Mechanical properties :
#
#
# Convention : Reuss Voigt Hill
#
# Bulk Modulus (GPa) = 26.27246 27.63152 26.95199
# Shear Modulus (GPa) = 29.98291 7.32940 18.65616
#
# Velocity S-wave (km/s) = 3.86710 1.91198 3.05042
# Velocity P-wave (km/s) = 5.74831 4.31924 5.08424
#
# Compressibility (1/GPa) = 0.03806267
#
# Stress axis : x y z
#
# Youngs Moduli (GPa) = 61.74958 46.04476 49.95199
#
# Poissons Ratio (x) = 0.33747 -0.07602
# Poissons Ratio (y) = 0.45257 0.20616
# Poissons Ratio (z) = -0.09397 0.19004
#
# Static dielectric constant tensor:
#      x y z
#    x 1.730980 0.000000 -0.029060 
#    y 0.000000 1.689040 0.000000 
#    z -0.029060 0.000000 1.744740 
# 
# From -- ./inp_files/320122.got.cif
#   From: 2010.05.17/outbox.cif.g08.bks.cpg/sg12_161_cif.got.tgz:320122.got - 2010.06.03 13:09:07.
