data_PCOD9174495
_publ_section_title
;
Structure prediction by ZEFSAII (Michael W. Deem and Ramdas Pophale) SiO2 
 PCOD9174495
Probable space group: C 2/M
;
_chemical_formula_sum "Si O2"
_cell_formula_units_Z 56
_cell_length_a 28.001783
_cell_length_b 12.794093
_cell_length_c 11.594766
_cell_angle_alpha 90.000000
_cell_angle_beta 139.333723
_cell_angle_gamma 90.000000
_cell_volume 2706.904640
_symmetry_space_group_name_H-M "C 2/M"
_symmetry_group_IT_number 12
_symmetry_cell_setting 'monoclinic'
loop_
_space_group_symop_operation_xyz
x,y,z
-x,y,-z
-x,-y,-z
x,-y,z
1/2+x,1/2+y,z
1/2-x,1/2+y,-z
1/2-x,1/2-y,-z
1/2+x,1/2-y,z
loop_
_atom_site_type_symbol
_atom_site_label
_atom_site_fract_x
_atom_site_fract_y
_atom_site_fract_z
Si Si1 0.144765 0.379780 0.514683
Si Si2 0.966611 0.123302 0.816084
Si Si3 0.727547 0.877734 0.064605
Si Si4 0.058471 0.879831 0.762176
Si Si5 0.369078 0.248604 0.290796
Si Si6 0.838010 0.762845 0.652947
Si Si7 0.188157 0.188481 0.146065
O O1 0.124490 0.500000 0.490503
O O2 0.110663 0.307429 0.552599
O O3 0.131712 0.337476 0.360793
O O4 0.232756 0.364168 0.692729
O O5 0.879567 0.147370 0.656935
O O6 0.004654 0.157678 0.766411
O O7 0.979387 0.000000 0.841037
O O8 0.000000 0.164354 0.000000
O O9 0.811984 0.843717 0.205822
O O10 0.700389 0.804006 0.117968
O O11 0.719261 0.000000 0.066407
O O12 0.679746 0.836912 0.868614
O O13 0.069510 0.798673 0.678222
O O14 0.040770 0.000000 0.697160
O O15 0.138583 0.877099 0.969127
O O16 0.750000 0.750000 0.500000
O O17 0.854155 0.794116 0.812963
#
# Coordination Sequence:
#
# PCOD9174495 Si02
#       7
#     8   8   8   8   8   8   8
#     4  10  20  34  53  75 109 155 199 233 274 333
#     4  10  20  36  62  91 115 144 185 235 290 345
#     4   9  16  27  46  73 109 144 184 234 284 332
#     4  10  18  31  57  86 113 142 178 232 295 341
#     4   9  18  30  47  76 108 146 189 234 278 331
#     4  10  21  36  54  83 118 151 186 230 281 340
#     4   9  18  31  51  83 112 143 186 237 290 338
#
# _framework density 20.687836999999998
#
# number of rings (size 3 to 8) (size 9 to 14) (size 15 to 20)
#    0.000    2.429    1.429    2.143    0.000    2.857 
#    0.000    7.143    0.000    7.286    0.000    0.000 
#    0.000    0.000    0.000    0.000    0.000    0.000 
#
# Total GULP energy -155948.928887 kJ/mol
# GULP energy per Si atom -5569.604603 kJ/mol
# Density = 2.064075 g / cm^3
# Si number density = 20.687837 Si / 1000 Ang^3
#
#
#
# Elastic Constant Matrix: (Units=GPa)
#
#
# Indices 1 2 3 4 5 6 
#
# 1 161.1995 36.9420 12.8392 0.0000 -19.0157 0.0000
# 2 36.9420 88.3549 7.5850 0.0000 -14.6947 0.0000
# 3 12.8392 7.5850 23.9821 0.0000 -0.6530 0.0000
# 4 0.0000 0.0000 0.0000 10.2938 0.0000 2.7697
# 5 -19.0157 -14.6947 -0.6530 0.0000 25.0060 0.0000
# 6 0.0000 0.0000 0.0000 2.7697 0.0000 15.3949
#
#
#
# Elastic Compliance Matrix: (Units=1/GPa)
#
#
# Indices 1 2 3 4 5 6 
#
# 1 0.007457 -0.002121 -0.003203 0.000000 0.004340 0.000000
# 2 -0.002121 0.013497 -0.002963 0.000000 0.006241 0.000000
# 3 -0.003203 -0.002963 0.044268 0.000000 -0.003021 0.000000
# 4 0.000000 0.000000 0.000000 0.102088 0.000000 -0.018367
# 5 0.004340 0.006241 -0.003021 0.000000 0.046880 0.000000
# 6 0.000000 0.000000 0.000000 -0.018367 0.000000 0.068261
#
#
# Mechanical properties :
#
#
# Convention : Reuss Voigt Hill
#
# Bulk Modulus (GPa) = 20.55641 43.14099 31.84870
# Shear Modulus (GPa) = 15.86091 24.55028 20.20559
#
# Velocity S-wave (km/s) = 2.77190 3.44859 3.12859
# Velocity P-wave (km/s) = 4.49473 6.06264 5.33658
#
# Compressibility (1/GPa) = 0.04864664
#
# Stress axis : x y z
#
# Youngs Moduli (GPa) = 134.10825 74.08962 22.58988
#
# Poissons Ratio (x) = 0.15713 0.07236
# Poissons Ratio (y) = 0.28442 0.06694
# Poissons Ratio (z) = 0.42956 0.21956
#
# Static dielectric constant tensor:
#      x y z
#    x 1.782630 0.000000 -0.026390 
#    y 0.000000 1.698410 0.000000 
#    z -0.026390 0.000000 1.851080 
# 
# From -- ./inp_files/182590.got.cif
#   From: 2010.05.17/outbox.cif.g08.bks.cpg/sg12_92_cif.got.tgz:182590.got - 2010.06.03 13:09:07.
