data_PCOD9174068
_publ_section_title
;
Structure prediction by ZEFSAII (Michael W. Deem and Ramdas Pophale) SiO2 
 PCOD9174068
Probable space group: C 2/M
;
_chemical_formula_sum "Si O2"
_cell_formula_units_Z 44
_cell_length_a 21.306142
_cell_length_b 20.910253
_cell_length_c 5.193570
_cell_angle_alpha 90.000000
_cell_angle_beta 102.414058
_cell_angle_gamma 90.000000
_cell_volume 2259.724598
_symmetry_space_group_name_H-M "C 2/M"
_symmetry_group_IT_number 12
_symmetry_cell_setting 'monoclinic'
loop_
_space_group_symop_operation_xyz
x,y,z
-x,y,-z
-x,-y,-z
x,-y,z
1/2+x,1/2+y,z
1/2-x,1/2+y,-z
1/2-x,1/2-y,-z
1/2+x,1/2-y,z
loop_
_atom_site_type_symbol
_atom_site_label
_atom_site_fract_x
_atom_site_fract_y
_atom_site_fract_z
Si Si1 0.957165 0.000000 0.708655
Si Si2 0.839767 0.250768 0.356107
Si Si3 0.888944 0.890877 0.908270
Si Si4 0.748722 0.500000 0.438798
Si Si5 0.927238 0.243597 0.942866
Si Si6 0.833873 0.000000 0.147645
Si Si7 0.758261 0.144372 0.523079
O O1 0.917919 0.934753 0.711439
O O2 0.000000 0.000000 0.500000
O O3 0.000000 0.000000 0.000000
O O4 0.892704 0.246980 0.633366
O O5 0.794046 0.186284 0.326343
O O6 0.792513 0.308131 0.393638
O O7 0.877287 0.265314 0.122877
O O8 0.932119 0.831450 0.014339
O O9 0.819189 0.866716 0.760257
O O10 0.875851 0.938496 0.128005
O O11 0.691585 0.500000 0.592219
O O12 0.773984 0.572747 0.526604
O O13 0.722735 0.500000 0.121532
O O14 0.000000 0.270850 0.000000
#
# Coordination Sequence:
#
# PCOD9174068 Si02
#       7
#     4   8   8   4   8   4   8
#     4  11  24  37  50  76 116 159 189 215 251 300
#     4  10  22  37  56  80 111 141 176 227 280 324
#     4   9  20  34  53  76 108 145 184 221 256 307
#     4  10  18  31  52  77 107 135 168 206 256 324
#     4  11  22  37  55  77 104 143 186 224 267 328
#     4   9  18  30  46  73 106 140 167 205 250 292
#     4   9  20  36  56  83 111 141 178 226 279 318
#
# _framework density 19.471401
#
# number of rings (size 3 to 8) (size 9 to 14) (size 15 to 20)
#    0.000    2.182    0.000    2.727    0.000   21.091 
#    0.000    0.000    0.000    0.000    0.000    3.818 
#    0.000    0.000    0.000    0.000    0.000    0.000 
#
# Total GULP energy -122485.802499 kJ/mol
# GULP energy per Si atom -5567.536477 kJ/mol
# Density = 1.942708 g / cm^3
# Si number density = 19.471401 Si / 1000 Ang^3
#
#
#
# Elastic Constant Matrix: (Units=GPa)
#
#
# Indices 1 2 3 4 5 6 
#
# 1 76.4618 24.1962 7.6060 0.0000 -17.4221 0.0000
# 2 24.1962 97.5141 -6.8056 0.0000 -7.0111 0.0000
# 3 7.6060 -6.8056 62.0126 0.0000 -16.6591 0.0000
# 4 0.0000 0.0000 0.0000 -66.2288 0.0000 19.6016
# 5 -17.4221 -7.0111 -16.6591 0.0000 28.6387 0.0000
# 6 0.0000 0.0000 0.0000 19.6016 0.0000 16.2168
#
#
#
# Elastic Compliance Matrix: (Units=1/GPa)
#
#
# Indices 1 2 3 4 5 6 
#
# 1 0.016203 -0.003362 0.000084 0.000000 0.009083 0.000000
# 2 -0.003362 0.011389 0.002207 0.000000 0.002027 0.000000
# 3 0.000084 0.002207 0.019575 0.000000 0.011978 0.000000
# 4 0.000000 0.000000 0.000000 -0.011121 0.000000 0.013442
# 5 0.009083 0.002027 0.011978 0.000000 0.047907 0.000000
# 6 0.000000 0.000000 0.000000 0.013442 0.000000 0.045417
#
#
# Mechanical properties :
#
#
# Convention : Reuss Voigt Hill
#
# Bulk Modulus (GPa) = 22.20988 31.77574 26.99281
# Shear Modulus (GPa) = 34.12463 9.79149 21.95806
#
# Velocity S-wave (km/s) = 4.19089 2.24490 3.36178
# Velocity P-wave (km/s) = 5.90333 4.80354 5.38160
#
# Compressibility (1/GPa) = 0.04502500
#
# Stress axis : x y z
#
# Youngs Moduli (GPa) = 61.71522 87.80577 51.08437
#
# Poissons Ratio (x) = 0.29517 -0.00428
# Poissons Ratio (y) = 0.20747 -0.11272
# Poissons Ratio (z) = -0.00517 -0.19375
#
# Static dielectric constant tensor:
#      x y z
#    x 1.703630 0.000000 0.000050 
#    y 0.000000 1.764360 0.000000 
#    z 0.000050 0.000000 1.729960 
# 
# From -- ./inp_files/16097.got.cif
#   From: 2010.05.17/outbox.cif.g08.bks.cpg/sg12_9_cif.got.tgz:16097.got - 2010.06.03 13:09:07.
