data_PCOD9174694
_publ_section_title
;
Structure prediction by ZEFSAII (Michael W. Deem and Ramdas Pophale) SiO2 
 PCOD9174694
Probable space group: C 2/M
;
_chemical_formula_sum "Si O2"
_cell_formula_units_Z 64
_cell_length_a 24.224022
_cell_length_b 7.481289
_cell_length_c 15.699643
_cell_angle_alpha 90.000000
_cell_angle_beta 85.857154
_cell_angle_gamma 90.000000
_cell_volume 2837.763385
_symmetry_space_group_name_H-M "C 2/M"
_symmetry_group_IT_number 12
_symmetry_cell_setting 'monoclinic'
loop_
_space_group_symop_operation_xyz
x,y,z
-x,y,-z
-x,-y,-z
x,-y,z
1/2+x,1/2+y,z
1/2-x,1/2+y,-z
1/2-x,1/2-y,-z
1/2+x,1/2-y,z
loop_
_atom_site_type_symbol
_atom_site_label
_atom_site_fract_x
_atom_site_fract_y
_atom_site_fract_z
Si Si1 0.351067 0.288693 0.348565
Si Si2 0.264052 0.712403 0.702030
Si Si3 0.715599 0.209126 0.114626
Si Si4 0.835434 0.204856 0.048263
Si Si5 0.960014 0.782331 0.581531
Si Si6 0.457639 0.280965 0.077623
Si Si7 0.030420 0.218560 0.732252
Si Si8 0.337406 0.718395 0.540420
O O1 0.359515 0.500000 0.358844
O O2 0.300302 0.263454 0.290492
O O3 0.409388 0.219899 0.307883
O O4 0.333902 0.217408 0.443516
O O5 0.267342 0.500000 0.699699
O O6 0.294544 0.771427 0.784342
O O7 0.291554 0.782714 0.612088
O O8 0.672844 0.293190 0.053062
O O9 0.716256 0.000000 0.093204
O O10 0.777626 0.283966 0.089469
O O11 0.835904 0.000000 0.079195
O O12 0.894584 0.281137 0.067978
O O13 0.897492 0.729661 0.569339
O O14 0.000000 0.725189 0.500000
O O15 0.984805 0.724020 0.668923
O O16 0.960690 0.000000 0.580982
O O17 0.456565 0.500000 0.075320
O O18 0.476836 0.226538 0.169562
O O19 0.500000 0.222798 0.000000
O O20 0.030574 0.000000 0.731976
O O21 0.334549 0.500000 0.539408
#
# Coordination Sequence:
#
# PCOD9174694 Si02
#       8
#     8   8   8   8   8   8   8   8
#     4  10  18  32  52  72  99 134 174 214 254 302
#     4  11  22  33  47  74 108 136 167 207 258 309
#     4  10  20  35  55  77 100 133 174 210 253 307
#     4   9  18  34  55  77 103 132 168 213 258 302
#     4   9  14  25  45  71 100 128 164 214 262 301
#     4   9  17  28  44  72 107 136 163 203 258 310
#     4   9  16  26  46  73 100 132 169 208 252 301
#     4   9  18  30  46  72 104 135 167 213 263 305
#
# _framework density 22.552973000000001
#
# number of rings (size 3 to 8) (size 9 to 14) (size 15 to 20)
#    0.000    2.500    1.250    1.875    0.000    3.500 
#    0.000    4.375    0.000    0.375    0.000    7.000 
#    0.000    0.000    0.000    0.000    0.000    0.000 
#
# Total GULP energy -178757.228891 kJ/mol
# GULP energy per Si atom -5586.163403 kJ/mol
# Density = 2.250164 g / cm^3
# Si number density = 22.552973 Si / 1000 Ang^3
#
#
#
# Elastic Constant Matrix: (Units=GPa)
#
#
# Indices 1 2 3 4 5 6 
#
# 1 62.8076 -1.7353 17.4065 0.0000 22.6985 0.0000
# 2 -1.7353 61.9596 -3.0521 0.0000 -12.6473 0.0000
# 3 17.4065 -3.0521 142.3279 0.0000 15.9855 0.0000
# 4 0.0000 0.0000 0.0000 5.5026 0.0000 6.4409
# 5 22.6985 -12.6473 15.9855 0.0000 24.1759 0.0000
# 6 0.0000 0.0000 0.0000 6.4409 0.0000 10.1501
#
#
#
# Elastic Compliance Matrix: (Units=1/GPa)
#
#
# Indices 1 2 3 4 5 6 
#
# 1 0.025238 -0.004597 -0.000274 0.000000 -0.025919 0.000000
# 2 -0.004597 0.018977 -0.000681 0.000000 0.014694 0.000000
# 3 -0.000274 -0.000681 0.007622 0.000000 -0.005139 0.000000
# 4 0.000000 0.000000 0.000000 0.706517 0.000000 -0.448330
# 5 -0.025919 0.014694 -0.005139 0.000000 0.076784 0.000000
# 6 0.000000 0.000000 0.000000 -0.448330 0.000000 0.383014
#
#
# Mechanical properties :
#
#
# Convention : Reuss Voigt Hill
#
# Bulk Modulus (GPa) = 24.55110 32.48147 28.51628
# Shear Modulus (GPa) = 4.02306 24.93079 14.47693
#
# Velocity S-wave (km/s) = 1.33705 3.32841 2.53634
# Velocity P-wave (km/s) = 3.64598 5.40413 4.60966
#
# Compressibility (1/GPa) = 0.04073138
#
# Stress axis : x y z
#
# Youngs Moduli (GPa) = 39.62322 52.69636 131.19732
#
# Poissons Ratio (x) = 0.24226 0.03595
# Poissons Ratio (y) = 0.18216 0.08937
# Poissons Ratio (z) = 0.01086 0.03590
#
# Static dielectric constant tensor:
#      x y z
#    x 1.822330 0.000000 0.015610 
#    y 0.000000 1.890190 0.000000 
#    z 0.015610 0.000000 1.853620 
# 
# From -- ./inp_files/238792.got.cif
#   From: 2010.05.17/outbox.cif.g08.bks.cpg/sg12_120_cif.got.tgz:238792.got - 2010.06.03 13:09:07.
