data_PCOD9174808
_publ_section_title
;
Structure prediction by ZEFSAII (Michael W. Deem and Ramdas Pophale) SiO2 
 PCOD9174808
Probable space group: C 2/M
;
_chemical_formula_sum "Si O2"
_cell_formula_units_Z 48
_cell_length_a 11.215148
_cell_length_b 14.756686
_cell_length_c 11.966992
_cell_angle_alpha 90.000000
_cell_angle_beta 89.623142
_cell_angle_gamma 90.000000
_cell_volume 1980.475397
_symmetry_space_group_name_H-M "C 2/M"
_symmetry_group_IT_number 12
_symmetry_cell_setting 'monoclinic'
loop_
_space_group_symop_operation_xyz
x,y,z
-x,y,-z
-x,-y,-z
x,-y,z
1/2+x,1/2+y,z
1/2-x,1/2+y,-z
1/2-x,1/2-y,-z
1/2+x,1/2-y,z
loop_
_atom_site_type_symbol
_atom_site_label
_atom_site_fract_x
_atom_site_fract_y
_atom_site_fract_z
Si Si1 0.516175 0.103481 0.774634
Si Si2 0.905444 0.105062 0.748268
Si Si3 0.703509 0.778563 0.848679
Si Si4 0.674820 0.225773 0.356094
Si Si5 0.111140 0.899601 0.914441
Si Si6 0.364073 0.904963 0.457015
O O1 0.583261 0.163843 0.866045
O O2 0.408409 0.159587 0.720677
O O3 0.616065 0.097154 0.675064
O O4 0.485141 0.000000 0.804696
O O5 0.815269 0.152487 0.839367
O O6 0.888453 0.175251 0.645970
O O7 0.037345 0.105682 0.798414
O O8 0.873687 0.000000 0.728670
O O9 0.709532 0.738733 0.720862
O O10 0.698232 0.686498 0.920166
O O11 0.688921 0.176291 0.473017
O O12 0.166822 0.000000 0.925117
O O13 0.000000 0.895145 0.000000
O O14 0.500000 0.907347 0.500000
O O15 0.305202 0.000000 0.489221
#
# Coordination Sequence:
#
# PCOD9174808 Si02
#       6
#     8   8   8   8   8   8
#     4  10  18  32  53  76 103 140 174 208 251 293
#     4   9  19  35  52  75 103 134 167 206 257 307
#     4  10  19  33  54  79  99 137 166 213 248 303
#     4   9  18  30  51  77 101 137 171 216 242 292
#     4  10  21  38  57  76 102 133 164 203 259 315
#     4   8  15  28  47  73 105 135 171 211 247 286
#
# _framework density 24.236602999999999
#
# number of rings (size 3 to 8) (size 9 to 14) (size 15 to 20)
#    1.000    1.667    1.667    2.000    0.000    2.667 
#    0.000    0.000    0.000    7.500    0.000    0.000 
#    0.000    0.000    0.000    0.000    0.000    0.000 
#
# Total GULP energy -133683.672681 kJ/mol
# GULP energy per Si atom -5570.153028 kJ/mol
# Density = 2.418144 g / cm^3
# Si number density = 24.236603 Si / 1000 Ang^3
#
#
#
# Elastic Constant Matrix: (Units=GPa)
#
#
# Indices 1 2 3 4 5 6 
#
# 1 50.2796 49.3950 -17.8160 0.0000 9.7938 0.0000
# 2 49.3950 255.5015 14.5882 0.0000 -6.0642 0.0000
# 3 -17.8160 14.5882 29.7459 0.0000 -3.6858 0.0000
# 4 0.0000 0.0000 0.0000 9.2581 0.0000 -11.8610
# 5 9.7938 -6.0642 -3.6858 0.0000 19.8480 0.0000
# 6 0.0000 0.0000 0.0000 -11.8610 0.0000 46.0807
#
#
#
# Elastic Compliance Matrix: (Units=1/GPa)
#
#
# Indices 1 2 3 4 5 6 
#
# 1 0.045068 -0.010893 0.029854 0.000000 -0.020023 0.000000
# 2 -0.010893 0.006675 -0.009088 0.000000 0.005727 0.000000
# 3 0.029854 -0.009088 0.055053 0.000000 -0.007284 0.000000
# 4 0.000000 0.000000 0.000000 0.161156 0.000000 0.041481
# 5 -0.020023 0.005727 -0.007284 0.000000 0.060660 0.000000
# 6 0.000000 0.000000 0.000000 0.041481 0.000000 0.032378
#
#
# Mechanical properties :
#
#
# Convention : Reuss Voigt Hill
#
# Bulk Modulus (GPa) = 7.90240 47.54016 27.72128
# Shear Modulus (GPa) = 13.04038 34.32802 23.68420
#
# Velocity S-wave (km/s) = 2.32210 3.76755 3.12942
# Velocity P-wave (km/s) = 3.23374 6.21157 4.95180
#
# Compressibility (1/GPa) = 0.12654385
#
# Stress axis : x y z
#
# Youngs Moduli (GPa) = 22.18848 149.82386 18.16421
#
# Poissons Ratio (x) = 1.63198 -0.54228
# Poissons Ratio (y) = 0.24169 0.16507
# Poissons Ratio (z) = -0.66242 1.36158
#
# Static dielectric constant tensor:
#      x y z
#    x 1.926850 0.000000 0.073830 
#    y 0.000000 2.023240 0.000000 
#    z 0.073830 0.000000 2.028150 
# 
# From -- ./inp_files/269474.got.cif
#   From: 2010.05.17/outbox.cif.g08.bks.cpg/sg12_135_cif.got.tgz:269474.got - 2010.06.03 13:09:07.
