data_PCOD9174137
_publ_section_title
;
Structure prediction by ZEFSAII (Michael W. Deem and Ramdas Pophale) SiO2 
 PCOD9174137
Probable space group: C 2/M
;
_chemical_formula_sum "Si O2"
_cell_formula_units_Z 56
_cell_length_a 24.684086
_cell_length_b 9.230582
_cell_length_c 12.165607
_cell_angle_alpha 90.000000
_cell_angle_beta 101.749782
_cell_angle_gamma 90.000000
_cell_volume 2713.833040
_symmetry_space_group_name_H-M "C 2/M"
_symmetry_group_IT_number 12
_symmetry_cell_setting 'monoclinic'
loop_
_space_group_symop_operation_xyz
x,y,z
-x,y,-z
-x,-y,-z
x,-y,z
1/2+x,1/2+y,z
1/2-x,1/2+y,-z
1/2-x,1/2-y,-z
1/2+x,1/2-y,z
loop_
_atom_site_type_symbol
_atom_site_label
_atom_site_fract_x
_atom_site_fract_y
_atom_site_fract_z
Si Si1 0.775238 0.674198 0.829750
Si Si2 0.048647 0.325709 0.276067
Si Si3 0.649794 0.332808 0.742383
Si Si4 0.948900 0.834960 0.127413
Si Si5 0.617183 0.672269 0.115785
Si Si6 0.207522 0.337263 0.412560
Si Si7 0.901962 0.665252 0.486432
O O1 0.779607 0.500000 0.850880
O O2 0.710617 0.718452 0.808718
O O3 0.825639 0.758601 0.908114
O O4 0.790972 0.712649 0.710892
O O5 0.055884 0.500000 0.275353
O O6 0.094028 0.249380 0.216144
O O7 0.051692 0.280961 0.407096
O O8 0.991327 0.275866 0.198782
O O9 0.658336 0.500000 0.710692
O O10 0.606922 0.330824 0.824137
O O11 0.620562 0.250507 0.628520
O O12 0.971781 0.000000 0.143644
O O13 0.930550 0.806392 0.995406
O O14 0.624792 0.500000 0.135671
O O15 0.228289 0.500000 0.416569
O O16 0.250000 0.250000 0.500000
O O17 0.149672 0.337128 0.450405
O O18 0.915439 0.500000 0.458553
#
# Coordination Sequence:
#
# PCOD9174137 Si02
#       7
#     8   8   8   8   8   8   8
#     4  10  20  36  58  87 120 154 193 238 290 347
#     4  11  23  41  64  90 117 150 195 247 298 346
#     4  10  22  40  61  85 120 162 197 233 285 352
#     4  10  24  44  60  83 119 157 199 245 291 342
#     4  11  23  39  62  89 118 152 194 247 298 344
#     4  10  18  31  52  82 118 150 185 236 291 345
#     4  10  21  36  56  86 121 149 187 243 295 347
#
# _framework density 20.635017999999999
#
# number of rings (size 3 to 8) (size 9 to 14) (size 15 to 20)
#    0.000    1.714    2.857    1.286    0.000    6.857 
#    0.000    2.857    0.000    0.000    0.000    0.000 
#    0.000    0.000    0.000    0.000    0.000    0.000 
#
# Total GULP energy -156124.366235 kJ/mol
# GULP energy per Si atom -5575.870223 kJ/mol
# Density = 2.058805 g / cm^3
# Si number density = 20.635018 Si / 1000 Ang^3
#
#
#
# Elastic Constant Matrix: (Units=GPa)
#
#
# Indices 1 2 3 4 5 6 
#
# 1 57.1728 24.4212 18.4958 0.0000 17.2496 0.0000
# 2 24.4212 37.4306 31.6297 0.0000 20.3107 0.0000
# 3 18.4958 31.6297 61.8264 0.0000 18.4786 0.0000
# 4 0.0000 0.0000 0.0000 27.6784 0.0000 10.5744
# 5 17.2496 20.3107 18.4786 0.0000 35.1728 0.0000
# 6 0.0000 0.0000 0.0000 10.5744 0.0000 26.4493
#
#
#
# Elastic Compliance Matrix: (Units=1/GPa)
#
#
# Indices 1 2 3 4 5 6 
#
# 1 0.024741 -0.015278 0.001666 0.000000 -0.004186 0.000000
# 2 -0.015278 0.067326 -0.024310 0.000000 -0.018614 0.000000
# 3 0.001666 -0.024310 0.028662 0.000000 -0.001837 0.000000
# 4 0.000000 0.000000 0.000000 0.042643 0.000000 -0.017048
# 5 -0.004186 -0.018614 -0.001837 0.000000 0.042198 0.000000
# 6 0.000000 0.000000 0.000000 -0.017048 0.000000 0.044624
#
#
# Mechanical properties :
#
#
# Convention : Reuss Voigt Hill
#
# Bulk Modulus (GPa) = 22.27896 33.94700 28.11298
# Shear Modulus (GPa) = 14.66280 23.31897 18.99089
#
# Velocity S-wave (km/s) = 2.66856 3.36530 3.03697
# Velocity P-wave (km/s) = 4.50722 5.62025 5.09422
#
# Compressibility (1/GPa) = 0.04488541
#
# Stress axis : x y z
#
# Youngs Moduli (GPa) = 40.41884 14.85301 34.88993
#
# Poissons Ratio (x) = 0.22692 -0.05812
# Poissons Ratio (y) = 0.61752 0.84816
# Poissons Ratio (z) = -0.06733 0.36107
#
# Static dielectric constant tensor:
#      x y z
#    x 1.810710 0.000000 0.052150 
#    y 0.000000 1.734340 0.000000 
#    z 0.052150 0.000000 1.755670 
# 
# From -- ./inp_files/181088.got.cif
#   From: 2010.05.17/outbox.cif.g08.bks.cpg/sg12_91_cif.got.tgz:181088.got - 2010.06.03 13:09:07.
