data_PCOD9174246
_publ_section_title
;
Structure prediction by ZEFSAII (Michael W. Deem and Ramdas Pophale) SiO2 
 PCOD9174246
Probable space group: C 2/M
;
_chemical_formula_sum "Si O2"
_cell_formula_units_Z 56
_cell_length_a 18.462004
_cell_length_b 8.583566
_cell_length_c 29.679649
_cell_angle_alpha 90.000000
_cell_angle_beta 140.862092
_cell_angle_gamma 90.000000
_cell_volume 2968.690031
_symmetry_space_group_name_H-M "C 2/M"
_symmetry_group_IT_number 12
_symmetry_cell_setting 'monoclinic'
loop_
_space_group_symop_operation_xyz
x,y,z
-x,y,-z
-x,-y,-z
x,-y,z
1/2+x,1/2+y,z
1/2-x,1/2+y,-z
1/2-x,1/2-y,-z
1/2+x,1/2-y,z
loop_
_atom_site_type_symbol
_atom_site_label
_atom_site_fract_x
_atom_site_fract_y
_atom_site_fract_z
Si Si1 0.441776 0.813364 0.286027
Si Si2 0.217108 0.188527 0.711368
Si Si3 0.168635 0.185676 0.000862
Si Si4 0.630679 0.310075 0.570941
Si Si5 0.982742 0.686774 0.852066
Si Si6 0.855773 0.814678 0.149734
Si Si7 0.704339 0.811711 0.430574
O O1 0.364471 0.762230 0.290663
O O2 0.393660 0.738449 0.217238
O O3 0.573325 0.763881 0.358148
O O4 0.440049 0.000000 0.280241
O O5 0.177921 0.237231 0.642475
O O6 0.349731 0.229913 0.783858
O O7 0.208053 0.000000 0.709608
O O8 0.044158 0.247382 0.926439
O O9 0.170011 0.000000 0.001162
O O10 0.250000 0.250000 0.000000
O O11 0.230999 0.248240 0.075457
O O12 0.500000 0.258678 0.500000
O O13 0.630687 0.500000 0.570523
O O14 0.713470 0.258985 0.570492
O O15 0.992760 0.500000 0.856927
O O16 0.052749 0.749821 0.842626
O O17 0.852889 0.000000 0.144752
O O18 0.750000 0.750000 0.500000
O O19 0.707034 0.000000 0.432979
#
# Coordination Sequence:
#
# PCOD9174246 Si02
#       7
#     8   8   8   8   8   8   8
#     4  11  23  38  55  79 114 150 186 233 283 329
#     4  10  21  37  57  80 109 148 190 231 277 333
#     4  10  18  31  53  81 112 144 183 230 280 333
#     4   9  17  32  56  82 108 141 182 224 268 323
#     4  10  19  34  56  82 113 146 185 233 283 335
#     4  11  21  35  57  83 111 146 189 231 277 335
#     4  10  21  37  58  84 113 146 183 227 278 330
#
# _framework density 18.863538999999999
#
# number of rings (size 3 to 8) (size 9 to 14) (size 15 to 20)
#    0.000    1.857    0.000    6.857    0.000    5.714 
#    0.000    1.429    0.000    6.857    0.000    0.000 
#    0.000    0.000    0.000    0.000    0.000    0.000 
#
# Total GULP energy -156402.099418 kJ/mol
# GULP energy per Si atom -5585.789265 kJ/mol
# Density = 1.882060 g / cm^3
# Si number density = 18.863539 Si / 1000 Ang^3
#
#
#
# Elastic Constant Matrix: (Units=GPa)
#
#
# Indices 1 2 3 4 5 6 
#
# 1 132.8095 40.3116 101.9820 0.0000 3.0051 0.0000
# 2 40.3116 71.9245 61.7208 0.0000 5.0250 0.0002
# 3 101.9820 61.7208 227.9260 0.0000 4.7830 0.0000
# 4 0.0000 0.0000 0.0000 28.3873 0.0000 -5.4356
# 5 3.0051 5.0250 4.7830 0.0000 31.4953 0.0000
# 6 0.0000 0.0002 0.0000 -5.4356 0.0000 26.9052
#
#
#
# Elastic Compliance Matrix: (Units=1/GPa)
#
#
# Indices 1 2 3 4 5 6 
#
# 1 0.011868 -0.002729 -0.004571 0.000000 -0.000003 0.000000
# 2 -0.002729 0.018886 -0.003848 0.000000 -0.002169 0.000000
# 3 -0.004571 -0.003848 0.007476 0.000000 -0.000085 0.000000
# 4 0.000000 0.000000 0.000000 0.036645 0.000000 0.007403
# 5 -0.000003 -0.002169 -0.000085 0.000000 0.032110 0.000000
# 6 0.000000 0.000000 0.000000 0.007403 0.000000 0.038663
#
#
# Mechanical properties :
#
#
# Convention : Reuss Voigt Hill
#
# Bulk Modulus (GPa) = 62.75414 93.40985 78.08200
# Shear Modulus (GPa) = 28.85905 32.60061 30.72983
#
# Velocity S-wave (km/s) = 3.91562 4.16171 4.04054
# Velocity P-wave (km/s) = 7.33365 8.52757 7.95304
#
# Compressibility (1/GPa) = 0.01593520
#
# Stress axis : x y z
#
# Youngs Moduli (GPa) = 84.25992 52.94838 133.75361
#
# Poissons Ratio (x) = 0.14449 0.61141
# Poissons Ratio (y) = 0.22993 0.51466
# Poissons Ratio (z) = 0.38517 0.20374
#
# Static dielectric constant tensor:
#      x y z
#    x 1.598530 0.000000 0.011260 
#    y 0.000000 1.641250 0.000000 
#    z 0.011260 0.000000 1.660840 
# 
# From -- ./inp_files/363126.got.cif
#   From: 2010.05.17/outbox.cif.g08.bks.cpg/sg12_182_cif.got.tgz:363126.got - 2010.06.03 13:09:07.
