data_PCOD9174114
_publ_section_title
;
Structure prediction by ZEFSAII (Michael W. Deem and Ramdas Pophale) SiO2 
 PCOD9174114
Probable space group: C 2/M
;
_chemical_formula_sum "Si O2"
_cell_formula_units_Z 64
_cell_length_a 22.087198
_cell_length_b 23.549914
_cell_length_c 18.969961
_cell_angle_alpha 90.000000
_cell_angle_beta 159.184692
_cell_angle_gamma 90.000000
_cell_volume 3506.395583
_symmetry_space_group_name_H-M "C 2/M"
_symmetry_group_IT_number 12
_symmetry_cell_setting 'monoclinic'
loop_
_space_group_symop_operation_xyz
x,y,z
-x,y,-z
-x,-y,-z
x,-y,z
1/2+x,1/2+y,z
1/2-x,1/2+y,-z
1/2-x,1/2-y,-z
1/2+x,1/2-y,z
loop_
_atom_site_type_symbol
_atom_site_label
_atom_site_fract_x
_atom_site_fract_y
_atom_site_fract_z
Si Si1 0.984500 0.305355 0.566667
Si Si2 0.053142 0.174811 0.639222
Si Si3 0.581900 0.848607 0.905634
Si Si4 0.901226 0.166706 0.818701
Si Si5 0.504948 0.722013 0.790222
Si Si6 0.224315 0.624452 0.924341
Si Si7 0.794920 0.859321 0.475990
Si Si8 0.052232 0.065527 0.235616
O O1 0.045276 0.241681 0.650965
O O2 0.789931 0.312883 0.377125
O O3 0.000000 0.311622 0.500000
O O4 0.097585 0.352414 0.727741
O O5 0.915941 0.142796 0.539467
O O6 0.000000 0.170068 0.500000
O O7 0.246562 0.154900 0.862189
O O8 0.548153 0.787409 0.831680
O O9 0.622904 0.889962 0.884814
O O10 0.406998 0.861729 0.755715
O O11 0.985426 0.207896 0.852050
O O12 0.904377 0.105517 0.783736
O O13 0.000000 0.166540 0.000000
O O14 0.341929 0.698571 0.570312
O O15 0.651133 0.678389 0.923318
O O16 0.353167 0.577044 0.036697
O O17 0.848370 0.908718 0.588700
O O18 0.087869 0.000000 0.262886
#
# Coordination Sequence:
#
# PCOD9174114 Si02
#       8
#     8   8   8   8   8   8   8   8
#     4  11  20  33  51  82 125 159 189 222 265 340
#     4  11  23  35  54  88 126 156 182 221 277 340
#     4  12  19  34  57  82 119 151 186 228 273 346
#     4  10  21  35  53  80 116 158 196 227 277 329
#     4  10  18  31  52  79 115 151 186 219 262 334
#     4  10  18  33  56  79 106 151 186 233 285 325
#     4  10  21  37  56  83 110 149 191 231 287 333
#     4  10  22  41  60  79 106 141 194 256 296 330
#
# _framework density 18.252361000000001
#
# number of rings (size 3 to 8) (size 9 to 14) (size 15 to 20)
#    0.000    1.750    3.750    5.250    1.750    0.750 
#    0.000    2.500    0.000    1.875    0.000    0.875 
#    0.000    0.000    0.000    0.000    0.000    0.000 
#
# Total GULP energy -178636.315089 kJ/mol
# GULP energy per Si atom -5582.384847 kJ/mol
# Density = 1.821082 g / cm^3
# Si number density = 18.252361 Si / 1000 Ang^3
#
#
#
# Elastic Constant Matrix: (Units=GPa)
#
#
# Indices 1 2 3 4 5 6 
#
# 1 96.1971 13.6613 47.2821 0.0000 5.8734 0.0000
# 2 13.6613 30.2328 8.5640 0.0000 -0.9731 0.0000
# 3 47.2821 8.5640 126.8426 0.0000 12.4973 0.0000
# 4 0.0000 0.0000 0.0000 8.0186 0.0000 1.9517
# 5 5.8734 -0.9731 12.4973 0.0000 32.2848 0.0000
# 6 0.0000 0.0000 0.0000 1.9517 0.0000 9.7989
#
#
#
# Elastic Compliance Matrix: (Units=1/GPa)
#
#
# Indices 1 2 3 4 5 6 
#
# 1 0.013375 -0.004771 -0.004585 0.000000 -0.000802 0.000000
# 2 -0.004771 0.035545 -0.000845 0.000000 0.002266 0.000000
# 3 -0.004585 -0.000845 0.009950 0.000000 -0.003043 0.000000
# 4 0.000000 0.000000 0.000000 0.131064 0.000000 -0.026104
# 5 -0.000802 0.002266 -0.003043 0.000000 0.032366 0.000000
# 6 0.000000 0.000000 0.000000 -0.026104 0.000000 0.107252
#
#
# Mechanical properties :
#
#
# Convention : Reuss Voigt Hill
#
# Bulk Modulus (GPa) = 25.99498 43.58749 34.79124
# Shear Modulus (GPa) = 13.78264 22.27146 18.02705
#
# Velocity S-wave (km/s) = 2.75092 3.49692 3.14611
# Velocity P-wave (km/s) = 4.93588 6.34326 5.68330
#
# Compressibility (1/GPa) = 0.03846897
#
# Stress axis : x y z
#
# Youngs Moduli (GPa) = 74.76487 28.13348 100.50670
#
# Poissons Ratio (x) = 0.13423 0.46078
# Poissons Ratio (y) = 0.35671 0.08490
# Poissons Ratio (z) = 0.34277 0.02376
#
# Static dielectric constant tensor:
#      x y z
#    x 1.653180 0.000000 0.021970 
#    y 0.000000 1.601450 0.000000 
#    z 0.021970 0.000000 1.671630 
# 
# From -- ./inp_files/286712.got.cif
#   From: 2010.05.17/outbox.cif.g08.bks.cpg/sg12_144_cif.got.tgz:286712.got - 2010.06.03 13:09:07.
