data_PCOD9174810
_publ_section_title
;
Structure prediction by ZEFSAII (Michael W. Deem and Ramdas Pophale) SiO2 
 PCOD9174810
Probable space group: C 2/M
;
_chemical_formula_sum "Si O2"
_cell_formula_units_Z 56
_cell_length_a 21.191531
_cell_length_b 14.792939
_cell_length_c 9.384475
_cell_angle_alpha 90.000000
_cell_angle_beta 74.652555
_cell_angle_gamma 90.000000
_cell_volume 2836.980330
_symmetry_space_group_name_H-M "C 2/M"
_symmetry_group_IT_number 12
_symmetry_cell_setting 'monoclinic'
loop_
_space_group_symop_operation_xyz
x,y,z
-x,y,-z
-x,-y,-z
x,-y,z
1/2+x,1/2+y,z
1/2-x,1/2+y,-z
1/2-x,1/2-y,-z
1/2+x,1/2-y,z
loop_
_atom_site_type_symbol
_atom_site_label
_atom_site_fract_x
_atom_site_fract_y
_atom_site_fract_z
Si Si1 0.235036 0.646250 0.045513
Si Si2 0.482347 0.401729 0.677112
Si Si3 0.100475 0.393092 0.633841
Si Si4 0.326485 0.404160 0.754559
Si Si5 0.165655 0.707252 0.346775
Si Si6 0.399439 0.896584 0.031399
Si Si7 0.470952 0.205763 0.749886
O O1 0.216078 0.647177 0.223020
O O2 0.250000 0.750000 0.000000
O O3 0.294757 0.599065 0.930619
O O4 0.170674 0.613122 0.001892
O O5 0.500000 0.393123 0.500000
O O6 0.508050 0.500000 0.712470
O O7 0.404037 0.405153 0.728955
O O8 0.500218 0.307168 0.739566
O O9 0.106749 0.500000 0.600489
O O10 0.149939 0.334922 0.508491
O O11 0.109496 0.377262 0.797076
O O12 0.026428 0.358638 0.652265
O O13 0.306153 0.500000 0.698145
O O14 0.311455 0.312130 0.676825
O O15 0.095258 0.705777 0.305670
O O16 0.422568 0.000000 0.002015
O O17 0.447687 0.831895 0.915747
#
# Coordination Sequence:
#
# PCOD9174810 Si02
#       7
#     8   8   8   8   8   8   8
#     4   9  18  34  54  76  99 129 172 214 252 303
#     4   9  17  30  51  80 107 128 161 214 265 304
#     4  11  22  34  49  73 107 143 173 210 265 314
#     4   9  16  29  51  75 100 130 164 206 258 310
#     4   9  19  32  49  77 104 131 176 224 256 293
#     4  10  21  35  52  76 107 141 173 209 259 315
#     4  10  18  32  53  76 104 139 180 216 251 304
#
# _framework density 19.739298999999999
#
# number of rings (size 3 to 8) (size 9 to 14) (size 15 to 20)
#    0.000    2.429    0.000    4.286    0.000    5.143 
#    0.000    2.857    0.000    2.571    0.000    0.000 
#    0.000    0.000    0.000    0.000    0.000    0.000 
#
# Total GULP energy -155991.539768 kJ/mol
# GULP energy per Si atom -5571.126420 kJ/mol
# Density = 1.969437 g / cm^3
# Si number density = 19.739299 Si / 1000 Ang^3
#
#
#
# Elastic Constant Matrix: (Units=GPa)
#
#
# Indices 1 2 3 4 5 6 
#
# 1 17.9791 1.8692 21.8201 0.0000 -14.7922 0.0000
# 2 1.8692 148.4978 84.9337 0.0000 2.8984 0.0000
# 3 21.8201 84.9337 136.6215 0.0000 -24.0898 0.0000
# 4 0.0000 0.0000 0.0000 31.4313 0.0000 8.0038
# 5 -14.7922 2.8984 -24.0898 0.0000 31.0298 0.0000
# 6 0.0000 0.0000 0.0000 8.0038 0.0000 -18.6327
#
#
#
# Elastic Compliance Matrix: (Units=1/GPa)
#
#
# Indices 1 2 3 4 5 6 
#
# 1 0.102131 0.005354 -0.012911 0.000000 0.038164 0.000000
# 2 0.005354 0.012218 -0.009503 0.000000 -0.005967 0.000000
# 3 -0.012911 -0.009503 0.016638 0.000000 0.007650 0.000000
# 4 0.000000 0.000000 0.000000 0.028678 0.000000 0.012319
# 5 0.038164 -0.005967 0.007650 0.000000 0.056916 0.000000
# 6 0.000000 0.000000 0.000000 0.012319 0.000000 -0.048377
#
#
# Mechanical properties :
#
#
# Convention : Reuss Voigt Hill
#
# Bulk Modulus (GPa) = 10.32332 57.81606 34.06969
# Shear Modulus (GPa) = 21.31159 21.73072 21.52115
#
# Velocity S-wave (km/s) = 3.28937 3.32156 3.30550
# Velocity P-wave (km/s) = 4.43484 6.63805 5.64498
#
# Compressibility (1/GPa) = 0.09686810
#
# Stress axis : x y z
#
# Youngs Moduli (GPa) = 9.79132 81.84361 60.10310
#
# Poissons Ratio (x) = -0.43818 0.77597
# Poissons Ratio (y) = -0.05242 0.57116
# Poissons Ratio (z) = 0.12641 0.77776
#
# Static dielectric constant tensor:
#      x y z
#    x 1.700000 0.000000 -0.012190 
#    y 0.000000 1.761190 0.000000 
#    z -0.012190 0.000000 1.687530 
# 
# From -- ./inp_files/104451.got.cif
#   From: 2010.05.17/outbox.cif.g08.bks.cpg/sg12_53_cif.got.tgz:104451.got - 2010.06.03 13:09:07.
