data_PCOD9174103
_publ_section_title
;
Structure prediction by ZEFSAII (Michael W. Deem and Ramdas Pophale) SiO2 
 PCOD9174103
Probable space group: C 2/M
;
_chemical_formula_sum "Si O2"
_cell_formula_units_Z 48
_cell_length_a 25.559298
_cell_length_b 12.516842
_cell_length_c 25.016346
_cell_angle_alpha 90.000000
_cell_angle_beta 18.480121
_cell_angle_gamma 90.000000
_cell_volume 2536.841984
_symmetry_space_group_name_H-M "C 2/M"
_symmetry_group_IT_number 12
_symmetry_cell_setting 'monoclinic'
loop_
_space_group_symop_operation_xyz
x,y,z
-x,y,-z
-x,-y,-z
x,-y,z
1/2+x,1/2+y,z
1/2-x,1/2+y,-z
1/2-x,1/2-y,-z
1/2+x,1/2-y,z
loop_
_atom_site_type_symbol
_atom_site_label
_atom_site_fract_x
_atom_site_fract_y
_atom_site_fract_z
Si Si1 0.169795 0.619635 0.168439
Si Si2 0.038615 0.127321 0.827687
Si Si3 0.168647 0.267732 0.521820
Si Si4 0.907983 0.120792 0.499094
Si Si5 0.382820 0.180259 0.660152
Si Si6 0.121568 0.713902 0.842129
O O1 0.149701 0.500000 0.167765
O O2 0.146324 0.620643 0.256038
O O3 0.017015 0.686829 0.294173
O O4 0.360354 0.651336 0.973148
O O5 0.203800 0.154928 0.633893
O O6 0.047265 0.208877 0.868909
O O7 0.038115 0.000000 0.841349
O O8 0.250000 0.250000 0.500000
O O9 0.146565 0.162599 0.506420
O O10 0.748308 0.134990 0.691025
O O11 0.034882 0.207573 0.400256
O O12 0.968957 0.000000 0.439729
O O13 0.500000 0.132548 0.500000
O O14 0.218520 0.206654 0.787757
O O15 0.000000 0.654947 0.000000
#
# Coordination Sequence:
#
# PCOD9174103 Si02
#       6
#     8   8   8   8   8   8
#     4  10  20  35  56  83 113 142 178 225 275 332
#     4  10  21  36  57  86 116 142 178 224 273 334
#     4  10  22  39  60  80 106 143 182 235 287 332
#     4   9  20  36  52  74 104 143 188 230 270 317
#     4   9  18  31  50  75 110 149 181 219 262 319
#     4  10  18  31  52  78 113 145 178 215 260 323
#
# _framework density 18.921163
#
# number of rings (size 3 to 8) (size 9 to 14) (size 15 to 20)
#    0.000    2.333    1.667    1.500    0.000    6.667 
#    0.000    0.000    0.000    0.000    0.000    0.000 
#    0.000    0.000    0.000    0.000    0.000    0.000 
#
# Total GULP energy -133637.883290 kJ/mol
# GULP energy per Si atom -5568.245137 kJ/mol
# Density = 1.887810 g / cm^3
# Si number density = 18.921163 Si / 1000 Ang^3
#
#
#
# Elastic Constant Matrix: (Units=GPa)
#
#
# Indices 1 2 3 4 5 6 
#
# 1 71.0674 6.0659 -6.8948 0.0054 -16.1870 -0.0012
# 2 6.0659 76.1663 19.1505 0.0013 -6.0179 -0.0027
# 3 -6.8948 19.1505 65.1047 0.0000 -15.3289 -0.0010
# 4 0.0054 0.0013 0.0000 10.9446 -0.0021 -4.4483
# 5 -16.1870 -6.0179 -15.3289 -0.0021 24.7705 0.0006
# 6 -0.0012 -0.0027 -0.0010 -4.4483 0.0006 3.9852
#
#
#
# Elastic Compliance Matrix: (Units=1/GPa)
#
#
# Indices 1 2 3 4 5 6 
#
# 1 0.018286 -0.001772 0.006052 -0.000008 0.015264 -0.000006
# 2 -0.001772 0.014371 -0.004525 0.000004 -0.000467 0.000013
# 3 0.006052 -0.004525 0.021075 0.000002 0.015897 0.000004
# 4 -0.000008 0.000004 0.000002 0.167240 0.000006 0.186672
# 5 0.015264 -0.000467 0.015897 0.000006 0.060070 0.000006
# 6 -0.000006 0.000013 0.000004 0.186672 0.000006 0.459289
#
#
# Mechanical properties :
#
#
# Convention : Reuss Voigt Hill
#
# Bulk Modulus (GPa) = 18.78210 27.66464 23.22337
# Shear Modulus (GPa) = 6.59136 20.87450 13.73293
#
# Velocity S-wave (km/s) = 1.86846 3.32510 2.69699
# Velocity P-wave (km/s) = 3.82138 5.42167 4.69028
#
# Compressibility (1/GPa) = 0.05324217
#
# Stress axis : x y z
#
# Youngs Moduli (GPa) = 54.68597 69.58415 47.45022
#
# Poissons Ratio (x) = 0.12330 -0.28716
# Poissons Ratio (y) = 0.09690 0.21470
# Poissons Ratio (z) = -0.33094 0.31485
#
# Static dielectric constant tensor:
#      x y z
#    x 1.649180 0.000000 0.015840 
#    y 0.000000 1.669080 0.000010 
#    z 0.015840 0.000010 1.751710 
# 
# From -- ./inp_files/94287.got.cif
#   From: 2010.05.17/outbox.cif.g08.bks.cpg/sg12_48_cif.got.tgz:94287.got - 2010.06.03 13:09:07.
