data_PCOD9174257
_publ_section_title
;
Structure prediction by ZEFSAII (Michael W. Deem and Ramdas Pophale) SiO2 
 PCOD9174257
Probable space group: C 2/M
;
_chemical_formula_sum "Si O2"
_cell_formula_units_Z 64
_cell_length_a 14.823098
_cell_length_b 22.882925
_cell_length_c 9.242781
_cell_angle_alpha 90.000000
_cell_angle_beta 85.216953
_cell_angle_gamma 90.000000
_cell_volume 3124.195067
_symmetry_space_group_name_H-M "C 2/M"
_symmetry_group_IT_number 12
_symmetry_cell_setting 'monoclinic'
loop_
_space_group_symop_operation_xyz
x,y,z
-x,y,-z
-x,-y,-z
x,-y,z
1/2+x,1/2+y,z
1/2-x,1/2+y,-z
1/2-x,1/2-y,-z
1/2+x,1/2-y,z
loop_
_atom_site_type_symbol
_atom_site_label
_atom_site_fract_x
_atom_site_fract_y
_atom_site_fract_z
Si Si1 0.458561 0.063462 0.344165
Si Si2 0.349847 0.389187 0.716949
Si Si3 0.265417 0.934737 0.509378
Si Si4 0.205448 0.153367 0.749382
Si Si5 0.011129 0.810695 0.667456
Si Si6 0.476010 0.812030 0.331581
Si Si7 0.767507 0.274017 0.334064
Si Si8 0.890102 0.932932 0.014747
O O1 0.500000 0.060471 0.500000
O O2 0.351568 0.070325 0.391409
O O3 0.494537 0.123212 0.268515
O O4 0.475588 0.000000 0.272213
O O5 0.322335 0.425190 0.579022
O O6 0.451144 0.365438 0.713443
O O7 0.292950 0.328958 0.705603
O O8 0.343847 0.426324 0.863222
O O9 0.265288 0.886056 0.633738
O O10 0.267142 0.000000 0.571374
O O11 0.113965 0.173276 0.680956
O O12 0.248351 0.217466 0.767011
O O13 0.166142 0.113286 0.881767
O O14 0.981702 0.747878 0.736973
O O15 0.000000 0.801863 0.500000
O O16 0.500000 0.816189 0.500000
O O17 0.369833 0.798163 0.325005
O O18 0.750000 0.250000 0.500000
O O19 0.880705 0.000000 0.067656
O O20 0.000000 0.921057 0.000000
#
# Coordination Sequence:
#
# PCOD9174257 Si02
#       8
#     8   8   8   8   8   8   8   8
#     4   9  17  30  49  78 117 150 181 229 293 360
#     4  12  21  37  58  87 118 154 199 251 301 357
#     4  11  21  34  57  88 118 151 200 251 296 357
#     4  11  21  38  58  83 118 157 202 247 298 356
#     4  10  18  31  53  82 115 149 191 248 302 353
#     4   9  16  27  46  75 111 144 176 224 299 350
#     4  11  19  33  58  88 117 145 188 253 310 357
#     4  11  25  43  59  80 121 173 212 246 294 358
#
# _framework density 20.485275999999999
#
# number of rings (size 3 to 8) (size 9 to 14) (size 15 to 20)
#    0.000    1.500    5.000    2.250    0.000    1.500 
#    0.000    0.625    0.000    0.000    0.000    0.875 
#    0.000    5.000    0.000    0.250    0.000    0.000 
#
# Total GULP energy -178166.775115 kJ/mol
# GULP energy per Si atom -5567.711722 kJ/mol
# Density = 2.043865 g / cm^3
# Si number density = 20.485276 Si / 1000 Ang^3
#
#
#
# Elastic Constant Matrix: (Units=GPa)
#
#
# Indices 1 2 3 4 5 6 
#
# 1 29.5667 -8.6161 -8.7823 0.0000 7.5002 0.0000
# 2 -8.6161 127.5914 11.7870 0.0000 -4.5223 0.0000
# 3 -8.7823 11.7870 23.1766 0.0000 -0.8183 0.0000
# 4 0.0000 0.0000 0.0000 18.4162 0.0000 -4.0958
# 5 7.5002 -4.5223 -0.8183 0.0000 13.4451 0.0000
# 6 0.0000 0.0000 0.0000 -4.0958 0.0000 40.6014
#
#
#
# Elastic Compliance Matrix: (Units=1/GPa)
#
#
# Indices 1 2 3 4 5 6 
#
# 1 0.044735 0.000725 0.015744 0.000000 -0.023753 0.000000
# 2 0.000725 0.008322 -0.003881 0.000000 0.002159 0.000000
# 3 0.015744 -0.003881 0.050840 0.000000 -0.006994 0.000000
# 4 0.000000 0.000000 0.000000 0.055546 0.000000 0.005603
# 5 -0.023753 0.002159 -0.006994 0.000000 0.087927 0.000000
# 6 0.000000 0.000000 0.000000 0.005603 0.000000 0.025195
#
#
# Mechanical properties :
#
#
# Convention : Reuss Voigt Hill
#
# Bulk Modulus (GPa) = 7.74766 18.79020 13.26893
# Shear Modulus (GPa) = 17.21681 26.88894 22.05287
#
# Velocity S-wave (km/s) = 2.90219 3.62691 3.28460
# Velocity P-wave (km/s) = 3.87564 5.17028 4.56904
#
# Compressibility (1/GPa) = 0.12907117
#
# Stress axis : x y z
#
# Youngs Moduli (GPa) = 22.35385 120.17044 19.66964
#
# Poissons Ratio (x) = -0.08707 -0.30968
# Poissons Ratio (y) = -0.01620 0.07634
# Poissons Ratio (z) = -0.35194 0.46642
#
# Static dielectric constant tensor:
#      x y z
#    x 1.784860 0.000000 -0.014210 
#    y 0.000000 1.844910 0.000000 
#    z -0.014210 0.000000 1.706600 
# 
# From -- ./inp_files/65863.got.cif
#   From: 2010.05.17/outbox.cif.g08.bks.cpg/sg12_33_cif.got.tgz:65863.got - 2010.06.03 13:09:07.
