data_PCOD9174784
_publ_section_title
;
Structure prediction by ZEFSAII (Michael W. Deem and Ramdas Pophale) SiO2 
 PCOD9174784
Probable space group: C 2/M
;
_chemical_formula_sum "Si O2"
_cell_formula_units_Z 56
_cell_length_a 19.213804
_cell_length_b 14.335468
_cell_length_c 10.525525
_cell_angle_alpha 90.000000
_cell_angle_beta 68.361661
_cell_angle_gamma 90.000000
_cell_volume 2694.836286
_symmetry_space_group_name_H-M "C 2/M"
_symmetry_group_IT_number 12
_symmetry_cell_setting 'monoclinic'
loop_
_space_group_symop_operation_xyz
x,y,z
-x,y,-z
-x,-y,-z
x,-y,z
1/2+x,1/2+y,z
1/2-x,1/2+y,-z
1/2-x,1/2-y,-z
1/2+x,1/2-y,z
loop_
_atom_site_type_symbol
_atom_site_label
_atom_site_fract_x
_atom_site_fract_y
_atom_site_fract_z
Si Si1 0.654212 0.893805 0.352718
Si Si2 0.099912 0.191590 0.980762
Si Si3 0.457013 0.607912 0.218289
Si Si4 0.258108 0.605359 0.039102
Si Si5 0.114569 0.397813 0.957297
Si Si6 0.509621 0.902522 0.270960
Si Si7 0.070653 0.241870 0.549745
O O1 0.715667 0.880914 0.201568
O O2 0.574856 0.899692 0.332193
O O3 0.640789 0.797899 0.440660
O O4 0.666582 0.000000 0.398862
O O5 0.098350 0.120411 0.864097
O O6 0.174219 0.177250 0.013794
O O7 0.100053 0.294120 0.916678
O O8 0.029907 0.165973 0.118729
O O9 0.477624 0.500000 0.219445
O O10 0.422056 0.649149 0.371017
O O11 0.289336 0.500000 0.015022
O O12 0.194935 0.608053 0.973201
O O13 0.111172 0.500000 0.893398
O O14 0.051891 0.401969 0.109680
O O15 0.457026 0.817538 0.329913
O O16 0.468538 0.000000 0.316095
O O17 0.000000 0.228129 0.500000
#
# Coordination Sequence:
#
# PCOD9174784 Si02
#       7
#     8   8   8   8   8   8   8
#     4   8  15  27  49  81 106 128 168 213 259 318
#     4  11  20  37  56  75 107 147 179 217 263 313
#     4  11  24  38  53  75 102 141 191 226 256 313
#     4   9  17  31  55  84 109 139 177 217 258 305
#     4   9  17  30  51  83 113 132 166 214 264 322
#     4   8  13  25  46  75 106 130 156 202 256 312
#     4  10  18  32  53  74 104 135 174 219 272 304
#
# _framework density 20.780481999999999
#
# number of rings (size 3 to 8) (size 9 to 14) (size 15 to 20)
#    0.000    2.571    1.429    4.286    0.000    2.000 
#    0.000    3.571    0.000    0.857    0.000    0.000 
#    0.000    0.000    0.000    0.000    0.000    0.000 
#
# Total GULP energy -155874.950474 kJ/mol
# GULP energy per Si atom -5566.962517 kJ/mol
# Density = 2.073318 g / cm^3
# Si number density = 20.780482 Si / 1000 Ang^3
#
#
#
# Elastic Constant Matrix: (Units=GPa)
#
#
# Indices 1 2 3 4 5 6 
#
# 1 43.7762 11.9530 1.4766 0.0000 0.4138 0.0000
# 2 11.9530 128.2446 12.5709 0.0000 2.8324 0.0000
# 3 1.4766 12.5709 31.3007 0.0000 13.5282 0.0000
# 4 0.0000 0.0000 0.0000 36.1771 0.0000 -4.8445
# 5 0.4138 2.8324 13.5282 0.0000 8.3323 0.0000
# 6 0.0000 0.0000 0.0000 -4.8445 0.0000 23.7717
#
#
#
# Elastic Compliance Matrix: (Units=1/GPa)
#
#
# Indices 1 2 3 4 5 6 
#
# 1 0.023442 -0.002165 -0.000172 0.000000 -0.000149 0.000000
# 2 -0.002165 0.008500 -0.007072 0.000000 0.008700 0.000000
# 3 -0.000172 -0.007072 0.113161 0.000000 -0.181313 0.000000
# 4 0.000000 0.000000 0.000000 0.028417 0.000000 0.005791
# 5 -0.000149 0.008700 -0.181313 0.000000 0.411441 0.000000
# 6 0.000000 0.000000 0.000000 0.005791 0.000000 0.043247
#
#
# Mechanical properties :
#
#
# Convention : Reuss Voigt Hill
#
# Bulk Modulus (GPa) = 7.91856 28.36917 18.14387
# Shear Modulus (GPa) = 7.25563 25.47763 16.36663
#
# Velocity S-wave (km/s) = 1.87060 3.50528 2.80946
# Velocity P-wave (km/s) = 2.91279 5.48308 4.39024
#
# Compressibility (1/GPa) = 0.12628561
#
# Stress axis : x y z
#
# Youngs Moduli (GPa) = 42.65896 117.64115 8.83700
#
# Poissons Ratio (x) = 0.25466 0.00152
# Poissons Ratio (y) = 0.09235 0.06249
# Poissons Ratio (z) = 0.00733 0.83195
#
# Static dielectric constant tensor:
#      x y z
#    x 1.760450 0.000000 0.025380 
#    y 0.000000 1.824700 0.000000 
#    z 0.025380 0.000000 1.760900 
# 
# From -- ./inp_files/166634.got.cif
#   From: 2010.05.17/outbox.cif.g08.bks.cpg/sg12_84_cif.got.tgz:166634.got - 2010.06.03 13:09:07.
