data_PCOD9174858
_publ_section_title
;
Structure prediction by ZEFSAII (Michael W. Deem and Ramdas Pophale) SiO2 
 PCOD9174858
Probable space group: C 2/M
;
_chemical_formula_sum "Si O2"
_cell_formula_units_Z 48
_cell_length_a 18.167895
_cell_length_b 30.059854
_cell_length_c 7.002214
_cell_angle_alpha 90.000000
_cell_angle_beta 145.192867
_cell_angle_gamma 90.000000
_cell_volume 2182.844692
_symmetry_space_group_name_H-M "C 2/M"
_symmetry_group_IT_number 12
_symmetry_cell_setting 'monoclinic'
loop_
_space_group_symop_operation_xyz
x,y,z
-x,y,-z
-x,-y,-z
x,-y,z
1/2+x,1/2+y,z
1/2-x,1/2+y,-z
1/2-x,1/2-y,-z
1/2+x,1/2-y,z
loop_
_atom_site_type_symbol
_atom_site_label
_atom_site_fract_x
_atom_site_fract_y
_atom_site_fract_z
Si Si1 0.865349 0.800991 0.598313
Si Si2 0.989232 0.384515 0.704040
Si Si3 0.130868 0.295899 0.397130
Si Si4 0.493421 0.448984 0.252553
Si Si5 0.720195 0.052623 0.772449
Si Si6 0.224630 0.890637 0.725703
O O1 0.857322 0.752588 0.479780
O O2 0.754473 0.801168 0.525109
O O3 0.830269 0.840600 0.378824
O O4 0.000000 0.807804 0.000000
O O5 0.000000 0.382646 0.500000
O O6 0.903191 0.341471 0.569643
O O7 0.911849 0.428725 0.593384
O O8 0.137799 0.386082 0.089610
O O9 0.000000 0.289188 0.000000
O O10 0.500000 0.445606 0.500000
O O11 0.521949 0.500000 0.265779
O O12 0.600645 0.418001 0.388930
O O13 0.343069 0.439413 0.899524
O O14 0.715580 0.000000 0.806688
O O15 0.742987 0.081955 0.012032
#
# Coordination Sequence:
#
# PCOD9174858 Si02
#       6
#     8   8   8   8   8   8
#     4  10  22  36  60  83 105 154 200 227 282 347
#     4  10  21  35  57  88 115 147 189 239 283 333
#     4  10  20  41  61  77 116 155 190 234 285 340
#     4   8  15  29  49  74 107 144 180 221 273 329
#     4   9  19  35  57  83 114 153 189 230 289 342
#     4  10  18  32  53  84 111 140 191 234 276 336
#
# _framework density 21.989653000000001
#
# number of rings (size 3 to 8) (size 9 to 14) (size 15 to 20)
#    0.000    2.500    1.667    1.500    2.333    3.667 
#    0.000    5.833    0.000    4.500    0.000    0.000 
#    0.000    0.000    0.000    0.000    0.000    0.000 
#
# Total GULP energy -133655.518675 kJ/mol
# GULP energy per Si atom -5568.979945 kJ/mol
# Density = 2.193960 g / cm^3
# Si number density = 21.989653 Si / 1000 Ang^3
#
#
#
# Elastic Constant Matrix: (Units=GPa)
#
#
# Indices 1 2 3 4 5 6 
#
# 1 65.1038 58.6153 35.1606 0.0000 13.9225 0.0000
# 2 58.6153 173.5132 58.5930 0.0000 28.4466 0.0000
# 3 35.1606 58.5930 93.5486 0.0000 43.6366 0.0000
# 4 0.0000 0.0000 0.0000 40.4357 0.0000 2.3214
# 5 13.9225 28.4466 43.6366 0.0000 42.9094 0.0000
# 6 0.0000 0.0000 0.0000 2.3214 0.0000 42.9716
#
#
#
# Elastic Compliance Matrix: (Units=1/GPa)
#
#
# Indices 1 2 3 4 5 6 
#
# 1 0.023947 -0.006429 -0.006350 0.000000 0.002949 0.000000
# 2 -0.006429 0.009038 -0.002707 0.000000 -0.001153 0.000000
# 3 -0.006350 -0.002707 0.024681 0.000000 -0.021245 0.000000
# 4 0.000000 0.000000 0.000000 0.024808 0.000000 -0.001340
# 5 0.002949 -0.001153 -0.021245 0.000000 0.044718 0.000000
# 6 0.000000 0.000000 0.000000 -0.001340 0.000000 0.023344
#
#
# Mechanical properties :
#
#
# Convention : Reuss Voigt Hill
#
# Bulk Modulus (GPa) = 37.45870 70.76706 54.11288
# Shear Modulus (GPa) = 26.25998 37.24979 31.75489
#
# Velocity S-wave (km/s) = 3.45946 4.12025 3.80423
# Velocity P-wave (km/s) = 5.74707 7.40859 6.63008
#
# Compressibility (1/GPa) = 0.02669607
#
# Stress axis : x y z
#
# Youngs Moduli (GPa) = 41.75927 110.64270 40.51650
#
# Poissons Ratio (x) = 0.71132 0.25726
# Poissons Ratio (y) = 0.26847 0.10966
# Poissons Ratio (z) = 0.26515 0.29946
#
# Static dielectric constant tensor:
#      x y z
#    x 1.803640 0.000000 -0.004890 
#    y 0.000000 1.860020 0.000000 
#    z -0.004890 0.000000 1.908680 
# 
# From -- ./inp_files/91442.got.cif
#   From: 2010.05.17/outbox.cif.g08.bks.cpg/sg12_46_cif.got.tgz:91442.got - 2010.06.03 13:09:07.
