data_PCOD9174561
_publ_section_title
;
Structure prediction by ZEFSAII (Michael W. Deem and Ramdas Pophale) SiO2 
 PCOD9174561
Probable space group: C 2/M
;
_chemical_formula_sum "Si O2"
_cell_formula_units_Z 56
_cell_length_a 28.977971
_cell_length_b 10.023332
_cell_length_c 17.615795
_cell_angle_alpha 90.000000
_cell_angle_beta 140.711943
_cell_angle_gamma 90.000000
_cell_volume 3239.937672
_symmetry_space_group_name_H-M "C 2/M"
_symmetry_group_IT_number 12
_symmetry_cell_setting 'monoclinic'
loop_
_space_group_symop_operation_xyz
x,y,z
-x,y,-z
-x,-y,-z
x,-y,z
1/2+x,1/2+y,z
1/2-x,1/2+y,-z
1/2-x,1/2-y,-z
1/2+x,1/2-y,z
loop_
_atom_site_type_symbol
_atom_site_label
_atom_site_fract_x
_atom_site_fract_y
_atom_site_fract_z
Si Si1 0.038758 0.145832 0.837932
Si Si2 0.708056 0.146718 0.160081
Si Si3 0.458483 0.154733 0.022569
Si Si4 0.453540 0.344510 0.574130
Si Si5 0.165174 0.344742 0.642552
Si Si6 0.825241 0.280184 0.052719
Si Si7 0.074010 0.355448 0.681504
O O1 0.981841 0.156208 0.696723
O O2 0.025432 0.257997 0.883148
O O3 0.120020 0.163183 0.905640
O O4 0.033665 0.000000 0.866745
O O5 0.758956 0.268661 0.248179
O O6 0.739293 0.000000 0.218795
O O7 0.628931 0.159795 0.097433
O O8 0.694786 0.150008 0.052074
O O9 0.478138 0.000000 0.061264
O O10 0.500000 0.199976 0.000000
O O11 0.444031 0.500000 0.539094
O O12 0.383781 0.250902 0.472653
O O13 0.518548 0.267312 0.613105
O O14 0.171477 0.500000 0.626531
O O15 0.124972 0.345419 0.673215
O O16 0.876239 0.352067 0.179690
O O17 0.750000 0.250000 0.000000
O O18 0.034999 0.500000 0.629980
#
# Coordination Sequence:
#
# PCOD9174561 Si02
#       7
#     8   8   8   8   8   8   8
#     4   9  20  34  53  80 106 134 174 219 262 307
#     4  10  20  33  52  78 105 138 175 211 259 314
#     4   9  19  37  60  84 109 136 167 207 261 324
#     4  10  21  36  51  71 100 138 181 222 258 302
#     4  11  22  34  49  71 102 140 178 222 262 302
#     4  10  18  32  48  74 106 144 175 213 255 309
#     4  10  20  33  48  70  99 139 184 223 259 301
#
# _framework density 17.284284
#
# number of rings (size 3 to 8) (size 9 to 14) (size 15 to 20)
#    0.000    2.143    1.429    1.714    0.000   10.571 
#    0.000    0.000    0.000    0.857    0.000    0.000 
#    0.000    0.000    0.000    0.000    0.000    0.000 
#
# Total GULP energy -156014.473715 kJ/mol
# GULP energy per Si atom -5571.945490 kJ/mol
# Density = 1.724494 g / cm^3
# Si number density = 17.284284 Si / 1000 Ang^3
#
#
#
# Elastic Constant Matrix: (Units=GPa)
#
#
# Indices 1 2 3 4 5 6 
#
# 1 88.7404 33.7110 21.8193 0.0000 2.3440 0.0000
# 2 33.7110 141.9908 52.5459 0.0000 -0.1786 0.0000
# 3 21.8193 52.5459 77.1532 0.0000 4.6845 0.0000
# 4 0.0000 0.0000 0.0000 21.0464 0.0000 -0.4978
# 5 2.3440 -0.1786 4.6845 0.0000 9.6385 0.0000
# 6 0.0000 0.0000 0.0000 -0.4978 0.0000 14.5191
#
#
#
# Elastic Compliance Matrix: (Units=1/GPa)
#
#
# Indices 1 2 3 4 5 6 
#
# 1 0.012668 -0.002319 -0.001869 0.000000 -0.002215 0.000000
# 2 -0.002319 0.009949 -0.006353 0.000000 0.003836 0.000000
# 3 -0.001869 -0.006353 0.018337 0.000000 -0.008575 0.000000
# 4 0.000000 0.000000 0.000000 0.047553 0.000000 0.001630
# 5 -0.002215 0.003836 -0.008575 0.000000 0.108528 0.000000
# 6 0.000000 0.000000 0.000000 0.001630 0.000000 0.068931
#
#
# Mechanical properties :
#
#
# Convention : Reuss Voigt Hill
#
# Bulk Modulus (GPa) = 50.32001 58.22632 54.27316
# Shear Modulus (GPa) = 17.02585 22.36134 19.69360
#
# Velocity S-wave (km/s) = 3.14195 3.60076 3.37915
# Velocity P-wave (km/s) = 6.50683 7.14478 6.83325
#
# Compressibility (1/GPa) = 0.01987281
#
# Stress axis : x y z
#
# Youngs Moduli (GPa) = 78.94106 100.51163 54.53388
#
# Poissons Ratio (x) = 0.23306 0.10191
# Poissons Ratio (y) = 0.18304 0.34646
# Poissons Ratio (z) = 0.14752 0.63856
#
# Static dielectric constant tensor:
#      x y z
#    x 1.550830 0.000000 0.005030 
#    y 0.000000 1.617920 0.000000 
#    z 0.005030 0.000000 1.604720 
# 
# From -- ./inp_files/292535.got.cif
#   From: 2010.05.17/outbox.cif.g08.bks.cpg/sg12_147_cif.got.tgz:292535.got - 2010.06.03 13:09:07.
