data_PCOD9174555
_publ_section_title
;
Structure prediction by ZEFSAII (Michael W. Deem and Ramdas Pophale) SiO2 
 PCOD9174555
Probable space group: C 2/M
;
_chemical_formula_sum "Si O2"
_cell_formula_units_Z 64
_cell_length_a 14.274122
_cell_length_b 23.413862
_cell_length_c 10.787476
_cell_angle_alpha 90.000000
_cell_angle_beta 69.950996
_cell_angle_gamma 90.000000
_cell_volume 3386.824893
_symmetry_space_group_name_H-M "C 2/M"
_symmetry_group_IT_number 12
_symmetry_cell_setting 'monoclinic'
loop_
_space_group_symop_operation_xyz
x,y,z
-x,y,-z
-x,-y,-z
x,-y,z
1/2+x,1/2+y,z
1/2-x,1/2+y,-z
1/2-x,1/2-y,-z
1/2+x,1/2-y,z
loop_
_atom_site_type_symbol
_atom_site_label
_atom_site_fract_x
_atom_site_fract_y
_atom_site_fract_z
Si Si1 0.608953 0.565003 0.185723
Si Si2 0.850969 0.266713 0.590781
Si Si3 0.889521 0.244286 0.051737
Si Si4 0.775456 0.931804 0.119463
Si Si5 0.822606 0.679008 0.858864
Si Si6 0.119494 0.239800 0.677907
Si Si7 0.118812 0.867884 0.421287
Si Si8 0.608334 0.389042 0.692818
O O1 0.364775 0.500000 0.800000
O O2 0.650243 0.602316 0.280355
O O3 0.490142 0.573143 0.246716
O O4 0.648882 0.577768 0.030323
O O5 0.870509 0.299881 0.708176
O O6 0.907951 0.273434 0.434006
O O7 0.735149 0.279101 0.615143
O O8 0.860284 0.198833 0.605982
O O9 0.793161 0.202786 0.087625
O O10 0.886456 0.272070 0.190024
O O11 0.875972 0.289430 0.948199
O O12 0.000000 0.216820 0.000000
O O13 0.684050 0.889156 0.131647
O O14 0.820852 0.907476 0.227198
O O15 0.756766 0.000000 0.136871
O O16 0.069776 0.177347 0.714247
O O17 0.159000 0.892695 0.533586
O O18 0.000000 0.874748 0.500000
#
# Coordination Sequence:
#
# PCOD9174555 Si02
#       8
#     8   8   8   8   8   8   8   8
#     4  10  22  33  46  70 105 146 182 216 247 302
#     4   9  17  33  48  73 105 134 177 214 263 310
#     4  10  21  34  54  82 110 138 174 215 267 333
#     4  11  22  35  50  72 102 138 182 220 260 308
#     4  10  22  36  54  80 105 146 174 222 270 313
#     4   9  18  30  51  75 102 139 168 218 259 309
#     4   9  20  31  50  73 104 142 175 217 256 311
#     4  10  18  32  48  71  98 137 179 206 260 305
#
# _framework density 18.896754000000001
#
# number of rings (size 3 to 8) (size 9 to 14) (size 15 to 20)
#    0.000    2.250    2.500    0.750    7.000    5.750 
#    0.000    0.000    0.000    0.375    0.000    0.000 
#    0.000    3.500    0.000    0.000    0.000    0.000 
#
# Total GULP energy -178198.059511 kJ/mol
# GULP energy per Si atom -5568.689360 kJ/mol
# Density = 1.885374 g / cm^3
# Si number density = 18.896754 Si / 1000 Ang^3
#
#
#
# Elastic Constant Matrix: (Units=GPa)
#
#
# Indices 1 2 3 4 5 6 
#
# 1 44.2966 16.0666 24.9637 0.0000 4.2165 0.0000
# 2 16.0666 68.2697 42.8135 0.0000 10.7861 0.0000
# 3 24.9637 42.8135 93.8885 0.0000 27.5048 0.0000
# 4 0.0000 0.0000 0.0000 25.4214 0.0000 1.1941
# 5 4.2165 10.7861 27.5048 0.0000 31.4500 0.0000
# 6 0.0000 0.0000 0.0000 1.1941 0.0000 19.7283
#
#
#
# Elastic Compliance Matrix: (Units=1/GPa)
#
#
# Indices 1 2 3 4 5 6 
#
# 1 0.027143 -0.002485 -0.007082 0.000000 0.003407 0.000000
# 2 -0.002485 0.020797 -0.009184 0.000000 0.001232 0.000000
# 3 -0.007082 -0.009184 0.020867 0.000000 -0.014150 0.000000
# 4 0.000000 0.000000 0.000000 0.039449 0.000000 -0.002388
# 5 0.003407 0.001232 -0.014150 0.000000 0.043292 0.000000
# 6 0.000000 0.000000 0.000000 -0.002388 0.000000 0.050833
#
#
# Mechanical properties :
#
#
# Convention : Reuss Voigt Hill
#
# Bulk Modulus (GPa) = 31.94254 41.57137 36.75695
# Shear Modulus (GPa) = 19.97449 23.49402 21.73426
#
# Velocity S-wave (km/s) = 3.25473 3.52985 3.39508
# Velocity P-wave (km/s) = 5.57358 6.21772 5.90444
#
# Compressibility (1/GPa) = 0.03130621
#
# Stress axis : x y z
#
# Youngs Moduli (GPa) = 36.84168 48.08300 47.92200
#
# Poissons Ratio (x) = 0.11948 0.33938
# Poissons Ratio (y) = 0.09155 0.44012
# Poissons Ratio (z) = 0.26091 0.44160
#
# Static dielectric constant tensor:
#      x y z
#    x 1.703970 0.000000 0.028380 
#    y 0.000000 1.661480 0.000000 
#    z 0.028380 0.000000 1.744460 
# 
# From -- ./inp_files/147633.got.cif
#   From: 2010.05.17/outbox.cif.g08.bks.cpg/sg12_74_cif.got.tgz:147633.got - 2010.06.03 13:09:07.
