data_PCOD9174956
_publ_section_title
;
Structure prediction by ZEFSAII (Michael W. Deem and Ramdas Pophale) SiO2 
 PCOD9174956
Probable space group: C 2/M
;
_chemical_formula_sum "Si O2"
_cell_formula_units_Z 40
_cell_length_a 13.411644
_cell_length_b 14.509693
_cell_length_c 14.321525
_cell_angle_alpha 90.000000
_cell_angle_beta 39.626739
_cell_angle_gamma 90.000000
_cell_volume 1777.472088
_symmetry_space_group_name_H-M "C 2/M"
_symmetry_group_IT_number 12
_symmetry_cell_setting 'monoclinic'
loop_
_space_group_symop_operation_xyz
x,y,z
-x,y,-z
-x,-y,-z
x,-y,z
1/2+x,1/2+y,z
1/2-x,1/2+y,-z
1/2-x,1/2-y,-z
1/2+x,1/2-y,z
loop_
_atom_site_type_symbol
_atom_site_label
_atom_site_fract_x
_atom_site_fract_y
_atom_site_fract_z
Si Si1 0.149907 0.781581 0.696564
Si Si2 0.000083 0.603423 0.891486
Si Si3 0.568291 0.896093 0.556717
Si Si4 0.670342 0.650584 0.064787
Si Si5 0.726158 0.604785 0.825162
O O1 0.096273 0.677140 0.759243
O O2 0.303143 0.816430 0.530065
O O3 0.187205 0.823951 0.772710
O O4 0.996994 0.834524 0.766869
O O5 0.066608 0.500000 0.834951
O O6 0.000000 0.633841 0.000000
O O7 0.814834 0.596662 0.003045
O O8 0.500000 0.896678 0.500000
O O9 0.406836 0.881700 0.727658
O O10 0.628479 0.000000 0.532590
O O11 0.750000 0.750000 0.000000
O O12 0.632489 0.615459 0.988008
O O13 0.713012 0.500000 0.799240
#
# Coordination Sequence:
#
# PCOD9174956 Si02
#       5
#     8   8   8   8   8
#     4  10  18  32  54  82 108 131 167 212 258 311
#     4  10  21  36  51  69 101 143 181 217 256 298
#     4   8  16  30  49  77 111 139 158 193 261 326
#     4  10  20  33  51  78 105 132 172 215 255 302
#     4  10  19  32  54  83 111 135 160 203 267 323
#
# _framework density 22.503871
#
# number of rings (size 3 to 8) (size 9 to 14) (size 15 to 20)
#    0.000    2.400    0.000    5.400    0.000    4.000 
#    0.000    4.000    0.000    5.400    0.000    5.600 
#    0.000    0.000    0.000    0.000    0.000    0.000 
#
# Total GULP energy -111522.606003 kJ/mol
# GULP energy per Si atom -5576.130300 kJ/mol
# Density = 2.245265 g / cm^3
# Si number density = 22.503871 Si / 1000 Ang^3
#
#
#
# Elastic Constant Matrix: (Units=GPa)
#
#
# Indices 1 2 3 4 5 6 
#
# 1 50.2353 12.1243 -18.6589 0.0000 -7.0345 0.0000
# 2 12.1243 140.3213 32.2393 0.0000 -15.8121 0.0000
# 3 -18.6589 32.2393 110.2224 0.0000 -26.7803 0.0000
# 4 0.0000 0.0000 0.0000 33.0582 0.0000 -3.7670
# 5 -7.0345 -15.8121 -26.7803 0.0000 29.3993 0.0000
# 6 0.0000 0.0000 0.0000 -3.7670 0.0000 48.8803
#
#
#
# Elastic Compliance Matrix: (Units=1/GPa)
#
#
# Indices 1 2 3 4 5 6 
#
# 1 0.025127 -0.002658 0.007891 0.000000 0.011771 0.000000
# 2 -0.002658 0.008087 -0.002457 0.000000 0.001476 0.000000
# 3 0.007891 -0.002457 0.014466 0.000000 0.013744 0.000000
# 4 0.000000 0.000000 0.000000 0.030518 0.000000 0.002352
# 5 0.011771 0.001476 0.013744 0.000000 0.050145 0.000000
# 6 0.000000 0.000000 0.000000 0.002352 0.000000 0.020639
#
#
# Mechanical properties :
#
#
# Convention : Reuss Voigt Hill
#
# Bulk Modulus (GPa) = 18.78533 39.13205 28.95869
# Shear Modulus (GPa) = 31.02257 40.60585 35.81421
#
# Velocity S-wave (km/s) = 3.71690 4.25242 3.99365
# Velocity P-wave (km/s) = 5.17554 6.44497 5.84482
#
# Compressibility (1/GPa) = 0.05323304
#
# Stress axis : x y z
#
# Youngs Moduli (GPa) = 39.79803 123.65753 69.12598
#
# Poissons Ratio (x) = 0.32863 -0.54546
# Poissons Ratio (y) = 0.10577 0.16982
# Poissons Ratio (z) = -0.31404 0.30379
#
# Static dielectric constant tensor:
#      x y z
#    x 1.909230 0.000000 0.023790 
#    y 0.000000 1.944990 0.000000 
#    z 0.023790 0.000000 1.935720 
# 
# From -- ./inp_files/59089.got.cif
#   From: 2010.05.17/outbox.cif.g08.bks.cpg/sg12_30_cif.got.tgz:59089.got - 2010.06.03 13:09:07.
