data_PCOD9174698
_publ_section_title
;
Structure prediction by ZEFSAII (Michael W. Deem and Ramdas Pophale) SiO2 
 PCOD9174698
Probable space group: C 2/M
;
_chemical_formula_sum "Si O2"
_cell_formula_units_Z 64
_cell_length_a 21.095320
_cell_length_b 8.096826
_cell_length_c 22.435305
_cell_angle_alpha 90.000000
_cell_angle_beta 118.244889
_cell_angle_gamma 90.000000
_cell_volume 3375.792623
_symmetry_space_group_name_H-M "C 2/M"
_symmetry_group_IT_number 12
_symmetry_cell_setting 'monoclinic'
loop_
_space_group_symop_operation_xyz
x,y,z
-x,y,-z
-x,-y,-z
x,-y,z
1/2+x,1/2+y,z
1/2-x,1/2+y,-z
1/2-x,1/2-y,-z
1/2+x,1/2-y,z
loop_
_atom_site_type_symbol
_atom_site_label
_atom_site_fract_x
_atom_site_fract_y
_atom_site_fract_z
Si Si1 0.324062 0.698699 0.155251
Si Si2 0.830545 0.693861 0.550601
Si Si3 0.549624 0.298299 0.706532
Si Si4 0.523491 0.302014 0.445748
Si Si5 0.909731 0.300004 0.076224
Si Si6 0.097912 0.802887 0.297875
Si Si7 0.660129 0.797590 0.079758
Si Si8 0.925704 0.301017 0.841894
O O1 0.321275 0.500000 0.158788
O O2 0.376120 0.759547 0.231442
O O3 0.361571 0.741667 0.109643
O O4 0.242467 0.759622 0.120215
O O5 0.834810 0.500000 0.543917
O O6 0.750000 0.750000 0.500000
O O7 0.894431 0.769342 0.538281
O O8 0.850027 0.735552 0.627764
O O9 0.550934 0.500000 0.706202
O O10 0.527932 0.240934 0.630834
O O11 0.482915 0.248867 0.719220
O O12 0.500000 0.236890 0.500000
O O13 0.515323 0.500000 0.443766
O O14 0.910394 0.500000 0.076814
O O15 0.991765 0.241234 0.120365
O O16 0.876862 0.245852 0.998423
O O17 0.111055 0.748859 0.236378
O O18 0.100137 0.000000 0.302423
O O19 0.615918 0.743288 0.117952
O O20 0.660038 0.000000 0.079553
O O21 0.927561 0.500000 0.844841
#
# Coordination Sequence:
#
# PCOD9174698 Si02
#       8
#     8   8   8   8   8   8   8   8
#     4  10  18  32  52  73 100 135 178 220 265 322
#     4  11  22  38  60  86 116 148 186 227 273 325
#     4   8  15  29  51  75 100 135 175 215 257 313
#     4   9  18  35  57  83 115 150 186 224 273 329
#     4  10  19  32  52  74 101 137 179 224 269 320
#     4  10  19  35  57  80 108 140 180 224 270 321
#     4   9  19  33  49  73 105 140 176 221 273 325
#     4  10  19  33  52  76 104 138 181 221 268 325
#
# _framework density 18.95851
#
# number of rings (size 3 to 8) (size 9 to 14) (size 15 to 20)
#    0.000    2.375    1.250    3.000    0.000    1.750 
#    2.250    1.250    0.000    1.500    0.000    0.000 
#    0.000    0.000    0.000    0.000    0.000    0.000 
#
# Total GULP energy -178549.024567 kJ/mol
# GULP energy per Si atom -5579.657018 kJ/mol
# Density = 1.891536 g / cm^3
# Si number density = 18.958510 Si / 1000 Ang^3
#
#
#
# Elastic Constant Matrix: (Units=GPa)
#
#
# Indices 1 2 3 4 5 6 
#
# 1 97.1507 -5.0726 69.8597 0.0000 -3.4518 0.0000
# 2 -5.0726 6.9846 -0.3004 0.0000 -1.1995 0.0000
# 3 69.8597 -0.3004 152.8703 0.0000 -3.3647 0.0000
# 4 0.0000 0.0000 0.0000 15.8236 0.0000 -5.8327
# 5 -3.4518 -1.1995 -3.3647 0.0000 32.4322 0.0000
# 6 0.0000 0.0000 0.0000 -5.8327 0.0000 19.5202
#
#
#
# Elastic Compliance Matrix: (Units=1/GPa)
#
#
# Indices 1 2 3 4 5 6 
#
# 1 0.016260 0.011732 -0.007377 0.000000 0.001399 0.000000
# 2 0.011732 0.152576 -0.004921 0.000000 0.006381 0.000000
# 3 -0.007377 -0.004921 0.009904 0.000000 0.000060 0.000000
# 4 0.000000 0.000000 0.000000 0.071019 0.000000 0.021221
# 5 0.001399 0.006381 0.000060 0.000000 0.031225 0.000000
# 6 0.000000 0.000000 0.000000 0.021221 0.000000 0.057570
#
#
# Mechanical properties :
#
#
# Convention : Reuss Voigt Hill
#
# Bulk Modulus (GPa) = 5.63034 42.88655 24.25845
# Shear Modulus (GPa) = 12.53481 26.38980 19.46231
#
# Velocity S-wave (km/s) = 2.57411 3.73497 3.20749
# Velocity P-wave (km/s) = 3.43672 6.42420 5.15177
#
# Compressibility (1/GPa) = 0.17760911
#
# Stress axis : x y z
#
# Youngs Moduli (GPa) = 61.50009 6.55409 100.96664
#
# Poissons Ratio (x) = -0.07689 0.74481
# Poissons Ratio (y) = -0.72152 0.49686
# Poissons Ratio (z) = 0.45367 0.03225
#
# Static dielectric constant tensor:
#      x y z
#    x 1.551540 0.000000 -0.049730 
#    y 0.000000 1.670820 0.000000 
#    z -0.049730 0.000000 1.627370 
# 
# From -- ./inp_files/320045.got.cif
#   From: 2010.05.17/outbox.cif.g08.bks.cpg/sg12_161_cif.got.tgz:320045.got - 2010.06.03 13:09:07.
