data_PCOD9174741
_publ_section_title
;
Structure prediction by ZEFSAII (Michael W. Deem and Ramdas Pophale) SiO2 
 PCOD9174741
Probable space group: C 2/M
;
_chemical_formula_sum "Si O2"
_cell_formula_units_Z 40
_cell_length_a 11.854906
_cell_length_b 19.999226
_cell_length_c 8.796806
_cell_angle_alpha 90.000000
_cell_angle_beta 99.920137
_cell_angle_gamma 90.000000
_cell_volume 2054.442927
_symmetry_space_group_name_H-M "C 2/M"
_symmetry_group_IT_number 12
_symmetry_cell_setting 'monoclinic'
loop_
_space_group_symop_operation_xyz
x,y,z
-x,y,-z
-x,-y,-z
x,-y,z
1/2+x,1/2+y,z
1/2-x,1/2+y,-z
1/2-x,1/2-y,-z
1/2+x,1/2-y,z
loop_
_atom_site_type_symbol
_atom_site_label
_atom_site_fract_x
_atom_site_fract_y
_atom_site_fract_z
Si Si1 0.246271 0.196056 0.134303
Si Si2 0.040611 0.197620 0.272372
Si Si3 0.562064 0.157620 0.355307
Si Si4 0.417370 0.924778 0.125028
Si Si5 0.821496 0.809452 0.376380
O O1 0.118994 0.173298 0.153522
O O2 0.321265 0.132065 0.110484
O O3 0.289810 0.237644 0.293413
O O4 0.250000 0.250000 0.000000
O O5 0.028466 0.277845 0.244312
O O6 0.112525 0.193617 0.447805
O O7 0.917801 0.164915 0.279514
O O8 0.500000 0.172175 0.500000
O O9 0.502759 0.091022 0.283060
O O10 0.699841 0.154881 0.376041
O O11 0.371685 0.000000 0.118158
O O12 0.500000 0.916923 0.000000
#
# Coordination Sequence:
#
# PCOD9174741 Si02
#       5
#     8   8   8   8   8
#     4  11  21  33  54  80 109 139 187 233 272 328
#     4  10  18  32  52  77 113 139 176 230 282 322
#     4  11  18  32  53  82 114 138 183 222 278 333
#     4  11  23  38  53  76 113 149 180 224 280 335
#     4  10  19  31  53  80 112 144 171 230 287 322
#
# _framework density 19.469998
#
# number of rings (size 3 to 8) (size 9 to 14) (size 15 to 20)
#    0.000    1.400    4.000    6.000    0.000    0.400 
#    0.000    0.000    0.000    1.200    0.000    8.400 
#    0.000    0.000    0.000    0.000    0.000    0.000 
#
# Total GULP energy -111429.795802 kJ/mol
# GULP energy per Si atom -5571.489790 kJ/mol
# Density = 1.942568 g / cm^3
# Si number density = 19.469998 Si / 1000 Ang^3
#
#
#
# Elastic Constant Matrix: (Units=GPa)
#
#
# Indices 1 2 3 4 5 6 
#
# 1 188.0840 54.2965 47.7281 0.0000 -43.7993 0.0000
# 2 54.2965 92.0716 33.7683 0.0000 -17.1933 0.0000
# 3 47.7281 33.7683 48.5797 0.0000 -21.5909 0.0000
# 4 0.0000 0.0000 0.0000 -11.1007 0.0000 24.0196
# 5 -43.7993 -17.1933 -21.5909 0.0000 32.9066 0.0000
# 6 0.0000 0.0000 0.0000 24.0196 0.0000 5.2880
#
#
#
# Elastic Compliance Matrix: (Units=1/GPa)
#
#
# Indices 1 2 3 4 5 6 
#
# 1 0.008770 -0.002437 -0.003247 0.000000 0.008269 0.000000
# 2 -0.002437 0.015298 -0.008652 0.000000 -0.000927 0.000000
# 3 -0.003247 -0.008652 0.036504 0.000000 0.015109 0.000000
# 4 0.000000 0.000000 0.000000 -0.008319 0.000000 0.037788
# 5 0.008269 -0.000927 0.015109 0.000000 0.050824 0.000000
# 6 0.000000 0.000000 0.000000 0.037788 0.000000 0.017464
#
#
# Mechanical properties :
#
#
# Convention : Reuss Voigt Hill
#
# Bulk Modulus (GPa) = 31.34760 66.70234 49.02497
# Shear Modulus (GPa) = 31.28012 18.28160 24.78086
#
# Velocity S-wave (km/s) = 4.01257 3.06757 3.57146
# Velocity P-wave (km/s) = 6.13213 6.84690 6.49935
#
# Compressibility (1/GPa) = 0.03190036
#
# Stress axis : x y z
#
# Youngs Moduli (GPa) = 114.02720 65.36727 27.39427
#
# Poissons Ratio (x) = 0.15928 0.08896
# Poissons Ratio (y) = 0.27784 0.23701
# Poissons Ratio (z) = 0.37027 0.56556
#
# Static dielectric constant tensor:
#      x y z
#    x 1.806230 0.000000 0.018200 
#    y 0.000000 1.654310 0.000000 
#    z 0.018200 0.000000 1.791970 
# 
# From -- ./inp_files/47060.got.cif
#   From: 2010.05.17/outbox.cif.g08.bks.cpg/sg12_24_cif.got.tgz:47060.got - 2010.06.03 13:09:07.
