data_PCOD9174221
_publ_section_title
;
Structure prediction by ZEFSAII (Michael W. Deem and Ramdas Pophale) SiO2 
 PCOD9174221
Probable space group: C 2/M
;
_chemical_formula_sum "Si O2"
_cell_formula_units_Z 64
_cell_length_a 15.098709
_cell_length_b 7.524924
_cell_length_c 23.021832
_cell_angle_alpha 90.000000
_cell_angle_beta 100.938039
_cell_angle_gamma 90.000000
_cell_volume 2568.144275
_symmetry_space_group_name_H-M "C 2/M"
_symmetry_group_IT_number 12
_symmetry_cell_setting 'monoclinic'
loop_
_space_group_symop_operation_xyz
x,y,z
-x,y,-z
-x,-y,-z
x,-y,z
1/2+x,1/2+y,z
1/2-x,1/2+y,-z
1/2-x,1/2-y,-z
1/2+x,1/2-y,z
loop_
_atom_site_type_symbol
_atom_site_label
_atom_site_fract_x
_atom_site_fract_y
_atom_site_fract_z
Si Si1 0.538579 0.299302 0.350280
Si Si2 0.143736 0.787419 0.982786
Si Si3 0.296051 0.788224 0.198555
Si Si4 0.631087 0.717295 0.108021
Si Si5 0.044046 0.212783 0.855009
Si Si6 0.131158 0.293478 0.600918
Si Si7 0.294953 0.719507 0.694009
Si Si8 0.143853 0.288199 0.478025
O O1 0.516196 0.500000 0.330508
O O2 0.445460 0.215695 0.359777
O O3 0.604167 0.221477 0.309153
O O4 0.600860 0.298955 0.416084
O O5 0.099197 0.717716 0.918317
O O6 0.130471 0.000000 0.979669
O O7 0.250000 0.750000 0.000000
O O8 0.105457 0.724064 0.040077
O O9 0.230436 0.722317 0.138908
O O10 0.399151 0.752782 0.195324
O O11 0.251279 0.722361 0.252103
O O12 0.287982 0.000000 0.199878
O O13 0.632280 0.500000 0.106807
O O14 0.558045 0.772737 0.146894
O O15 0.041455 0.000000 0.857484
O O16 0.149556 0.500000 0.592319
O O17 0.224609 0.217940 0.636195
O O18 0.102314 0.224142 0.534421
O O19 0.297598 0.500000 0.694159
O O20 0.128241 0.500000 0.468348
O O21 0.250000 0.250000 0.500000
#
# Coordination Sequence:
#
# PCOD9174221 Si02
#       8
#     8   8   8   8   8   8   8   8
#     4  11  22  38  59  87 116 146 186 232 277 332
#     4  10  18  31  53  79 107 141 177 217 271 329
#     4  10  20  37  59  78 103 145 189 225 268 327
#     4   9  18  33  54  79 107 142 180 216 270 335
#     4  10  20  34  54  80 111 141 176 228 277 322
#     4  10  21  39  58  81 114 150 183 224 280 334
#     4   9  20  39  58  77 109 149 185 225 277 326
#     4  11  21  36  60  86 116 152 186 225 280 337
#
# _framework density 24.920718999999998
#
# number of rings (size 3 to 8) (size 9 to 14) (size 15 to 20)
#    0.000    2.000    2.500    1.500    0.000    5.000 
#    0.000    4.375    0.000    1.500    0.000    0.000 
#    0.000    0.000    0.000    0.000    0.000    0.000 
#
# Total GULP energy -178826.786385 kJ/mol
# GULP energy per Si atom -5588.337075 kJ/mol
# Density = 2.486400 g / cm^3
# Si number density = 24.920719 Si / 1000 Ang^3
#
#
#
# Elastic Constant Matrix: (Units=GPa)
#
#
# Indices 1 2 3 4 5 6 
#
# 1 106.4389 -11.4040 12.2001 0.0000 -36.2446 0.0000
# 2 -11.4040 66.3955 0.4573 0.0000 -0.7036 0.0000
# 3 12.2001 0.4573 66.9270 0.0000 -39.3468 0.0000
# 4 0.0000 0.0000 0.0000 6.9390 0.0000 -3.7824
# 5 -36.2446 -0.7036 -39.3468 0.0000 48.2683 0.0000
# 6 0.0000 0.0000 0.0000 -3.7824 0.0000 20.1149
#
#
#
# Elastic Compliance Matrix: (Units=1/GPa)
#
#
# Indices 1 2 3 4 5 6 
#
# 1 0.014615 0.002640 0.007282 0.000000 0.016949 0.000000
# 2 0.002640 0.015540 0.001366 0.000000 0.003322 0.000000
# 3 0.007282 0.001366 0.032321 0.000000 0.031835 0.000000
# 4 0.000000 0.000000 0.000000 0.160571 0.000000 0.030194
# 5 0.016949 0.003322 0.031835 0.000000 0.059444 0.000000
# 6 0.000000 0.000000 0.000000 0.030194 0.000000 0.055392
#
#
# Mechanical properties :
#
#
# Convention : Reuss Voigt Hill
#
# Bulk Modulus (GPa) = 11.75774 26.91868 19.33821
# Shear Modulus (GPa) = 14.54935 30.96497 22.75716
#
# Velocity S-wave (km/s) = 2.41887 3.52879 3.02517
# Velocity P-wave (km/s) = 3.53971 5.23721 4.46978
#
# Compressibility (1/GPa) = 0.08505038
#
# Stress axis : x y z
#
# Youngs Moduli (GPa) = 68.42494 64.34821 30.93980
#
# Poissons Ratio (x) = -0.16986 -0.22531
# Poissons Ratio (y) = -0.18062 -0.04225
# Poissons Ratio (z) = -0.49828 -0.08787
#
# Static dielectric constant tensor:
#      x y z
#    x 1.954970 0.000000 -0.020480 
#    y 0.000000 1.957660 0.000000 
#    z -0.020480 0.000000 1.978420 
# 
# From -- ./inp_files/338691.got.cif
#   From: 2010.05.17/outbox.cif.g08.bks.cpg/sg12_170_cif.got.tgz:338691.got - 2010.06.03 13:09:07.
