data_PCOD9174976
_publ_section_title
;
Structure prediction by ZEFSAII (Michael W. Deem and Ramdas Pophale) SiO2 
 PCOD9174976
Probable space group: C 2/M
;
_chemical_formula_sum "Si O2"
_cell_formula_units_Z 40
_cell_length_a 27.739675
_cell_length_b 11.230447
_cell_length_c 10.703630
_cell_angle_alpha 90.000000
_cell_angle_beta 41.183817
_cell_angle_gamma 90.000000
_cell_volume 2195.685098
_symmetry_space_group_name_H-M "C 2/M"
_symmetry_group_IT_number 12
_symmetry_cell_setting 'monoclinic'
loop_
_space_group_symop_operation_xyz
x,y,z
-x,y,-z
-x,-y,-z
x,-y,z
1/2+x,1/2+y,z
1/2-x,1/2+y,-z
1/2-x,1/2-y,-z
1/2+x,1/2-y,z
loop_
_atom_site_type_symbol
_atom_site_label
_atom_site_fract_x
_atom_site_fract_y
_atom_site_fract_z
Si Si1 0.928836 0.859050 0.498885
Si Si2 0.059441 0.500000 0.993405
Si Si3 0.178299 0.858290 0.517420
Si Si4 0.941466 0.500000 0.724461
Si Si5 0.158039 0.262578 0.813822
Si Si6 0.908186 0.763811 0.800575
O O1 0.877600 0.825412 0.483586
O O2 0.891107 0.831425 0.705626
O O3 0.005189 0.787897 0.346894
O O4 0.945300 0.000000 0.460500
O O5 0.109970 0.382319 0.888831
O O6 0.025457 0.500000 0.199636
O O7 0.000000 0.500000 0.000000
O O8 0.148750 0.818126 0.709817
O O9 0.256945 0.798086 0.343733
O O10 0.187991 0.000000 0.495565
O O11 0.896835 0.622591 0.802321
O O12 0.000000 0.500000 0.500000
O O13 0.132994 0.202964 0.992293
#
# Coordination Sequence:
#
# PCOD9174976 Si02
#       6
#     8   4   8   4   8   8
#     4  10  21  36  58  82 112 145 182 227 274 330
#     4  10  22  34  60  88 112 140 183 234 276 321
#     4  10  22  40  56  79 113 151 185 224 278 333
#     4  10  18  32  54  84 114 138 167 233 277 322
#     4  10  22  38  59  80 114 147 184 229 277 331
#     4  10  20  35  57  86 109 140 186 229 278 321
#
# _framework density 18.217549000000002
#
# number of rings (size 3 to 8) (size 9 to 14) (size 15 to 20)
#    0.000    2.000    3.000    1.200    5.600    2.400 
#    0.000    2.000    0.000    0.000    0.000    0.000 
#    0.000    0.000    0.000    0.000    0.000    0.000 
#
# Total GULP energy -111565.038174 kJ/mol
# GULP energy per Si atom -5578.251909 kJ/mol
# Density = 1.817609 g / cm^3
# Si number density = 18.217549 Si / 1000 Ang^3
#
#
#
# Elastic Constant Matrix: (Units=GPa)
#
#
# Indices 1 2 3 4 5 6 
#
# 1 82.9268 24.9268 42.8746 0.0000 24.0384 0.0000
# 2 24.9268 37.1697 3.5638 0.0000 2.7807 0.0000
# 3 42.8746 3.5638 138.3395 0.0000 31.7064 0.0000
# 4 0.0000 0.0000 0.0000 25.9786 0.0000 10.8951
# 5 24.0384 2.7807 31.7064 0.0000 23.3626 0.0000
# 6 0.0000 0.0000 0.0000 10.8951 0.0000 20.7377
#
#
#
# Elastic Compliance Matrix: (Units=1/GPa)
#
#
# Indices 1 2 3 4 5 6 
#
# 1 0.022807 -0.013675 -0.002483 0.000000 -0.018469 0.000000
# 2 -0.013675 0.035345 0.001549 0.000000 0.007762 0.000000
# 3 -0.002483 0.001549 0.010763 0.000000 -0.012236 0.000000
# 4 0.000000 0.000000 0.000000 0.049371 0.000000 -0.025938
# 5 -0.018469 0.007762 -0.012236 0.000000 0.077488 0.000000
# 6 0.000000 0.000000 0.000000 -0.025938 0.000000 0.061849
#
#
# Mechanical properties :
#
#
# Convention : Reuss Voigt Hill
#
# Bulk Modulus (GPa) = 25.19157 44.57405 34.88281
# Shear Modulus (GPa) = 16.66254 26.48718 21.57486
#
# Velocity S-wave (km/s) = 3.02759 3.81719 3.44508
# Velocity P-wave (km/s) = 5.10685 6.62938 5.91729
#
# Compressibility (1/GPa) = 0.03969582
#
# Stress axis : x y z
#
# Youngs Moduli (GPa) = 43.84633 28.29237 92.91425
#
# Poissons Ratio (x) = 0.38690 0.23072
# Poissons Ratio (y) = 0.59960 -0.14390
# Poissons Ratio (z) = 0.10888 -0.04382
#
# Static dielectric constant tensor:
#      x y z
#    x 1.600240 0.000000 0.015280 
#    y 0.000000 1.627070 0.000000 
#    z 0.015280 0.000000 1.631340 
# 
# From -- ./inp_files/102357.got.cif
#   From: 2010.05.17/outbox.cif.g08.bks.cpg/sg12_52_cif.got.tgz:102357.got - 2010.06.03 13:09:07.
