data_PCOD9174141
_publ_section_title
;
Structure prediction by ZEFSAII (Michael W. Deem and Ramdas Pophale) SiO2 
 PCOD9174141
Probable space group: C 2/M
;
_chemical_formula_sum "Si O2"
_cell_formula_units_Z 48
_cell_length_a 11.248974
_cell_length_b 19.295684
_cell_length_c 9.565483
_cell_angle_alpha 90.000000
_cell_angle_beta 97.054967
_cell_angle_gamma 90.000000
_cell_volume 2060.531913
_symmetry_space_group_name_H-M "C 2/M"
_symmetry_group_IT_number 12
_symmetry_cell_setting 'monoclinic'
loop_
_space_group_symop_operation_xyz
x,y,z
-x,y,-z
-x,-y,-z
x,-y,z
1/2+x,1/2+y,z
1/2-x,1/2+y,-z
1/2-x,1/2-y,-z
1/2+x,1/2-y,z
loop_
_atom_site_type_symbol
_atom_site_label
_atom_site_fract_x
_atom_site_fract_y
_atom_site_fract_z
Si Si1 0.006734 0.419797 0.169237
Si Si2 0.416478 0.214864 0.286426
Si Si3 0.231344 0.920275 0.850018
Si Si4 0.126927 0.191984 0.994177
Si Si5 0.022946 0.077782 0.338202
Si Si6 0.342055 0.282902 0.691457
O O1 0.975123 0.500000 0.190620
O O2 0.148630 0.409360 0.221456
O O3 0.931550 0.365045 0.246024
O O4 0.000000 0.408417 0.000000
O O5 0.395393 0.257652 0.139049
O O6 0.546369 0.241136 0.356626
O O7 0.297729 0.228069 0.361372
O O8 0.224392 0.865456 0.973421
O O9 0.107727 0.908636 0.748846
O O10 0.234781 0.000000 0.898574
O O11 0.152593 0.231854 0.140325
O O12 0.000000 0.153975 0.000000
O O13 0.118322 0.136975 0.317676
O O14 0.000000 0.078752 0.500000
O O15 0.060455 0.000000 0.301475
#
# Coordination Sequence:
#
# PCOD9174141 Si02
#       6
#     8   8   8   8   8   8
#     4  10  20  33  53  81 118 159 189 228 287 351
#     4  11  21  34  56  84 122 154 189 235 290 355
#     4  10  19  34  56  83 116 154 192 236 292 350
#     4  10  18  31  52  85 116 153 187 231 288 349
#     4  10  22  41  62  83 113 154 202 250 292 339
#     4  11  22  36  58  87 115 158 191 238 297 348
#
# _framework density 23.294957
#
# number of rings (size 3 to 8) (size 9 to 14) (size 15 to 20)
#    0.000    1.667    3.333    4.000    0.000    1.667 
#    0.000    0.833    0.000    0.000    0.000    4.667 
#    0.000    0.000    0.000    0.000    0.000    0.000 
#
# Total GULP energy -134103.251136 kJ/mol
# GULP energy per Si atom -5587.635464 kJ/mol
# Density = 2.324194 g / cm^3
# Si number density = 23.294957 Si / 1000 Ang^3
#
#
#
# Elastic Constant Matrix: (Units=GPa)
#
#
# Indices 1 2 3 4 5 6 
#
# 1 180.2123 63.8886 35.2761 0.0000 2.5793 0.0000
# 2 63.8886 112.8748 10.8313 0.0000 -9.6980 0.0000
# 3 35.2761 10.8313 50.4605 0.0000 4.4396 0.0000
# 4 0.0000 0.0000 0.0000 -9.9401 0.0000 -2.5805
# 5 2.5793 -9.6980 4.4396 0.0000 25.6790 0.0000
# 6 0.0000 0.0000 0.0000 -2.5805 0.0000 42.8918
#
#
#
# Elastic Compliance Matrix: (Units=1/GPa)
#
#
# Indices 1 2 3 4 5 6 
#
# 1 0.007945 -0.004202 -0.004511 0.000000 -0.001605 0.000000
# 2 -0.004202 0.011651 0.000013 0.000000 0.004820 0.000000
# 3 -0.004511 0.000013 0.023282 0.000000 -0.003567 0.000000
# 4 0.000000 0.000000 0.000000 -0.099055 0.000000 -0.005959
# 5 -0.001605 0.004820 -0.003567 0.000000 0.041541 0.000000
# 6 0.000000 0.000000 0.000000 -0.005959 0.000000 0.022956
#
#
# Mechanical properties :
#
#
# Convention : Reuss Voigt Hill
#
# Bulk Modulus (GPa) = 39.25086 62.61550 50.93318
# Shear Modulus (GPa) = 146.15211 27.29623 86.72417
#
# Velocity S-wave (km/s) = 7.92944 3.42682 6.10815
# Velocity P-wave (km/s) = 10.03597 6.52650 8.46510
#
# Compressibility (1/GPa) = 0.02547715
#
# Stress axis : x y z
#
# Youngs Moduli (GPa) = 125.87220 85.83294 42.95144
#
# Poissons Ratio (x) = 0.36065 0.19375
# Poissons Ratio (y) = 0.52889 -0.00054
# Poissons Ratio (z) = 0.56779 -0.00108
#
# Static dielectric constant tensor:
#      x y z
#    x 1.939120 0.000000 0.049300 
#    y 0.000000 1.868230 0.000000 
#    z 0.049300 0.000000 1.890730 
# 
# From -- ./inp_files/132615.got.cif
#   From: 2010.05.17/outbox.cif.g08.bks.cpg/sg12_67_cif.got.tgz:132615.got - 2010.06.03 13:09:07.
