data_PCOD9174686
_publ_section_title
;
Structure prediction by ZEFSAII (Michael W. Deem and Ramdas Pophale) SiO2 
 PCOD9174686
Probable space group: C 2/M
;
_chemical_formula_sum "Si O2"
_cell_formula_units_Z 58
_cell_length_a 23.716550
_cell_length_b 9.652710
_cell_length_c 28.467287
_cell_angle_alpha 90.000000
_cell_angle_beta 156.359503
_cell_angle_gamma 90.000000
_cell_volume 2613.289763
_symmetry_space_group_name_H-M "C 2/M"
_symmetry_group_IT_number 12
_symmetry_cell_setting 'monoclinic'
loop_
_space_group_symop_operation_xyz
x,y,z
-x,y,-z
-x,-y,-z
x,-y,z
1/2+x,1/2+y,z
1/2-x,1/2+y,-z
1/2-x,1/2-y,-z
1/2+x,1/2-y,z
loop_
_atom_site_type_symbol
_atom_site_label
_atom_site_fract_x
_atom_site_fract_y
_atom_site_fract_z
Si Si1 0.538748 0.234698 0.462515
Si Si2 0.555513 0.839144 0.370836
Si Si3 0.786118 0.839341 0.896139
Si Si4 0.239916 0.655950 0.038332
Si Si5 0.000000 0.000000 0.500000
Si Si6 0.172171 0.158556 0.275513
Si Si7 0.429883 0.342839 0.704375
Si Si8 0.785364 0.161666 0.792257
O O1 0.586235 0.232290 0.444313
O O2 0.520958 0.379386 0.475363
O O3 0.662169 0.158675 0.585200
O O4 0.383828 0.168457 0.342143
O O5 0.384590 0.841671 0.235378
O O6 0.615043 0.754945 0.372226
O O7 0.597724 0.000000 0.403206
O O8 0.829581 0.742226 0.972373
O O9 0.827254 0.784409 0.875657
O O10 0.831372 0.000000 0.936875
O O11 0.182859 0.500000 0.987411
O O12 0.404037 0.641108 0.175953
O O13 0.250000 0.750000 0.000000
O O14 0.098900 0.219801 0.265810
O O15 0.156663 0.224373 0.212078
O O16 0.121545 0.000000 0.233785
O O17 0.370788 0.500000 0.658437
O O18 0.823836 0.000000 0.822813
#
# Coordination Sequence:
#
# PCOD9174686 Si02
#       8
#     8   8   8   8   2   8   8   8
#     4  11  20  33  46  69 100 135 180 215 251 287
#     4   9  18  33  52  72  97 135 176 210 249 300
#     4   8  15  29  49  75 100 123 159 203 245 291
#     4  10  19  33  54  78 101 125 157 200 251 306
#     4  12  24  32  42  72 104 136 180 224 262 286
#     4  10  18  32  52  71 100 135 173 213 253 297
#     4   9  20  35  51  78 105 131 163 209 260 302
#     4   9  16  30  52  73  95 130 172 211 243 287
#
# _framework density 22.194248000000002
#
# number of rings (size 3 to 8) (size 9 to 14) (size 15 to 20)
#    0.000    2.483    1.379    2.483    0.966    2.207 
#    4.966    0.000    0.000    0.828    0.000    5.793 
#    0.000    0.000    0.000    0.000    0.000    0.000 
#
# Total GULP energy -161458.693864 kJ/mol
# GULP energy per Si atom -5567.541168 kJ/mol
# Density = 2.214373 g / cm^3
# Si number density = 22.194248 Si / 1000 Ang^3
#
#
#
# Elastic Constant Matrix: (Units=GPa)
#
#
# Indices 1 2 3 4 5 6 
#
# 1 240.5477 79.4959 25.5008 0.0001 -52.2774 0.0003
# 2 79.4959 118.7662 16.1615 -0.0010 -36.0870 0.0007
# 3 25.5008 16.1615 45.9898 -0.0037 1.8100 0.0004
# 4 0.0001 -0.0010 -0.0037 -24.8761 -0.0005 -36.0202
# 5 -52.2774 -36.0870 1.8100 -0.0005 43.4016 0.0004
# 6 0.0003 0.0007 0.0004 -36.0202 0.0004 7.4463
#
#
#
# Elastic Compliance Matrix: (Units=1/GPa)
#
#
# Indices 1 2 3 4 5 6 
#
# 1 0.006535 -0.002023 -0.003161 0.000000 0.006320 0.000000
# 2 -0.002023 0.012827 -0.003716 0.000000 0.008383 0.000000
# 3 -0.003161 -0.003716 0.025115 0.000000 -0.007944 -0.000002
# 4 0.000000 0.000000 0.000000 -0.005022 0.000000 -0.024294
# 5 0.006320 0.008383 -0.007944 0.000000 0.037955 0.000000
# 6 0.000000 0.000000 -0.000002 -0.024294 0.000000 0.016778
#
#
# Mechanical properties :
#
#
# Convention : Reuss Voigt Hill
#
# Bulk Modulus (GPa) = 37.48591 71.95779 54.72185
# Shear Modulus (GPa) = 41.36343 24.13738 32.75040
#
# Velocity S-wave (km/s) = 4.32174 3.30138 3.84555
# Velocity P-wave (km/s) = 6.46760 6.85743 6.66537
#
# Compressibility (1/GPa) = 0.02667669
#
# Stress axis : x y z
#
# Youngs Moduli (GPa) = 153.03319 77.96042 39.81662
#
# Poissons Ratio (x) = 0.15773 0.12586
# Poissons Ratio (y) = 0.30963 0.14795
# Poissons Ratio (z) = 0.48375 0.28968
#
# Static dielectric constant tensor:
#      x y z
#    x 1.872960 0.000000 0.013970 
#    y 0.000000 1.783670 0.000000 
#    z 0.013970 0.000000 1.897020 
# 
# From -- ./inp_files/382077.got.cif
#   From: 2010.05.17/outbox.cif.g08.bks.cpg/sg12_192_cif.got.tgz:382077.got - 2010.06.03 13:09:07.
