data_PCOD9174929
_publ_section_title
;
Structure prediction by ZEFSAII (Michael W. Deem and Ramdas Pophale) SiO2 
 PCOD9174929
Probable space group: C 2/M
;
_chemical_formula_sum "Si O2"
_cell_formula_units_Z 64
_cell_length_a 16.422792
_cell_length_b 8.993785
_cell_length_c 19.412798
_cell_angle_alpha 90.000000
_cell_angle_beta 94.436758
_cell_angle_gamma 90.000000
_cell_volume 2858.737228
_symmetry_space_group_name_H-M "C 2/M"
_symmetry_group_IT_number 12
_symmetry_cell_setting 'monoclinic'
loop_
_space_group_symop_operation_xyz
x,y,z
-x,y,-z
-x,-y,-z
x,-y,z
1/2+x,1/2+y,z
1/2-x,1/2+y,-z
1/2-x,1/2-y,-z
1/2+x,1/2-y,z
loop_
_atom_site_type_symbol
_atom_site_label
_atom_site_fract_x
_atom_site_fract_y
_atom_site_fract_z
Si Si1 0.411378 0.173688 0.922231
Si Si2 0.449050 0.325473 0.154660
Si Si3 0.948741 0.174665 0.705915
Si Si4 0.804998 0.325044 0.784764
Si Si5 0.963990 0.332274 0.403146
Si Si6 0.670635 0.325571 0.963433
Si Si7 0.314668 0.324189 0.453104
Si Si8 0.800727 0.334547 0.317610
O O1 0.488157 0.221702 0.882022
O O2 0.335878 0.196730 0.864396
O O3 0.414802 0.000000 0.941021
O O4 0.399548 0.273434 0.988232
O O5 0.464330 0.500000 0.138016
O O6 0.474018 0.314107 0.236137
O O7 0.361292 0.290485 0.115477
O O8 0.968002 0.235343 0.630726
O O9 0.877191 0.266835 0.738639
O O10 0.928411 0.000000 0.701271
O O11 0.790345 0.500000 0.774137
O O12 0.728557 0.228265 0.756031
O O13 0.989656 0.500000 0.423178
O O14 0.905667 0.252893 0.456673
O O15 0.896485 0.347761 0.337838
O O16 0.684246 0.500000 0.967608
O O17 0.750000 0.250000 0.000000
O O18 0.322008 0.500000 0.463861
O O19 0.250000 0.250000 0.500000
O O20 0.278103 0.284106 0.375282
O O21 0.766586 0.500000 0.328375
#
# Coordination Sequence:
#
# PCOD9174929 Si02
#       8
#     8   8   8   8   8   8   8   8
#     4  10  21  36  55  78 102 134 175 217 263 321
#     4   9  20  37  55  75 100 135 176 217 263 319
#     4  10  19  33  54  77 104 138 175 219 269 317
#     4  10  20  34  53  77 107 140 174 217 266 317
#     4   9  19  33  50  77 108 138 176 218 259 307
#     4  11  23  38  54  75 103 136 173 220 271 320
#     4  10  18  32  54  80 109 143 180 217 259 304
#     4   9  19  33  51  78 107 138 177 218 259 306
#
# _framework density 22.387509000000001
#
# number of rings (size 3 to 8) (size 9 to 14) (size 15 to 20)
#    0.750    1.500    0.000    3.375    0.000    5.500 
#    0.000    3.750    0.000    0.750    0.000    5.250 
#    0.000    0.000    0.000    0.000    0.000    0.000 
#
# Total GULP energy -178420.346252 kJ/mol
# GULP energy per Si atom -5575.635820 kJ/mol
# Density = 2.233655 g / cm^3
# Si number density = 22.387509 Si / 1000 Ang^3
#
#
#
# Elastic Constant Matrix: (Units=GPa)
#
#
# Indices 1 2 3 4 5 6 
#
# 1 22.1783 -4.0503 -1.8534 0.0000 -2.4461 0.0000
# 2 -4.0503 63.5874 8.6495 0.0000 -8.3958 0.0000
# 3 -1.8534 8.6495 53.0757 0.0000 -10.5852 0.0000
# 4 0.0000 0.0000 0.0000 24.8023 0.0000 -2.8999
# 5 -2.4461 -8.3958 -10.5852 0.0000 38.2121 0.0000
# 6 0.0000 0.0000 0.0000 -2.8999 0.0000 24.7234
#
#
#
# Elastic Compliance Matrix: (Units=1/GPa)
#
#
# Indices 1 2 3 4 5 6 
#
# 1 0.046307 0.003243 0.001928 0.000000 0.004211 0.000000
# 2 0.003243 0.016635 -0.001934 0.000000 0.003327 0.000000
# 3 0.001928 -0.001934 0.020284 0.000000 0.005317 0.000000
# 4 0.000000 0.000000 0.000000 0.040879 0.000000 0.004795
# 5 0.004211 0.003327 0.005317 0.000000 0.028643 0.000000
# 6 0.000000 0.000000 0.000000 0.004795 0.000000 0.041010
#
#
# Mechanical properties :
#
#
# Convention : Reuss Voigt Hill
#
# Bulk Modulus (GPa) = 11.14810 16.03698 13.59254
# Shear Modulus (GPa) = 23.02190 26.62061 24.82125
#
# Velocity S-wave (km/s) = 3.21025 3.45205 3.33334
# Velocity P-wave (km/s) = 4.32797 4.80289 4.57160
#
# Compressibility (1/GPa) = 0.08970138
#
# Stress axis : x y z
#
# Youngs Moduli (GPa) = 21.59498 60.11293 49.29983
#
# Poissons Ratio (x) = -0.19497 -0.09507
# Poissons Ratio (y) = -0.07004 0.09536
# Poissons Ratio (z) = -0.04164 0.11627
#
# Static dielectric constant tensor:
#      x y z
#    x 1.914240 0.000000 0.029260 
#    y 0.000000 1.769160 0.000000 
#    z 0.029260 0.000000 1.864360 
# 
# From -- ./inp_files/314113.got.cif
#   From: 2010.05.17/outbox.cif.g08.bks.cpg/sg12_158_cif.got.tgz:314113.got - 2010.06.03 13:09:07.
