data_PCOD9174074
_publ_section_title
;
Structure prediction by ZEFSAII (Michael W. Deem and Ramdas Pophale) SiO2 
 PCOD9174074
Probable space group: C 2/M
;
_chemical_formula_sum "Si O2"
_cell_formula_units_Z 56
_cell_length_a 31.772140
_cell_length_b 8.355030
_cell_length_c 12.355988
_cell_angle_alpha 90.000000
_cell_angle_beta 63.570915
_cell_angle_gamma 90.000000
_cell_volume 2937.181121
_symmetry_space_group_name_H-M "C 2/M"
_symmetry_group_IT_number 12
_symmetry_cell_setting 'monoclinic'
loop_
_space_group_symop_operation_xyz
x,y,z
-x,y,-z
-x,-y,-z
x,-y,z
1/2+x,1/2+y,z
1/2-x,1/2+y,-z
1/2-x,1/2-y,-z
1/2+x,1/2-y,z
loop_
_atom_site_type_symbol
_atom_site_label
_atom_site_fract_x
_atom_site_fract_y
_atom_site_fract_z
Si Si1 0.087771 0.307090 0.709039
Si Si2 0.865687 0.810745 0.558785
Si Si3 0.787782 0.805914 0.809413
Si Si4 0.949347 0.691807 0.612215
Si Si5 0.019881 0.304614 0.188560
Si Si6 0.314733 0.691010 0.017843
Si Si7 0.401192 0.192791 0.061489
O O1 0.086198 0.500000 0.712835
O O2 0.121122 0.259283 0.572503
O O3 0.103093 0.249506 0.810311
O O4 0.034129 0.250797 0.749587
O O5 0.818808 0.750166 0.672637
O O6 0.908618 0.773748 0.590930
O O7 0.861120 0.000000 0.551752
O O8 0.734811 0.743081 0.873451
O O9 0.786411 0.000000 0.810719
O O10 0.812155 0.755133 0.895034
O O11 0.941385 0.500000 0.617658
O O12 0.953725 0.744146 0.731650
O O13 0.000000 0.721460 0.500000
O O14 0.018704 0.500000 0.190696
O O15 0.050304 0.253356 0.050693
O O16 0.317952 0.500000 0.014438
O O17 0.358088 0.759436 0.034906
O O18 0.402936 0.000000 0.063119
#
# Coordination Sequence:
#
# PCOD9174074 Si02
#       7
#     8   8   8   8   8   8   8
#     4  10  20  36  54  75 107 145 187 224 255 307
#     4  11  22  35  53  79 111 144 176 217 270 319
#     4   9  20  38  58  81 109 139 172 214 267 325
#     4  10  18  31  52  77 108 141 175 218 259 308
#     4   9  17  32  54  79 105 140 184 223 260 306
#     4  10  20  36  59  84 109 134 169 221 271 318
#     4  10  20  34  56  80 105 142 182 222 266 313
#
# _framework density 19.065899999999999
#
# number of rings (size 3 to 8) (size 9 to 14) (size 15 to 20)
#    0.000    2.143    1.429    2.143    0.000    4.286 
#    0.000    1.429    0.000    1.714    0.000    0.000 
#    0.000    0.000    0.000    0.000    0.000    0.000 
#
# Total GULP energy -156316.584113 kJ/mol
# GULP energy per Si atom -5582.735147 kJ/mol
# Density = 1.902251 g / cm^3
# Si number density = 19.065900 Si / 1000 Ang^3
#
#
#
# Elastic Constant Matrix: (Units=GPa)
#
#
# Indices 1 2 3 4 5 6 
#
# 1 38.8875 3.5461 46.8963 0.0000 1.3061 0.0000
# 2 3.5461 6.1503 21.9347 0.0000 1.2874 0.0000
# 3 46.8963 21.9347 174.5122 0.0000 -4.0357 0.0000
# 4 0.0000 0.0000 0.0000 19.9057 0.0000 0.8256
# 5 1.3061 1.2874 -4.0357 0.0000 20.2574 0.0000
# 6 0.0000 0.0000 0.0000 0.8256 0.0000 15.8641
#
#
#
# Elastic Compliance Matrix: (Units=1/GPa)
#
#
# Indices 1 2 3 4 5 6 
#
# 1 0.041713 0.033038 -0.015544 0.000000 -0.007886 0.000000
# 2 0.033038 0.335423 -0.051819 0.000000 -0.033770 0.000000
# 3 -0.015544 -0.051819 0.016596 0.000000 0.007602 0.000000
# 4 0.000000 0.000000 0.000000 0.050346 0.000000 -0.002620
# 5 -0.007886 -0.033770 0.007602 0.000000 0.053534 0.000000
# 6 0.000000 0.000000 0.000000 -0.002620 0.000000 0.063172
#
#
# Mechanical properties :
#
#
# Convention : Reuss Voigt Hill
#
# Bulk Modulus (GPa) = 3.07615 40.47826 21.77720
# Shear Modulus (GPa) = 6.77695 21.01696 13.89695
#
# Velocity S-wave (km/s) = 1.88738 3.32374 2.70273
# Velocity P-wave (km/s) = 2.52320 6.00054 4.60288
#
# Compressibility (1/GPa) = 0.32508211
#
# Stress axis : x y z
#
# Youngs Moduli (GPa) = 23.97330 2.98131 60.25373
#
# Poissons Ratio (x) = -0.09850 0.93661
# Poissons Ratio (y) = -0.79203 3.12229
# Poissons Ratio (z) = 0.37265 0.15449
#
# Static dielectric constant tensor:
#      x y z
#    x 1.629410 0.000000 0.004980 
#    y 0.000000 1.663910 0.000000 
#    z 0.004980 0.000000 1.682530 
# 
# From -- ./inp_files/181119.got.cif
#   From: 2010.05.17/outbox.cif.g08.bks.cpg/sg12_91_cif.got.tgz:181119.got - 2010.06.03 13:09:07.
