data_PCOD9174765
_publ_section_title
;
Structure prediction by ZEFSAII (Michael W. Deem and Ramdas Pophale) SiO2 
 PCOD9174765
Probable space group: C 2/M
;
_chemical_formula_sum "Si O2"
_cell_formula_units_Z 36
_cell_length_a 22.721942
_cell_length_b 9.962854
_cell_length_c 24.433841
_cell_angle_alpha 90.000000
_cell_angle_beta 22.090603
_cell_angle_gamma 90.000000
_cell_volume 2080.138738
_symmetry_space_group_name_H-M "C 2/M"
_symmetry_group_IT_number 12
_symmetry_cell_setting 'monoclinic'
loop_
_space_group_symop_operation_xyz
x,y,z
-x,y,-z
-x,-y,-z
x,-y,z
1/2+x,1/2+y,z
1/2-x,1/2+y,-z
1/2-x,1/2-y,-z
1/2+x,1/2-y,z
loop_
_atom_site_type_symbol
_atom_site_label
_atom_site_fract_x
_atom_site_fract_y
_atom_site_fract_z
Si Si1 0.000000 0.258519 0.500000
Si Si2 0.548602 0.343429 0.019306
Si Si3 0.673233 0.342741 0.519924
Si Si4 0.582033 0.848737 0.309012
Si Si5 0.317847 0.850209 0.276579
O O1 0.948537 0.337503 0.599157
O O2 0.846192 0.177112 0.613591
O O3 0.506890 0.500000 0.062080
O O4 0.447699 0.255676 0.147301
O O5 0.500000 0.302519 0.000000
O O6 0.735224 0.331532 0.861557
O O7 0.650885 0.500000 0.554575
O O8 0.750000 0.250000 0.500000
O O9 0.515512 0.267221 0.636640
O O10 0.779812 0.341253 0.373552
O O11 0.533756 0.000000 0.333599
O O12 0.371446 0.000000 0.216918
#
# Coordination Sequence:
#
# PCOD9174765 Si02
#       5
#     4   8   8   8   8
#     4  10  18  32  52  82 112 146 182 226 270 328
#     4  10  20  35  52  81 118 150 184 220 265 330
#     4  10  22  40  60  82 108 140 188 235 277 326
#     4  10  20  34  56  82 112 147 184 225 272 324
#     4  10  21  35  54  81 112 145 182 228 276 327
#
# _framework density 17.306538
#
# number of rings (size 3 to 8) (size 9 to 14) (size 15 to 20)
#    0.000    2.000    2.222    1.333    0.000    6.667 
#    0.000    1.111    0.000    0.000    0.000    0.000 
#    0.000    0.000    0.000    0.000    0.000    0.000 
#
# Total GULP energy -100367.967975 kJ/mol
# GULP energy per Si atom -5575.998221 kJ/mol
# Density = 1.726715 g / cm^3
# Si number density = 17.306538 Si / 1000 Ang^3
#
#
#
# Elastic Constant Matrix: (Units=GPa)
#
#
# Indices 1 2 3 4 5 6 
#
# 1 75.9427 51.1186 16.3332 -0.0006 -8.8914 -0.0019
# 2 51.1186 116.9277 41.8842 -0.0008 0.9168 -0.0027
# 3 16.3332 41.8842 68.6482 -0.0025 4.7561 -0.0107
# 4 -0.0006 -0.0008 -0.0025 25.7807 0.0000 -14.3991
# 5 -8.8914 0.9168 4.7561 0.0000 10.0696 0.0005
# 6 -0.0019 -0.0027 -0.0107 -14.3991 0.0005 -100.8249
#
#
#
# Elastic Compliance Matrix: (Units=1/GPa)
#
#
# Indices 1 2 3 4 5 6 
#
# 1 0.022258 -0.009570 -0.000909 0.000000 0.020954 0.000000
# 2 -0.009570 0.015107 -0.006471 0.000000 -0.006769 0.000000
# 3 -0.000909 -0.006471 0.019381 0.000001 -0.009367 -0.000002
# 4 0.000000 0.000000 0.000001 0.035923 0.000000 -0.005130
# 5 0.020954 -0.006769 -0.009367 0.000000 0.122852 0.000001
# 6 0.000000 0.000000 -0.000002 -0.005130 0.000001 -0.009186
#
#
# Mechanical properties :
#
#
# Convention : Reuss Voigt Hill
#
# Bulk Modulus (GPa) = 43.77120 53.35450 48.56285
# Shear Modulus (GPa) = 20.17342 -2.84941 8.66201
#
# Velocity S-wave (km/s) = 3.41787 -1.28453 2.23962
# Velocity P-wave (km/s) = 6.39706 5.35687 5.89993
#
# Compressibility (1/GPa) = 0.02284607
#
# Stress axis : x y z
#
# Youngs Moduli (GPa) = 44.92737 66.19398 51.59771
#
# Poissons Ratio (x) = 0.63345 0.04690
# Poissons Ratio (y) = 0.42994 0.33391
# Poissons Ratio (z) = 0.04084 0.42837
#
# Static dielectric constant tensor:
#      x y z
#    x 1.587980 0.000000 0.012820 
#    y 0.000000 1.596190 0.000000 
#    z 0.012820 0.000000 1.598370 
# 
# From -- ./inp_files/92398.got.cif
#   From: 2010.05.17/outbox.cif.g08.bks.cpg/sg12_47_cif.got.tgz:92398.got - 2010.06.03 13:09:07.
