data_PCOD9174971
_publ_section_title
;
Structure prediction by ZEFSAII (Michael W. Deem and Ramdas Pophale) SiO2 
 PCOD9174971
Probable space group: C 2/M
;
_chemical_formula_sum "Si O2"
_cell_formula_units_Z 56
_cell_length_a 9.798327
_cell_length_b 24.704352
_cell_length_c 17.139414
_cell_angle_alpha 90.000000
_cell_angle_beta 44.960268
_cell_angle_gamma 90.000000
_cell_volume 2931.601903
_symmetry_space_group_name_H-M "C 2/M"
_symmetry_group_IT_number 12
_symmetry_cell_setting 'monoclinic'
loop_
_space_group_symop_operation_xyz
x,y,z
-x,y,-z
-x,-y,-z
x,-y,z
1/2+x,1/2+y,z
1/2-x,1/2+y,-z
1/2-x,1/2-y,-z
1/2+x,1/2-y,z
loop_
_atom_site_type_symbol
_atom_site_label
_atom_site_fract_x
_atom_site_fract_y
_atom_site_fract_z
Si Si1 0.973831 0.240116 0.923965
Si Si2 0.726461 0.161908 0.767312
Si Si3 0.831514 0.806569 0.435873
Si Si4 0.178618 0.844937 0.733159
Si Si5 0.957832 0.934817 0.740313
Si Si6 0.840473 0.063318 0.504490
Si Si7 0.068150 0.632777 0.664617
O O1 0.102359 0.294861 0.866139
O O2 0.046188 0.199108 0.828723
O O3 0.000000 0.216846 0.000000
O O4 0.750000 0.250000 0.000000
O O5 0.777451 0.104592 0.788968
O O6 0.610404 0.151765 0.734279
O O7 0.935613 0.188777 0.662132
O O8 0.750000 0.750000 0.500000
O O9 0.765701 0.820856 0.374514
O O10 0.735895 0.845847 0.538129
O O11 0.365214 0.851906 0.711370
O O12 0.065123 0.901506 0.765646
O O13 0.102380 0.925961 0.608538
O O14 0.924446 0.000000 0.764470
O O15 0.626816 0.071090 0.627113
O O16 0.000000 0.086908 0.500000
O O17 0.872910 0.000000 0.492556
#
# Coordination Sequence:
#
# PCOD9174971 Si02
#       7
#     8   8   8   8   8   8   8
#     4  12  25  45  66  86 115 154 206 274 325 372
#     4  11  22  38  62  90 118 165 214 246 317 375
#     4  11  21  35  53  81 125 164 197 243 297 364
#     4  11  24  38  58  90 121 160 210 249 320 373
#     4  10  21  39  61  88 130 171 210 248 289 365
#     4  10  18  32  54  83 123 173 207 228 270 343
#     4  12  20  33  53  88 126 158 192 244 290 361
#
# _framework density 19.102184000000001
#
# number of rings (size 3 to 8) (size 9 to 14) (size 15 to 20)
#    0.000    1.000    4.286    5.143    0.000    1.714 
#    0.000    1.429    0.000    4.286    0.000    0.000 
#    0.000    0.000    0.000    0.000    0.000    0.000 
#
# Total GULP energy -156003.196475 kJ/mol
# GULP energy per Si atom -5571.542731 kJ/mol
# Density = 1.905871 g / cm^3
# Si number density = 19.102184 Si / 1000 Ang^3
#
#
#
# Elastic Constant Matrix: (Units=GPa)
#
#
# Indices 1 2 3 4 5 6 
#
# 1 115.1949 22.3214 19.5327 0.0000 -22.2215 0.0000
# 2 22.3214 98.3754 28.3816 0.0000 -6.9995 0.0000
# 3 19.5327 28.3816 55.7596 0.0000 -14.9981 0.0000
# 4 0.0000 0.0000 0.0000 14.9602 0.0000 -0.4323
# 5 -22.2215 -6.9995 -14.9981 0.0000 35.8015 0.0000
# 6 0.0000 0.0000 0.0000 -0.4323 0.0000 15.1685
#
#
#
# Elastic Compliance Matrix: (Units=1/GPa)
#
#
# Indices 1 2 3 4 5 6 
#
# 1 0.010271 -0.001557 -0.001322 0.000000 0.005517 0.000000
# 2 -0.001557 0.012153 -0.005929 0.000000 -0.001074 0.000000
# 3 -0.001322 -0.005929 0.023535 0.000000 0.007880 0.000000
# 4 0.000000 0.000000 0.000000 0.066899 0.000000 0.001907
# 5 0.005517 -0.001074 0.007880 0.000000 0.034447 0.000000
# 6 0.000000 0.000000 0.000000 0.001907 0.000000 0.065980
#
#
# Mechanical properties :
#
#
# Convention : Reuss Voigt Hill
#
# Bulk Modulus (GPa) = 35.28221 45.53346 40.40783
# Shear Modulus (GPa) = 20.80327 26.45902 23.63114
#
# Velocity S-wave (km/s) = 3.30366 3.72577 3.52105
# Velocity P-wave (km/s) = 5.75001 6.51130 6.14246
#
# Compressibility (1/GPa) = 0.02834290
#
# Stress axis : x y z
#
# Youngs Moduli (GPa) = 97.36223 82.28749 42.49079
#
# Poissons Ratio (x) = 0.12809 0.05616
# Poissons Ratio (y) = 0.15156 0.25194
# Poissons Ratio (z) = 0.12868 0.48790
#
# Static dielectric constant tensor:
#      x y z
#    x 1.447090 0.000000 0.132180 
#    y 0.000000 1.101260 0.000000 
#    z 0.132180 0.000000 1.555290 
# 
# From -- ./inp_files/259813.got.cif
#   From: 2010.05.17/outbox.cif.g08.bks.cpg/sg12_130_cif.got.tgz:259813.got - 2010.06.03 13:09:07.
