data_PCOD9174144
_publ_section_title
;
Structure prediction by ZEFSAII (Michael W. Deem and Ramdas Pophale) SiO2 
 PCOD9174144
Probable space group: C 2/M
;
_chemical_formula_sum "Si O2"
_cell_formula_units_Z 48
_cell_length_a 9.784530
_cell_length_b 27.212927
_cell_length_c 14.922890
_cell_angle_alpha 90.000000
_cell_angle_beta 39.122672
_cell_angle_gamma 90.000000
_cell_volume 2507.181140
_symmetry_space_group_name_H-M "C 2/M"
_symmetry_group_IT_number 12
_symmetry_cell_setting 'monoclinic'
loop_
_space_group_symop_operation_xyz
x,y,z
-x,y,-z
-x,-y,-z
x,-y,z
1/2+x,1/2+y,z
1/2-x,1/2+y,-z
1/2-x,1/2-y,-z
1/2+x,1/2-y,z
loop_
_atom_site_type_symbol
_atom_site_label
_atom_site_fract_x
_atom_site_fract_y
_atom_site_fract_z
Si Si1 0.164517 0.415968 0.703848
Si Si2 0.384381 0.724683 0.349352
Si Si3 0.765470 0.944734 0.163574
Si Si4 0.758301 0.379969 0.653453
Si Si5 0.063478 0.055502 0.608213
Si Si6 0.209912 0.807113 0.325597
O O1 0.284191 0.421303 0.546485
O O2 0.321829 0.444029 0.691942
O O3 0.177715 0.359686 0.727536
O O4 0.925628 0.436163 0.810915
O O5 0.250000 0.750000 0.500000
O O6 0.278600 0.676566 0.357022
O O7 0.373955 0.766550 0.279787
O O8 0.607096 0.708085 0.282825
O O9 0.755776 0.899738 0.238604
O O10 0.731688 0.000000 0.220898
O O11 0.000000 0.944492 0.000000
O O12 0.589404 0.411557 0.681766
O O13 0.000000 0.393168 0.500000
O O14 0.134913 0.000000 0.588015
O O15 0.000000 0.810094 0.500000
#
# Coordination Sequence:
#
# PCOD9174144 Si02
#       6
#     8   8   8   8   8   8
#     4  11  19  36  58  86 122 158 198 250 309 368
#     4  10  20  33  52  92 128 155 185 247 312 365
#     4  11  26  44  61  86 125 171 211 252 308 368
#     4  12  22  36  61  93 123 156 206 259 302 361
#     4  11  20  32  55  89 119 148 194 258 314 355
#     4  10  18  31  52  85 124 152 190 239 307 365
#
# _framework density 19.145007
#
# number of rings (size 3 to 8) (size 9 to 14) (size 15 to 20)
#    0.000    1.167    5.000    5.000    2.333    0.667 
#    0.000    0.833    0.000    4.000    0.000    0.000 
#    0.000    0.000    0.000    0.000    0.000    0.000 
#
# Total GULP energy -133858.991829 kJ/mol
# GULP energy per Si atom -5577.457993 kJ/mol
# Density = 1.910143 g / cm^3
# Si number density = 19.145007 Si / 1000 Ang^3
#
#
#
# Elastic Constant Matrix: (Units=GPa)
#
#
# Indices 1 2 3 4 5 6 
#
# 1 70.0612 40.4118 19.2262 0.0000 -23.8333 0.0000
# 2 40.4118 141.3710 14.5702 0.0000 -0.7579 0.0000
# 3 19.2262 14.5702 36.9222 0.0000 -18.9100 0.0000
# 4 0.0000 0.0000 0.0000 4.9748 0.0000 1.8592
# 5 -23.8333 -0.7579 -18.9100 0.0000 21.3570 0.0000
# 6 0.0000 0.0000 0.0000 1.8592 0.0000 21.4185
#
#
#
# Elastic Compliance Matrix: (Units=1/GPa)
#
#
# Indices 1 2 3 4 5 6 
#
# 1 0.032657 -0.010126 0.010012 0.000000 0.044949 0.000000
# 2 -0.010126 0.010729 -0.008332 0.000000 -0.018297 0.000000
# 3 0.010012 -0.008332 0.056227 0.000000 0.060662 0.000000
# 4 0.000000 0.000000 0.000000 0.207753 0.000000 -0.018034
# 5 0.044949 -0.018297 0.060662 0.000000 0.150046 0.000000
# 6 0.000000 0.000000 0.000000 -0.018034 0.000000 0.048254
#
#
# Mechanical properties :
#
#
# Convention : Reuss Voigt Hill
#
# Bulk Modulus (GPa) = 12.08883 44.08563 28.08723
# Shear Modulus (GPa) = 9.08872 21.15981 15.12426
#
# Velocity S-wave (km/s) = 2.18119 3.32812 2.81372
# Velocity P-wave (km/s) = 3.55971 6.15189 5.02580
#
# Compressibility (1/GPa) = 0.08272097
#
# Stress axis : x y z
#
# Youngs Moduli (GPa) = 30.62084 93.20688 17.78511
#
# Poissons Ratio (x) = 0.94383 -0.17806
# Poissons Ratio (y) = 0.31007 0.14818
# Poissons Ratio (z) = -0.30657 0.77656
#
# Static dielectric constant tensor:
#      x y z
#    x 1.701060 0.000000 0.007580 
#    y 0.000000 1.698670 0.000000 
#    z 0.007580 0.000000 1.656410 
# 
# From -- ./inp_files/123529.got.cif
#   From: 2010.05.17/outbox.cif.g08.bks.cpg/sg12_62_cif.got.tgz:123529.got - 2010.06.03 13:09:07.
