data_PCOD9174875
_publ_section_title
;
Structure prediction by ZEFSAII (Michael W. Deem and Ramdas Pophale) SiO2 
 PCOD9174875
Probable space group: C 2/M
;
_chemical_formula_sum "Si O2"
_cell_formula_units_Z 48
_cell_length_a 23.867006
_cell_length_b 14.845669
_cell_length_c 10.425603
_cell_angle_alpha 90.000000
_cell_angle_beta 39.857217
_cell_angle_gamma 90.000000
_cell_volume 2367.409132
_symmetry_space_group_name_H-M "C 2/M"
_symmetry_group_IT_number 12
_symmetry_cell_setting 'monoclinic'
loop_
_space_group_symop_operation_xyz
x,y,z
-x,y,-z
-x,-y,-z
x,-y,z
1/2+x,1/2+y,z
1/2-x,1/2+y,-z
1/2-x,1/2-y,-z
1/2+x,1/2-y,z
loop_
_atom_site_type_symbol
_atom_site_label
_atom_site_fract_x
_atom_site_fract_y
_atom_site_fract_z
Si Si1 0.433323 0.138210 0.226381
Si Si2 0.769718 0.109327 0.137636
Si Si3 0.551491 0.607361 0.287083
Si Si4 0.056560 0.855782 0.779086
Si Si5 0.073694 0.605878 0.464500
Si Si6 0.762351 0.855018 0.447276
O O1 0.436513 0.247253 0.221590
O O2 0.452425 0.112270 0.339904
O O3 0.334890 0.106051 0.367836
O O4 0.500000 0.107280 0.000000
O O5 0.672181 0.143828 0.277255
O O6 0.787693 0.134254 0.253833
O O7 0.768035 0.000000 0.135071
O O8 0.850633 0.143086 0.910601
O O9 0.500000 0.643944 0.500000
O O10 0.561483 0.500000 0.288134
O O11 0.493270 0.621609 0.263116
O O12 0.156177 0.890204 0.613812
O O13 0.000000 0.888080 0.000000
O O14 0.081522 0.500000 0.419439
O O15 0.000000 0.644183 0.500000
O O16 0.750000 0.750000 0.500000
#
# Coordination Sequence:
#
# PCOD9174875 Si02
#       6
#     8   8   8   8   8   8
#     4   9  19  33  51  75 104 130 163 215 259 293
#     4   9  17  32  54  76 102 135 169 207 255 304
#     4  10  21  35  51  76 110 138 165 209 259 303
#     4  10  18  32  54  75 100 136 172 205 247 309
#     4   9  18  34  55  74  97 134 174 208 249 305
#     4   9  17  31  52  75 102 132 168 208 250 297
#
# _framework density 20.27533
#
# number of rings (size 3 to 8) (size 9 to 14) (size 15 to 20)
#    0.000    2.667    1.667    0.000    0.000    2.000 
#    3.000    0.000    0.000    4.000    0.000    0.000 
#    0.000    0.000    0.000    0.000    0.000    0.000 
#
# Total GULP energy -133825.400240 kJ/mol
# GULP energy per Si atom -5576.058343 kJ/mol
# Density = 2.022918 g / cm^3
# Si number density = 20.275330 Si / 1000 Ang^3
#
#
#
# Elastic Constant Matrix: (Units=GPa)
#
#
# Indices 1 2 3 4 5 6 
#
# 1 150.3344 -7.7024 89.8964 0.0000 -11.4927 0.0000
# 2 -7.7024 43.6196 2.5797 0.0000 -1.5922 0.0000
# 3 89.8964 2.5797 190.7300 0.0000 -5.4836 0.0000
# 4 0.0000 0.0000 0.0000 9.6823 0.0000 9.5675
# 5 -11.4927 -1.5922 -5.4836 0.0000 22.2502 0.0000
# 6 0.0000 0.0000 0.0000 9.5675 0.0000 15.3866
#
#
#
# Elastic Compliance Matrix: (Units=1/GPa)
#
#
# Indices 1 2 3 4 5 6 
#
# 1 0.009777 0.002143 -0.004519 0.000000 0.004089 0.000000
# 2 0.002143 0.023469 -0.001256 0.000000 0.002477 0.000000
# 3 -0.004519 -0.001256 0.007373 0.000000 -0.000607 0.000000
# 4 0.000000 0.000000 0.000000 0.267868 0.000000 -0.166562
# 5 0.004089 0.002477 -0.000607 0.000000 0.047083 0.000000
# 6 0.000000 0.000000 0.000000 -0.166562 0.000000 0.168561
#
#
# Mechanical properties :
#
#
# Convention : Reuss Voigt Hill
#
# Bulk Modulus (GPa) = 29.98277 61.58128 45.78202
# Shear Modulus (GPa) = 9.21636 29.45786 19.33711
#
# Velocity S-wave (km/s) = 2.13436 3.81582 3.09160
# Velocity P-wave (km/s) = 4.57098 7.06062 5.94753
#
# Compressibility (1/GPa) = 0.03335249
#
# Stress axis : x y z
#
# Youngs Moduli (GPa) = 102.28286 42.61019 135.63532
#
# Poissons Ratio (x) = -0.09131 0.61300
# Poissons Ratio (y) = -0.21919 0.17039
# Poissons Ratio (z) = 0.46227 0.05353
#
# Static dielectric constant tensor:
#      x y z
#    x 1.710400 0.000000 -0.049490 
#    y 0.000000 1.743610 0.000000 
#    z -0.049490 0.000000 1.730840 
# 
# From -- ./inp_files/62777.got.cif
#   From: 2010.05.17/outbox.cif.g08.bks.cpg/sg12_32_cif.got.tgz:62777.got - 2010.06.03 13:09:07.
