data_PCOD9174066
_publ_section_title
;
Structure prediction by ZEFSAII (Michael W. Deem and Ramdas Pophale) SiO2 
 PCOD9174066
Probable space group: C 2/M
;
_chemical_formula_sum "Si O2"
_cell_formula_units_Z 40
_cell_length_a 28.346796
_cell_length_b 8.594668
_cell_length_c 26.365176
_cell_angle_alpha 90.000000
_cell_angle_beta 159.414789
_cell_angle_gamma 90.000000
_cell_volume 2258.461307
_symmetry_space_group_name_H-M "C 2/M"
_symmetry_group_IT_number 12
_symmetry_cell_setting 'monoclinic'
loop_
_space_group_symop_operation_xyz
x,y,z
-x,y,-z
-x,-y,-z
x,-y,z
1/2+x,1/2+y,z
1/2-x,1/2+y,-z
1/2-x,1/2-y,-z
1/2+x,1/2-y,z
loop_
_atom_site_type_symbol
_atom_site_label
_atom_site_fract_x
_atom_site_fract_y
_atom_site_fract_z
Si Si1 0.275873 0.188026 0.308627
Si Si2 0.242754 0.686671 0.549279
Si Si3 0.046241 0.188857 0.154623
Si Si4 0.253809 0.188471 0.168886
Si Si5 0.027704 0.184806 0.409771
O O1 0.273871 0.233478 0.248046
O O2 0.396145 0.258375 0.462574
O O3 0.137804 0.232242 0.198362
O O4 0.287697 0.000000 0.323086
O O5 0.241383 0.500000 0.547260
O O6 0.250000 0.750000 0.500000
O O7 0.370689 0.737921 0.712135
O O8 0.112546 0.745075 0.448699
O O9 0.042342 0.000000 0.150845
O O10 0.893509 0.242074 0.996899
O O11 0.376063 0.255460 0.259852
O O12 0.258046 0.000000 0.170937
O O13 0.031750 0.000000 0.411208
#
# Coordination Sequence:
#
# PCOD9174066 Si02
#       5
#     8   8   8   8   8
#     4   9  17  31  52  76 103 139 178 211 248 298
#     4  10  20  38  61  80  98 126 167 212 260 310
#     4   8  16  31  53  79 103 130 169 213 254 302
#     4  10  18  31  52  77 106 138 171 210 255 299
#     4  11  22  34  49  74 107 140 174 209 248 298
#
# _framework density 17.711172999999999
#
# number of rings (size 3 to 8) (size 9 to 14) (size 15 to 20)
#    0.000    2.400    0.000    4.800    0.000    5.600 
#    0.000    6.000    0.000    6.000    0.000    0.000 
#    0.000    0.000    0.000    0.000    0.000    0.000 
#
# Total GULP energy -111613.997708 kJ/mol
# GULP energy per Si atom -5580.699885 kJ/mol
# Density = 1.767086 g / cm^3
# Si number density = 17.711173 Si / 1000 Ang^3
#
#
#
# Elastic Constant Matrix: (Units=GPa)
#
#
# Indices 1 2 3 4 5 6 
#
# 1 126.8553 33.8035 65.9416 0.0003 2.3474 0.0000
# 2 33.8035 39.7284 27.1757 0.0019 3.2244 0.0005
# 3 65.9416 27.1757 124.8745 0.0032 30.8465 0.0009
# 4 0.0003 0.0019 0.0032 -1.4914 0.0008 1.4147
# 5 2.3474 3.2244 30.8465 0.0008 15.5613 0.0001
# 6 0.0000 0.0005 0.0009 1.4147 0.0001 26.1676
#
#
#
# Elastic Compliance Matrix: (Units=1/GPa)
#
#
# Indices 1 2 3 4 5 6 
#
# 1 0.016114 -0.006654 -0.013327 -0.000018 0.025366 0.000001
# 2 -0.006654 0.033724 -0.004600 0.000031 0.003134 -0.000002
# 3 -0.013327 -0.004600 0.030009 0.000023 -0.056521 -0.000002
# 4 -0.000018 0.000031 0.000023 -0.637821 -0.000015 0.034482
# 5 0.025366 0.003134 -0.056521 -0.000015 0.171825 0.000002
# 6 0.000001 -0.000002 -0.000002 0.034482 0.000002 0.036351
#
#
# Mechanical properties :
#
#
# Convention : Reuss Voigt Hill
#
# Bulk Modulus (GPa) = 32.58836 60.58886 46.58861
# Shear Modulus (GPa) = -17.21720 19.01669 0.89974
#
# Velocity S-wave (km/s) = -3.12125 3.28031 0.71352
# Velocity P-wave (km/s) = 2.33457 6.97359 5.20005
#
# Compressibility (1/GPa) = 0.03068580
#
# Stress axis : x y z
#
# Youngs Moduli (GPa) = 62.05627 29.65229 33.32379
#
# Poissons Ratio (x) = 0.19729 0.44412
# Poissons Ratio (y) = 0.41289 0.15328
# Poissons Ratio (z) = 0.82705 0.13639
#
# Static dielectric constant tensor:
#      x y z
#    x 1.578190 0.000000 0.002650 
#    y 0.000000 1.600930 0.000000 
#    z 0.002650 0.000000 1.608270 
# 
# From -- ./inp_files/92792.got.cif
#   From: 2010.05.17/outbox.cif.g08.bks.cpg/sg12_47_cif.got.tgz:92792.got - 2010.06.03 13:09:07.
