data_PCOD9174328
_publ_section_title
;
Structure prediction by ZEFSAII (Michael W. Deem and Ramdas Pophale) SiO2 
 PCOD9174328
Probable space group: C 2/M
;
_chemical_formula_sum "Si O2"
_cell_formula_units_Z 64
_cell_length_a 21.986626
_cell_length_b 8.793396
_cell_length_c 19.756276
_cell_angle_alpha 90.000000
_cell_angle_beta 119.470222
_cell_angle_gamma 90.000000
_cell_volume 3325.406230
_symmetry_space_group_name_H-M "C 2/M"
_symmetry_group_IT_number 12
_symmetry_cell_setting 'monoclinic'
loop_
_space_group_symop_operation_xyz
x,y,z
-x,y,-z
-x,-y,-z
x,-y,z
1/2+x,1/2+y,z
1/2-x,1/2+y,-z
1/2-x,1/2-y,-z
1/2+x,1/2-y,z
loop_
_atom_site_type_symbol
_atom_site_label
_atom_site_fract_x
_atom_site_fract_y
_atom_site_fract_z
Si Si1 0.024480 0.676594 0.119375
Si Si2 0.647502 0.321606 0.832899
Si Si3 0.283229 0.179610 0.260221
Si Si4 0.648373 0.678711 0.114634
Si Si5 0.462900 0.180728 0.574968
Si Si6 0.397626 0.680186 0.412773
Si Si7 0.856698 0.678058 0.028482
Si Si8 0.495915 0.819746 0.742095
O O1 0.038079 0.500000 0.109773
O O2 0.071135 0.777093 0.096148
O O3 0.043035 0.704154 0.208345
O O4 0.941183 0.699919 0.070200
O O5 0.660059 0.500000 0.829668
O O6 0.683001 0.224966 0.793266
O O7 0.668607 0.270492 0.920034
O O8 0.565239 0.282103 0.781454
O O9 0.201921 0.216006 0.204544
O O10 0.324904 0.269347 0.340338
O O11 0.291800 0.000000 0.276530
O O12 0.653365 0.500000 0.103333
O O13 0.669680 0.767032 0.058450
O O14 0.539936 0.238880 0.595195
O O15 0.409509 0.264604 0.495980
O O16 0.454975 0.209539 0.650435
O O17 0.459284 0.000000 0.561138
O O18 0.406811 0.500000 0.412974
O O19 0.843259 0.500000 0.031738
O O20 0.517117 0.000000 0.753201
#
# Coordination Sequence:
#
# PCOD9174328 Si02
#       8
#     8   8   8   8   8   8   8   8
#     4   9  19  36  57  81 107 139 177 219 266 317
#     4  11  21  33  54  82 109 138 176 222 269 313
#     4  11  23  39  54  72 108 149 182 216 266 330
#     4  11  24  38  55  79 104 139 184 228 269 314
#     4  10  18  31  54  80 111 147 176 209 263 322
#     4  11  21  32  50  80 112 140 178 223 263 309
#     4  10  21  38  59  80 107 141 175 218 271 325
#     4   9  18  33  55  81 111 144 176 212 264 324
#
# _framework density 19.245768999999999
#
# number of rings (size 3 to 8) (size 9 to 14) (size 15 to 20)
#    0.000    1.750    1.250    5.625    0.000    7.000 
#    0.000    0.000    0.000    0.750    0.000    0.000 
#    0.000    0.000    0.000    0.000    0.000    0.000 
#
# Total GULP energy -178768.352992 kJ/mol
# GULP energy per Si atom -5586.511031 kJ/mol
# Density = 1.920196 g / cm^3
# Si number density = 19.245769 Si / 1000 Ang^3
#
#
#
# Elastic Constant Matrix: (Units=GPa)
#
#
# Indices 1 2 3 4 5 6 
#
# 1 18.7023 5.0624 1.9329 0.0000 -2.4861 0.0000
# 2 5.0624 39.1660 23.1475 0.0000 3.9660 0.0000
# 3 1.9329 23.1475 109.9752 0.0000 -9.7912 0.0000
# 4 0.0000 0.0000 0.0000 29.8474 0.0000 -1.3143
# 5 -2.4861 3.9660 -9.7912 0.0000 22.1022 0.0000
# 6 0.0000 0.0000 0.0000 -1.3143 0.0000 4.3289
#
#
#
# Elastic Compliance Matrix: (Units=1/GPa)
#
#
# Indices 1 2 3 4 5 6 
#
# 1 0.056980 -0.009290 0.001742 0.000000 0.008848 0.000000
# 2 -0.009290 0.032206 -0.007519 0.000000 -0.010155 0.000000
# 3 0.001742 -0.007519 0.011225 0.000000 0.006518 0.000000
# 4 0.000000 0.000000 0.000000 0.033958 0.000000 0.010310
# 5 0.008848 -0.010155 0.006518 0.000000 0.050949 0.000000
# 6 0.000000 0.000000 0.000000 0.010310 0.000000 0.234137
#
#
# Mechanical properties :
#
#
# Convention : Reuss Voigt Hill
#
# Bulk Modulus (GPa) = 14.22981 25.34770 19.78875
# Shear Modulus (GPa) = 10.57046 20.43574 15.50310
#
# Velocity S-wave (km/s) = 2.34612 3.26211 2.84127
# Velocity P-wave (km/s) = 3.84042 5.23332 4.59001
#
# Compressibility (1/GPa) = 0.07027499
#
# Stress axis : x y z
#
# Youngs Moduli (GPa) = 17.54997 31.05056 89.08424
#
# Poissons Ratio (x) = 0.28847 -0.15515
# Poissons Ratio (y) = 0.16304 0.66986
# Poissons Ratio (z) = -0.03057 0.23348
#
# Static dielectric constant tensor:
#      x y z
#    x 1.656570 0.000000 0.014490 
#    y 0.000000 1.642960 0.000000 
#    z 0.014490 0.000000 1.715040 
# 
# From -- ./inp_files/324274.got.cif
#   From: 2010.05.17/outbox.cif.g08.bks.cpg/sg12_163_cif.got.tgz:324274.got - 2010.06.03 13:09:07.
