data_PCOD9174933
_publ_section_title
;
Structure prediction by ZEFSAII (Michael W. Deem and Ramdas Pophale) SiO2 
 PCOD9174933
Probable space group: C 2/M
;
_chemical_formula_sum "Si O2"
_cell_formula_units_Z 48
_cell_length_a 32.361264
_cell_length_b 13.130934
_cell_length_c 15.092993
_cell_angle_alpha 90.000000
_cell_angle_beta 21.201622
_cell_angle_gamma 90.000000
_cell_volume 2319.455751
_symmetry_space_group_name_H-M "C 2/M"
_symmetry_group_IT_number 12
_symmetry_cell_setting 'monoclinic'
loop_
_space_group_symop_operation_xyz
x,y,z
-x,y,-z
-x,-y,-z
x,-y,z
1/2+x,1/2+y,z
1/2-x,1/2+y,-z
1/2-x,1/2-y,-z
1/2+x,1/2-y,z
loop_
_atom_site_type_symbol
_atom_site_label
_atom_site_fract_x
_atom_site_fract_y
_atom_site_fract_z
Si Si1 0.371517 0.381278 0.264060
Si Si2 0.134911 0.178915 0.528085
Si Si3 0.130494 0.385168 0.270711
Si Si4 0.233872 0.719930 0.902567
Si Si5 0.208684 0.385009 0.433441
Si Si6 0.093521 0.888318 0.110607
O O1 0.383055 0.500000 0.215036
O O2 0.336401 0.372831 0.436180
O O3 0.276693 0.344916 0.384115
O O4 0.500000 0.335764 0.000000
O O5 0.232608 0.172188 0.258227
O O6 0.120308 0.298825 0.580624
O O7 0.021439 0.132363 0.713286
O O8 0.150704 0.500000 0.264680
O O9 0.164858 0.296976 0.270539
O O10 0.000000 0.378978 0.500000
O O11 0.208947 0.361289 0.028330
O O12 0.125144 0.795214 0.111109
O O13 0.164586 0.500000 0.535466
O O14 0.303677 0.389691 0.166200
O O15 0.087452 0.000000 0.165672
#
# Coordination Sequence:
#
# PCOD9174933 Si02
#       6
#     8   8   8   8   8   8
#     4  10  18  32  54  80 110 148 190 227 270 322
#     4  11  20  32  56  84 111 142 184 234 274 311
#     4  10  21  40  62  80 109 148 180 218 276 343
#     4  10  22  37  56  87 112 138 184 230 273 324
#     4   9  19  34  52  77 108 148 192 227 267 322
#     4  10  19  34  55  81 112 145 183 225 270 322
#
# _framework density 20.694510000000001
#
# number of rings (size 3 to 8) (size 9 to 14) (size 15 to 20)
#    0.000    2.000    1.667    2.500    0.000    2.000 
#    0.000    0.833    0.000    8.000    0.000    0.000 
#    0.000    0.000    0.000    0.000    0.000    0.000 
#
# Total GULP energy -133894.752271 kJ/mol
# GULP energy per Si atom -5578.948011 kJ/mol
# Density = 2.064741 g / cm^3
# Si number density = 20.694510 Si / 1000 Ang^3
#
#
#
# Elastic Constant Matrix: (Units=GPa)
#
#
# Indices 1 2 3 4 5 6 
#
# 1 52.8670 -13.9711 8.2452 0.0000 7.6616 0.0000
# 2 -13.9711 43.0385 14.6371 0.0000 -6.3903 0.0000
# 3 8.2452 14.6371 31.1424 0.0000 -1.5507 0.0000
# 4 0.0000 0.0000 0.0000 17.0293 0.0000 1.3575
# 5 7.6616 -6.3903 -1.5507 0.0000 29.8621 0.0000
# 6 0.0000 0.0000 0.0000 1.3575 0.0000 11.2777
#
#
#
# Elastic Compliance Matrix: (Units=1/GPa)
#
#
# Indices 1 2 3 4 5 6 
#
# 1 0.024443 0.011365 -0.012035 0.000000 -0.004464 0.000000
# 2 0.011365 0.033788 -0.018723 0.000000 0.003342 0.000000
# 3 -0.012035 -0.018723 0.044165 0.000000 0.001375 0.000000
# 4 0.000000 0.000000 0.000000 0.059291 0.000000 -0.007137
# 5 -0.004464 0.003342 0.001375 0.000000 0.035419 0.000000
# 6 0.000000 0.000000 0.000000 -0.007137 0.000000 0.089529
#
#
# Mechanical properties :
#
#
# Convention : Reuss Voigt Hill
#
# Bulk Modulus (GPa) = 15.72098 16.09669 15.90884
# Shear Modulus (GPa) = 14.42479 19.50962 16.96721
#
# Velocity S-wave (km/s) = 2.64301 3.07374 2.86648
# Velocity P-wave (km/s) = 4.11426 4.51579 4.31969
#
# Compressibility (1/GPa) = 0.06360925
#
# Stress axis : x y z
#
# Youngs Moduli (GPa) = 40.91205 29.59632 22.64224
#
# Poissons Ratio (x) = -0.33635 0.27250
# Poissons Ratio (y) = -0.46496 0.42393
# Poissons Ratio (z) = 0.49238 0.55413
#
# Static dielectric constant tensor:
#      x y z
#    x 1.749860 0.000000 -0.013310 
#    y 0.000000 1.775360 0.000000 
#    z -0.013310 0.000000 1.725530 
# 
# From -- ./inp_files/251431.got.cif
#   From: 2010.05.17/outbox.cif.g08.bks.cpg/sg12_126_cif.got.tgz:251431.got - 2010.06.03 13:09:07.
