data_PCOD9174780
_publ_section_title
;
Structure prediction by ZEFSAII (Michael W. Deem and Ramdas Pophale) SiO2 
 PCOD9174780
Probable space group: C 2/M
;
_chemical_formula_sum "Si O2"
_cell_formula_units_Z 64
_cell_length_a 19.239743
_cell_length_b 21.388034
_cell_length_c 14.696577
_cell_angle_alpha 90.000000
_cell_angle_beta 24.786032
_cell_angle_gamma 90.000000
_cell_volume 2535.359055
_symmetry_space_group_name_H-M "C 2/M"
_symmetry_group_IT_number 12
_symmetry_cell_setting 'monoclinic'
loop_
_space_group_symop_operation_xyz
x,y,z
-x,y,-z
-x,-y,-z
x,-y,z
1/2+x,1/2+y,z
1/2-x,1/2+y,-z
1/2-x,1/2-y,-z
1/2+x,1/2-y,z
loop_
_atom_site_type_symbol
_atom_site_label
_atom_site_fract_x
_atom_site_fract_y
_atom_site_fract_z
Si Si1 0.632385 0.067756 0.717330
Si Si2 0.333979 0.681314 0.031478
Si Si3 0.132683 0.871439 0.268642
Si Si4 0.803261 0.358082 0.608195
Si Si5 0.013796 0.744951 0.371978
Si Si6 0.042517 0.302482 0.045214
Si Si7 0.400197 0.932052 0.817072
Si Si8 0.940649 0.928854 0.239519
O O1 0.575387 0.136332 0.815815
O O2 0.537026 0.063338 0.734946
O O3 0.824595 0.068995 0.465777
O O4 0.599786 0.000000 0.802643
O O5 0.268371 0.661125 0.209449
O O6 0.181595 0.706665 0.153357
O O7 0.454825 0.741609 0.893002
O O8 0.409339 0.615661 0.915019
O O9 0.034744 0.817631 0.330265
O O10 0.000000 0.899155 0.500000
O O11 0.275199 0.833011 0.156131
O O12 0.243871 0.910945 0.066445
O O13 0.666181 0.393992 0.712461
O O14 0.865590 0.290421 0.498143
O O15 0.979590 0.395927 0.398369
O O16 0.000000 0.741194 0.500000
O O17 0.000000 0.272264 0.000000
O O18 0.359858 0.000000 0.826443
O O19 0.979672 0.000000 0.165918
#
# Coordination Sequence:
#
# PCOD9174780 Si02
#       8
#     8   8   8   8   8   8   8   8
#     4   8  17  34  52  73 105 141 173 207 255 313
#     4  10  20  33  50  77 107 133 168 218 264 298
#     4   9  18  34  54  75 102 132 166 211 258 302
#     4  10  18  32  53  73  99 132 172 209 246 306
#     4   8  17  33  50  71 100 131 163 206 260 310
#     4  10  19  33  54  79 105 134 171 212 256 310
#     4   9  18  32  51  75 102 136 173 207 251 307
#     4  10  20  34  53  76 102 136 177 216 253 298
#
# _framework density 25.242972999999999
#
# number of rings (size 3 to 8) (size 9 to 14) (size 15 to 20)
#    0.000    2.750    0.000    3.000    0.000    3.000 
#    0.000    5.000    0.000    7.125    0.000    0.000 
#    0.000    0.000    0.000    0.000    0.000    0.000 
#
# Total GULP energy -178253.673262 kJ/mol
# GULP energy per Si atom -5570.427289 kJ/mol
# Density = 2.518552 g / cm^3
# Si number density = 25.242973 Si / 1000 Ang^3
#
#
#
# Elastic Constant Matrix: (Units=GPa)
#
#
# Indices 1 2 3 4 5 6 
#
# 1 53.8189 15.4439 10.9324 0.0287 5.4787 -0.0085
# 2 15.4439 129.6895 58.1664 0.1012 5.8973 -0.0278
# 3 10.9324 58.1664 118.1293 0.0747 24.2471 -0.0387
# 4 0.0287 0.1012 0.0747 122.0999 -0.0359 -5.6089
# 5 5.4787 5.8973 24.2471 -0.0359 15.3998 0.0138
# 6 -0.0085 -0.0278 -0.0387 -5.6089 0.0138 9.5462
#
#
#
# Elastic Compliance Matrix: (Units=1/GPa)
#
#
# Indices 1 2 3 4 5 6 
#
# 1 0.019864 -0.002431 0.000913 -0.000004 -0.007574 0.000023
# 2 -0.002431 0.010549 -0.006379 -0.000003 0.006869 -0.000009
# 3 0.000913 -0.006379 0.016381 -0.000008 -0.023674 0.000078
# 4 -0.000004 -0.000003 -0.000008 0.008417 0.000031 0.004945
# 5 -0.007574 0.006869 -0.023674 0.000031 0.102275 -0.000212
# 6 0.000023 -0.000009 0.000078 0.004945 -0.000212 0.107660
#
#
# Mechanical properties :
#
#
# Convention : Reuss Voigt Hill
#
# Bulk Modulus (GPa) = 32.25754 52.30257 42.28006
# Shear Modulus (GPa) = 17.16598 43.88219 30.52409
#
# Velocity S-wave (km/s) = 2.61057 4.17393 3.48114
# Velocity P-wave (km/s) = 4.67903 6.63276 5.73964
#
# Compressibility (1/GPa) = 0.03100050
#
# Stress axis : x y z
#
# Youngs Moduli (GPa) = 50.34279 94.79620 61.04504
#
# Poissons Ratio (x) = 0.23041 -0.05574
# Poissons Ratio (y) = 0.12236 0.38942
# Poissons Ratio (z) = -0.04596 0.60473
#
# Static dielectric constant tensor:
#      x y z
#    x 2.014260 -0.000010 0.030650 
#    y -0.000010 2.076920 0.000010 
#    z 0.030650 0.000010 2.112900 
# 
# From -- ./inp_files/290924.got.cif
#   From: 2010.05.17/outbox.cif.g08.bks.cpg/sg12_146_cif.got.tgz:290924.got - 2010.06.03 13:09:07.
