data_PCOD9174523
_publ_section_title
;
Structure prediction by ZEFSAII (Michael W. Deem and Ramdas Pophale) SiO2 
 PCOD9174523
Probable space group: C 2/M
;
_chemical_formula_sum "Si O2"
_cell_formula_units_Z 64
_cell_length_a 25.924784
_cell_length_b 26.866858
_cell_length_c 9.424536
_cell_angle_alpha 90.000000
_cell_angle_beta 27.888568
_cell_angle_gamma 90.000000
_cell_volume 3070.499443
_symmetry_space_group_name_H-M "C 2/M"
_symmetry_group_IT_number 12
_symmetry_cell_setting 'monoclinic'
loop_
_space_group_symop_operation_xyz
x,y,z
-x,y,-z
-x,-y,-z
x,-y,z
1/2+x,1/2+y,z
1/2-x,1/2+y,-z
1/2-x,1/2-y,-z
1/2+x,1/2-y,z
loop_
_atom_site_type_symbol
_atom_site_label
_atom_site_fract_x
_atom_site_fract_y
_atom_site_fract_z
Si Si1 0.276277 0.344700 0.680351
Si Si2 0.910527 0.942719 0.380761
Si Si3 0.269478 0.664183 0.375769
Si Si4 0.996414 0.797571 0.173969
Si Si5 0.159858 0.057513 0.830192
Si Si6 0.105493 0.625753 0.322485
Si Si7 0.697203 0.444284 0.062606
Si Si8 0.439385 0.184718 0.284789
O O1 0.325930 0.400613 0.533115
O O2 0.252903 0.321555 0.581884
O O3 0.378510 0.317642 0.510258
O O4 0.171618 0.344919 0.037667
O O5 0.884695 0.000000 0.402319
O O6 0.890365 0.939423 0.599122
O O7 0.041305 0.934513 0.042798
O O8 0.260865 0.604046 0.393221
O O9 0.184264 0.689309 0.476282
O O10 0.393433 0.679432 0.029754
O O11 0.993860 0.738231 0.179569
O O12 0.000000 0.813844 0.000000
O O13 0.145586 0.061919 0.034260
O O14 0.195072 0.000000 0.716824
O O15 0.200048 0.590744 0.155720
O O16 0.062746 0.656203 0.562130
O O17 0.000000 0.602100 0.500000
O O18 0.741950 0.500000 0.960841
O O19 0.500000 0.160729 0.000000
#
# Coordination Sequence:
#
# PCOD9174523 Si02
#       8
#     8   8   8   8   8   8   8   8
#     4  10  21  37  58  86 126 154 195 245 296 355
#     4   9  17  30  54  88 124 159 188 233 300 361
#     4  11  21  39  62  91 122 159 197 242 295 353
#     4   9  21  39  62  89 118 155 198 244 301 354
#     4  10  18  31  58  92 124 156 194 239 292 355
#     4  11  23  39  60  86 115 157 201 245 296 350
#     4   9  18  34  55  84 120 155 197 242 292 353
#     4  11  24  42  64  85 113 157 206 250 299 347
#
# _framework density 20.843513999999999
#
# number of rings (size 3 to 8) (size 9 to 14) (size 15 to 20)
#    0.000    2.000    2.500    1.125    0.000    8.250 
#    0.000    1.875    0.000    3.000    0.000    0.000 
#    0.000    0.000    0.000    0.000    0.000    0.000 
#
# Total GULP energy -178471.532865 kJ/mol
# GULP energy per Si atom -5577.235402 kJ/mol
# Density = 2.079607 g / cm^3
# Si number density = 20.843514 Si / 1000 Ang^3
#
#
#
# Elastic Constant Matrix: (Units=GPa)
#
#
# Indices 1 2 3 4 5 6 
#
# 1 87.0543 17.6950 14.2454 0.0002 -8.2740 -0.0002
# 2 17.6950 62.5902 14.1319 0.0001 -2.0069 -0.0003
# 3 14.2454 14.1319 72.2207 0.0004 -1.8332 -0.0004
# 4 0.0002 0.0001 0.0004 17.8571 -0.0002 7.3404
# 5 -8.2740 -2.0069 -1.8332 -0.0002 37.2447 0.0002
# 6 -0.0002 -0.0003 -0.0004 7.3404 0.0002 7.1780
#
#
#
# Elastic Compliance Matrix: (Units=1/GPa)
#
#
# Indices 1 2 3 4 5 6 
#
# 1 0.012656 -0.003083 -0.001828 0.000000 0.002555 0.000000
# 2 -0.003083 0.017487 -0.002811 0.000000 0.000119 0.000001
# 3 -0.001828 -0.002811 0.014761 -0.000001 0.000169 0.000002
# 4 0.000000 0.000000 -0.000001 0.096613 0.000001 -0.098798
# 5 0.002555 0.000119 0.000169 0.000001 0.027432 -0.000002
# 6 0.000000 0.000001 0.000002 -0.098798 -0.000002 0.240348
#
#
# Mechanical properties :
#
#
# Convention : Reuss Voigt Hill
#
# Bulk Modulus (GPa) = 33.94419 34.88997 34.41708
# Shear Modulus (GPa) = 11.50588 24.17549 17.84069
#
# Velocity S-wave (km/s) = 2.35204 3.40936 2.92881
# Velocity P-wave (km/s) = 4.86793 5.68099 5.29011
#
# Compressibility (1/GPa) = 0.02946012
#
# Stress axis : x y z
#
# Youngs Moduli (GPa) = 79.01499 57.18530 67.74465
#
# Poissons Ratio (x) = 0.17632 0.12385
# Poissons Ratio (y) = 0.24362 0.19040
# Poissons Ratio (z) = 0.14445 0.16073
#
# Static dielectric constant tensor:
#      x y z
#    x 1.760710 0.000000 0.017800 
#    y 0.000000 1.774740 0.000000 
#    z 0.017800 0.000000 1.785740 
# 
# From -- ./inp_files/100201.got.cif
#   From: 2010.05.17/outbox.cif.g08.bks.cpg/sg12_51_cif.got.tgz:100201.got - 2010.06.03 13:09:07.
