data_PCOD9174774
_publ_section_title
;
Structure prediction by ZEFSAII (Michael W. Deem and Ramdas Pophale) SiO2 
 PCOD9174774
Probable space group: C 2/M
;
_chemical_formula_sum "Si O2"
_cell_formula_units_Z 64
_cell_length_a 20.634043
_cell_length_b 7.411656
_cell_length_c 20.578331
_cell_angle_alpha 90.000000
_cell_angle_beta 118.856331
_cell_angle_gamma 90.000000
_cell_volume 2756.327687
_symmetry_space_group_name_H-M "C 2/M"
_symmetry_group_IT_number 12
_symmetry_cell_setting 'monoclinic'
loop_
_space_group_symop_operation_xyz
x,y,z
-x,y,-z
-x,-y,-z
x,-y,z
1/2+x,1/2+y,z
1/2-x,1/2+y,-z
1/2-x,1/2-y,-z
1/2+x,1/2-y,z
loop_
_atom_site_type_symbol
_atom_site_label
_atom_site_fract_x
_atom_site_fract_y
_atom_site_fract_z
Si Si1 0.561094 0.283553 0.579867
Si Si2 0.853149 0.207116 0.613628
Si Si3 0.835186 0.791895 0.170327
Si Si4 0.178898 0.721161 0.119469
Si Si5 0.973630 0.285760 0.912003
Si Si6 0.485091 0.278908 0.298625
Si Si7 0.128680 0.281694 0.950471
Si Si8 0.690209 0.212376 0.550264
O O1 0.500000 0.214194 0.500000
O O2 0.556920 0.500000 0.578474
O O3 0.539920 0.224252 0.641219
O O4 0.641096 0.237257 0.590083
O O5 0.773766 0.286541 0.595589
O O6 0.850202 0.208129 0.533076
O O7 0.931501 0.286477 0.673824
O O8 0.852427 0.000000 0.635727
O O9 0.762731 0.715549 0.170613
O O10 0.916462 0.714654 0.222207
O O11 0.824935 0.785623 0.087914
O O12 0.839122 0.000000 0.193345
O O13 0.179017 0.500000 0.121443
O O14 0.110471 0.783206 0.131124
O O15 0.158188 0.772197 0.035413
O O16 0.969870 0.500000 0.897673
O O17 0.043009 0.215727 0.904696
O O18 0.000000 0.265716 0.000000
O O19 0.489476 0.500000 0.298332
O O20 0.129019 0.500000 0.949207
O O21 0.696089 0.000000 0.539028
#
# Coordination Sequence:
#
# PCOD9174774 Si02
#       8
#     8   8   8   8   8   8   8   8
#     4  10  18  32  53  70  91 126 160 188 227 286
#     4   9  17  33  51  67  93 127 156 183 228 289
#     4  10  19  30  46  68  93 121 157 196 230 270
#     4   8  14  26  46  70  92 118 155 196 229 266
#     4   7  11  22  42  65  86 112 148 185 219 263
#     4   9  18  33  50  66  88 126 165 189 222 281
#     4   9  16  28  47  69  93 121 154 189 234 283
#     4  10  19  29  49  78  98 113 147 200 240 269
#
# _framework density 23.2193
#
# number of rings (size 3 to 8) (size 9 to 14) (size 15 to 20)
#    0.000    3.000    1.250    2.250    0.000    0.750 
#    0.000    2.500    0.000    5.625    0.000    0.000 
#    0.000    0.000    0.000    0.000    0.000    0.000 
#
# Total GULP energy -178465.122631 kJ/mol
# GULP energy per Si atom -5577.035082 kJ/mol
# Density = 2.316645 g / cm^3
# Si number density = 23.219300 Si / 1000 Ang^3
#
#
#
# Elastic Constant Matrix: (Units=GPa)
#
#
# Indices 1 2 3 4 5 6 
#
# 1 152.4536 -0.9499 18.2947 0.0000 42.8434 0.0000
# 2 -0.9499 77.8765 -1.5445 0.0000 5.9586 0.0000
# 3 18.2947 -1.5445 34.5162 0.0000 25.4495 0.0000
# 4 0.0000 0.0000 0.0000 2.2389 0.0000 -4.9715
# 5 42.8434 5.9586 25.4495 0.0000 42.2935 0.0000
# 6 0.0000 0.0000 0.0000 -4.9715 0.0000 -17.5709
#
#
#
# Elastic Compliance Matrix: (Units=1/GPa)
#
#
# Indices 1 2 3 4 5 6 
#
# 1 0.009518 0.001130 0.004012 0.000000 -0.012215 0.000000
# 2 0.001130 0.013350 0.004007 0.000000 -0.005437 0.000000
# 3 0.004012 0.004007 0.054712 0.000000 -0.037551 0.000000
# 4 0.000000 0.000000 0.000000 0.274310 0.000000 -0.077613
# 5 -0.012215 -0.005437 -0.037551 0.000000 0.059380 0.000000
# 6 0.000000 0.000000 0.000000 -0.077613 0.000000 -0.034952
#
#
# Mechanical properties :
#
#
# Convention : Reuss Voigt Hill
#
# Bulk Modulus (GPa) = 10.42986 32.93855 21.68421
# Shear Modulus (GPa) = 12.82128 21.99534 17.40831
#
# Velocity S-wave (km/s) = 2.35240 3.08114 2.74110
# Velocity P-wave (km/s) = 3.44675 5.18407 4.40197
#
# Compressibility (1/GPa) = 0.09587852
#
# Stress axis : x y z
#
# Youngs Moduli (GPa) = 105.06788 74.90573 18.27769
#
# Poissons Ratio (x) = -0.08466 -0.07333
# Poissons Ratio (y) = -0.11876 -0.07324
# Poissons Ratio (z) = -0.42156 -0.30016
#
# Static dielectric constant tensor:
#      x y z
#    x 1.898010 0.000000 0.063730 
#    y 0.000000 1.904840 0.000000 
#    z 0.063730 0.000000 1.856960 
# 
# From -- ./inp_files/320019.got.cif
#   From: 2010.05.17/outbox.cif.g08.bks.cpg/sg12_161_cif.got.tgz:320019.got - 2010.06.03 13:09:07.
