data_PCOD9174616
_publ_section_title
;
Structure prediction by ZEFSAII (Michael W. Deem and Ramdas Pophale) SiO2 
 PCOD9174616
Probable space group: C 2/M
;
_chemical_formula_sum "Si O2"
_cell_formula_units_Z 40
_cell_length_a 5.452800
_cell_length_b 19.280938
_cell_length_c 19.360044
_cell_angle_alpha 90.000000
_cell_angle_beta 98.077625
_cell_angle_gamma 90.000000
_cell_volume 2015.225933
_symmetry_space_group_name_H-M "C 2/M"
_symmetry_group_IT_number 12
_symmetry_cell_setting 'monoclinic'
loop_
_space_group_symop_operation_xyz
x,y,z
-x,y,-z
-x,-y,-z
x,-y,z
1/2+x,1/2+y,z
1/2-x,1/2+y,-z
1/2-x,1/2-y,-z
1/2+x,1/2-y,z
loop_
_atom_site_type_symbol
_atom_site_label
_atom_site_fract_x
_atom_site_fract_y
_atom_site_fract_z
Si Si1 0.817417 0.422252 0.133909
Si Si2 0.959975 0.680278 0.418539
Si Si3 0.567923 0.335663 0.637383
Si Si4 0.362308 0.420537 0.223920
Si Si5 0.710566 0.222146 0.921193
O O1 0.802755 0.500000 0.104442
O O2 0.590634 0.414251 0.179171
O O3 0.789822 0.360417 0.078967
O O4 0.089412 0.414214 0.179132
O O5 0.199124 0.641101 0.399336
O O6 0.000000 0.699224 0.500000
O O7 0.701887 0.641039 0.399106
O O8 0.938125 0.752124 0.374303
O O9 0.607425 0.363686 0.715484
O O10 0.376288 0.500000 0.252160
O O11 0.443570 0.250057 0.886969
O O12 0.750000 0.250000 0.000000
#
# Coordination Sequence:
#
# PCOD9174616 Si02
#       5
#     8   8   8   8   8
#     4  10  21  40  60  83 115 162 197 225 284 359
#     4  10  19  33  53  74 108 146 181 229 282 342
#     4  10  18  32  50  77 104 138 188 227 284 322
#     4  10  21  37  57  80 114 151 192 236 275 333
#     4  10  21  40  60  88 123 149 188 243 294 322
#
# _framework density 19.848890999999998
#
# number of rings (size 3 to 8) (size 9 to 14) (size 15 to 20)
#    0.000    2.000    0.000    5.400    0.000    0.000 
#   21.600    4.000    0.000    6.600    0.000    0.000 
#    0.000    0.000    0.000    0.000    0.000    0.000 
#
# Total GULP energy -111469.413003 kJ/mol
# GULP energy per Si atom -5573.470650 kJ/mol
# Density = 1.980371 g / cm^3
# Si number density = 19.848891 Si / 1000 Ang^3
#
#
#
# Elastic Constant Matrix: (Units=GPa)
#
#
# Indices 1 2 3 4 5 6 
#
# 1 208.8319 28.7261 17.8556 0.0000 3.8222 0.0000
# 2 28.7261 120.4640 62.2237 0.0000 -0.1001 0.0000
# 3 17.8556 62.2237 54.2789 0.0000 -0.8858 0.0000
# 4 0.0000 0.0000 0.0000 9.6882 0.0000 -0.0994
# 5 3.8222 -0.1001 -0.8858 0.0000 -15.7615 0.0000
# 6 0.0000 0.0000 0.0000 -0.0994 0.0000 5.7451
#
#
#
# Elastic Compliance Matrix: (Units=1/GPa)
#
#
# Indices 1 2 3 4 5 6 
#
# 1 0.004937 -0.000853 -0.000626 0.000000 0.001238 0.000000
# 2 -0.000853 0.020478 -0.023179 0.000000 0.000966 0.000000
# 3 -0.000626 -0.023179 0.045160 0.000000 -0.002543 0.000000
# 4 0.000000 0.000000 0.000000 0.103237 0.000000 0.001786
# 5 0.001238 0.000966 -0.002543 0.000000 -0.063009 0.000000
# 6 0.000000 0.000000 0.000000 0.001786 0.000000 0.174094
#
#
# Mechanical properties :
#
#
# Convention : Reuss Voigt Hill
#
# Bulk Modulus (GPa) = 47.04050 66.79840 56.91945
# Shear Modulus (GPa) = 14.64988 18.25231 16.45110
#
# Velocity S-wave (km/s) = 2.71969 3.03572 2.88204
# Velocity P-wave (km/s) = 5.79768 6.78336 6.30980
#
# Compressibility (1/GPa) = 0.02125828
#
# Stress axis : x y z
#
# Youngs Moduli (GPa) = 202.56333 48.83208 22.14345
#
# Poissons Ratio (x) = 0.04164 0.01387
# Poissons Ratio (y) = 0.17273 0.51327
# Poissons Ratio (z) = 0.12686 1.13190
#
# Static dielectric constant tensor:
#      x y z
#    x 1.808870 0.000000 0.002170 
#    y 0.000000 1.686640 0.000000 
#    z 0.002170 0.000000 1.666420 
# 
# From -- ./inp_files/252601.got.cif
#   From: 2010.05.17/outbox.cif.g08.bks.cpg/sg12_127_cif.got.tgz:252601.got - 2010.06.03 13:09:07.
