data_PCOD9174722
_publ_section_title
;
Structure prediction by ZEFSAII (Michael W. Deem and Ramdas Pophale) SiO2 
 PCOD9174722
Probable space group: C 2/M
;
_chemical_formula_sum "Si O2"
_cell_formula_units_Z 56
_cell_length_a 29.352376
_cell_length_b 8.499706
_cell_length_c 16.862691
_cell_angle_alpha 90.000000
_cell_angle_beta 139.651482
_cell_angle_gamma 90.000000
_cell_volume 2723.770252
_symmetry_space_group_name_H-M "C 2/M"
_symmetry_group_IT_number 12
_symmetry_cell_setting 'monoclinic'
loop_
_space_group_symop_operation_xyz
x,y,z
-x,y,-z
-x,-y,-z
x,-y,z
1/2+x,1/2+y,z
1/2-x,1/2+y,-z
1/2-x,1/2-y,-z
1/2+x,1/2-y,z
loop_
_atom_site_type_symbol
_atom_site_label
_atom_site_fract_x
_atom_site_fract_y
_atom_site_fract_z
Si Si1 0.670620 0.313953 0.399865
Si Si2 0.716497 0.187996 0.036315
Si Si3 0.558236 0.685672 0.829371
Si Si4 0.329951 0.181792 0.763177
Si Si5 0.796936 0.807760 0.300903
Si Si6 0.533325 0.816970 0.961624
Si Si7 0.080101 0.807583 0.430929
O O1 0.674074 0.500000 0.413174
O O2 0.750000 0.250000 0.500000
O O3 0.640519 0.270347 0.273781
O O4 0.624907 0.254351 0.413108
O O5 0.763011 0.246186 0.173264
O O6 0.719737 0.000000 0.042298
O O7 0.750000 0.250000 0.000000
O O8 0.634680 0.236487 0.930110
O O9 0.568312 0.500000 0.832534
O O10 0.523636 0.719476 0.869481
O O11 0.500525 0.742986 0.688699
O O12 0.256317 0.242032 0.699425
O O13 0.321230 0.000000 0.727402
O O14 0.383842 0.184213 0.907476
O O15 0.875100 0.760535 0.432146
O O16 0.795181 0.000000 0.297822
O O17 0.511289 0.000000 0.920619
O O18 0.500000 0.761051 0.000000
O O19 0.078907 0.000000 0.428172
#
# Coordination Sequence:
#
# PCOD9174722 Si02
#       7
#     8   8   8   8   8   8   8
#     4  11  20  31  49  77 115 159 204 249 290 338
#     4  11  23  43  70  94 117 149 192 246 307 366
#     4  11  22  37  60  89 121 155 196 249 301 353
#     4  10  18  32  52  75 107 152 201 243 282 336
#     4   9  17  35  61  82 109 151 194 235 284 346
#     4  10  20  34  53  79 117 163 204 243 295 353
#     4   9  19  35  55  81 117 158 199 240 286 344
#
# _framework density 20.559736999999998
#
# number of rings (size 3 to 8) (size 9 to 14) (size 15 to 20)
#    0.000    1.857    2.857    2.143    0.000    0.857 
#    0.000    2.857    0.000    4.286    0.000    0.000 
#    0.000    0.000    0.000    0.000    0.000    0.000 
#
# Total GULP energy -156224.360051 kJ/mol
# GULP energy per Si atom -5579.441430 kJ/mol
# Density = 2.051294 g / cm^3
# Si number density = 20.559737 Si / 1000 Ang^3
#
#
#
# Elastic Constant Matrix: (Units=GPa)
#
#
# Indices 1 2 3 4 5 6 
#
# 1 78.1345 10.1395 54.6680 0.0000 -2.9402 0.0000
# 2 10.1395 22.4467 17.8645 0.0000 0.2541 0.0000
# 3 54.6680 17.8645 177.0610 0.0000 -0.1326 0.0000
# 4 0.0000 0.0000 0.0000 19.3870 0.0000 -1.7634
# 5 -2.9402 0.2541 -0.1326 0.0000 19.1198 0.0000
# 6 0.0000 0.0000 0.0000 -1.7634 0.0000 25.9430
#
#
#
# Elastic Compliance Matrix: (Units=1/GPa)
#
#
# Indices 1 2 3 4 5 6 
#
# 1 0.016733 -0.003781 -0.004783 0.000000 0.002590 0.000000
# 2 -0.003781 0.049303 -0.003808 0.000000 -0.001263 0.000000
# 3 -0.004783 -0.003808 0.007508 0.000000 -0.000633 0.000000
# 4 0.000000 0.000000 0.000000 0.051902 0.000000 0.003528
# 5 0.002590 -0.001263 -0.000633 0.000000 0.052713 0.000000
# 6 0.000000 0.000000 0.000000 0.003528 0.000000 0.038786
#
#
# Mechanical properties :
#
#
# Convention : Reuss Voigt Hill
#
# Bulk Modulus (GPa) = 20.49181 49.22071 34.85626
# Shear Modulus (GPa) = 19.38321 25.88798 22.63559
#
# Velocity S-wave (km/s) = 3.07380 3.55231 3.32168
# Velocity P-wave (km/s) = 4.75250 6.38886 5.63044
#
# Compressibility (1/GPa) = 0.04879998
#
# Stress axis : x y z
#
# Youngs Moduli (GPa) = 59.76189 20.28276 133.18727
#
# Poissons Ratio (x) = 0.07670 0.63702
# Poissons Ratio (y) = 0.22598 0.50716
# Poissons Ratio (z) = 0.28584 0.07723
#
# Static dielectric constant tensor:
#      x y z
#    x 1.721950 0.000000 0.020290 
#    y 0.000000 1.721240 0.000000 
#    z 0.020290 0.000000 1.846730 
# 
# From -- ./inp_files/295178.got.cif
#   From: 2010.05.17/outbox.cif.g08.bks.cpg/sg12_148_cif.got.tgz:295178.got - 2010.06.03 13:09:07.
