data_PCOD9174725
_publ_section_title
;
Structure prediction by ZEFSAII (Michael W. Deem and Ramdas Pophale) SiO2 
 PCOD9174725
Probable space group: C 2/M
;
_chemical_formula_sum "Si O2"
_cell_formula_units_Z 44
_cell_length_a 25.159434
_cell_length_b 18.355541
_cell_length_c 17.197821
_cell_angle_alpha 90.000000
_cell_angle_beta 160.130414
_cell_angle_gamma 90.000000
_cell_volume 2699.402018
_symmetry_space_group_name_H-M "C 2/M"
_symmetry_group_IT_number 12
_symmetry_cell_setting 'monoclinic'
loop_
_space_group_symop_operation_xyz
x,y,z
-x,y,-z
-x,-y,-z
x,-y,z
1/2+x,1/2+y,z
1/2-x,1/2+y,-z
1/2-x,1/2-y,-z
1/2+x,1/2-y,z
loop_
_atom_site_type_symbol
_atom_site_label
_atom_site_fract_x
_atom_site_fract_y
_atom_site_fract_z
Si Si1 0.834421 0.344268 0.460049
Si Si2 0.954138 0.244516 0.353199
Si Si3 0.066177 0.735565 0.257531
Si Si4 0.360513 0.339839 0.075412
Si Si5 0.241389 0.500000 0.885065
Si Si6 0.500000 0.268456 0.000000
Si Si7 0.896806 0.500000 0.478495
O O1 0.933289 0.325448 0.674223
O O2 0.655570 0.317690 0.220218
O O3 0.848733 0.427799 0.457768
O O4 0.912749 0.296279 0.499674
O O5 0.921383 0.182759 0.244453
O O6 0.000000 0.214894 0.500000
O O7 0.802967 0.296130 0.156413
O O8 0.250000 0.750000 0.500000
O O9 0.996536 0.722962 0.075840
O O10 0.977614 0.804755 0.173328
O O11 0.333247 0.425241 0.027432
O O12 0.186650 0.500000 0.720185
O O13 0.082507 0.500000 0.717265
#
# Coordination Sequence:
#
# PCOD9174725 Si02
#       7
#     8   8   8   8   4   4   4
#     4  10  20  32  49  77 106 132 170 210 256 303
#     4  10  18  32  52  76 102 134 176 214 253 299
#     4   9  19  34  51  74 100 130 172 214 248 297
#     4  10  20  32  52  78 104 135 170 213 257 306
#     4  11  20  32  49  78 108 139 165 202 266 315
#     4  10  18  33  54  73  98 136 174 214 254 299
#     4  11  20  31  50  73 110 139 159 211 261 312
#
# _framework density 16.299907000000001
#
# number of rings (size 3 to 8) (size 9 to 14) (size 15 to 20)
#    0.000    2.000    1.818    3.273    0.000    0.364 
#    0.000    4.091    0.000    0.545    0.000    0.000 
#    0.000    0.000    0.000    0.000    0.000    0.000 
#
# Total GULP energy -122639.011898 kJ/mol
# GULP energy per Si atom -5574.500541 kJ/mol
# Density = 1.626281 g / cm^3
# Si number density = 16.299907 Si / 1000 Ang^3
#
#
#
# Elastic Constant Matrix: (Units=GPa)
#
#
# Indices 1 2 3 4 5 6 
#
# 1 105.5006 36.7674 45.7422 0.0000 -17.5042 0.0000
# 2 36.7674 98.1382 42.6998 0.0000 -3.5800 0.0000
# 3 45.7422 42.6998 74.8187 0.0000 -5.7025 0.0000
# 4 0.0000 0.0000 0.0000 12.9621 0.0000 1.4326
# 5 -17.5042 -3.5800 -5.7025 0.0000 47.4210 0.0000
# 6 0.0000 0.0000 0.0000 1.4326 0.0000 3.6402
#
#
#
# Elastic Compliance Matrix: (Units=1/GPa)
#
#
# Indices 1 2 3 4 5 6 
#
# 1 0.013920 -0.001994 -0.007057 0.000000 0.004139 0.000000
# 2 -0.001994 0.013842 -0.006719 0.000000 -0.000499 0.000000
# 3 -0.007057 -0.006719 0.021474 0.000000 -0.000530 0.000000
# 4 0.000000 0.000000 0.000000 0.080657 0.000000 -0.031743
# 5 0.004139 -0.000499 -0.000530 0.000000 0.022514 0.000000
# 6 0.000000 0.000000 0.000000 -0.031743 0.000000 0.287204
#
#
# Mechanical properties :
#
#
# Convention : Reuss Voigt Hill
#
# Bulk Modulus (GPa) = 56.50672 58.76402 57.63537
# Shear Modulus (GPa) = 10.48112 23.02118 16.75115
#
# Velocity S-wave (km/s) = 2.53853 3.76220 3.20923
# Velocity P-wave (km/s) = 6.58288 7.41635 7.01201
#
# Compressibility (1/GPa) = 0.01769701
#
# Stress axis : x y z
#
# Youngs Moduli (GPa) = 71.83983 72.24513 46.56742
#
# Poissons Ratio (x) = 0.14403 0.32863
# Poissons Ratio (y) = 0.14322 0.31288
# Poissons Ratio (z) = 0.50697 0.48540
#
# Static dielectric constant tensor:
#      x y z
#    x 1.587580 0.000000 -0.008970 
#    y 0.000000 1.501430 0.000000 
#    z -0.008970 0.000000 1.565740 
# 
# From -- ./inp_files/183403.got.cif
#   From: 2010.05.17/outbox.cif.g08.bks.cpg/sg12_92_cif.got.tgz:183403.got - 2010.06.03 13:09:07.
