data_PCOD9174046
_publ_section_title
;
Structure prediction by ZEFSAII (Michael W. Deem and Ramdas Pophale) SiO2 
 PCOD9174046
Probable space group: C 2/M
;
_chemical_formula_sum "Si O2"
_cell_formula_units_Z 64
_cell_length_a 18.303459
_cell_length_b 13.753011
_cell_length_c 12.785360
_cell_angle_alpha 90.000000
_cell_angle_beta 65.860355
_cell_angle_gamma 90.000000
_cell_volume 2936.981883
_symmetry_space_group_name_H-M "C 2/M"
_symmetry_group_IT_number 12
_symmetry_cell_setting 'monoclinic'
loop_
_space_group_symop_operation_xyz
x,y,z
-x,y,-z
-x,-y,-z
x,-y,z
1/2+x,1/2+y,z
1/2-x,1/2+y,-z
1/2-x,1/2-y,-z
1/2+x,1/2-y,z
loop_
_atom_site_type_symbol
_atom_site_label
_atom_site_fract_x
_atom_site_fract_y
_atom_site_fract_z
Si Si1 0.805754 0.892072 0.613982
Si Si2 0.384864 0.612056 0.919497
Si Si3 0.914522 0.613265 0.607395
Si Si4 0.645738 0.300219 0.843638
Si Si5 0.377820 0.108964 0.236529
Si Si6 0.945116 0.112495 0.293193
Si Si7 0.366071 0.234480 0.451365
Si Si8 0.170440 0.756626 0.221382
O O1 0.717845 0.901507 0.713891
O O2 0.800620 0.819255 0.517923
O O3 0.853392 0.838118 0.677848
O O4 0.834034 0.000000 0.572814
O O5 0.358701 0.500000 0.920955
O O6 0.472416 0.622799 0.817704
O O7 0.330995 0.688810 0.887869
O O8 0.386022 0.639335 0.040188
O O9 0.900175 0.500000 0.630123
O O10 0.858183 0.663830 0.554611
O O11 0.894490 0.671240 0.724835
O O12 0.000000 0.625148 0.500000
O O13 0.603385 0.193890 0.857366
O O14 0.624600 0.354264 0.747417
O O15 0.740905 0.284203 0.804703
O O16 0.384135 0.160838 0.345779
O O17 0.413085 0.000000 0.209366
O O18 0.938764 0.187316 0.393282
O O19 0.936796 0.000000 0.325760
#
# Coordination Sequence:
#
# PCOD9174046 Si02
#       8
#     8   8   8   8   8   8   8   8
#     4   9  17  30  49  76 109 138 168 215 273 327
#     4  11  22  38  60  83 111 147 185 231 289 342
#     4  10  21  36  53  75 107 147 186 225 272 327
#     4  10  21  37  57  82 112 144 186 235 281 330
#     4   9  18  32  50  74 105 141 178 219 269 322
#     4  10  21  36  57  86 116 147 182 226 285 343
#     4  10  18  31  52  76 105 140 180 221 262 323
#     4  10  21  37  56  82 110 144 188 232 274 326
#
# _framework density 21.791079
#
# number of rings (size 3 to 8) (size 9 to 14) (size 15 to 20)
#    0.000    2.125    0.000    3.375    0.000    3.500 
#    0.000    0.625    0.000   12.750    0.000    0.000 
#    0.000    0.000    0.000    0.000    0.000    0.000 
#
# Total GULP energy -178166.563932 kJ/mol
# GULP energy per Si atom -5567.705123 kJ/mol
# Density = 2.174148 g / cm^3
# Si number density = 21.791079 Si / 1000 Ang^3
#
#
#
# Elastic Constant Matrix: (Units=GPa)
#
#
# Indices 1 2 3 4 5 6 
#
# 1 19.4139 -1.0027 -13.9656 0.0000 2.1968 0.0000
# 2 -1.0027 138.9001 10.2068 0.0000 -1.8819 0.0000
# 3 -13.9656 10.2068 54.1765 0.0000 1.1766 0.0000
# 4 0.0000 0.0000 0.0000 35.0090 0.0000 -7.1865
# 5 2.1968 -1.8819 1.1766 0.0000 18.4158 0.0000
# 6 0.0000 0.0000 0.0000 -7.1865 0.0000 13.2774
#
#
#
# Elastic Compliance Matrix: (Units=1/GPa)
#
#
# Indices 1 2 3 4 5 6 
#
# 1 0.064737 -0.000906 0.017052 0.000000 -0.008904 0.000000
# 2 -0.000906 0.007326 -0.001635 0.000000 0.000961 0.000000
# 3 0.017052 -0.001635 0.023242 0.000000 -0.003686 0.000000
# 4 0.000000 0.000000 0.000000 0.032134 0.000000 0.017393
# 5 -0.008904 0.000961 -0.003686 0.000000 0.055697 0.000000
# 6 0.000000 0.000000 0.000000 0.017393 0.000000 0.084730
#
#
# Mechanical properties :
#
#
# Convention : Reuss Voigt Hill
#
# Bulk Modulus (GPa) = 8.04334 22.55194 15.29764
# Shear Modulus (GPa) = 17.83888 27.82391 22.83140
#
# Velocity S-wave (km/s) = 2.86428 3.57718 3.24039
# Velocity P-wave (km/s) = 3.82595 5.23767 4.58646
#
# Compressibility (1/GPa) = 0.12432644
#
# Stress axis : x y z
#
# Youngs Moduli (GPa) = 15.44716 136.49976 43.02582
#
# Poissons Ratio (x) = 0.12371 -0.73367
# Poissons Ratio (y) = 0.01400 0.07034
# Poissons Ratio (z) = -0.26340 0.22314
#
# Static dielectric constant tensor:
#      x y z
#    x 1.918450 0.000000 0.014740 
#    y 0.000000 1.829160 0.000000 
#    z 0.014740 0.000000 1.810750 
# 
# From -- ./inp_files/167224.got.cif
#   From: 2010.05.17/outbox.cif.g08.bks.cpg/sg12_84_cif.got.tgz:167224.got - 2010.06.03 13:09:07.
