data_PCOD9174502
_publ_section_title
;
Structure prediction by ZEFSAII (Michael W. Deem and Ramdas Pophale) SiO2 
 PCOD9174502
Probable space group: C 2/M
;
_chemical_formula_sum "Si O2"
_cell_formula_units_Z 40
_cell_length_a 20.840453
_cell_length_b 18.292391
_cell_length_c 5.394531
_cell_angle_alpha 90.000000
_cell_angle_beta 110.913264
_cell_angle_gamma 90.000000
_cell_volume 1921.033159
_symmetry_space_group_name_H-M "C 2/M"
_symmetry_group_IT_number 12
_symmetry_cell_setting 'monoclinic'
loop_
_space_group_symop_operation_xyz
x,y,z
-x,y,-z
-x,-y,-z
x,-y,z
1/2+x,1/2+y,z
1/2-x,1/2+y,-z
1/2-x,1/2-y,-z
1/2+x,1/2-y,z
loop_
_atom_site_type_symbol
_atom_site_label
_atom_site_fract_x
_atom_site_fract_y
_atom_site_fract_z
Si Si1 0.173444 0.734912 0.288239
Si Si2 0.728733 0.915471 0.351907
Si Si3 0.033683 0.101943 0.796947
Si Si4 0.974499 0.265281 0.715304
Si Si5 0.188601 0.876395 0.030357
O O1 0.250000 0.750000 0.500000
O O2 0.171241 0.647680 0.252996
O O3 0.106693 0.752826 0.365012
O O4 0.174704 0.789342 0.054754
O O5 0.769342 0.903244 0.668866
O O6 0.707282 0.000000 0.309547
O O7 0.775317 0.896283 0.176753
O O8 0.000000 0.074979 0.500000
O O9 0.016847 0.189039 0.772315
O O10 0.113843 0.088905 0.919874
O O11 0.000000 0.074915 0.000000
O O12 0.000000 0.303272 0.500000
O O13 0.000000 0.304248 0.000000
#
# Coordination Sequence:
#
# PCOD9174502 Si02
#       5
#     8   8   8   8   8
#     4  10  22  38  64  99 118 159 216 263 301 370
#     4  11  25  41  61  87 132 168 204 256 317 366
#     4  10  18  31  57  87 121 149 190 253 314 347
#     4  10  20  33  56  90 128 148 189 257 323 348
#     4  11  21  39  64  92 118 161 214 258 301 369
#
# _framework density 20.822129
#
# number of rings (size 3 to 8) (size 9 to 14) (size 15 to 20)
#    0.000    1.600    4.000    2.400    8.400    3.200 
#    0.000    0.000    0.000   13.200    0.000    0.000 
#    0.000    0.800    0.000    0.000    0.000    0.400 
#
# Total GULP energy -111499.538608 kJ/mol
# GULP energy per Si atom -5574.976930 kJ/mol
# Density = 2.077474 g / cm^3
# Si number density = 20.822129 Si / 1000 Ang^3
#
#
#
# Elastic Constant Matrix: (Units=GPa)
#
#
# Indices 1 2 3 4 5 6 
#
# 1 83.4089 -4.2872 15.7363 0.0000 -1.9117 0.0000
# 2 -4.2872 127.0722 1.0873 0.0000 4.4085 0.0000
# 3 15.7363 1.0873 136.8613 0.0000 -22.9171 0.0000
# 4 0.0000 0.0000 0.0000 -2.2797 0.0000 -0.5718
# 5 -1.9117 4.4085 -22.9171 0.0000 32.6875 0.0000
# 6 0.0000 0.0000 0.0000 -0.5718 0.0000 -42.4526
#
#
#
# Elastic Compliance Matrix: (Units=1/GPa)
#
#
# Indices 1 2 3 4 5 6 
#
# 1 0.012282 0.000440 -0.001479 0.000000 -0.000378 0.000000
# 2 0.000440 0.007931 -0.000327 0.000000 -0.001273 0.000000
# 3 -0.001479 -0.000327 0.008466 0.000000 0.005893 0.000000
# 4 0.000000 0.000000 0.000000 -0.440136 0.000000 0.005928
# 5 -0.000378 -0.001273 0.005893 0.000000 0.034874 0.000000
# 6 0.000000 0.000000 0.000000 0.005928 0.000000 -0.023636
#
#
# Mechanical properties :
#
#
# Convention : Reuss Voigt Hill
#
# Bulk Modulus (GPa) = 38.53813 41.37947 39.95880
# Shear Modulus (GPa) = -12.85886 19.91145 3.52629
#
# Velocity S-wave (km/s) = -2.48777 3.09571 1.30277
# Velocity P-wave (km/s) = 3.20881 5.71785 4.63629
#
# Compressibility (1/GPa) = 0.02594833
#
# Stress axis : x y z
#
# Youngs Moduli (GPa) = 81.41918 126.08189 118.11804
#
# Poissons Ratio (x) = -0.05549 0.17469
# Poissons Ratio (y) = -0.03584 0.03860
# Poissons Ratio (z) = 0.12042 0.04120
#
# Static dielectric constant tensor:
#      x y z
#    x 1.732470 0.000000 -0.045730 
#    y 0.000000 1.831990 0.000000 
#    z -0.045730 0.000000 1.834760 
# 
# From -- ./inp_files/15299.got.cif
#   From: 2010.05.17/outbox.cif.g08.bks.cpg/sg12_8_cif.got.tgz:15299.got - 2010.06.03 13:09:07.
