data_PCOD9174177
_publ_section_title
;
Structure prediction by ZEFSAII (Michael W. Deem and Ramdas Pophale) SiO2 
 PCOD9174177
Probable space group: C 2/M
;
_chemical_formula_sum "Si O2"
_cell_formula_units_Z 50
_cell_length_a 28.932005
_cell_length_b 13.903496
_cell_length_c 10.337704
_cell_angle_alpha 90.000000
_cell_angle_beta 27.399343
_cell_angle_gamma 90.000000
_cell_volume 1913.654118
_symmetry_space_group_name_H-M "C 2/M"
_symmetry_group_IT_number 12
_symmetry_cell_setting 'monoclinic'
loop_
_space_group_symop_operation_xyz
x,y,z
-x,y,-z
-x,-y,-z
x,-y,z
1/2+x,1/2+y,z
1/2-x,1/2+y,-z
1/2-x,1/2-y,-z
1/2+x,1/2-y,z
loop_
_atom_site_type_symbol
_atom_site_label
_atom_site_fract_x
_atom_site_fract_y
_atom_site_fract_z
Si Si1 0.272946 0.390150 0.541880
Si Si2 0.500000 0.000000 0.500000
Si Si3 0.114395 0.107420 0.266758
Si Si4 0.997488 0.305922 0.192054
Si Si5 0.956098 0.102622 0.270737
Si Si6 0.155814 0.610870 0.603327
Si Si7 0.120563 0.314702 0.129500
O O1 0.233947 0.500000 0.636755
O O2 0.381392 0.396768 0.336216
O O3 0.253961 0.357984 0.440555
O O4 0.207392 0.333892 0.809183
O O5 0.590272 0.914771 0.274285
O O6 0.109057 0.111806 0.435635
O O7 0.146950 0.212795 0.132588
O O8 0.000000 0.101913 0.500000
O O9 0.159320 0.000000 0.120635
O O10 0.020895 0.196940 0.099989
O O11 0.887038 0.331291 0.412946
O O12 0.021863 0.306166 0.281510
O O13 0.070842 0.373813 0.926815
O O14 0.009504 0.000000 0.149467
O O15 0.162116 0.500000 0.549475
#
# Coordination Sequence:
#
# PCOD9174177 Si02
#       7
#     8   2   8   8   8   8   8
#     4   9  19  35  52  75 108 138 168 212 270 318
#     4  12  20  28  50  82 108 128 174 224 266 294
#     4  10  19  34  51  72 100 138 181 210 251 312
#     4  10  18  31  53  77 100 133 176 212 252 310
#     4  10  20  34  53  75 102 139 177 212 255 316
#     4   9  19  34  54  77 103 137 169 212 271 317
#     4  11  20  32  52  80 107 136 172 225 262 305
#
# _framework density 26.128022000000001
#
# number of rings (size 3 to 8) (size 9 to 14) (size 15 to 20)
#    0.000    2.080    3.200    0.960    2.240    1.280 
#    0.000    1.600    0.000    2.880    0.000    0.000 
#    0.000    0.000    0.000    0.000    0.000    0.000 
#
# Total GULP energy -139209.616922 kJ/mol
# GULP energy per Si atom -5568.384677 kJ/mol
# Density = 2.606855 g / cm^3
# Si number density = 26.128022 Si / 1000 Ang^3
#
#
#
# Elastic Constant Matrix: (Units=GPa)
#
#
# Indices 1 2 3 4 5 6 
#
# 1 138.2633 56.5647 2.3598 0.0000 5.3720 0.0000
# 2 56.5647 227.7256 49.8531 0.0000 25.5922 0.0000
# 3 2.3598 49.8531 34.3093 0.0000 10.9721 0.0000
# 4 0.0000 0.0000 0.0000 9.9378 0.0000 -5.3299
# 5 5.3720 25.5922 10.9721 0.0000 29.5244 0.0000
# 6 0.0000 0.0000 0.0000 -5.3299 0.0000 22.5126
#
#
#
# Elastic Compliance Matrix: (Units=1/GPa)
#
#
# Indices 1 2 3 4 5 6 
#
# 1 0.008344 -0.002828 0.003674 0.000000 -0.000432 0.000000
# 2 -0.002828 0.007550 -0.010041 0.000000 -0.002298 0.000000
# 3 0.003674 -0.010041 0.046433 0.000000 -0.009220 0.000000
# 4 0.000000 0.000000 0.000000 0.115261 0.000000 0.027289
# 5 -0.000432 -0.002298 -0.009220 0.000000 0.039368 0.000000
# 6 0.000000 0.000000 0.000000 0.027289 0.000000 0.050880
#
#
# Mechanical properties :
#
#
# Convention : Reuss Voigt Hill
#
# Bulk Modulus (GPa) = 22.76059 68.65035 45.70547
# Shear Modulus (GPa) = 16.61828 31.82966 24.22397
#
# Velocity S-wave (km/s) = 2.52471 3.49409 3.04818
# Velocity P-wave (km/s) = 4.15078 6.52762 5.46986
#
# Compressibility (1/GPa) = 0.04393559
#
# Stress axis : x y z
#
# Youngs Moduli (GPa) = 119.85095 132.44547 21.53631
#
# Poissons Ratio (x) = 0.37458 -0.07912
# Poissons Ratio (y) = 0.33896 0.21625
# Poissons Ratio (z) = -0.44030 1.32993
#
# Static dielectric constant tensor:
#      x y z
#    x 2.134150 0.000000 -0.016220 
#    y 0.000000 2.083560 0.000000 
#    z -0.016220 0.000000 2.166500 
# 
# From -- ./inp_files/188659.got.cif
#   From: 2010.05.17/outbox.cif.g08.bks.cpg/sg12_95_cif.got.tgz:188659.got - 2010.06.03 13:09:07.
