data_PCOD9174753
_publ_section_title
;
Structure prediction by ZEFSAII (Michael W. Deem and Ramdas Pophale) SiO2 
 PCOD9174753
Probable space group: C 2/M
;
_chemical_formula_sum "Si O2"
_cell_formula_units_Z 64
_cell_length_a 9.281227
_cell_length_b 18.490465
_cell_length_c 19.600624
_cell_angle_alpha 90.000000
_cell_angle_beta 90.536434
_cell_angle_gamma 90.000000
_cell_volume 3363.598039
_symmetry_space_group_name_H-M "C 2/M"
_symmetry_group_IT_number 12
_symmetry_cell_setting 'monoclinic'
loop_
_space_group_symop_operation_xyz
x,y,z
-x,y,-z
-x,-y,-z
x,-y,z
1/2+x,1/2+y,z
1/2-x,1/2+y,-z
1/2-x,1/2-y,-z
1/2+x,1/2-y,z
loop_
_atom_site_type_symbol
_atom_site_label
_atom_site_fract_x
_atom_site_fract_y
_atom_site_fract_z
Si Si1 0.176354 0.581364 0.759113
Si Si2 0.972154 0.712112 0.646450
Si Si3 0.378133 0.084115 0.404078
Si Si4 0.011823 0.916204 0.796406
Si Si5 0.347539 0.687454 0.536779
Si Si6 0.294737 0.700938 0.266974
Si Si7 0.150765 0.703214 0.860159
Si Si8 0.548375 0.319852 0.077007
O O1 0.137560 0.500000 0.778711
O O2 0.148991 0.587763 0.678167
O O3 0.347702 0.591504 0.769792
O O4 0.104930 0.636374 0.812066
O O5 0.894912 0.777735 0.608175
O O6 0.858645 0.684821 0.701329
O O7 0.003514 0.648341 0.592122
O O8 0.111740 0.746590 0.683294
O O9 0.245852 0.116045 0.447438
O O10 0.410897 0.000000 0.420703
O O11 0.113887 0.870305 0.747817
O O12 0.011309 0.880205 0.871082
O O13 0.049994 0.000000 0.798227
O O14 0.500000 0.673942 0.500000
O O15 0.250000 0.750000 0.500000
O O16 0.280085 0.742513 0.195499
O O17 0.279427 0.682421 0.911889
O O18 0.023249 0.744912 0.897320
O O19 0.500000 0.333119 0.000000
#
# Coordination Sequence:
#
# PCOD9174753 Si02
#       8
#     8   8   8   8   8   8   8   8
#     4   9  17  33  56  81 110 141 176 228 292 346
#     4  12  21  38  61  89 115 151 190 235 287 343
#     4  11  23  38  61  92 121 146 189 245 295 338
#     4   9  19  33  52  80 113 144 183 236 286 337
#     4  12  23  41  63  85 116 160 200 231 274 344
#     4  11  20  33  60  84 112 142 187 236 291 343
#     4  10  18  32  52  79 106 135 186 233 274 331
#     4  10  20  32  51  75 106 149 188 227 271 326
#
# _framework density 19.027245000000001
#
# number of rings (size 3 to 8) (size 9 to 14) (size 15 to 20)
#    0.000    1.500    3.750    3.375    0.000    1.000 
#    0.000    1.250    0.000    3.375    0.000    0.000 
#    0.000    0.000    0.000    0.000    0.000    0.000 
#
# Total GULP energy -178516.713132 kJ/mol
# GULP energy per Si atom -5578.647285 kJ/mol
# Density = 1.898394 g / cm^3
# Si number density = 19.027245 Si / 1000 Ang^3
#
#
#
# Elastic Constant Matrix: (Units=GPa)
#
#
# Indices 1 2 3 4 5 6 
#
# 1 51.4485 20.9483 11.0555 0.0000 -6.5891 0.0000
# 2 20.9483 102.8766 -5.7576 0.0000 -11.5454 0.0000
# 3 11.0555 -5.7576 41.6419 0.0000 7.0519 0.0000
# 4 0.0000 0.0000 0.0000 17.5023 0.0000 -6.3625
# 5 -6.5891 -11.5454 7.0519 0.0000 33.1248 0.0000
# 6 0.0000 0.0000 0.0000 -6.3625 0.0000 23.8604
#
#
#
# Elastic Compliance Matrix: (Units=1/GPa)
#
#
# Indices 1 2 3 4 5 6 
#
# 1 0.023616 -0.004714 -0.007717 0.000000 0.004698 0.000000
# 2 -0.004714 0.011085 0.002374 0.000000 0.002420 0.000000
# 3 -0.007717 0.002374 0.027503 0.000000 -0.006563 0.000000
# 4 0.000000 0.000000 0.000000 0.063268 0.000000 0.016871
# 5 0.004698 0.002420 -0.006563 0.000000 0.033364 0.000000
# 6 0.000000 0.000000 0.000000 0.016871 0.000000 0.046409
#
#
# Mechanical properties :
#
#
# Convention : Reuss Voigt Hill
#
# Bulk Modulus (GPa) = 23.75833 27.60660 25.68247
# Shear Modulus (GPa) = 20.88659 26.21222 23.54940
#
# Velocity S-wave (km/s) = 3.31678 3.71565 3.52187
# Velocity P-wave (km/s) = 5.21360 5.74008 5.48316
#
# Compressibility (1/GPa) = 0.04209049
#
# Stress axis : x y z
#
# Youngs Moduli (GPa) = 42.34414 90.21460 36.36005
#
# Poissons Ratio (x) = 0.42523 0.28059
# Poissons Ratio (y) = 0.19959 -0.08632
# Poissons Ratio (z) = 0.32677 -0.21418
#
# Static dielectric constant tensor:
#      x y z
#    x 1.708300 0.000000 0.020820 
#    y 0.000000 1.683750 0.000000 
#    z 0.020820 0.000000 1.668720 
# 
# From -- ./inp_files/300781.got.cif
#   From: 2010.05.17/outbox.cif.g08.bks.cpg/sg12_151_cif.got.tgz:300781.got - 2010.06.03 13:09:07.
