data_PCOD9174678
_publ_section_title
;
Structure prediction by ZEFSAII (Michael W. Deem and Ramdas Pophale) SiO2 
 PCOD9174678
Probable space group: C 2/M
;
_chemical_formula_sum "Si O2"
_cell_formula_units_Z 48
_cell_length_a 16.827757
_cell_length_b 19.244347
_cell_length_c 16.206953
_cell_angle_alpha 90.000000
_cell_angle_beta 35.675810
_cell_angle_gamma 90.000000
_cell_volume 3060.885150
_symmetry_space_group_name_H-M "C 2/M"
_symmetry_group_IT_number 12
_symmetry_cell_setting 'monoclinic'
loop_
_space_group_symop_operation_xyz
x,y,z
-x,y,-z
-x,-y,-z
x,-y,z
1/2+x,1/2+y,z
1/2-x,1/2+y,-z
1/2-x,1/2-y,-z
1/2+x,1/2-y,z
loop_
_atom_site_type_symbol
_atom_site_label
_atom_site_fract_x
_atom_site_fract_y
_atom_site_fract_z
Si Si1 0.934879 0.082327 0.800835
Si Si2 0.735406 0.820961 0.065962
Si Si3 0.344042 0.741837 0.141302
Si Si4 0.579926 0.331134 0.350077
Si Si5 0.055275 0.291589 0.641802
Si Si6 0.328901 0.677799 0.332751
O O1 0.924261 0.109939 0.715972
O O2 0.070305 0.116137 0.726844
O O3 0.934380 0.000000 0.806136
O O4 0.810750 0.118108 0.954657
O O5 0.807194 0.803838 0.092123
O O6 0.576064 0.833223 0.216797
O O7 0.750000 0.750000 0.000000
O O8 0.232750 0.803615 0.238233
O O9 0.329471 0.696073 0.236099
O O10 0.500000 0.766002 0.000000
O O11 0.500000 0.350800 0.500000
O O12 0.501815 0.265009 0.375352
O O13 0.177493 0.332748 0.496103
O O14 0.114224 0.246457 0.667926
#
# Coordination Sequence:
#
# PCOD9174678 Si02
#       6
#     8   8   8   8   8   8
#     4  11  23  38  53  76 118 154 177 214 277 341
#     4  11  18  34  53  80 106 141 189 223 266 320
#     4  11  18  28  55  87 107 128 178 240 274 300
#     4  10  19  33  54  83 108 139 180 228 275 319
#     4   9  18  30  54  79 109 132 180 236 269 308
#     4  10  18  32  51  83 106 136 179 228 277 307
#
# _framework density 15.681737999999999
#
# number of rings (size 3 to 8) (size 9 to 14) (size 15 to 20)
#    0.000    1.667    8.333    0.000    0.000    0.333 
#    0.000    2.500    0.000    0.500    0.000    3.500 
#    0.000    0.000    0.000    0.000    0.000    0.000 
#
# Total GULP energy -133834.228097 kJ/mol
# GULP energy per Si atom -5576.426171 kJ/mol
# Density = 1.564605 g / cm^3
# Si number density = 15.681738 Si / 1000 Ang^3
#
#
#
# Elastic Constant Matrix: (Units=GPa)
#
#
# Indices 1 2 3 4 5 6 
#
# 1 101.0287 40.3352 72.5889 -0.0003 13.2750 0.0003
# 2 40.3352 101.4947 64.2711 -0.0001 3.2328 0.0002
# 3 72.5889 64.2711 159.0833 -0.0001 -6.5398 0.0002
# 4 -0.0003 -0.0001 -0.0001 13.0412 0.0003 -1.7596
# 5 13.2750 3.2328 -6.5398 0.0003 38.1073 -0.0003
# 6 0.0003 0.0002 0.0002 -1.7596 -0.0003 7.3976
#
#
#
# Elastic Compliance Matrix: (Units=1/GPa)
#
#
# Indices 1 2 3 4 5 6 
#
# 1 0.016679 -0.001896 -0.007127 0.000000 -0.006872 -0.000001
# 2 -0.001896 0.013618 -0.004690 0.000000 -0.001299 0.000000
# 3 -0.007127 -0.004690 0.011633 0.000000 0.004877 0.000000
# 4 0.000000 0.000000 0.000000 0.079223 -0.000001 0.018844
# 5 -0.006872 -0.001299 0.004877 -0.000001 0.029583 0.000001
# 6 -0.000001 0.000000 0.000000 0.018844 0.000001 0.139662
#
#
# Mechanical properties :
#
#
# Convention : Reuss Voigt Hill
#
# Bulk Modulus (GPa) = 68.94826 79.55522 74.25174
# Shear Modulus (GPa) = 15.49629 24.00332 19.74981
#
# Velocity S-wave (km/s) = 3.14693 3.91660 3.55267
# Velocity P-wave (km/s) = 7.56749 8.44359 8.01752
#
# Compressibility (1/GPa) = 0.01450363
#
# Stress axis : x y z
#
# Youngs Moduli (GPa) = 59.95560 73.43483 85.96139
#
# Poissons Ratio (x) = 0.13927 0.61264
# Poissons Ratio (y) = 0.11370 0.40313
# Poissons Ratio (z) = 0.42730 0.34439
#
# Static dielectric constant tensor:
#      x y z
#    x 1.542040 0.000000 -0.009130 
#    y 0.000000 1.473030 0.000000 
#    z -0.009130 0.000000 1.553790 
# 
# From -- ./inp_files/216234.got.cif
#   From: 2010.05.17/outbox.cif.g08.bks.cpg/sg12_109_cif.got.tgz:216234.got - 2010.06.03 13:09:07.
