data_PCOD9174639
_publ_section_title
;
Structure prediction by ZEFSAII (Michael W. Deem and Ramdas Pophale) SiO2 
 PCOD9174639
Probable space group: C 2/M
;
_chemical_formula_sum "Si O2"
_cell_formula_units_Z 60
_cell_length_a 18.685067
_cell_length_b 27.124092
_cell_length_c 8.912095
_cell_angle_alpha 90.000000
_cell_angle_beta 133.944498
_cell_angle_gamma 90.000000
_cell_volume 3252.143011
_symmetry_space_group_name_H-M "C 2/M"
_symmetry_group_IT_number 12
_symmetry_cell_setting 'monoclinic'
loop_
_space_group_symop_operation_xyz
x,y,z
-x,y,-z
-x,-y,-z
x,-y,z
1/2+x,1/2+y,z
1/2-x,1/2+y,-z
1/2-x,1/2-y,-z
1/2+x,1/2-y,z
loop_
_atom_site_type_symbol
_atom_site_label
_atom_site_fract_x
_atom_site_fract_y
_atom_site_fract_z
Si Si1 0.643940 0.857425 0.634799
Si Si2 0.629118 0.249826 0.469287
Si Si3 0.000000 0.181860 0.500000
Si Si4 0.080821 0.554837 0.335662
Si Si5 0.164258 0.827069 0.953927
Si Si6 0.340313 0.156207 0.021417
Si Si7 0.149404 0.555406 0.101089
Si Si8 0.862255 0.739833 0.853394
O O1 0.627589 0.806507 0.523808
O O2 0.608038 0.903498 0.490942
O O3 0.599463 0.853539 0.738208
O O4 0.763964 0.861674 0.841747
O O5 0.565369 0.283018 0.488172
O O6 0.744193 0.266487 0.645617
O O7 0.593425 0.252317 0.244598
O O8 0.073212 0.153802 0.721504
O O9 0.099978 0.500000 0.423595
O O10 0.964807 0.557233 0.122368
O O11 0.141737 0.560768 0.269306
O O12 0.248339 0.811680 0.953546
O O13 0.130406 0.782817 0.012088
O O14 0.303071 0.104010 0.902802
O O15 0.394582 0.188404 0.975855
O O16 0.187704 0.500000 0.121901
#
# Coordination Sequence:
#
# PCOD9174639 Si02
#       8
#     8   8   4   8   8   8   8   8
#     4   9  19  34  47  77 102 143 167 216 257 315
#     4  10  20  31  55  74 104 138 179 215 262 306
#     4  12  20  36  52  76 102 140 180 228 262 294
#     4   9  18  34  52  76 106 137 171 218 257 307
#     4   9  21  34  50  72 104 136 177 222 259 299
#     4  10  18  32  51  71 107 142 171 214 261 307
#     4   9  19  33  52  77 106 133 173 215 256 312
#     4  10  18  36  51  73 102 144 174 216 260 315
#
# _framework density 18.449373000000001
#
# number of rings (size 3 to 8) (size 9 to 14) (size 15 to 20)
#    0.800    1.600    1.333    2.800    0.000    3.733 
#    0.000    1.333    0.000    0.000    0.000    1.867 
#    0.000    2.133    0.000    0.000    0.000    0.000 
#
# Total GULP energy -167115.071422 kJ/mol
# GULP energy per Si atom -5570.502381 kJ/mol
# Density = 1.840738 g / cm^3
# Si number density = 18.449373 Si / 1000 Ang^3
#
#
#
# Elastic Constant Matrix: (Units=GPa)
#
#
# Indices 1 2 3 4 5 6 
#
# 1 63.9590 20.6364 12.8487 0.0000 -12.4127 0.0000
# 2 20.6364 79.3594 33.0812 0.0000 -18.2517 0.0000
# 3 12.8487 33.0812 97.0558 0.0000 -10.3508 0.0000
# 4 0.0000 0.0000 0.0000 26.3155 0.0000 -5.9896
# 5 -12.4127 -18.2517 -10.3508 0.0000 29.5042 0.0000
# 6 0.0000 0.0000 0.0000 -5.9896 0.0000 17.4527
#
#
#
# Elastic Compliance Matrix: (Units=1/GPa)
#
#
# Indices 1 2 3 4 5 6 
#
# 1 0.017816 -0.003104 -0.000733 0.000000 0.005318 0.000000
# 2 -0.003104 0.017083 -0.004596 0.000000 0.007650 0.000000
# 3 -0.000733 -0.004596 0.012083 0.000000 0.001087 0.000000
# 4 0.000000 0.000000 0.000000 0.041220 0.000000 0.014146
# 5 0.005318 0.007650 0.001087 0.000000 0.041244 0.000000
# 6 0.000000 0.000000 0.000000 0.014146 0.000000 0.062152
#
#
# Mechanical properties :
#
#
# Convention : Reuss Voigt Hill
#
# Bulk Modulus (GPa) = 33.20592 41.50076 37.35334
# Shear Modulus (GPa) = 22.88283 26.24169 24.56226
#
# Velocity S-wave (km/s) = 3.52562 3.77551 3.65270
# Velocity P-wave (km/s) = 5.88309 6.44587 6.17090
#
# Compressibility (1/GPa) = 0.03011511
#
# Stress axis : x y z
#
# Youngs Moduli (GPa) = 56.12964 58.53680 82.76121
#
# Poissons Ratio (x) = 0.18170 0.06070
# Poissons Ratio (y) = 0.17423 0.38037
# Poissons Ratio (z) = 0.04117 0.26904
#
# Static dielectric constant tensor:
#      x y z
#    x 1.692120 0.000000 0.025400 
#    y 0.000000 1.610280 0.000000 
#    z 0.025400 0.000000 1.708570 
# 
# From -- ./inp_files/91346.got.cif
#   From: 2010.05.17/outbox.cif.g08.bks.cpg/sg12_46_cif.got.tgz:91346.got - 2010.06.03 13:09:07.
