data_PCOD9174018
_publ_section_title
;
Structure prediction by ZEFSAII (Michael W. Deem and Ramdas Pophale) SiO2 
 PCOD9174018
Probable space group: C 2/M
;
_chemical_formula_sum "Si O2"
_cell_formula_units_Z 64
_cell_length_a 29.373890
_cell_length_b 14.062358
_cell_length_c 9.619978
_cell_angle_alpha 90.000000
_cell_angle_beta 106.755561
_cell_angle_gamma 90.000000
_cell_volume 3804.978028
_symmetry_space_group_name_H-M "C 2/M"
_symmetry_group_IT_number 12
_symmetry_cell_setting 'monoclinic'
loop_
_space_group_symop_operation_xyz
x,y,z
-x,y,-z
-x,-y,-z
x,-y,z
1/2+x,1/2+y,z
1/2-x,1/2+y,-z
1/2-x,1/2-y,-z
1/2+x,1/2-y,z
loop_
_atom_site_type_symbol
_atom_site_label
_atom_site_fract_x
_atom_site_fract_y
_atom_site_fract_z
Si Si1 0.190865 0.286579 0.723549
Si Si2 0.690563 0.107935 0.293055
Si Si3 0.798761 0.891879 0.462459
Si Si4 0.429769 0.885643 0.041893
Si Si5 0.469959 0.886560 0.764437
Si Si6 0.118461 0.614688 0.472280
Si Si7 0.293005 0.386916 0.771307
Si Si8 0.166285 0.268256 0.017985
O O1 0.187745 0.187990 0.635854
O O2 0.145522 0.346293 0.629733
O O3 0.240211 0.341154 0.734795
O O4 0.188180 0.271532 0.885184
O O5 0.741288 0.107794 0.411451
O O6 0.651593 0.141169 0.369149
O O7 0.693679 0.168638 0.157056
O O8 0.677815 0.000000 0.242981
O O9 0.812527 0.868665 0.632705
O O10 0.813998 0.000000 0.441349
O O11 0.475535 0.855382 0.173614
O O12 0.420547 0.000000 0.054089
O O13 0.445440 0.873864 0.894186
O O14 0.385154 0.818387 0.030880
O O15 0.434416 0.850564 0.613724
O O16 0.472925 0.000000 0.747885
O O17 0.118084 0.500000 0.479474
O O18 0.289262 0.500000 0.786844
O O19 0.327410 0.336593 0.912563
#
# Coordination Sequence:
#
# PCOD9174018 Si02
#       8
#     8   8   8   8   8   8   8   8
#     4  12  23  35  49  77 108 139 172 207 255 309
#     4  10  18  31  52  74  99 135 176 211 248 296
#     4  10  21  37  55  72  96 134 179 221 251 289
#     4   9  17  31  51  78 108 134 169 211 252 303
#     4   8  15  29  52  79 102 132 172 212 252 295
#     4  10  18  31  52  77 103 137 175 209 248 298
#     4  11  23  38  53  73 102 137 178 219 249 289
#     4  12  23  33  48  77 107 143 168 203 258 311
#
# _framework density 16.820072
#
# number of rings (size 3 to 8) (size 9 to 14) (size 15 to 20)
#    0.000    1.750    3.750    3.000    0.000    2.500 
#    0.000    0.625    0.000    2.250    0.000    2.625 
#    0.000    2.000    0.000    0.000    0.000    0.000 
#
# Total GULP energy -178410.267314 kJ/mol
# GULP energy per Si atom -5575.320854 kJ/mol
# Density = 1.678179 g / cm^3
# Si number density = 16.820072 Si / 1000 Ang^3
#
#
#
# Elastic Constant Matrix: (Units=GPa)
#
#
# Indices 1 2 3 4 5 6 
#
# 1 39.4917 23.9523 15.7758 0.0000 13.5018 0.0000
# 2 23.9523 81.7338 40.9126 0.0000 -6.0301 0.0000
# 3 15.7758 40.9126 93.0307 0.0000 -2.6903 0.0000
# 4 0.0000 0.0000 0.0000 -10.1147 0.0000 19.4850
# 5 13.5018 -6.0301 -2.6903 0.0000 25.5481 0.0000
# 6 0.0000 0.0000 0.0000 19.4850 0.0000 9.3426
#
#
#
# Elastic Compliance Matrix: (Units=1/GPa)
#
#
# Indices 1 2 3 4 5 6 
#
# 1 0.043463 -0.013610 -0.002149 0.000000 -0.026408 0.000000
# 2 -0.013610 0.020180 -0.006240 0.000000 0.011299 0.000000
# 3 -0.002149 -0.006240 0.013890 0.000000 0.001125 0.000000
# 4 0.000000 0.000000 0.000000 -0.019703 0.000000 0.041093
# 5 -0.026408 0.011299 0.001125 0.000000 0.055883 0.000000
# 6 0.000000 0.000000 0.000000 0.041093 0.000000 0.021332
#
#
# Mechanical properties :
#
#
# Convention : Reuss Voigt Hill
#
# Bulk Modulus (GPa) = 29.81820 41.72641 35.77230
# Shear Modulus (GPa) = 26.28499 13.86290 20.07395
#
# Velocity S-wave (km/s) = 3.95741 2.87398 3.45839
# Velocity P-wave (km/s) = 6.21673 5.98952 6.10418
#
# Compressibility (1/GPa) = 0.03353657
#
# Stress axis : x y z
#
# Youngs Moduli (GPa) = 23.00782 49.55307 71.99242
#
# Poissons Ratio (x) = 0.67441 0.15470
# Poissons Ratio (y) = 0.31313 0.44925
# Poissons Ratio (z) = 0.04944 0.30922
#
# Static dielectric constant tensor:
#      x y z
#    x 1.581390 0.000000 0.024580 
#    y 0.000000 1.584490 0.000000 
#    z 0.024580 0.000000 1.589270 
# 
# From -- ./inp_files/111250.got.cif
#   From: 2010.05.17/outbox.cif.g08.bks.cpg/sg12_56_cif.got.tgz:111250.got - 2010.06.03 13:09:07.
