data_PCOD9174689
_publ_section_title
;
Structure prediction by ZEFSAII (Michael W. Deem and Ramdas Pophale) SiO2 
 PCOD9174689
Probable space group: C 2/M
;
_chemical_formula_sum "Si O2"
_cell_formula_units_Z 64
_cell_length_a 21.349150
_cell_length_b 24.130549
_cell_length_c 8.304815
_cell_angle_alpha 90.000000
_cell_angle_beta 68.268102
_cell_angle_gamma 90.000000
_cell_volume 3974.286246
_symmetry_space_group_name_H-M "C 2/M"
_symmetry_group_IT_number 12
_symmetry_cell_setting 'monoclinic'
loop_
_space_group_symop_operation_xyz
x,y,z
-x,y,-z
-x,-y,-z
x,-y,z
1/2+x,1/2+y,z
1/2-x,1/2+y,-z
1/2-x,1/2-y,-z
1/2+x,1/2-y,z
loop_
_atom_site_type_symbol
_atom_site_label
_atom_site_fract_x
_atom_site_fract_y
_atom_site_fract_z
Si Si1 0.242332 0.163233 0.941157
Si Si2 0.921729 0.227702 0.595077
Si Si3 0.499198 0.565283 0.192391
Si Si4 0.351743 0.436979 0.452059
Si Si5 0.143043 0.270293 0.025152
Si Si6 0.757117 0.840364 0.426002
Si Si7 0.629414 0.611623 0.239974
Si Si8 0.644663 0.766503 0.665216
O O1 0.306834 0.178559 0.987030
O O2 0.264477 0.151703 0.738399
O O3 0.193657 0.217356 0.979950
O O4 0.192941 0.117529 0.062010
O O5 0.905840 0.261144 0.775531
O O6 0.880678 0.170249 0.657400
O O7 0.898991 0.259376 0.454853
O O8 0.000000 0.214538 0.500000
O O9 0.507201 0.500000 0.226383
O O10 0.425309 0.582909 0.321398
O O11 0.560412 0.598725 0.212269
O O12 0.500000 0.570807 0.000000
O O13 0.341889 0.500000 0.404743
O O14 0.294205 0.395142 0.450808
O O15 0.356852 0.433913 0.639151
O O16 0.112660 0.271682 0.874006
O O17 0.695308 0.817961 0.590342
O O18 0.810386 0.789540 0.375616
#
# Coordination Sequence:
#
# PCOD9174689 Si02
#       8
#     8   8   8   8   8   8   8   8
#     4   9  17  30  49  69  91 123 169 211 246 293
#     4  11  21  33  47  72 104 132 164 204 247 301
#     4  10  21  35  47  62  90 132 179 217 251 288
#     4  11  21  32  48  69  95 130 172 212 253 294
#     4   9  18  31  47  72  96 125 167 206 245 303
#     4  10  18  32  52  71  94 126 168 208 253 298
#     4  11  20  32  47  66  94 132 171 213 248 288
#     4  10  19  32  53  72  96 130 166 207 253 298
#
# _framework density 16.103521000000001
#
# number of rings (size 3 to 8) (size 9 to 14) (size 15 to 20)
#    0.000    1.875    2.500    3.000    3.500    1.500 
#    0.000    0.625    0.000    0.000    0.000    0.000 
#    0.000    0.500    0.000    3.500    0.000    0.000 
#
# Total GULP energy -178368.898819 kJ/mol
# GULP energy per Si atom -5574.028088 kJ/mol
# Density = 1.606687 g / cm^3
# Si number density = 16.103521 Si / 1000 Ang^3
#
#
#
# Elastic Constant Matrix: (Units=GPa)
#
#
# Indices 1 2 3 4 5 6 
#
# 1 21.2164 11.9904 17.8449 0.0000 15.3183 0.0000
# 2 11.9904 40.3134 10.9801 0.0000 0.4038 0.0000
# 3 17.8449 10.9801 89.7425 0.0000 17.6961 0.0000
# 4 0.0000 0.0000 0.0000 15.2152 0.0000 2.1889
# 5 15.3183 0.4038 17.6961 0.0000 22.3461 0.0000
# 6 0.0000 0.0000 0.0000 2.1889 0.0000 20.2070
#
#
#
# Elastic Compliance Matrix: (Units=1/GPa)
#
#
# Indices 1 2 3 4 5 6 
#
# 1 0.138550 -0.038950 -0.004971 0.000000 -0.090336 0.000000
# 2 -0.038950 0.036719 -0.002230 0.000000 0.027803 0.000000
# 3 -0.004971 -0.002230 0.013894 0.000000 -0.007555 0.000000
# 4 0.000000 0.000000 0.000000 0.066764 0.000000 -0.007232
# 5 -0.090336 0.027803 -0.007555 0.000000 0.112156 0.000000
# 6 0.000000 0.000000 0.000000 -0.007232 0.000000 0.050271
#
#
# Mechanical properties :
#
#
# Convention : Reuss Voigt Hill
#
# Bulk Modulus (GPa) = 10.32409 25.87812 18.10111
# Shear Modulus (GPa) = 9.20906 18.91746 14.06326
#
# Velocity S-wave (km/s) = 2.39397 3.43117 2.95838
# Velocity P-wave (km/s) = 3.75052 5.63932 4.78897
#
# Compressibility (1/GPa) = 0.09686079
#
# Stress axis : x y z
#
# Youngs Moduli (GPa) = 7.21763 27.23362 71.97327
#
# Poissons Ratio (x) = 1.06074 0.35780
# Poissons Ratio (y) = 0.28113 0.16050
# Poissons Ratio (z) = 0.03588 0.06073
#
# Static dielectric constant tensor:
#      x y z
#    x 1.532920 0.000000 0.022430 
#    y 0.000000 1.544320 0.000000 
#    z 0.022430 0.000000 1.585220 
# 
# From -- ./inp_files/78833.got.cif
#   From: 2010.05.17/outbox.cif.g08.bks.cpg/sg12_40_cif.got.tgz:78833.got - 2010.06.03 13:09:07.
