data_PCOD9174048
_publ_section_title
;
Structure prediction by ZEFSAII (Michael W. Deem and Ramdas Pophale) SiO2 
 PCOD9174048
Probable space group: C 2/M
;
_chemical_formula_sum "Si O2"
_cell_formula_units_Z 40
_cell_length_a 27.441975
_cell_length_b 11.935965
_cell_length_c 6.908654
_cell_angle_alpha 90.000000
_cell_angle_beta 38.013426
_cell_angle_gamma 90.000000
_cell_volume 1393.601315
_symmetry_space_group_name_H-M "C 2/M"
_symmetry_group_IT_number 12
_symmetry_cell_setting 'monoclinic'
loop_
_space_group_symop_operation_xyz
x,y,z
-x,y,-z
-x,-y,-z
x,-y,z
1/2+x,1/2+y,z
1/2-x,1/2+y,-z
1/2-x,1/2-y,-z
1/2+x,1/2-y,z
loop_
_atom_site_type_symbol
_atom_site_label
_atom_site_fract_x
_atom_site_fract_y
_atom_site_fract_z
Si Si1 0.922712 0.347456 0.008982
Si Si2 0.652930 0.373671 0.331142
Si Si3 0.390979 0.876165 0.561780
Si Si4 0.976678 0.884104 0.799296
Si Si5 0.260562 0.124672 0.372008
O O1 0.897983 0.378276 0.303287
O O2 0.856864 0.383472 0.064363
O O3 0.014879 0.373073 0.676831
O O4 0.920184 0.215082 0.015141
O O5 0.666524 0.500000 0.192675
O O6 0.652505 0.243255 0.252229
O O7 0.558296 0.378157 0.659538
O O8 0.711179 0.373222 0.329240
O O9 0.357474 0.000000 0.710025
O O10 0.000000 0.878654 0.500000
O O11 0.936006 0.000000 0.963376
O O12 0.250000 0.250000 0.500000
O O13 0.241121 0.000000 0.525279
#
# Coordination Sequence:
#
# PCOD9174048 Si02
#       5
#     8   8   8   8   8
#     4  10  19  30  50  77 103 135 173 213 255 308
#     4   9  19  33  52  79 107 135 173 218 258 306
#     4  10  18  31  52  76 106 141 171 205 261 321
#     4   9  19  37  57  75 100 139 184 226 263 301
#     4  11  21  33  50  78 114 143 168 205 261 321
#
# _framework density 28.702614000000001
#
# number of rings (size 3 to 8) (size 9 to 14) (size 15 to 20)
#    0.000    2.200    2.000    2.400    0.000    1.600 
#    0.000    5.000    0.000   21.600    0.000    0.000 
#    0.000    0.000    0.000    0.000    0.000    0.000 
#
# Total GULP energy -111648.030694 kJ/mol
# GULP energy per Si atom -5582.401535 kJ/mol
# Density = 2.863729 g / cm^3
# Si number density = 28.702614 Si / 1000 Ang^3
#
#
#
# Elastic Constant Matrix: (Units=GPa)
#
#
# Indices 1 2 3 4 5 6 
#
# 1 203.9311 65.3960 51.5984 0.0000 -36.6167 0.0000
# 2 65.3960 388.2961 50.4223 0.0000 5.3913 0.0000
# 3 51.5984 50.4223 91.9215 0.0000 -27.6718 0.0000
# 4 0.0000 0.0000 0.0000 -31.1282 0.0000 39.2406
# 5 -36.6167 5.3913 -27.6718 0.0000 55.0827 0.0000
# 6 0.0000 0.0000 0.0000 39.2406 0.0000 0.0036
#
#
#
# Elastic Compliance Matrix: (Units=1/GPa)
#
#
# Indices 1 2 3 4 5 6 
#
# 1 0.006276 -0.000828 -0.002107 0.000000 0.003194 0.000000
# 2 -0.000828 0.002953 -0.001659 0.000000 -0.001673 0.000000
# 3 -0.002107 -0.001659 0.014844 0.000000 0.006219 0.000000
# 4 0.000000 0.000000 0.000000 -0.000002 0.000000 0.025482
# 5 0.003194 -0.001673 0.006219 0.000000 0.023566 0.000000
# 6 0.000000 0.000000 0.000000 0.025482 0.000000 0.020214
#
#
# Mechanical properties :
#
#
# Convention : Reuss Voigt Hill
#
# Bulk Modulus (GPa) = 67.18073 113.22023 90.20048
# Shear Modulus (GPa) = 60.97592 39.24041 50.10817
#
# Velocity S-wave (km/s) = 4.61412 3.70149 4.18277
# Velocity P-wave (km/s) = 7.20024 7.60261 7.40416
#
# Compressibility (1/GPa) = 0.01488522
#
# Stress axis : x y z
#
# Youngs Moduli (GPa) = 159.34402 338.59244 67.36851
#
# Poissons Ratio (x) = 0.28024 0.14196
# Poissons Ratio (y) = 0.13188 0.11176
# Poissons Ratio (z) = 0.33576 0.56172
#
# Static dielectric constant tensor:
#      x y z
#    x 2.174160 0.000000 0.071570 
#    y 0.000000 2.281280 0.000000 
#    z 0.071570 0.000000 2.258510 
# 
# From -- ./inp_files/102346.got.cif
#   From: 2010.05.17/outbox.cif.g08.bks.cpg/sg12_52_cif.got.tgz:102346.got - 2010.06.03 13:09:07.
