data_PCOD9174055
_publ_section_title
;
Structure prediction by ZEFSAII (Michael W. Deem and Ramdas Pophale) SiO2 
 PCOD9174055
Probable space group: C 2/M
;
_chemical_formula_sum "Si O2"
_cell_formula_units_Z 64
_cell_length_a 25.388780
_cell_length_b 8.265938
_cell_length_c 21.248777
_cell_angle_alpha 90.000000
_cell_angle_beta 51.958983
_cell_angle_gamma 90.000000
_cell_volume 3512.019956
_symmetry_space_group_name_H-M "C 2/M"
_symmetry_group_IT_number 12
_symmetry_cell_setting 'monoclinic'
loop_
_space_group_symop_operation_xyz
x,y,z
-x,y,-z
-x,-y,-z
x,-y,z
1/2+x,1/2+y,z
1/2-x,1/2+y,-z
1/2-x,1/2-y,-z
1/2+x,1/2-y,z
loop_
_atom_site_type_symbol
_atom_site_label
_atom_site_fract_x
_atom_site_fract_y
_atom_site_fract_z
Si Si1 0.228946 0.192254 0.615481
Si Si2 0.509120 0.306478 0.696945
Si Si3 0.482823 0.195701 0.165180
Si Si4 0.153777 0.693678 0.793040
Si Si5 0.362075 0.192882 0.809788
Si Si6 0.850891 0.804435 0.451663
Si Si7 0.223458 0.695124 0.868504
Si Si8 0.133086 0.302783 0.049602
O O1 0.201816 0.270243 0.698897
O O2 0.183742 0.246198 0.589013
O O3 0.304530 0.236295 0.540875
O O4 0.221985 0.000000 0.626109
O O5 0.507408 0.500000 0.697415
O O6 0.523563 0.251539 0.757944
O O7 0.435959 0.242751 0.733430
O O8 0.571920 0.252871 0.608406
O O9 0.420200 0.255765 0.170674
O O10 0.556979 0.244551 0.088398
O O11 0.481433 0.000000 0.166368
O O12 0.147900 0.500000 0.803854
O O13 0.185351 0.756112 0.834526
O O14 0.300745 0.257367 0.814567
O O15 0.354106 0.252588 0.888262
O O16 0.359113 0.000000 0.813396
O O17 0.848088 0.000000 0.456457
O O18 0.219666 0.500000 0.871365
O O19 0.185992 0.754368 0.959228
O O20 0.135043 0.500000 0.048967
#
# Coordination Sequence:
#
# PCOD9174055 Si02
#       8
#     8   8   8   8   8   8   8   8
#     4  10  19  31  49  74 104 136 166 200 243 295
#     4  10  18  31  52  77 103 130 162 205 252 300
#     4   9  17  30  48  73 103 134 165 205 252 296
#     4  10  20  32  49  72 104 140 171 204 246 299
#     4  10  20  34  52  75 100 129 168 216 260 296
#     4   9  18  31  49  76 104 130 163 201 245 296
#     4  10  20  34  51  72  98 136 177 210 249 298
#     4   8  16  31  51  74  99 126 167 216 257 296
#
# _framework density 18.223132
#
# number of rings (size 3 to 8) (size 9 to 14) (size 15 to 20)
#    0.000    2.500    1.250    2.250    0.000    2.500 
#    0.000    5.000    0.000    0.750    0.000   10.500 
#    0.000    0.000    0.000    0.000    0.000    0.000 
#
# Total GULP energy -178460.449713 kJ/mol
# GULP energy per Si atom -5576.889054 kJ/mol
# Density = 1.818166 g / cm^3
# Si number density = 18.223132 Si / 1000 Ang^3
#
#
#
# Elastic Constant Matrix: (Units=GPa)
#
#
# Indices 1 2 3 4 5 6 
#
# 1 103.9750 5.7973 18.7641 0.0137 -16.3295 -0.0111
# 2 5.7973 8.7786 -3.3563 0.0058 1.0589 -0.0123
# 3 18.7641 -3.3563 26.5874 0.0090 -19.2858 -0.0083
# 4 0.0137 0.0058 0.0090 16.4283 -0.0026 -1.4058
# 5 -16.3295 1.0589 -19.2858 -0.0026 20.7101 0.0026
# 6 -0.0111 -0.0123 -0.0083 -1.4058 0.0026 18.5542
#
#
#
# Elastic Compliance Matrix: (Units=1/GPa)
#
#
# Indices 1 2 3 4 5 6 
#
# 1 0.012127 -0.011430 -0.008140 -0.000002 0.002566 -0.000004
# 2 -0.011430 0.134638 0.041700 -0.000049 0.022935 0.000094
# 3 -0.008140 0.041700 0.130714 -0.000056 0.113174 0.000061
# 4 -0.000002 -0.000049 -0.000056 0.061268 -0.000044 0.004642
# 5 0.002566 0.022935 0.113174 -0.000044 0.154526 0.000042
# 6 -0.000004 0.000094 0.000061 0.004642 0.000042 0.054248
#
#
# Mechanical properties :
#
#
# Convention : Reuss Voigt Hill
#
# Bulk Modulus (GPa) = 3.10813 20.19458 11.65135
# Shear Modulus (GPa) = 8.18988 19.01426 13.60207
#
# Velocity S-wave (km/s) = 2.12226 3.23370 2.73503
# Velocity P-wave (km/s) = 2.77752 5.00483 4.04740
#
# Compressibility (1/GPa) = 0.32173737
#
# Stress axis : x y z
#
# Youngs Moduli (GPa) = 82.46014 7.42731 7.65026
#
# Poissons Ratio (x) = 0.08490 0.06228
# Poissons Ratio (y) = 0.94255 -0.31901
# Poissons Ratio (z) = 0.67127 -0.30972
#
# Static dielectric constant tensor:
#      x y z
#    x 1.634080 0.000000 -0.019730 
#    y 0.000000 1.629070 0.000000 
#    z -0.019730 0.000000 1.617570 
# 
# From -- ./inp_files/323689.got.cif
#   From: 2010.05.17/outbox.cif.g08.bks.cpg/sg12_162_cif.got.tgz:323689.got - 2010.06.03 13:09:07.
