data_PCOD9174941
_publ_section_title
;
Structure prediction by ZEFSAII (Michael W. Deem and Ramdas Pophale) SiO2 
 PCOD9174941
Probable space group: C 2/M
;
_chemical_formula_sum "Si O2"
_cell_formula_units_Z 52
_cell_length_a 12.259445
_cell_length_b 19.057866
_cell_length_c 12.814395
_cell_angle_alpha 90.000000
_cell_angle_beta 63.722376
_cell_angle_gamma 90.000000
_cell_volume 2684.545008
_symmetry_space_group_name_H-M "C 2/M"
_symmetry_group_IT_number 12
_symmetry_cell_setting 'monoclinic'
loop_
_space_group_symop_operation_xyz
x,y,z
-x,y,-z
-x,-y,-z
x,-y,z
1/2+x,1/2+y,z
1/2-x,1/2+y,-z
1/2-x,1/2-y,-z
1/2+x,1/2-y,z
loop_
_atom_site_type_symbol
_atom_site_label
_atom_site_fract_x
_atom_site_fract_y
_atom_site_fract_z
Si Si1 0.354166 0.000000 0.257088
Si Si2 0.418918 0.710503 0.135976
Si Si3 0.035181 0.210905 0.310799
Si Si4 0.209489 0.850303 0.521240
Si Si5 0.050538 0.500000 0.360029
Si Si6 0.871195 0.000000 0.498892
Si Si7 0.676536 0.149693 0.304331
Si Si8 0.289776 0.851753 0.255204
O O1 0.222821 0.000000 0.366577
O O2 0.352354 0.925519 0.199818
O O3 0.448525 0.000000 0.313013
O O4 0.496811 0.699331 0.207512
O O5 0.302268 0.659580 0.188345
O O6 0.361132 0.787989 0.172934
O O7 0.500000 0.703601 0.000000
O O8 0.084586 0.289405 0.307655
O O9 0.146884 0.158546 0.289289
O O10 0.912663 0.196161 0.428207
O O11 0.158526 0.929738 0.551335
O O12 0.287844 0.835351 0.590259
O O13 0.287286 0.844441 0.382738
O O14 0.124356 0.572089 0.316664
O O15 0.000000 0.500000 0.500000
O O16 0.000000 0.000000 0.500000
#
# Coordination Sequence:
#
# PCOD9174941 Si02
#       8
#     4   8   8   8   4   4   8   8
#     4  10  20  34  53  85 119 149 183 223 275 334
#     4  10  23  42  60  79 106 146 199 246 281 330
#     4  10  21  35  57  83 112 149 186 234 285 335
#     4  10  19  33  53  86 121 150 185 226 278 339
#     4  12  22  36  57  83 120 154 182 222 281 345
#     4  10  18  32  54  80 121 161 188 217 261 331
#     4  10  23  37  57  86 117 152 188 229 285 343
#     4  10  20  34  56  84 116 148 183 225 279 338
#
# _framework density 19.370135000000001
#
# number of rings (size 3 to 8) (size 9 to 14) (size 15 to 20)
#    0.000    1.846    0.000    5.538    0.000   11.692 
#    0.000    1.538    0.000    1.846    0.000    0.000 
#    0.000    0.000    0.000    0.000    0.000    0.000 
#
# Total GULP energy -145279.097541 kJ/mol
# GULP energy per Si atom -5587.657598 kJ/mol
# Density = 1.932605 g / cm^3
# Si number density = 19.370135 Si / 1000 Ang^3
#
#
#
# Elastic Constant Matrix: (Units=GPa)
#
#
# Indices 1 2 3 4 5 6 
#
# 1 85.0963 47.2217 13.2632 0.0000 -4.8007 0.0000
# 2 47.2217 140.4193 37.1512 0.0000 -15.0033 0.0000
# 3 13.2632 37.1512 72.1826 0.0000 -17.9184 0.0000
# 4 0.0000 0.0000 0.0000 10.6648 0.0000 -2.5333
# 5 -4.8007 -15.0033 -17.9184 0.0000 15.8301 0.0000
# 6 0.0000 0.0000 0.0000 -2.5333 0.0000 30.3778
#
#
#
# Elastic Compliance Matrix: (Units=1/GPa)
#
#
# Indices 1 2 3 4 5 6 
#
# 1 0.014453 -0.004839 -0.000300 0.000000 -0.000543 0.000000
# 2 -0.004839 0.010069 -0.003183 0.000000 0.004473 0.000000
# 3 -0.000300 -0.003183 0.020550 0.000000 0.020153 0.000000
# 4 0.000000 0.000000 0.000000 0.095661 0.000000 0.007978
# 5 -0.000543 0.004473 0.020153 0.000000 0.090057 0.000000
# 6 0.000000 0.000000 0.000000 0.007978 0.000000 0.033584
#
#
# Mechanical properties :
#
#
# Convention : Reuss Voigt Hill
#
# Bulk Modulus (GPa) = 35.17641 54.77449 44.97545
# Shear Modulus (GPa) = 17.21214 24.71202 20.96208
#
# Velocity S-wave (km/s) = 2.98416 3.57568 3.29323
# Velocity P-wave (km/s) = 5.48390 6.73695 6.14246
#
# Compressibility (1/GPa) = 0.02842814
#
# Stress axis : x y z
#
# Youngs Moduli (GPa) = 69.19091 99.31643 48.66259
#
# Poissons Ratio (x) = 0.48059 0.01459
# Poissons Ratio (y) = 0.33481 0.15488
# Poissons Ratio (z) = 0.02074 0.31610
#
# Static dielectric constant tensor:
#      x y z
#    x 1.695750 0.000000 0.005640 
#    y 0.000000 1.775080 0.000000 
#    z 0.005640 0.000000 1.648740 
# 
# From -- ./inp_files/133119.got.cif
#   From: 2010.05.17/outbox.cif.g08.bks.cpg/sg12_67_cif.got.tgz:133119.got - 2010.06.03 13:09:07.
