data_PCOD9174619
_publ_section_title
;
Structure prediction by ZEFSAII (Michael W. Deem and Ramdas Pophale) SiO2 
 PCOD9174619
Probable space group: C 2/M
;
_chemical_formula_sum "Si O2"
_cell_formula_units_Z 48
_cell_length_a 14.701922
_cell_length_b 24.940114
_cell_length_c 14.601633
_cell_angle_alpha 90.000000
_cell_angle_beta 150.090750
_cell_angle_gamma 90.000000
_cell_volume 2669.625656
_symmetry_space_group_name_H-M "C 2/M"
_symmetry_group_IT_number 12
_symmetry_cell_setting 'monoclinic'
loop_
_space_group_symop_operation_xyz
x,y,z
-x,y,-z
-x,-y,-z
x,-y,z
1/2+x,1/2+y,z
1/2-x,1/2+y,-z
1/2-x,1/2-y,-z
1/2+x,1/2-y,z
loop_
_atom_site_type_symbol
_atom_site_label
_atom_site_fract_x
_atom_site_fract_y
_atom_site_fract_z
Si Si1 0.876330 0.063161 0.982589
Si Si2 0.233748 0.313478 0.459683
Si Si3 0.557336 0.162078 0.951632
Si Si4 0.088695 0.858635 0.835252
Si Si5 0.155196 0.782817 0.063543
Si Si6 0.542743 0.862019 0.639811
O O1 0.684156 0.094344 0.803076
O O2 0.851542 0.000000 0.972886
O O3 0.967468 0.091527 0.149861
O O4 0.000000 0.071727 0.000000
O O5 0.250000 0.250000 0.500000
O O6 0.434551 0.339066 0.631143
O O7 0.111551 0.323897 0.262783
O O8 0.129303 0.346641 0.448552
O O9 0.500000 0.139493 0.000000
O O10 0.716076 0.129567 0.039784
O O11 0.651018 0.219533 0.053073
O O12 0.116745 0.809666 0.931949
O O13 0.342977 0.806728 0.262734
O O14 0.000000 0.799350 0.000000
O O15 0.500000 0.878813 0.500000
#
# Coordination Sequence:
#
# PCOD9174619 Si02
#       6
#     8   8   8   8   8   8
#     4  10  21  39  62  87 119 154 194 253 308 353
#     4  12  22  35  57  85 118 160 196 231 287 356
#     4  11  23  37  53  82 117 158 199 240 283 342
#     4  11  20  38  57  78 117 152 193 239 293 351
#     4  10  18  32  50  77 117 154 188 232 280 345
#     4  11  21  33  54  87 120 158 194 234 293 360
#
# _framework density 17.980049000000001
#
# number of rings (size 3 to 8) (size 9 to 14) (size 15 to 20)
#    0.000    1.167    5.000    5.500    2.333    1.000 
#    0.000    0.833    0.000    0.500    0.000    1.167 
#    0.000    0.000    0.000    0.000    0.000    0.000 
#
# Total GULP energy -133910.631282 kJ/mol
# GULP energy per Si atom -5579.609637 kJ/mol
# Density = 1.793913 g / cm^3
# Si number density = 17.980049 Si / 1000 Ang^3
#
#
#
# Elastic Constant Matrix: (Units=GPa)
#
#
# Indices 1 2 3 4 5 6 
#
# 1 107.4406 11.7609 26.9215 0.0000 0.4532 0.0000
# 2 11.7609 70.5541 15.5721 0.0000 -1.4818 0.0000
# 3 26.9215 15.5721 103.0368 0.0000 -1.8302 0.0000
# 4 0.0000 0.0000 0.0000 10.8095 0.0000 1.8373
# 5 0.4532 -1.4818 -1.8302 0.0000 21.7112 0.0000
# 6 0.0000 0.0000 0.0000 1.8373 0.0000 19.5068
#
#
#
# Elastic Compliance Matrix: (Units=1/GPa)
#
#
# Indices 1 2 3 4 5 6 
#
# 1 0.010052 -0.001142 -0.002462 0.000000 -0.000495 0.000000
# 2 -0.001142 0.014807 -0.001924 0.000000 0.000872 0.000000
# 3 -0.002462 -0.001924 0.010654 0.000000 0.000818 0.000000
# 4 0.000000 0.000000 0.000000 0.094016 0.000000 -0.008855
# 5 -0.000495 0.000872 0.000818 0.000000 0.046198 0.000000
# 6 0.000000 0.000000 0.000000 -0.008855 0.000000 0.052098
#
#
# Mechanical properties :
#
#
# Convention : Reuss Voigt Hill
#
# Bulk Modulus (GPa) = 40.89128 43.28227 42.08677
# Shear Modulus (GPa) = 20.24012 25.52397 22.88205
#
# Velocity S-wave (km/s) = 3.35878 3.77181 3.57127
# Velocity P-wave (km/s) = 6.15092 6.56455 6.36110
#
# Compressibility (1/GPa) = 0.02445509
#
# Stress axis : x y z
#
# Youngs Moduli (GPa) = 99.48640 67.53622 93.86207
#
# Poissons Ratio (x) = 0.07716 0.23113
# Poissons Ratio (y) = 0.11366 0.18057
# Poissons Ratio (z) = 0.24498 0.12993
#
# Static dielectric constant tensor:
#      x y z
#    x 1.725160 0.000000 0.015690 
#    y 0.000000 1.597840 0.000000 
#    z 0.015690 0.000000 1.643110 
# 
# From -- ./inp_files/218978.got.cif
#   From: 2010.05.17/outbox.cif.g08.bks.cpg/sg12_110_cif.got.tgz:218978.got - 2010.06.03 13:09:07.
