data_PCOD9174069
_publ_section_title
;
Structure prediction by ZEFSAII (Michael W. Deem and Ramdas Pophale) SiO2 
 PCOD9174069
Probable space group: C 2/M
;
_chemical_formula_sum "Si O2"
_cell_formula_units_Z 56
_cell_length_a 21.912011
_cell_length_b 12.781305
_cell_length_c 12.533057
_cell_angle_alpha 90.000000
_cell_angle_beta 120.252930
_cell_angle_gamma 90.000000
_cell_volume 3032.023397
_symmetry_space_group_name_H-M "C 2/M"
_symmetry_group_IT_number 12
_symmetry_cell_setting 'monoclinic'
loop_
_space_group_symop_operation_xyz
x,y,z
-x,y,-z
-x,-y,-z
x,-y,z
1/2+x,1/2+y,z
1/2-x,1/2+y,-z
1/2-x,1/2-y,-z
1/2+x,1/2-y,z
loop_
_atom_site_type_symbol
_atom_site_label
_atom_site_fract_x
_atom_site_fract_y
_atom_site_fract_z
Si Si1 0.179308 0.204490 0.991146
Si Si2 0.072146 0.673439 0.626635
Si Si3 0.818839 0.618141 0.454296
Si Si4 0.848935 0.881323 0.254413
Si Si5 0.400829 0.124665 0.743798
Si Si6 0.436356 0.119409 0.135648
Si Si7 0.218907 0.256174 0.242017
O O1 0.154056 0.125153 0.877655
O O2 0.121857 0.297159 0.950984
O O3 0.250000 0.250000 0.000000
O O4 0.200186 0.175415 0.129843
O O5 0.133614 0.622929 0.610213
O O6 0.093457 0.795279 0.660098
O O7 0.066583 0.623544 0.738122
O O8 0.000000 0.661178 0.500000
O O9 0.793257 0.500000 0.450423
O O10 0.869421 0.646870 0.597882
O O11 0.756003 0.697670 0.373236
O O12 0.775760 0.837741 0.241617
O O13 0.861825 0.000000 0.299447
O O14 0.483766 0.150121 0.825409
O O15 0.350665 0.185404 0.780160
O O16 0.395027 0.000000 0.755052
O O17 0.422352 0.000000 0.087414
#
# Coordination Sequence:
#
# PCOD9174069 Si02
#       7
#     8   8   8   8   8   8   8
#     4   9  20  35  51  74 101 136 175 214 262 310
#     4  10  18  31  52  77 107 135 169 215 267 310
#     4  10  20  33  53  81 108 141 180 216 262 313
#     4   9  19  34  52  74 100 133 176 220 260 308
#     4  10  20  33  53  80 110 141 173 215 267 317
#     4  10  20  33  53  82 110 137 172 219 270 317
#     4  10  20  35  53  76 108 143 177 217 261 310
#
# _framework density 18.469515999999999
#
# number of rings (size 3 to 8) (size 9 to 14) (size 15 to 20)
#    0.000    2.286    1.429    2.143    0.000    4.857 
#    0.000    1.429    0.000    3.429    0.000    5.000 
#    0.000    0.000    0.000    0.000    0.000    0.000 
#
# Total GULP energy -156106.618923 kJ/mol
# GULP energy per Si atom -5575.236390 kJ/mol
# Density = 1.842748 g / cm^3
# Si number density = 18.469516 Si / 1000 Ang^3
#
#
#
# Elastic Constant Matrix: (Units=GPa)
#
#
# Indices 1 2 3 4 5 6 
#
# 1 98.3622 18.5249 5.8881 0.0000 9.4110 0.0000
# 2 18.5249 71.0772 5.6855 0.0000 11.0463 0.0000
# 3 5.8881 5.6855 49.2969 0.0000 6.5487 0.0000
# 4 0.0000 0.0000 0.0000 9.7188 0.0000 -2.4013
# 5 9.4110 11.0463 6.5487 0.0000 21.8620 0.0000
# 6 0.0000 0.0000 0.0000 -2.4013 0.0000 20.0652
#
#
#
# Elastic Compliance Matrix: (Units=1/GPa)
#
#
# Indices 1 2 3 4 5 6 
#
# 1 0.010956 -0.002282 -0.000596 0.000000 -0.003385 0.000000
# 2 -0.002282 0.015771 -0.000644 0.000000 -0.006794 0.000000
# 3 -0.000596 -0.000644 0.021197 0.000000 -0.005768 0.000000
# 4 0.000000 0.000000 0.000000 0.106029 0.000000 0.012689
# 5 -0.003385 -0.006794 -0.005768 0.000000 0.052359 0.000000
# 6 0.000000 0.000000 0.000000 0.012689 0.000000 0.051356
#
#
# Mechanical properties :
#
#
# Convention : Reuss Voigt Hill
#
# Bulk Modulus (GPa) = 24.46120 30.99258 27.72689
# Shear Modulus (GPa) = 17.96381 22.90506 20.43444
#
# Velocity S-wave (km/s) = 3.12207 3.52540 3.32985
# Velocity P-wave (km/s) = 5.12535 5.77825 5.46156
#
# Compressibility (1/GPa) = 0.04088107
#
# Stress axis : x y z
#
# Youngs Moduli (GPa) = 91.27634 63.40667 47.17676
#
# Poissons Ratio (x) = 0.14468 0.02811
# Poissons Ratio (y) = 0.20827 0.03038
# Poissons Ratio (z) = 0.05438 0.04083
#
# Static dielectric constant tensor:
#      x y z
#    x 1.616150 0.000000 -0.006540 
#    y 0.000000 1.625420 0.000000 
#    z -0.006540 0.000000 1.696870 
# 
# From -- ./inp_files/165701.got.cif
#   From: 2010.05.17/outbox.cif.g08.bks.cpg/sg12_83_cif.got.tgz:165701.got - 2010.06.03 13:09:07.
