data_PCOD9174647
_publ_section_title
;
Structure prediction by ZEFSAII (Michael W. Deem and Ramdas Pophale) SiO2 
 PCOD9174647
Probable space group: C 2/M
;
_chemical_formula_sum "Si O2"
_cell_formula_units_Z 64
_cell_length_a 25.485364
_cell_length_b 7.632307
_cell_length_c 22.633734
_cell_angle_alpha 90.000000
_cell_angle_beta 46.248041
_cell_angle_gamma 90.000000
_cell_volume 3180.128988
_symmetry_space_group_name_H-M "C 2/M"
_symmetry_group_IT_number 12
_symmetry_cell_setting 'monoclinic'
loop_
_space_group_symop_operation_xyz
x,y,z
-x,y,-z
-x,-y,-z
x,-y,z
1/2+x,1/2+y,z
1/2-x,1/2+y,-z
1/2-x,1/2-y,-z
1/2+x,1/2-y,z
loop_
_atom_site_type_symbol
_atom_site_label
_atom_site_fract_x
_atom_site_fract_y
_atom_site_fract_z
Si Si1 0.391449 0.302039 0.760094
Si Si2 0.975676 0.207323 0.278519
Si Si3 0.810615 0.708606 0.404865
Si Si4 0.390186 0.210295 0.012164
Si Si5 0.751135 0.283897 0.196736
Si Si6 0.666098 0.208952 0.070547
Si Si7 0.699622 0.203626 0.718215
Si Si8 0.034980 0.791925 0.847752
O O1 0.402148 0.500000 0.728548
O O2 0.470383 0.218946 0.712977
O O3 0.324026 0.224817 0.775460
O O4 0.361944 0.303989 0.849944
O O5 0.891102 0.228768 0.358790
O O6 0.985692 0.275647 0.202876
O O7 0.991180 0.000000 0.264133
O O8 0.816185 0.500000 0.394864
O O9 0.750000 0.750000 0.500000
O O10 0.792149 0.781057 0.353723
O O11 0.368283 0.271053 0.963625
O O12 0.475384 0.256859 0.944747
O O13 0.386868 0.000000 0.017010
O O14 0.325828 0.272758 0.105469
O O15 0.751161 0.500000 0.194179
O O16 0.757273 0.223659 0.259529
O O17 0.654440 0.000000 0.085931
O O18 0.750000 0.250000 0.000000
O O19 0.613819 0.213911 0.800015
O O20 0.720610 0.000000 0.698153
O O21 0.044063 0.000000 0.835503
#
# Coordination Sequence:
#
# PCOD9174647 Si02
#       8
#     8   8   8   8   8   8   8   8
#     4  10  18  32  51  73 101 135 172 211 255 295
#     4   9  18  31  51  78 106 131 160 203 253 296
#     4  10  20  35  59  85 105 124 155 198 249 306
#     4  10  19  30  46  67  95 135 180 219 254 294
#     4   9  18  33  51  70  97 137 180 213 246 292
#     4  11  20  29  44  67  97 134 178 224 262 293
#     4   9  19  36  55  74  98 131 169 206 247 304
#     4  10  19  31  48  70 100 134 170 218 264 295
#
# _framework density 20.124970000000001
#
# number of rings (size 3 to 8) (size 9 to 14) (size 15 to 20)
#    0.000    2.250    2.500    1.125    0.000    2.500 
#    0.000    3.750    0.000    0.750    0.000    5.250 
#    0.000    0.000    0.000    0.000    0.000    0.000 
#
# Total GULP energy -178344.043404 kJ/mol
# GULP energy per Si atom -5573.251356 kJ/mol
# Density = 2.007916 g / cm^3
# Si number density = 20.124970 Si / 1000 Ang^3
#
#
#
# Elastic Constant Matrix: (Units=GPa)
#
#
# Indices 1 2 3 4 5 6 
#
# 1 117.5308 4.1157 73.1588 -0.0015 9.9212 0.0093
# 2 4.1157 46.5352 -2.1397 0.0149 3.3933 -0.0138
# 3 73.1588 -2.1397 106.6939 0.0026 -11.6977 -0.0082
# 4 -0.0015 0.0149 0.0026 16.3844 -0.0021 -4.0625
# 5 9.9212 3.3933 -11.6977 -0.0021 18.1042 0.0006
# 6 0.0093 -0.0138 -0.0082 -4.0625 0.0006 11.5692
#
#
#
# Elastic Compliance Matrix: (Units=1/GPa)
#
#
# Indices 1 2 3 4 5 6 
#
# 1 0.020780 -0.001002 -0.016678 -0.000005 -0.021976 -0.000030
# 2 -0.001002 0.021835 0.000793 -0.000015 -0.003031 0.000022
# 3 -0.016678 0.000793 0.023473 0.000005 0.024158 0.000031
# 4 -0.000005 -0.000015 0.000005 0.066855 0.000016 0.023476
# 5 -0.021976 -0.003031 0.024158 0.000016 0.083457 0.000032
# 6 -0.000030 0.000022 0.000031 0.023476 0.000032 0.094680
#
#
# Mechanical properties :
#
#
# Convention : Reuss Voigt Hill
#
# Bulk Modulus (GPa) = 30.94705 46.78103 38.86404
# Shear Modulus (GPa) = 14.05970 22.25324 18.15647
#
# Velocity S-wave (km/s) = 2.64601 3.32889 3.00690
# Velocity P-wave (km/s) = 4.97453 6.17018 5.60433
#
# Compressibility (1/GPa) = 0.03231326
#
# Stress axis : x y z
#
# Youngs Moduli (GPa) = 48.12255 45.79755 42.60158
#
# Poissons Ratio (x) = 0.04590 0.71052
# Poissons Ratio (y) = 0.04823 -0.03378
# Poissons Ratio (z) = 0.80260 -0.03631
#
# Static dielectric constant tensor:
#      x y z
#    x 1.777260 -0.000010 -0.037440 
#    y -0.000010 1.767600 0.000010 
#    z -0.037440 0.000010 1.646700 
# 
# From -- ./inp_files/348552.got.cif
#   From: 2010.05.17/outbox.cif.g08.bks.cpg/sg12_175_cif.got.tgz:348552.got - 2010.06.03 13:09:07.
