data_PCOD9174169
_publ_section_title
;
Structure prediction by ZEFSAII (Michael W. Deem and Ramdas Pophale) SiO2 
 PCOD9174169
Probable space group: C 2/M
;
_chemical_formula_sum "Si O2"
_cell_formula_units_Z 56
_cell_length_a 9.018363
_cell_length_b 19.294836
_cell_length_c 23.592072
_cell_angle_alpha 90.000000
_cell_angle_beta 130.729621
_cell_angle_gamma 90.000000
_cell_volume 3110.912770
_symmetry_space_group_name_H-M "C 2/M"
_symmetry_group_IT_number 12
_symmetry_cell_setting 'monoclinic'
loop_
_space_group_symop_operation_xyz
x,y,z
-x,y,-z
-x,-y,-z
x,-y,z
1/2+x,1/2+y,z
1/2-x,1/2+y,-z
1/2-x,1/2-y,-z
1/2+x,1/2-y,z
loop_
_atom_site_type_symbol
_atom_site_label
_atom_site_fract_x
_atom_site_fract_y
_atom_site_fract_z
Si Si1 0.814753 0.583076 0.996208
Si Si2 0.729352 0.307652 0.072858
Si Si3 0.937424 0.422175 0.425150
Si Si4 0.018624 0.823665 0.133531
Si Si5 0.548729 0.269426 0.379226
Si Si6 0.809189 0.142039 0.483961
Si Si7 0.169875 0.818532 0.298165
O O1 0.810311 0.500000 0.005464
O O2 0.807334 0.628394 0.053075
O O3 0.619243 0.611049 0.916315
O O4 0.000000 0.597353 0.000000
O O5 0.872485 0.243320 0.095241
O O6 0.696211 0.319926 0.132021
O O7 0.500000 0.293619 0.000000
O O8 0.880619 0.500000 0.423746
O O9 0.767425 0.387131 0.347765
O O10 0.000000 0.385961 0.500000
O O11 0.139680 0.414463 0.442225
O O12 0.096250 0.826858 0.216669
O O13 0.711730 0.209628 0.429846
O O14 0.617366 0.331806 0.436318
O O15 0.345950 0.236294 0.346891
O O16 0.518848 0.292635 0.307294
O O17 0.000000 0.117721 0.500000
#
# Coordination Sequence:
#
# PCOD9174169 Si02
#       7
#     8   8   8   8   8   8   8
#     4  10  21  38  61  85 110 146 189 227 265 322
#     4  10  20  36  58  85 115 145 184 225 268 327
#     4  10  21  36  53  73 102 143 187 223 264 321
#     4  11  21  34  56  85 116 149 178 226 283 330
#     4  10  19  30  49  79 105 131 173 225 278 317
#     4  10  18  31  53  75  98 130 178 233 270 312
#     4  11  21  34  53  81 111 142 174 225 278 323
#
# _framework density 18.001147
#
# number of rings (size 3 to 8) (size 9 to 14) (size 15 to 20)
#    0.000    1.714    2.857    3.857    0.000    3.429 
#    0.000    0.000    0.000    0.000    0.000    0.000 
#    0.000    0.000    0.000    0.000    0.000    0.000 
#
# Total GULP energy -155908.494149 kJ/mol
# GULP energy per Si atom -5568.160505 kJ/mol
# Density = 1.796018 g / cm^3
# Si number density = 18.001147 Si / 1000 Ang^3
#
#
#
# Elastic Constant Matrix: (Units=GPa)
#
#
# Indices 1 2 3 4 5 6 
#
# 1 96.4115 31.2912 15.2411 0.0000 -16.2711 0.0000
# 2 31.2912 74.4993 32.2970 0.0000 -6.1812 0.0000
# 3 15.2411 32.2970 84.4914 0.0000 -31.7112 -0.0001
# 4 0.0000 0.0000 0.0000 4.8301 0.0000 -13.6069
# 5 -16.2711 -6.1812 -31.7112 0.0000 33.2903 -0.0001
# 6 0.0000 0.0000 -0.0001 -13.6069 -0.0001 -0.9822
#
#
#
# Elastic Compliance Matrix: (Units=1/GPa)
#
#
# Indices 1 2 3 4 5 6 
#
# 1 0.013310 -0.006247 0.003102 0.000000 0.008301 0.000000
# 2 -0.006247 0.019460 -0.009497 0.000000 -0.008486 0.000000
# 3 0.003102 -0.009497 0.023056 0.000000 0.021716 0.000000
# 4 0.000000 0.000000 0.000000 0.005172 0.000000 -0.071656
# 5 0.008301 -0.008486 0.021716 0.000000 0.053206 0.000000
# 6 0.000000 0.000000 0.000000 -0.071656 0.000000 -0.025436
#
#
# Mechanical properties :
#
#
# Convention : Reuss Voigt Hill
#
# Bulk Modulus (GPa) = 32.73978 45.89564 39.31771
# Shear Modulus (GPa) = 40.24730 19.19917 29.72324
#
# Velocity S-wave (km/s) = 4.73357 3.26935 4.06789
# Velocity P-wave (km/s) = 6.93561 6.30895 6.62969
#
# Compressibility (1/GPa) = 0.03054388
#
# Stress axis : x y z
#
# Youngs Moduli (GPa) = 75.13086 51.38845 43.37190
#
# Poissons Ratio (x) = 0.32101 -0.13455
# Poissons Ratio (y) = 0.46932 0.41189
# Poissons Ratio (z) = -0.23308 0.48802
#
# Static dielectric constant tensor:
#      x y z
#    x 1.661480 0.000000 -0.026110 
#    y 0.000000 1.629160 0.000000 
#    z -0.026110 0.000000 1.626090 
# 
# From -- ./inp_files/301776.got.cif
#   From: 2010.05.17/outbox.cif.g08.bks.cpg/sg12_151_cif.got.tgz:301776.got - 2010.06.03 13:09:07.
