data_PCOD9174020
_publ_section_title
;
Structure prediction by ZEFSAII (Michael W. Deem and Ramdas Pophale) SiO2 
 PCOD9174020
Probable space group: C 2/M
;
_chemical_formula_sum "Si O2"
_cell_formula_units_Z 48
_cell_length_a 18.739006
_cell_length_b 8.784762
_cell_length_c 18.915295
_cell_angle_alpha 90.000000
_cell_angle_beta 118.941830
_cell_angle_gamma 90.000000
_cell_volume 2724.915516
_symmetry_space_group_name_H-M "C 2/M"
_symmetry_group_IT_number 12
_symmetry_cell_setting 'monoclinic'
loop_
_space_group_symop_operation_xyz
x,y,z
-x,y,-z
-x,-y,-z
x,-y,z
1/2+x,1/2+y,z
1/2-x,1/2+y,-z
1/2-x,1/2-y,-z
1/2+x,1/2-y,z
loop_
_atom_site_type_symbol
_atom_site_label
_atom_site_fract_x
_atom_site_fract_y
_atom_site_fract_z
Si Si1 0.415462 0.819025 0.162334
Si Si2 0.996774 0.180275 0.669707
Si Si3 0.080214 0.181622 0.992259
Si Si4 0.247342 0.682249 0.078339
Si Si5 0.668947 0.318204 0.494839
Si Si6 0.415058 0.174100 0.415333
O O1 0.485355 0.769859 0.250042
O O2 0.429742 0.750529 0.091104
O O3 0.330469 0.747618 0.150488
O O4 0.407534 0.000000 0.153493
O O5 0.064089 0.230372 0.644186
O O6 0.909012 0.215594 0.592825
O O7 0.001464 0.000000 0.684489
O O8 0.092740 0.000000 0.992193
O O9 0.161142 0.256424 0.065120
O O10 0.000000 0.210191 0.000000
O O11 0.248671 0.500000 0.077658
O O12 0.250000 0.750000 0.000000
O O13 0.674754 0.500000 0.503871
O O14 0.750000 0.250000 0.500000
O O15 0.649541 0.247078 0.562167
O O16 0.500000 0.172307 0.500000
O O17 0.394158 0.000000 0.387375
#
# Coordination Sequence:
#
# PCOD9174020 Si02
#       6
#     8   8   8   8   8   8
#     4  11  21  34  54  78 105 136 173 217 263 310
#     4  10  20  35  54  77 105 136 173 217 263 308
#     4  10  20  35  55  78 106 139 174 213 259 312
#     4  10  18  31  52  75 101 132 170 210 249 301
#     4  10  20  34  54  78 106 140 176 215 260 312
#     4   9  17  31  52  76 101 131 169 209 251 304
#
# _framework density 17.615224000000001
#
# number of rings (size 3 to 8) (size 9 to 14) (size 15 to 20)
#    0.000    2.000    0.000    7.000    0.000    5.333 
#    0.000    1.667    0.000    6.000    0.000    0.000 
#    0.000    0.000    0.000    0.000    0.000    0.000 
#
# Total GULP energy -133892.045504 kJ/mol
# GULP energy per Si atom -5578.835229 kJ/mol
# Density = 1.757513 g / cm^3
# Si number density = 17.615224 Si / 1000 Ang^3
#
#
#
# Elastic Constant Matrix: (Units=GPa)
#
#
# Indices 1 2 3 4 5 6 
#
# 1 132.4664 65.0602 28.3531 0.0000 0.5878 0.0000
# 2 65.0602 127.2293 36.0152 0.0000 6.7998 0.0000
# 3 28.3531 36.0152 53.1720 0.0000 -1.1742 0.0000
# 4 0.0000 0.0000 0.0000 23.7797 0.0000 -0.6552
# 5 0.5878 6.7998 -1.1742 0.0000 15.9933 0.0000
# 6 0.0000 0.0000 0.0000 -0.6552 0.0000 32.1274
#
#
#
# Elastic Compliance Matrix: (Units=1/GPa)
#
#
# Indices 1 2 3 4 5 6 
#
# 1 0.010353 -0.004724 -0.002288 0.000000 0.001460 0.000000
# 2 -0.004724 0.012234 -0.005888 0.000000 -0.005460 0.000000
# 3 -0.002288 -0.005888 0.024112 0.000000 0.004358 0.000000
# 4 0.000000 0.000000 0.000000 0.042076 0.000000 0.000858
# 5 0.001460 -0.005460 0.004358 0.000000 0.065114 0.000000
# 6 0.000000 0.000000 0.000000 0.000858 0.000000 0.031144
#
#
# Mechanical properties :
#
#
# Convention : Reuss Voigt Hill
#
# Bulk Modulus (GPa) = 47.85333 63.52495 55.68914
# Shear Modulus (GPa) = 22.95694 26.60937 24.78315
#
# Velocity S-wave (km/s) = 3.61396 3.89085 3.75496
# Velocity P-wave (km/s) = 6.68126 7.50505 7.10510
#
# Compressibility (1/GPa) = 0.02089719
#
# Stress axis : x y z
#
# Youngs Moduli (GPa) = 96.59341 81.73797 41.47397
#
# Poissons Ratio (x) = 0.38615 0.09490
# Poissons Ratio (y) = 0.45633 0.24420
# Poissons Ratio (z) = 0.22103 0.48128
#
# Static dielectric constant tensor:
#      x y z
#    x 1.607720 0.000000 0.021990 
#    y 0.000000 1.590590 0.000000 
#    z 0.021990 0.000000 1.622200 
# 
# From -- ./inp_files/274611.got.cif
#   From: 2010.05.17/outbox.cif.g08.bks.cpg/sg12_138_cif.got.tgz:274611.got - 2010.06.03 13:09:07.
