data_PCOD9174125
_publ_section_title
;
Structure prediction by ZEFSAII (Michael W. Deem and Ramdas Pophale) SiO2 
 PCOD9174125
Probable space group: C 2/M
;
_chemical_formula_sum "Si O2"
_cell_formula_units_Z 56
_cell_length_a 14.509848
_cell_length_b 8.396973
_cell_length_c 20.529128
_cell_angle_alpha 90.000000
_cell_angle_beta 83.524123
_cell_angle_gamma 90.000000
_cell_volume 2485.284992
_symmetry_space_group_name_H-M "C 2/M"
_symmetry_group_IT_number 12
_symmetry_cell_setting 'monoclinic'
loop_
_space_group_symop_operation_xyz
x,y,z
-x,y,-z
-x,-y,-z
x,-y,z
1/2+x,1/2+y,z
1/2-x,1/2+y,-z
1/2-x,1/2-y,-z
1/2+x,1/2-y,z
loop_
_atom_site_type_symbol
_atom_site_label
_atom_site_fract_x
_atom_site_fract_y
_atom_site_fract_z
Si Si1 0.151466 0.811557 0.979418
Si Si2 0.461245 0.814590 0.648927
Si Si3 0.792189 0.815121 0.594042
Si Si4 0.612503 0.317704 0.553678
Si Si5 0.587067 0.811322 0.114593
Si Si6 0.280357 0.188601 0.154079
Si Si7 0.565761 0.805712 0.768297
O O1 0.083541 0.772644 0.044556
O O2 0.154004 0.000000 0.967787
O O3 0.250000 0.750000 0.000000
O O4 0.147688 0.720670 0.911291
O O5 0.364325 0.727934 0.644403
O O6 0.527996 0.791877 0.581553
O O7 0.522512 0.750448 0.703961
O O8 0.441922 0.000000 0.661219
O O9 0.699324 0.713296 0.594695
O O10 0.847621 0.789697 0.521615
O O11 0.764905 0.000000 0.599933
O O12 0.580573 0.500000 0.560103
O O13 0.685359 0.774114 0.142025
O O14 0.507839 0.759828 0.170515
O O15 0.581065 0.000000 0.104048
O O16 0.332546 0.244169 0.215319
O O17 0.262162 0.000000 0.158753
O O18 0.569166 0.000000 0.765478
#
# Coordination Sequence:
#
# PCOD9174125 Si02
#       7
#     8   8   8   8   8   8   8
#     4  10  18  31  52  81 108 134 172 221 275 325
#     4  11  22  38  58  83 116 152 189 230 277 330
#     4  10  21  38  60  87 116 147 186 231 279 331
#     4  10  21  38  60  87 116 147 186 231 279 331
#     4  10  19  36  57  78 105 140 179 222 271 322
#     4  10  19  36  57  78 105 140 179 222 271 322
#     4   9  22  39  55  77 109 148 187 220 263 327
#
# _framework density 22.532627999999999
#
# number of rings (size 3 to 8) (size 9 to 14) (size 15 to 20)
#    0.000    2.000    0.000    5.571    0.000    5.143 
#    0.000   14.286    0.000    0.000    0.000    0.000 
#    0.000    0.000    0.000    0.000    0.000    0.000 
#
# Total GULP energy -156488.655672 kJ/mol
# GULP energy per Si atom -5588.880560 kJ/mol
# Density = 2.248134 g / cm^3
# Si number density = 22.532628 Si / 1000 Ang^3
#
#
#
# Elastic Constant Matrix: (Units=GPa)
#
#
# Indices 1 2 3 4 5 6 
#
# 1 61.7546 5.7788 17.8754 0.0000 26.3997 0.0000
# 2 5.7788 25.5628 4.5960 0.0000 -2.7882 0.0000
# 3 17.8754 4.5960 42.5815 0.0000 28.4463 0.0000
# 4 0.0000 0.0000 0.0000 19.9812 0.0000 3.9250
# 5 26.3997 -2.7882 28.4463 0.0000 37.0950 0.0000
# 6 0.0000 0.0000 0.0000 3.9250 0.0000 19.6011
#
#
#
# Elastic Compliance Matrix: (Units=1/GPa)
#
#
# Indices 1 2 3 4 5 6 
#
# 1 0.025281 -0.009309 0.005903 0.000000 -0.023218 0.000000
# 2 -0.009309 0.046588 -0.016169 0.000000 0.022526 0.000000
# 3 0.005903 -0.016169 0.054068 0.000000 -0.046878 0.000000
# 4 0.000000 0.000000 0.000000 0.052096 0.000000 -0.010432
# 5 -0.023218 0.022526 -0.046878 0.000000 0.081124 0.000000
# 6 0.000000 0.000000 0.000000 -0.010432 0.000000 0.053106
#
#
# Mechanical properties :
#
#
# Convention : Reuss Voigt Hill
#
# Bulk Modulus (GPa) = 11.52238 20.71103 16.11670
# Shear Modulus (GPa) = 13.14604 22.11204 17.62904
#
# Velocity S-wave (km/s) = 2.41803 3.13602 2.80014
# Velocity P-wave (km/s) = 3.59452 4.72487 4.19792
#
# Compressibility (1/GPa) = 0.08678762
#
# Stress axis : x y z
#
# Youngs Moduli (GPa) = 39.55493 21.46490 18.49509
#
# Poissons Ratio (x) = 0.19981 -0.10917
# Poissons Ratio (y) = 0.36821 0.29904
# Poissons Ratio (z) = -0.23348 0.34706
#
# Static dielectric constant tensor:
#      x y z
#    x 3.666710 0.000000 0.124700 
#    y 0.000000 1.754470 0.000000 
#    z 0.124700 0.000000 1.895840 
# 
# From -- ./inp_files/308954.got.cif
#   From: 2010.05.17/outbox.cif.g08.bks.cpg/sg12_155_cif.got.tgz:308954.got - 2010.06.03 13:09:07.
