data_PCOD9174036
_publ_section_title
;
Structure prediction by ZEFSAII (Michael W. Deem and Ramdas Pophale) SiO2 
 PCOD9174036
Probable space group: C 2/M
;
_chemical_formula_sum "Si O2"
_cell_formula_units_Z 56
_cell_length_a 23.979602
_cell_length_b 14.503381
_cell_length_c 9.527667
_cell_angle_alpha 90.000000
_cell_angle_beta 55.203788
_cell_angle_gamma 90.000000
_cell_volume 2721.070723
_symmetry_space_group_name_H-M "C 2/M"
_symmetry_group_IT_number 12
_symmetry_cell_setting 'monoclinic'
loop_
_space_group_symop_operation_xyz
x,y,z
-x,y,-z
-x,-y,-z
x,-y,z
1/2+x,1/2+y,z
1/2-x,1/2+y,-z
1/2-x,1/2-y,-z
1/2+x,1/2-y,z
loop_
_atom_site_type_symbol
_atom_site_label
_atom_site_fract_x
_atom_site_fract_y
_atom_site_fract_z
Si Si1 0.269359 0.606389 0.032565
Si Si2 0.688040 0.218407 0.386244
Si Si3 0.989465 0.103862 0.774632
Si Si4 0.397342 0.274116 0.739217
Si Si5 0.819556 0.299485 0.294664
Si Si6 0.109993 0.895245 0.811112
Si Si7 0.137419 0.395858 0.036192
O O1 0.289283 0.500000 0.031488
O O2 0.228515 0.651860 0.220578
O O3 0.333073 0.669372 0.898676
O O4 0.214608 0.606393 0.985435
O O5 0.624934 0.257742 0.388786
O O6 0.740964 0.297755 0.359287
O O7 0.670399 0.171094 0.559243
O O8 0.963050 0.170649 0.692852
O O9 0.061302 0.119582 0.746728
O O10 0.988709 0.000000 0.720832
O O11 0.936573 0.108272 0.982084
O O12 0.401384 0.175751 0.809948
O O13 0.841342 0.192054 0.252299
O O14 0.861093 0.358289 0.123561
O O15 0.138232 0.000000 0.761884
O O16 0.112751 0.500000 0.081338
#
# Coordination Sequence:
#
# PCOD9174036 Si02
#       7
#     8   8   8   8   8   8   8
#     4  10  18  31  52  76 101 132 169 214 259 310
#     4  10  21  31  49  74 104 140 175 206 256 321
#     4   9  17  30  56  83 105 134 174 216 259 308
#     4  11  17  34  52  78 106 135 173 218 259 307
#     4  11  19  35  50  69 108 140 170 215 259 304
#     4   9  18  33  53  82 107 135 175 215 259 311
#     4  10  19  31  50  73 100 132 169 214 257 298
#
# _framework density 20.580134999999999
#
# number of rings (size 3 to 8) (size 9 to 14) (size 15 to 20)
#    0.000    2.000    4.286    2.143    0.000    2.286 
#    0.000    4.286    0.000    3.429    0.000    0.000 
#    0.000    5.714    0.000    0.000    0.000    0.000 
#
# Total GULP energy -156304.969763 kJ/mol
# GULP energy per Si atom -5582.320349 kJ/mol
# Density = 2.053329 g / cm^3
# Si number density = 20.580135 Si / 1000 Ang^3
#
#
#
# Elastic Constant Matrix: (Units=GPa)
#
#
# Indices 1 2 3 4 5 6 
#
# 1 85.4227 42.8650 29.8189 0.0000 35.6302 0.0000
# 2 42.8650 111.8118 29.6499 0.0000 20.2180 0.0000
# 3 29.8189 29.6499 90.2454 0.0000 40.4353 0.0000
# 4 0.0000 0.0000 0.0000 7.0546 0.0000 10.1618
# 5 35.6302 20.2180 40.4353 0.0000 34.2892 0.0000
# 6 0.0000 0.0000 0.0000 10.1618 0.0000 25.4804
#
#
#
# Elastic Compliance Matrix: (Units=1/GPa)
#
#
# Indices 1 2 3 4 5 6 
#
# 1 0.025432 -0.006036 0.008112 0.000000 -0.032433 0.000000
# 2 -0.006036 0.011524 -0.003302 0.000000 0.003372 0.000000
# 3 0.008112 -0.003302 0.026270 0.000000 -0.037461 0.000000
# 4 0.000000 0.000000 0.000000 0.333110 0.000000 -0.132846
# 5 -0.032433 0.003372 -0.037461 0.000000 0.105053 0.000000
# 6 0.000000 0.000000 0.000000 -0.132846 0.000000 0.092226
#
#
# Mechanical properties :
#
#
# Convention : Reuss Voigt Hill
#
# Bulk Modulus (GPa) = 16.45475 54.68306 35.56891
# Shear Modulus (GPa) = 8.11260 25.70790 16.91025
#
# Velocity S-wave (km/s) = 1.98759 3.53818 2.86960
# Velocity P-wave (km/s) = 3.64420 6.58180 5.31979
#
# Compressibility (1/GPa) = 0.06077271
#
# Stress axis : x y z
#
# Youngs Moduli (GPa) = 39.32077 86.77759 38.06576
#
# Poissons Ratio (x) = 0.52381 -0.30879
# Poissons Ratio (y) = 0.23735 0.12571
# Poissons Ratio (z) = -0.31897 0.28658
#
# Static dielectric constant tensor:
#      x y z
#    x 1.779070 0.000000 0.008790 
#    y 0.000000 1.722390 0.000000 
#    z 0.008790 0.000000 1.768120 
# 
# From -- ./inp_files/96246.got.cif
#   From: 2010.05.17/outbox.cif.g08.bks.cpg/sg12_49_cif.got.tgz:96246.got - 2010.06.03 13:09:07.
