data_PCOD9174353
_publ_section_title
;
Structure prediction by ZEFSAII (Michael W. Deem and Ramdas Pophale) SiO2 
 PCOD9174353
Probable space group: C 2/M
;
_chemical_formula_sum "Si O2"
_cell_formula_units_Z 32
_cell_length_a 15.992312
_cell_length_b 8.206773
_cell_length_c 10.866925
_cell_angle_alpha 90.000000
_cell_angle_beta 117.313351
_cell_angle_gamma 90.000000
_cell_volume 1267.222363
_symmetry_space_group_name_H-M "C 2/M"
_symmetry_group_IT_number 12
_symmetry_cell_setting 'monoclinic'
loop_
_space_group_symop_operation_xyz
x,y,z
-x,y,-z
-x,-y,-z
x,-y,z
1/2+x,1/2+y,z
1/2-x,1/2+y,-z
1/2-x,1/2-y,-z
1/2+x,1/2-y,z
loop_
_atom_site_type_symbol
_atom_site_label
_atom_site_fract_x
_atom_site_fract_y
_atom_site_fract_z
Si Si1 0.198637 0.807877 0.091239
Si Si2 0.521897 0.189707 0.843254
Si Si3 0.125617 0.811540 0.675026
Si Si4 0.142726 0.304379 0.421324
O O1 0.089799 0.768450 0.990602
O O2 0.210258 0.000000 0.116710
O O3 0.250000 0.750000 0.000000
O O4 0.261310 0.714068 0.233450
O O5 0.577284 0.207497 0.749875
O O6 0.419761 0.258145 0.735633
O O7 0.513534 0.000000 0.867902
O O8 0.099965 0.760328 0.520521
O O9 0.103539 0.000000 0.683127
O O10 0.138366 0.500000 0.417199
O O11 0.250000 0.250000 0.500000
#
# Coordination Sequence:
#
# PCOD9174353 Si02
#       4
#     8   8   8   8
#     4  10  18  31  54  83 113 142 178 225 273 323
#     4  10  20  36  58  84 113 144 181 226 275 325
#     4  11  21  35  58  85 113 145 183 226 271 324
#     4  11  24  40  57  79 111 148 185 228 275 325
#
# _framework density 25.252078000000001
#
# number of rings (size 3 to 8) (size 9 to 14) (size 15 to 20)
#    0.000    1.500    0.000    9.750    0.000    7.000 
#    0.000    1.250    0.000    7.500    0.000    0.000 
#    0.000    0.000    0.000    0.000    0.000    0.000 
#
# Total GULP energy -89584.413448 kJ/mol
# GULP energy per Si atom -5599.025840 kJ/mol
# Density = 2.519460 g / cm^3
# Si number density = 25.252078 Si / 1000 Ang^3
#
#
#
# Elastic Constant Matrix: (Units=GPa)
#
#
# Indices 1 2 3 4 5 6 
#
# 1 90.3068 -18.6088 29.1884 0.0000 16.6702 0.0000
# 2 -18.6088 104.1115 16.2607 0.0000 -0.2074 0.0000
# 3 29.1884 16.2607 203.2066 0.0000 10.8547 0.0000
# 4 0.0000 0.0000 0.0000 33.6915 0.0000 8.6455
# 5 16.6702 -0.2074 10.8547 0.0000 54.0237 0.0000
# 6 0.0000 0.0000 0.0000 8.6455 0.0000 17.0287
#
#
#
# Elastic Compliance Matrix: (Units=1/GPa)
#
#
# Indices 1 2 3 4 5 6 
#
# 1 0.012871 0.002584 -0.001864 0.000000 -0.003587 0.000000
# 2 0.002584 0.010248 -0.001163 0.000000 -0.000524 0.000000
# 3 -0.001864 -0.001163 0.005308 0.000000 -0.000496 0.000000
# 4 0.000000 0.000000 0.000000 0.034127 0.000000 -0.017326
# 5 -0.003587 -0.000524 -0.000496 0.000000 0.019715 0.000000
# 6 0.000000 0.000000 0.000000 -0.017326 0.000000 0.067521
#
#
# Mechanical properties :
#
#
# Convention : Reuss Voigt Hill
#
# Bulk Modulus (GPa) = 36.30929 50.14506 43.22717
# Shear Modulus (GPa) = 31.27828 45.66773 38.47300
#
# Velocity S-wave (km/s) = 3.52325 4.25723 3.90751
# Velocity P-wave (km/s) = 5.56426 6.63824 6.12484
#
# Compressibility (1/GPa) = 0.02754116
#
# Stress axis : x y z
#
# Youngs Moduli (GPa) = 77.69693 97.58325 188.38052
#
# Poissons Ratio (x) = -0.25220 0.35112
# Poissons Ratio (y) = -0.20080 0.21913
# Poissons Ratio (z) = 0.14482 0.11351
#
# Static dielectric constant tensor:
#      x y z
#    x 1.821880 0.000000 0.162670 
#    y 0.000000 1.854320 0.000000 
#    z 0.162670 0.000000 1.955840 
# 
# From -- ./inp_files/151173.got.cif
#   From: 2010.05.17/outbox.cif.g08.bks.cpg/sg12_76_cif.got.tgz:151173.got - 2010.06.03 13:09:07.
