data_PCOD9174876
_publ_section_title
;
Structure prediction by ZEFSAII (Michael W. Deem and Ramdas Pophale) SiO2 
 PCOD9174876
Probable space group: C 2/M
;
_chemical_formula_sum "Si O2"
_cell_formula_units_Z 60
_cell_length_a 16.337711
_cell_length_b 17.440613
_cell_length_c 22.498837
_cell_angle_alpha 90.000000
_cell_angle_beta 149.590654
_cell_angle_gamma 90.000000
_cell_volume 3244.989107
_symmetry_space_group_name_H-M "C 2/M"
_symmetry_group_IT_number 12
_symmetry_cell_setting 'monoclinic'
loop_
_space_group_symop_operation_xyz
x,y,z
-x,y,-z
-x,-y,-z
x,-y,z
1/2+x,1/2+y,z
1/2-x,1/2+y,-z
1/2-x,1/2-y,-z
1/2+x,1/2-y,z
loop_
_atom_site_type_symbol
_atom_site_label
_atom_site_fract_x
_atom_site_fract_y
_atom_site_fract_z
Si Si1 0.079831 0.338552 0.352488
Si Si2 0.060985 0.408288 0.627931
Si Si3 0.000000 0.154953 0.500000
Si Si4 0.356657 0.090969 0.729830
Si Si5 0.412687 0.592172 0.212802
Si Si6 0.442973 0.677861 0.596696
Si Si7 0.055482 0.593163 0.969826
Si Si8 0.239711 0.906729 0.354397
O O1 0.066682 0.359264 0.275510
O O2 0.265822 0.361211 0.484473
O O3 0.065970 0.251606 0.366371
O O4 0.951301 0.382495 0.312423
O O5 0.063443 0.500000 0.627211
O O6 0.208515 0.380723 0.679135
O O7 0.891793 0.384112 0.490793
O O8 0.164538 0.106486 0.609234
O O9 0.016829 0.197751 0.446761
O O10 0.438000 0.114975 0.842735
O O11 0.384814 0.000000 0.737476
O O12 0.415751 0.500000 0.215525
O O13 0.433323 0.621400 0.293233
O O14 0.569292 0.619437 0.273733
O O15 0.242020 0.616965 0.078802
O O16 0.052873 0.500000 0.969471
O O17 0.000000 0.620078 0.000000
O O18 0.235272 0.000000 0.351725
#
# Coordination Sequence:
#
# PCOD9174876 Si02
#       8
#     8   8   4   8   8   8   8   8
#     4  10  20  33  48  72 109 141 165 213 265 317
#     4   9  15  27  46  72 100 128 169 212 258 309
#     4  10  21  34  52  78 109 142 170 214 261 322
#     4  10  20  35  55  82 108 136 174 214 269 320
#     4  10  18  32  54  75 102 136 176 225 262 306
#     4  10  21  34  47  76 107 137 180 207 262 319
#     4   9  18  32  53  79 105 136 176 222 263 305
#     4   8  15  25  44  74  97 123 166 211 255 300
#
# _framework density 18.490047000000001
#
# number of rings (size 3 to 8) (size 9 to 14) (size 15 to 20)
#    0.000    2.533    1.333    2.200    0.000    4.800 
#    2.400    0.667    0.000    0.800    0.000    4.667 
#    0.000    0.000    0.000    0.000    0.000    0.000 
#
# Total GULP energy -167114.223229 kJ/mol
# GULP energy per Si atom -5570.474108 kJ/mol
# Density = 1.844796 g / cm^3
# Si number density = 18.490047 Si / 1000 Ang^3
#
#
#
# Elastic Constant Matrix: (Units=GPa)
#
#
# Indices 1 2 3 4 5 6 
#
# 1 160.6788 25.8676 63.4140 -0.0024 -12.7043 0.0069
# 2 25.8676 23.7723 19.8010 0.0091 -5.0716 -0.0101
# 3 63.4140 19.8010 101.7153 0.0087 -7.7213 0.0077
# 4 -0.0024 0.0091 0.0087 -16.9788 0.0012 61.9714
# 5 -12.7043 -5.0716 -7.7213 0.0012 29.0432 0.0020
# 6 0.0069 -0.0101 0.0077 61.9714 0.0020 -143.2458
#
#
#
# Elastic Compliance Matrix: (Units=1/GPa)
#
#
# Indices 1 2 3 4 5 6 
#
# 1 0.009018 -0.005805 -0.004358 0.000007 0.001773 0.000004
# 2 -0.005805 0.055098 -0.006704 -0.000019 0.005300 -0.000013
# 3 -0.004358 -0.006704 0.013900 -0.000014 0.000619 -0.000005
# 4 0.000007 -0.000019 -0.000014 0.101714 -0.000011 0.044004
# 5 0.001773 0.005300 0.000619 -0.000011 0.036297 -0.000005
# 6 0.000004 -0.000013 -0.000005 0.044004 -0.000005 0.012056
#
#
# Mechanical properties :
#
#
# Convention : Reuss Voigt Hill
#
# Bulk Modulus (GPa) = 22.58278 56.03684 39.30981
# Shear Modulus (GPa) = 18.07812 -14.43069 1.82371
#
# Velocity S-wave (km/s) = 3.13025 -2.79670 0.99421
# Velocity P-wave (km/s) = 5.03037 4.46582 4.75648
#
# Compressibility (1/GPa) = 0.04428153
#
# Stress axis : x y z
#
# Youngs Moduli (GPa) = 110.88797 18.14962 71.94125
#
# Poissons Ratio (x) = 0.10536 0.31350
# Poissons Ratio (y) = 0.64372 0.48232
# Poissons Ratio (z) = 0.48321 0.12168
#
# Static dielectric constant tensor:
#      x y z
#    x 1.693370 0.000000 0.000510 
#    y 0.000000 1.649490 0.000000 
#    z 0.000510 0.000000 1.622830 
# 
# From -- ./inp_files/312170.got.cif
#   From: 2010.05.17/outbox.cif.g08.bks.cpg/sg12_157_cif.got.tgz:312170.got - 2010.06.03 13:09:07.
