data_PCOD9174239
_publ_section_title
;
Structure prediction by ZEFSAII (Michael W. Deem and Ramdas Pophale) SiO2 
 PCOD9174239
Probable space group: C 2/M
;
_chemical_formula_sum "Si O2"
_cell_formula_units_Z 64
_cell_length_a 28.493045
_cell_length_b 16.484948
_cell_length_c 11.730576
_cell_angle_alpha 90.000000
_cell_angle_beta 149.395755
_cell_angle_gamma 90.000000
_cell_volume 2805.132011
_symmetry_space_group_name_H-M "C 2/M"
_symmetry_group_IT_number 12
_symmetry_cell_setting 'monoclinic'
loop_
_space_group_symop_operation_xyz
x,y,z
-x,y,-z
-x,-y,-z
x,-y,z
1/2+x,1/2+y,z
1/2-x,1/2+y,-z
1/2-x,1/2-y,-z
1/2+x,1/2-y,z
loop_
_atom_site_type_symbol
_atom_site_label
_atom_site_fract_x
_atom_site_fract_y
_atom_site_fract_z
Si Si1 0.843644 0.087486 0.859452
Si Si2 0.441160 0.097327 0.607477
Si Si3 0.410458 0.599076 0.383780
Si Si4 0.600164 0.708598 0.191200
Si Si5 0.346487 0.597508 0.492423
Si Si6 0.138131 0.592440 0.056550
Si Si7 0.654351 0.121230 0.350612
Si Si8 0.742409 0.904903 0.889308
O O1 0.894904 0.166163 0.920815
O O2 0.752966 0.085433 0.590126
O O3 0.803370 0.095990 0.901335
O O4 0.893042 0.000000 0.954325
O O5 0.408730 0.107090 0.670981
O O6 0.358071 0.129796 0.353912
O O7 0.445504 0.000000 0.598091
O O8 0.544855 0.130609 0.810552
O O9 0.500000 0.626267 0.500000
O O10 0.408932 0.500000 0.371166
O O11 0.408921 0.618144 0.514063
O O12 0.312483 0.629433 0.128939
O O13 0.615199 0.638592 0.314828
O O14 0.665284 0.783127 0.354685
O O15 0.500000 0.745484 0.000000
O O16 0.343365 0.500000 0.498718
O O17 0.240436 0.627103 0.252073
O O18 0.143127 0.500000 0.023553
O O19 0.123668 0.589844 0.163407
O O20 0.726607 0.000000 0.885699
#
# Coordination Sequence:
#
# PCOD9174239 Si02
#       8
#     8   8   8   8   8   8   8   8
#     4  10  20  35  57  81 109 148 185 233 283 329
#     4   9  17  30  54  82 108 142 185 234 278 324
#     4   9  18  34  57  78 102 143 191 238 278 321
#     4  12  25  35  50  81 119 155 183 223 286 344
#     4  10  22  37  53  79 113 146 187 232 281 338
#     4  10  18  31  53  80 112 149 185 229 280 329
#     4  11  20  35  52  79 114 152 192 221 267 340
#     4   8  16  31  52  79 104 130 181 236 276 320
#
# _framework density 22.815325000000001
#
# number of rings (size 3 to 8) (size 9 to 14) (size 15 to 20)
#    0.000    2.125    1.250    3.750    1.750    2.000 
#    0.000    0.625    0.000    6.750    0.000    0.000 
#    0.000    0.000    0.000    0.000    0.000    0.125 
#
# Total GULP energy -178550.900833 kJ/mol
# GULP energy per Si atom -5579.715651 kJ/mol
# Density = 2.276340 g / cm^3
# Si number density = 22.815325 Si / 1000 Ang^3
#
#
#
# Elastic Constant Matrix: (Units=GPa)
#
#
# Indices 1 2 3 4 5 6 
#
# 1 44.4996 3.2882 20.8844 0.0000 6.1333 0.0000
# 2 3.2882 30.3387 -6.7735 0.0000 -9.0354 0.0000
# 3 20.8844 -6.7735 77.6814 0.0000 4.5646 0.0000
# 4 0.0000 0.0000 0.0000 41.7427 0.0000 30.8403
# 5 6.1333 -9.0354 4.5646 0.0000 29.8338 0.0000
# 6 0.0000 0.0000 0.0000 30.8403 0.0000 -0.1783
#
#
#
# Elastic Compliance Matrix: (Units=1/GPa)
#
#
# Indices 1 2 3 4 5 6 
#
# 1 0.027398 -0.006584 -0.007560 0.000000 -0.006470 0.000000
# 2 -0.006584 0.038314 0.004389 0.000000 0.012286 0.000000
# 3 -0.007560 0.004389 0.015256 0.000000 0.000549 0.000000
# 4 0.000000 0.000000 0.000000 0.000186 0.000000 0.032173
# 5 -0.006470 0.012286 0.000549 0.000000 0.038486 0.000000
# 6 0.000000 0.000000 0.000000 0.032173 0.000000 -0.043547
#
#
# Mechanical properties :
#
#
# Convention : Reuss Voigt Hill
#
# Bulk Modulus (GPa) = 16.27132 20.81308 18.54220
# Shear Modulus (GPa) = 43.07038 23.28767 33.17903
#
# Velocity S-wave (km/s) = 4.34958 3.19831 3.81759
# Velocity P-wave (km/s) = 5.68967 4.77296 5.25135
#
# Compressibility (1/GPa) = 0.06145783
#
# Stress axis : x y z
#
# Youngs Moduli (GPa) = 36.49857 26.10035 65.54803
#
# Poissons Ratio (x) = 0.17185 0.49554
# Poissons Ratio (y) = 0.24031 -0.28769
# Poissons Ratio (z) = 0.27593 -0.11456
#
# Static dielectric constant tensor:
#      x y z
#    x 1.853350 0.000000 0.033500 
#    y 0.000000 1.882640 0.000000 
#    z 0.033500 0.000000 1.888210 
# 
# From -- ./inp_files/190101.got.cif
#   From: 2010.05.17/outbox.cif.g08.bks.cpg/sg12_96_cif.got.tgz:190101.got - 2010.06.03 13:09:07.
