data_PCOD9174124
_publ_section_title
;
Structure prediction by ZEFSAII (Michael W. Deem and Ramdas Pophale) SiO2 
 PCOD9174124
Probable space group: C 2/M
;
_chemical_formula_sum "Si O2"
_cell_formula_units_Z 56
_cell_length_a 9.016146
_cell_length_b 17.725782
_cell_length_c 21.184952
_cell_angle_alpha 90.000000
_cell_angle_beta 49.262431
_cell_angle_gamma 90.000000
_cell_volume 2565.398808
_symmetry_space_group_name_H-M "C 2/M"
_symmetry_group_IT_number 12
_symmetry_cell_setting 'monoclinic'
loop_
_space_group_symop_operation_xyz
x,y,z
-x,y,-z
-x,-y,-z
x,-y,z
1/2+x,1/2+y,z
1/2-x,1/2+y,-z
1/2-x,1/2-y,-z
1/2+x,1/2-y,z
loop_
_atom_site_type_symbol
_atom_site_label
_atom_site_fract_x
_atom_site_fract_y
_atom_site_fract_z
Si Si1 0.559449 0.147032 0.550106
Si Si2 0.405015 0.124624 0.325662
Si Si3 0.465557 0.688564 0.139548
Si Si4 0.669787 0.080832 0.147853
Si Si5 0.677434 0.910605 0.999879
Si Si6 0.511991 0.680283 0.403291
Si Si7 0.602492 0.286371 0.240519
O O1 0.500000 0.112689 0.500000
O O2 0.514893 0.103995 0.627492
O O3 0.463903 0.230937 0.584662
O O4 0.790757 0.160679 0.479810
O O5 0.481712 0.079270 0.244986
O O6 0.486195 0.208601 0.287644
O O7 0.173220 0.131503 0.393856
O O8 0.317865 0.635353 0.142140
O O9 0.508916 0.681539 0.202449
O O10 0.334791 0.765633 0.169875
O O11 0.670815 0.658256 0.054475
O O12 0.622036 0.097823 0.088840
O O13 0.769571 0.000000 0.119540
O O14 0.745104 0.000000 0.973204
O O15 0.500000 0.902199 0.000000
O O16 0.561357 0.668546 0.315714
#
# Coordination Sequence:
#
# PCOD9174124 Si02
#       7
#     8   8   8   8   8   8   8
#     4  10  19  29  53  86 118 158 200 238 287 353
#     4  10  20  35  55  84 122 157 191 246 299 356
#     4  11  22  38  63  88 126 161 193 250 299 361
#     4  10  23  43  65  87 113 158 210 252 299 354
#     4  10  23  44  68  89 111 152 214 261 291 345
#     4  10  18  31  52  80 124 158 194 232 286 360
#     4  10  21  34  54  92 127 157 191 235 302 369
#
# _framework density 21.828963999999999
#
# number of rings (size 3 to 8) (size 9 to 14) (size 15 to 20)
#    0.000    1.857    1.429    3.857    6.000    1.143 
#    0.000   10.000    0.000    2.143    0.000    0.000 
#    0.000    0.000    0.000    0.000    0.000    0.000 
#
# Total GULP energy -155943.681483 kJ/mol
# GULP energy per Si atom -5569.417196 kJ/mol
# Density = 2.177928 g / cm^3
# Si number density = 21.828964 Si / 1000 Ang^3
#
#
#
# Elastic Constant Matrix: (Units=GPa)
#
#
# Indices 1 2 3 4 5 6 
#
# 1 137.3642 15.0254 68.3641 0.0003 34.4643 -0.0001
# 2 15.0254 12.5255 22.0811 0.0004 11.0951 -0.0001
# 3 68.3641 22.0811 125.8202 0.0008 36.1073 -0.0006
# 4 0.0003 0.0004 0.0008 3.9143 -0.0002 9.1160
# 5 34.4643 11.0951 36.1073 -0.0002 61.1939 0.0002
# 6 -0.0001 -0.0001 -0.0006 9.1160 0.0002 12.1644
#
#
#
# Elastic Compliance Matrix: (Units=1/GPa)
#
#
# Indices 1 2 3 4 5 6 
#
# 1 0.010465 -0.002089 -0.004499 -0.000001 -0.002861 0.000000
# 2 -0.002089 0.122296 -0.017217 0.000011 -0.010838 -0.000008
# 3 -0.004499 -0.017217 0.014194 0.000003 -0.002720 -0.000002
# 4 -0.000001 0.000011 0.000003 -0.342796 -0.000005 0.256891
# 5 -0.002861 -0.010838 -0.002720 -0.000005 0.021523 0.000004
# 6 0.000000 -0.000008 -0.000002 0.256891 0.000004 -0.110307
#
#
# Mechanical properties :
#
#
# Convention : Reuss Voigt Hill
#
# Bulk Modulus (GPa) = 10.06589 54.07234 32.06912
# Shear Modulus (GPa) = -24.52176 26.80381 1.14103
#
# Velocity S-wave (km/s) = -3.35529 3.50794 0.72377
# Velocity P-wave (km/s) = 3.22325 6.42123 3.92701
#
# Compressibility (1/GPa) = 0.09934538
#
# Stress axis : x y z
#
# Youngs Moduli (GPa) = 95.55604 8.17689 70.45097
#
# Poissons Ratio (x) = 0.01708 0.31693
# Poissons Ratio (y) = 0.19964 1.21296
# Poissons Ratio (z) = 0.42986 0.14078
#
# Static dielectric constant tensor:
#      x y z
#    x 1.817930 0.000000 -0.000400 
#    y 0.000000 1.908760 0.000000 
#    z -0.000400 0.000000 1.853170 
# 
# From -- ./inp_files/301668.got.cif
#   From: 2010.05.17/outbox.cif.g08.bks.cpg/sg12_151_cif.got.tgz:301668.got - 2010.06.03 13:09:07.
