data_PCOD9174329
_publ_section_title
;
Structure prediction by ZEFSAII (Michael W. Deem and Ramdas Pophale) SiO2 
 PCOD9174329
Probable space group: C 2/M
;
_chemical_formula_sum "Si O2"
_cell_formula_units_Z 36
_cell_length_a 18.126716
_cell_length_b 13.966216
_cell_length_c 12.318567
_cell_angle_alpha 90.000000
_cell_angle_beta 134.055934
_cell_angle_gamma 90.000000
_cell_volume 2241.208905
_symmetry_space_group_name_H-M "C 2/M"
_symmetry_group_IT_number 12
_symmetry_cell_setting 'monoclinic'
loop_
_space_group_symop_operation_xyz
x,y,z
-x,y,-z
-x,-y,-z
x,-y,z
1/2+x,1/2+y,z
1/2-x,1/2+y,-z
1/2-x,1/2-y,-z
1/2+x,1/2-y,z
loop_
_atom_site_type_symbol
_atom_site_label
_atom_site_fract_x
_atom_site_fract_y
_atom_site_fract_z
Si Si1 0.500000 0.748625 0.500000
Si Si2 0.717137 0.608201 0.516370
Si Si3 0.026933 0.890128 0.725983
Si Si4 0.785552 0.301414 0.364435
Si Si5 0.397065 0.384710 0.960785
O O1 0.461130 0.680305 0.362649
O O2 0.401712 0.806669 0.440795
O O3 0.743743 0.500000 0.576470
O O4 0.594467 0.610747 0.369408
O O5 0.771861 0.638235 0.460987
O O6 0.736058 0.690884 0.623811
O O7 0.053242 0.000000 0.723505
O O8 0.086912 0.861941 0.896057
O O9 0.702062 0.337167 0.193556
O O10 0.388121 0.500000 0.942340
O O11 0.500000 0.356939 0.000000
#
# Coordination Sequence:
#
# PCOD9174329 Si02
#       5
#     4   8   8   8   8
#     4  10  21  32  45  76 108 138 160 188 256 316
#     4   9  17  32  53  76  98 130 174 211 243 285
#     4   9  17  31  53  76  99 126 167 218 252 281
#     4  10  19  31  51  78 102 133 164 206 251 298
#     4  10  18  31  54  80  98 123 169 220 252 278
#
# _framework density 16.062759
#
# number of rings (size 3 to 8) (size 9 to 14) (size 15 to 20)
#    0.000    2.444    2.222    1.000    0.000    1.778 
#    0.000    2.222    0.000    0.667    0.000    0.000 
#    0.000    0.000    0.000    0.000    0.000    0.000 
#
# Total GULP energy -100333.429360 kJ/mol
# GULP energy per Si atom -5574.079409 kJ/mol
# Density = 1.602620 g / cm^3
# Si number density = 16.062759 Si / 1000 Ang^3
#
#
#
# Elastic Constant Matrix: (Units=GPa)
#
#
# Indices 1 2 3 4 5 6 
#
# 1 66.9612 8.8949 16.9316 0.0000 2.5222 0.0000
# 2 8.8949 46.1765 24.5575 0.0000 -2.0888 0.0000
# 3 16.9316 24.5575 96.2853 0.0000 -9.0585 0.0000
# 4 0.0000 0.0000 0.0000 22.5259 0.0000 2.3725
# 5 2.5222 -2.0888 -9.0585 0.0000 15.2939 0.0000
# 6 0.0000 0.0000 0.0000 2.3725 0.0000 9.4406
#
#
#
# Elastic Compliance Matrix: (Units=1/GPa)
#
#
# Indices 1 2 3 4 5 6 
#
# 1 0.016051 -0.001815 -0.002787 0.000000 -0.004546 0.000000
# 2 -0.001815 0.025262 -0.006112 0.000000 0.000130 0.000000
# 3 -0.002787 -0.006112 0.013131 0.000000 0.007402 0.000000
# 4 0.000000 0.000000 0.000000 0.045600 0.000000 -0.011460
# 5 -0.004546 0.000130 0.007402 0.000000 0.070537 0.000000
# 6 0.000000 0.000000 0.000000 -0.011460 0.000000 0.108806
#
#
# Mechanical properties :
#
#
# Convention : Reuss Voigt Hill
#
# Bulk Modulus (GPa) = 30.28842 34.46565 32.37703
# Shear Modulus (GPa) = 16.03481 20.05466 18.04474
#
# Velocity S-wave (km/s) = 3.16295 3.53727 3.35534
# Velocity P-wave (km/s) = 5.67770 6.17952 5.93392
#
# Compressibility (1/GPa) = 0.03301592
#
# Stress axis : x y z
#
# Youngs Moduli (GPa) = 62.30080 39.58542 76.15487
#
# Poissons Ratio (x) = 0.07186 0.21226
# Poissons Ratio (y) = 0.11309 0.46543
# Poissons Ratio (z) = 0.17365 0.24193
#
# Static dielectric constant tensor:
#      x y z
#    x 1.544610 0.000000 -0.011560 
#    y 0.000000 1.544260 0.000000 
#    z -0.011560 0.000000 1.514780 
# 
# From -- ./inp_files/141720.got.cif
#   From: 2010.05.17/outbox.cif.g08.bks.cpg/sg12_71_cif.got.tgz:141720.got - 2010.06.03 13:09:07.
