data_PCOD9174734
_publ_section_title
;
Structure prediction by ZEFSAII (Michael W. Deem and Ramdas Pophale) SiO2 
 PCOD9174734
Probable space group: C 2/M
;
_chemical_formula_sum "Si O2"
_cell_formula_units_Z 56
_cell_length_a 29.754581
_cell_length_b 8.646919
_cell_length_c 14.820874
_cell_angle_alpha 90.000000
_cell_angle_beta 120.938716
_cell_angle_gamma 90.000000
_cell_volume 3270.645066
_symmetry_space_group_name_H-M "C 2/M"
_symmetry_group_IT_number 12
_symmetry_cell_setting 'monoclinic'
loop_
_space_group_symop_operation_xyz
x,y,z
-x,y,-z
-x,-y,-z
x,-y,z
1/2+x,1/2+y,z
1/2-x,1/2+y,-z
1/2-x,1/2-y,-z
1/2+x,1/2-y,z
loop_
_atom_site_type_symbol
_atom_site_label
_atom_site_fract_x
_atom_site_fract_y
_atom_site_fract_z
Si Si1 0.467430 0.820006 0.710883
Si Si2 0.424650 0.675357 0.175048
Si Si3 0.245672 0.185099 0.097419
Si Si4 0.138603 0.182223 0.073922
Si Si5 0.055561 0.687305 0.511901
Si Si6 0.449373 0.313213 0.888607
Si Si7 0.851859 0.819420 0.270719
O O1 0.529585 0.795855 0.761475
O O2 0.442860 0.763830 0.591336
O O3 0.453804 0.734875 0.789454
O O4 0.455092 0.000000 0.708840
O O5 0.446387 0.500000 0.205922
O O6 0.378957 0.691400 0.200400
O O7 0.400445 0.691144 0.051487
O O8 0.194048 0.246085 0.096669
O O9 0.297346 0.230259 0.206348
O O10 0.241138 0.000000 0.084560
O O11 0.250000 0.250000 0.000000
O O12 0.104558 0.245998 0.121638
O O13 0.147837 0.000000 0.102473
O O14 0.056400 0.500000 0.515815
O O15 0.105065 0.752328 0.616748
O O16 0.000000 0.736537 0.500000
O O17 0.449360 0.500000 0.893906
O O18 0.500000 0.260893 0.000000
O O19 0.842425 0.000000 0.280097
#
# Coordination Sequence:
#
# PCOD9174734 Si02
#       7
#     8   8   8   8   8   8   8
#     4  11  22  34  51  79 112 141 176 220 269 319
#     4  10  18  32  52  76 109 143 180 215 254 317
#     4  11  21  35  55  80 112 146 181 221 268 321
#     4   9  18  34  53  76 107 145 182 213 256 319
#     4  10  21  37  54  76 109 146 178 216 273 330
#     4  10  19  34  56  77 104 144 181 217 262 316
#     4  11  22  35  54  81 110 142 183 225 266 317
#
# _framework density 17.122005000000001
#
# number of rings (size 3 to 8) (size 9 to 14) (size 15 to 20)
#    0.000    1.714    4.286    1.286    0.000    2.286 
#    0.000    1.429    0.000    0.857    0.000    0.000 
#    0.000    0.000    0.000    0.000    0.000    0.000 
#
# Total GULP energy -156162.965603 kJ/mol
# GULP energy per Si atom -5577.248772 kJ/mol
# Density = 1.708303 g / cm^3
# Si number density = 17.122005 Si / 1000 Ang^3
#
#
#
# Elastic Constant Matrix: (Units=GPa)
#
#
# Indices 1 2 3 4 5 6 
#
# 1 96.4981 22.8684 40.8559 0.0000 -0.1055 0.0000
# 2 22.8684 20.1366 14.5014 0.0000 -1.8298 0.0000
# 3 40.8559 14.5014 69.6377 0.0000 -3.0307 0.0000
# 4 0.0000 0.0000 0.0000 21.7394 0.0000 0.0083
# 5 -0.1055 -1.8298 -3.0307 0.0000 29.0805 0.0000
# 6 0.0000 0.0000 0.0000 0.0083 0.0000 20.9805
#
#
#
# Elastic Compliance Matrix: (Units=1/GPa)
#
#
# Indices 1 2 3 4 5 6 
#
# 1 0.016603 -0.014037 -0.006885 0.000000 -0.001541 0.000000
# 2 -0.014037 0.070460 -0.006275 0.000000 0.003729 0.000000
# 3 -0.006885 -0.006275 0.019777 0.000000 0.001641 0.000000
# 4 0.000000 0.000000 0.000000 0.045999 0.000000 -0.000018
# 5 -0.001541 0.003729 0.001641 0.000000 0.034787 0.000000
# 6 0.000000 0.000000 0.000000 -0.000018 0.000000 0.047663
#
#
# Mechanical properties :
#
#
# Convention : Reuss Voigt Hill
#
# Bulk Modulus (GPa) = 19.06692 38.08041 28.57366
# Shear Modulus (GPa) = 16.27786 21.56318 18.92052
#
# Velocity S-wave (km/s) = 3.08668 3.55263 3.32782
# Velocity P-wave (km/s) = 4.88504 6.25437 5.61163
#
# Compressibility (1/GPa) = 0.05244686
#
# Stress axis : x y z
#
# Youngs Moduli (GPa) = 60.23150 14.19242 50.56301
#
# Poissons Ratio (x) = 0.19922 0.34810
# Poissons Ratio (y) = 0.84548 0.31728
# Poissons Ratio (z) = 0.41467 0.08906
#
# Static dielectric constant tensor:
#      x y z
#    x 1.598240 0.000000 -0.000840 
#    y 0.000000 1.593000 0.000000 
#    z -0.000840 0.000000 1.565450 
# 
# From -- ./inp_files/187695.got.cif
#   From: 2010.05.17/outbox.cif.g08.bks.cpg/sg12_94_cif.got.tgz:187695.got - 2010.06.03 13:09:07.
