data_PCOD9174429
_publ_section_title
;
Structure prediction by ZEFSAII (Michael W. Deem and Ramdas Pophale) SiO2 
 PCOD9174429
Probable space group: C 2/M
;
_chemical_formula_sum "Si O2"
_cell_formula_units_Z 56
_cell_length_a 19.669695
_cell_length_b 11.293011
_cell_length_c 14.926714
_cell_angle_alpha 90.000000
_cell_angle_beta 116.393157
_cell_angle_gamma 90.000000
_cell_volume 2970.062641
_symmetry_space_group_name_H-M "C 2/M"
_symmetry_group_IT_number 12
_symmetry_cell_setting 'monoclinic'
loop_
_space_group_symop_operation_xyz
x,y,z
-x,y,-z
-x,-y,-z
x,-y,z
1/2+x,1/2+y,z
1/2-x,1/2+y,-z
1/2-x,1/2-y,-z
1/2+x,1/2-y,z
loop_
_atom_site_type_symbol
_atom_site_label
_atom_site_fract_x
_atom_site_fract_y
_atom_site_fract_z
Si Si1 0.875135 0.359892 0.642427
Si Si2 0.171570 0.714913 0.756293
Si Si3 0.914053 0.642035 0.470834
Si Si4 0.547173 0.137184 0.810074
Si Si5 0.807049 0.639870 0.781659
Si Si6 0.080472 0.761287 0.011177
Si Si7 0.725181 0.372666 0.034264
O O1 0.858062 0.500000 0.623388
O O2 0.880695 0.310111 0.545180
O O3 0.819213 0.313820 0.686937
O O4 0.959619 0.348828 0.733101
O O5 0.139695 0.668032 0.644238
O O6 0.099402 0.721111 0.779630
O O7 0.223428 0.828731 0.767887
O O8 0.229297 0.631883 0.845525
O O9 0.920727 0.500000 0.484907
O O10 0.000000 0.685167 0.500000
O O11 0.562448 0.167584 0.921903
O O12 0.567363 0.000000 0.802528
O O13 0.820029 0.500000 0.790233
O O14 0.869644 0.699856 0.882197
O O15 0.136363 0.858451 0.001842
O O16 0.000000 0.805377 0.000000
O O17 0.742079 0.500000 0.999531
O O18 0.750000 0.250000 0.000000
#
# Coordination Sequence:
#
# PCOD9174429 Si02
#       7
#     8   8   8   8   8   8   8
#     4   9  18  32  54  82 112 142 188 243 288 337
#     4  11  22  35  55  84 115 148 185 239 296 347
#     4  10  18  31  55  85 110 138 180 238 299 345
#     4  11  19  32  55  86 117 145 188 243 291 343
#     4  10  22  37  53  81 117 154 195 238 287 348
#     4  11  22  36  58  85 114 155 193 233 290 347
#     4  11  24  40  59  86 122 159 195 240 292 353
#
# _framework density 18.85482
#
# number of rings (size 3 to 8) (size 9 to 14) (size 15 to 20)
#    0.000    1.571    4.286    1.714    0.000    3.714 
#    0.000    0.000    0.000    0.429    0.000    0.000 
#    0.000    0.000    0.000    0.000    0.000    0.000 
#
# Total GULP energy -156055.661224 kJ/mol
# GULP energy per Si atom -5573.416472 kJ/mol
# Density = 1.881191 g / cm^3
# Si number density = 18.854820 Si / 1000 Ang^3
#
#
#
# Elastic Constant Matrix: (Units=GPa)
#
#
# Indices 1 2 3 4 5 6 
#
# 1 88.4244 20.5241 13.7669 0.0000 -8.7899 0.0000
# 2 20.5241 56.3934 16.3610 0.0000 -3.6748 0.0000
# 3 13.7669 16.3610 105.5160 0.0000 -20.4162 0.0000
# 4 0.0000 0.0000 0.0000 12.0845 0.0000 -3.4011
# 5 -8.7899 -3.6748 -20.4162 0.0000 28.5978 0.0000
# 6 0.0000 0.0000 0.0000 -3.4011 0.0000 19.8808
#
#
#
# Elastic Compliance Matrix: (Units=1/GPa)
#
#
# Indices 1 2 3 4 5 6 
#
# 1 0.012672 -0.004298 -0.000395 0.000000 0.003061 0.000000
# 2 -0.004298 0.020029 -0.002672 0.000000 -0.000655 0.000000
# 3 -0.000395 -0.002672 0.011432 0.000000 0.007697 0.000000
# 4 0.000000 0.000000 0.000000 0.086937 0.000000 0.014873
# 5 0.003061 -0.000655 0.007697 0.000000 0.041319 0.000000
# 6 0.000000 0.000000 0.000000 0.014873 0.000000 0.052844
#
#
# Mechanical properties :
#
#
# Convention : Reuss Voigt Hill
#
# Bulk Modulus (GPa) = 34.00749 39.07087 36.53918
# Shear Modulus (GPa) = 20.01883 25.42472 22.72178
#
# Velocity S-wave (km/s) = 3.26196 3.67610 3.47521
# Velocity P-wave (km/s) = 5.68004 6.22778 5.96021
#
# Compressibility (1/GPa) = 0.02940528
#
# Stress axis : x y z
#
# Youngs Moduli (GPa) = 78.91134 49.92693 87.47176
#
# Poissons Ratio (x) = 0.21459 0.03452
# Poissons Ratio (y) = 0.33917 0.23369
# Poissons Ratio (z) = 0.03115 0.13338
#
# Static dielectric constant tensor:
#      x y z
#    x 1.703150 0.000000 -0.035620 
#    y 0.000000 1.645010 0.000000 
#    z -0.035620 0.000000 1.669560 
# 
# From -- ./inp_files/223365.got.cif
#   From: 2010.05.17/outbox.cif.g08.bks.cpg/sg12_112_cif.got.tgz:223365.got - 2010.06.03 13:09:07.
