data_PCOD9174053
_publ_section_title
;
Structure prediction by ZEFSAII (Michael W. Deem and Ramdas Pophale) SiO2 
 PCOD9174053
Probable space group: C 2/M
;
_chemical_formula_sum "Si O2"
_cell_formula_units_Z 64
_cell_length_a 20.587681
_cell_length_b 7.643804
_cell_length_c 24.219646
_cell_angle_alpha 90.000000
_cell_angle_beta 130.862490
_cell_angle_gamma 90.000000
_cell_volume 2882.494573
_symmetry_space_group_name_H-M "C 2/M"
_symmetry_group_IT_number 12
_symmetry_cell_setting 'monoclinic'
loop_
_space_group_symop_operation_xyz
x,y,z
-x,y,-z
-x,-y,-z
x,-y,z
1/2+x,1/2+y,z
1/2-x,1/2+y,-z
1/2-x,1/2-y,-z
1/2+x,1/2-y,z
loop_
_atom_site_type_symbol
_atom_site_label
_atom_site_fract_x
_atom_site_fract_y
_atom_site_fract_z
Si Si1 0.669968 0.789515 0.416798
Si Si2 0.983279 0.709921 0.319312
Si Si3 0.797845 0.209582 0.263775
Si Si4 0.362697 0.207525 0.898246
Si Si5 0.910866 0.714441 0.164968
Si Si6 0.727373 0.293471 0.050214
Si Si7 0.811642 0.711205 0.698166
Si Si8 0.477488 0.210421 0.868483
O O1 0.750000 0.750000 0.500000
O O2 0.577682 0.726742 0.389086
O O3 0.683395 0.722359 0.361535
O O4 0.664210 0.000000 0.409841
O O5 0.985133 0.500000 0.320264
O O6 0.896028 0.754292 0.302863
O O7 0.971001 0.766602 0.248734
O O8 0.724370 0.276830 0.180117
O O9 0.767097 0.272308 0.307138
O O10 0.789298 0.000000 0.258604
O O11 0.352058 0.228172 0.957861
O O12 0.444119 0.277453 0.909018
O O13 0.365189 0.000000 0.890450
O O14 0.910071 0.500000 0.162657
O O15 0.815616 0.774780 0.126905
O O16 0.942336 0.778296 0.122608
O O17 0.723133 0.500000 0.052303
O O18 0.750000 0.250000 0.000000
O O19 0.805670 0.500000 0.690856
O O20 0.897351 0.742093 0.782053
O O21 0.490225 0.000000 0.879974
#
# Coordination Sequence:
#
# PCOD9174053 Si02
#       8
#     8   8   8   8   8   8   8   8
#     4  10  20  34  53  74 102 136 170 209 253 300
#     4  10  18  31  52  77 101 129 168 211 252 293
#     4   9  17  29  50  78 103 126 160 207 252 296
#     4   9  17  30  51  78 103 126 158 205 256 298
#     4   9  16  29  51  77  98 124 168 211 245 287
#     4  11  22  35  52  73 103 138 169 203 247 302
#     4   8  14  28  49  73  99 130 164 202 249 295
#     4   8  13  26  51  78  98 120 163 214 247 285
#
# _framework density 22.202991000000001
#
# number of rings (size 3 to 8) (size 9 to 14) (size 15 to 20)
#    0.000    2.750    2.500    1.875    0.000    0.500 
#    0.000    1.875    0.000   10.500    0.000    0.000 
#    0.000    0.000    0.000    0.000    0.000    0.000 
#
# Total GULP energy -178391.358787 kJ/mol
# GULP energy per Si atom -5574.729962 kJ/mol
# Density = 2.215246 g / cm^3
# Si number density = 22.202991 Si / 1000 Ang^3
#
#
#
# Elastic Constant Matrix: (Units=GPa)
#
#
# Indices 1 2 3 4 5 6 
#
# 1 194.1408 3.9913 24.8307 0.0000 -4.6792 0.0000
# 2 3.9913 41.9925 -2.5444 0.0000 0.0219 0.0000
# 3 24.8307 -2.5444 45.6942 0.0000 2.0068 0.0000
# 4 0.0000 0.0000 0.0000 9.8144 0.0000 -0.1788
# 5 -4.6792 0.0219 2.0068 0.0000 30.2403 0.0000
# 6 0.0000 0.0000 0.0000 -0.1788 0.0000 16.1960
#
#
#
# Elastic Compliance Matrix: (Units=1/GPa)
#
#
# Indices 1 2 3 4 5 6 
#
# 1 0.005591 -0.000721 -0.003126 0.000000 0.001073 0.000000
# 2 -0.000721 0.023988 0.001738 0.000000 -0.000244 0.000000
# 3 -0.003126 0.001738 0.023771 0.000000 -0.002062 0.000000
# 4 0.000000 0.000000 0.000000 0.101912 0.000000 0.001125
# 5 0.001073 -0.000244 -0.002062 0.000000 0.033372 0.000000
# 6 0.000000 0.000000 0.000000 0.001125 0.000000 0.061756
#
#
# Mechanical properties :
#
#
# Convention : Reuss Voigt Hill
#
# Bulk Modulus (GPa) = 20.35317 37.15365 28.75341
# Shear Modulus (GPa) = 18.45127 28.28679 23.36903
#
# Velocity S-wave (km/s) = 2.88588 3.57320 3.24777
# Velocity P-wave (km/s) = 4.50457 5.81323 5.20023
#
# Compressibility (1/GPa) = 0.04913239
#
# Stress axis : x y z
#
# Youngs Moduli (GPa) = 178.84687 41.68788 42.06892
#
# Poissons Ratio (x) = 0.03007 0.13150
# Poissons Ratio (y) = 0.12902 -0.07314
# Poissons Ratio (z) = 0.55902 -0.07247
#
# Static dielectric constant tensor:
#      x y z
#    x 1.832100 0.000000 0.014150 
#    y 0.000000 1.837920 0.000000 
#    z 0.014150 0.000000 1.838930 
# 
# From -- ./inp_files/346233.got.cif
#   From: 2010.05.17/outbox.cif.g08.bks.cpg/sg12_174_cif.got.tgz:346233.got - 2010.06.03 13:09:07.
