data_PCOD9174076
_publ_section_title
;
Structure prediction by ZEFSAII (Michael W. Deem and Ramdas Pophale) SiO2 
 PCOD9174076
Probable space group: C 2/M
;
_chemical_formula_sum "Si O2"
_cell_formula_units_Z 64
_cell_length_a 17.301785
_cell_length_b 16.175462
_cell_length_c 24.023585
_cell_angle_alpha 90.000000
_cell_angle_beta 31.771846
_cell_angle_gamma 90.000000
_cell_volume 3540.097580
_symmetry_space_group_name_H-M "C 2/M"
_symmetry_group_IT_number 12
_symmetry_cell_setting 'monoclinic'
loop_
_space_group_symop_operation_xyz
x,y,z
-x,y,-z
-x,-y,-z
x,-y,z
1/2+x,1/2+y,z
1/2-x,1/2+y,-z
1/2-x,1/2-y,-z
1/2+x,1/2-y,z
loop_
_atom_site_type_symbol
_atom_site_label
_atom_site_fract_x
_atom_site_fract_y
_atom_site_fract_z
Si Si1 0.330078 0.097227 0.121954
Si Si2 0.413879 0.402406 0.814712
Si Si3 0.336174 0.256233 0.579568
Si Si4 0.741263 0.404163 0.573651
Si Si5 0.802244 0.595303 0.405577
Si Si6 0.644359 0.684082 0.035085
Si Si7 0.078490 0.403626 0.163874
Si Si8 0.394643 0.798823 0.186328
O O1 0.221912 0.128698 0.139612
O O2 0.316362 0.149056 0.186516
O O3 0.296674 0.000000 0.152402
O O4 0.500000 0.102355 0.000000
O O5 0.392143 0.500000 0.833245
O O6 0.567837 0.387817 0.689676
O O7 0.416038 0.366722 0.875191
O O8 0.500000 0.269104 0.500000
O O9 0.322366 0.168232 0.557195
O O10 0.288819 0.333009 0.569221
O O11 0.222698 0.258178 0.700563
O O12 0.769749 0.500000 0.573816
O O13 0.780757 0.398083 0.484536
O O14 0.762070 0.500000 0.413798
O O15 0.970475 0.607245 0.282464
O O16 0.507570 0.731553 0.092274
O O17 0.750000 0.750000 0.000000
O O18 0.758237 0.632021 0.928793
O O19 0.089345 0.500000 0.143823
O O20 0.994871 0.358747 0.163821
#
# Coordination Sequence:
#
# PCOD9174076 Si02
#       8
#     8   8   8   8   8   8   8   8
#     4  10  20  34  53  80 115 149 182 224 284 350
#     4  10  20  34  56  81 107 145 188 232 280 331
#     4  11  23  38  57  85 115 151 190 235 288 340
#     4  10  21  40  61  81 110 148 196 241 279 330
#     4   9  20  38  59  86 117 148 183 231 288 345
#     4  10  18  31  52  77 110 145 182 224 269 328
#     4   9  17  31  53  79 108 143 182 223 273 332
#     4  10  20  34  49  78 117 145 181 226 279 333
#
# _framework density 18.078596999999998
#
# number of rings (size 3 to 8) (size 9 to 14) (size 15 to 20)
#    0.000    2.125    1.250    2.625    1.750    2.000 
#    0.000    0.000    0.000    0.000    0.000    0.000 
#    0.000   22.500    0.000    0.000    0.000    0.000 
#
# Total GULP energy -178447.329381 kJ/mol
# GULP energy per Si atom -5576.479043 kJ/mol
# Density = 1.803745 g / cm^3
# Si number density = 18.078597 Si / 1000 Ang^3
#
#
#
# Elastic Constant Matrix: (Units=GPa)
#
#
# Indices 1 2 3 4 5 6 
#
# 1 37.2619 37.1174 22.6272 -0.0002 -0.0197 -0.0002
# 2 37.1174 84.6452 61.1363 0.0000 -2.9914 0.0003
# 3 22.6272 61.1363 90.5795 0.0000 -2.1289 0.0000
# 4 -0.0002 0.0000 0.0000 30.0281 0.0002 4.1527
# 5 -0.0197 -2.9914 -2.1289 0.0002 19.8742 -0.0001
# 6 -0.0002 0.0003 0.0000 4.1527 -0.0001 36.6663
#
#
#
# Elastic Compliance Matrix: (Units=1/GPa)
#
#
# Indices 1 2 3 4 5 6 
#
# 1 0.048723 -0.024649 0.004391 0.000000 -0.003192 0.000000
# 2 -0.024649 0.035587 -0.017781 0.000000 0.003427 0.000000
# 3 0.004391 -0.017781 0.021937 0.000000 -0.000322 0.000000
# 4 0.000000 0.000000 0.000000 0.033832 0.000000 -0.003832
# 5 -0.003192 0.003427 -0.000322 0.000000 0.050795 0.000000
# 6 0.000000 0.000000 0.000000 -0.003832 0.000000 0.027707
#
#
# Mechanical properties :
#
#
# Convention : Reuss Voigt Hill
#
# Bulk Modulus (GPa) = 33.14862 50.47205 41.81034
# Shear Modulus (GPa) = 16.40879 23.42077 19.91478
#
# Velocity S-wave (km/s) = 3.01597 3.60321 3.32259
# Velocity P-wave (km/s) = 5.52302 6.72975 6.15602
#
# Compressibility (1/GPa) = 0.03016717
#
# Stress axis : x y z
#
# Youngs Moduli (GPa) = 20.52426 28.10047 45.58546
#
# Poissons Ratio (x) = 0.69266 -0.20015
# Poissons Ratio (y) = 0.50591 0.81055
# Poissons Ratio (z) = -0.09012 0.49965
#
# Static dielectric constant tensor:
#      x y z
#    x 1.590500 0.000000 0.008280 
#    y 0.000000 1.602470 0.000000 
#    z 0.008280 0.000000 1.641780 
# 
# From -- ./inp_files/344010.got.cif
#   From: 2010.05.17/outbox.cif.g08.bks.cpg/sg12_173_cif.got.tgz:344010.got - 2010.06.03 13:09:07.
