data_PCOD9174501
_publ_section_title
;
Structure prediction by ZEFSAII (Michael W. Deem and Ramdas Pophale) SiO2 
 PCOD9174501
Probable space group: C 2/M
;
_chemical_formula_sum "Si O2"
_cell_formula_units_Z 60
_cell_length_a 13.207594
_cell_length_b 22.508880
_cell_length_c 25.874447
_cell_angle_alpha 90.000000
_cell_angle_beta 156.507448
_cell_angle_gamma 90.000000
_cell_volume 3066.327193
_symmetry_space_group_name_H-M "C 2/M"
_symmetry_group_IT_number 12
_symmetry_cell_setting 'monoclinic'
loop_
_space_group_symop_operation_xyz
x,y,z
-x,y,-z
-x,-y,-z
x,-y,z
1/2+x,1/2+y,z
1/2-x,1/2+y,-z
1/2-x,1/2-y,-z
1/2+x,1/2-y,z
loop_
_atom_site_type_symbol
_atom_site_label
_atom_site_fract_x
_atom_site_fract_y
_atom_site_fract_z
Si Si1 0.000000 0.742275 0.500000
Si Si2 0.936298 0.566855 0.121481
Si Si3 0.712088 0.933395 0.139952
Si Si4 0.400224 0.664211 0.079386
Si Si5 0.012000 0.829161 0.248448
Si Si6 0.954636 0.928690 0.417180
Si Si7 0.631965 0.773570 0.139638
Si Si8 0.947525 0.804945 0.579599
O O1 0.755184 0.700760 0.387226
O O2 0.045747 0.783522 0.570223
O O3 0.854529 0.500000 0.094994
O O4 0.087328 0.566458 0.137475
O O5 0.156473 0.584104 0.264925
O O6 0.695415 0.607982 0.997708
O O7 0.948322 0.890928 0.245812
O O8 0.777228 0.000000 0.155061
O O9 0.500000 0.911426 0.000000
O O10 0.536307 0.658480 0.198774
O O11 0.572756 0.705551 0.124300
O O12 0.133381 0.694647 0.971696
O O13 0.770502 0.787458 0.150507
O O14 0.105500 0.875931 0.456124
O O15 0.000000 0.923946 0.500000
O O16 0.998275 0.000000 0.423404
O O17 0.832788 0.798440 0.275383
O O18 0.750000 0.750000 0.500000
#
# Coordination Sequence:
#
# PCOD9174501 Si02
#       8
#     4   8   8   8   8   8   8   8
#     4  12  26  36  58  86 118 166 212 252 310 374
#     4  10  19  34  58  88 120 154 196 249 302 363
#     4  10  18  31  57  87 115 152 198 246 298 362
#     4  11  21  34  57  86 121 150 192 248 306 365
#     4  12  21  38  54  83 120 159 198 254 303 361
#     4  10  21  38  61  90 121 157 208 265 311 363
#     4  11  22  35  56  85 118 151 196 248 305 361
#     4  12  22  40  62  86 125 163 205 260 317 369
#
# _framework density 19.567384000000001
#
# number of rings (size 3 to 8) (size 9 to 14) (size 15 to 20)
#    0.000    1.067    7.333    0.400    0.000    0.000 
#    0.000    0.333    0.000    1.600    0.000    0.000 
#    0.000    8.267    0.000    0.000    0.000    0.000 
#
# Total GULP energy -167117.980352 kJ/mol
# GULP energy per Si atom -5570.599345 kJ/mol
# Density = 1.952285 g / cm^3
# Si number density = 19.567384 Si / 1000 Ang^3
#
#
#
# Elastic Constant Matrix: (Units=GPa)
#
#
# Indices 1 2 3 4 5 6 
#
# 1 37.5383 27.0113 16.0281 -0.0018 -7.4934 0.0000
# 2 27.0113 140.2958 29.3547 -0.0041 5.8216 0.0012
# 3 16.0281 29.3547 78.0431 -0.0040 -20.2293 0.0041
# 4 -0.0018 -0.0041 -0.0040 28.1876 0.0032 -1.8346
# 5 -7.4934 5.8216 -20.2293 0.0032 32.4342 -0.0003
# 6 0.0000 0.0012 0.0041 -1.8346 -0.0003 18.1586
#
#
#
# Elastic Compliance Matrix: (Units=1/GPa)
#
#
# Indices 1 2 3 4 5 6 
#
# 1 0.033716 -0.006223 -0.002714 0.000000 0.007214 0.000001
# 2 -0.006223 0.009304 -0.003611 0.000001 -0.005360 0.000000
# 3 -0.002714 -0.003611 0.017576 0.000000 0.010983 -0.000004
# 4 0.000000 0.000001 0.000000 0.035711 -0.000004 0.003608
# 5 0.007214 -0.005360 0.010983 -0.000004 0.040311 -0.000002
# 6 0.000001 0.000000 -0.000004 0.003608 -0.000002 0.055435
#
#
# Mechanical properties :
#
#
# Convention : Reuss Voigt Hill
#
# Bulk Modulus (GPa) = 28.16849 44.51837 36.34343
# Shear Modulus (GPa) = 21.83587 27.98828 24.91208
#
# Velocity S-wave (km/s) = 3.34418 3.78610 3.57198
# Velocity P-wave (km/s) = 5.41648 6.47406 5.96874
#
# Compressibility (1/GPa) = 0.03550066
#
# Stress axis : x y z
#
# Youngs Moduli (GPa) = 29.65947 107.48318 56.89636
#
# Poissons Ratio (x) = 0.66886 0.15441
# Poissons Ratio (y) = 0.18457 0.20544
# Poissons Ratio (z) = 0.08049 0.38809
#
# Static dielectric constant tensor:
#      x y z
#    x 1.695820 0.000000 -0.009480 
#    y 0.000000 1.781780 -0.000020 
#    z -0.009480 -0.000020 1.741330 
# 
# From -- ./inp_files/362268.got.cif
#   From: 2010.05.17/outbox.cif.g08.bks.cpg/sg12_182_cif.got.tgz:362268.got - 2010.06.03 13:09:07.
