data_PCOD9174421
_publ_section_title
;
Structure prediction by ZEFSAII (Michael W. Deem and Ramdas Pophale) SiO2 
 PCOD9174421
Probable space group: C 2/M
;
_chemical_formula_sum "Si O2"
_cell_formula_units_Z 56
_cell_length_a 20.413382
_cell_length_b 8.791284
_cell_length_c 18.547943
_cell_angle_alpha 90.000000
_cell_angle_beta 85.043378
_cell_angle_gamma 90.000000
_cell_volume 3316.163174
_symmetry_space_group_name_H-M "C 2/M"
_symmetry_group_IT_number 12
_symmetry_cell_setting 'monoclinic'
loop_
_space_group_symop_operation_xyz
x,y,z
-x,y,-z
-x,-y,-z
x,-y,z
1/2+x,1/2+y,z
1/2-x,1/2+y,-z
1/2-x,1/2-y,-z
1/2+x,1/2-y,z
loop_
_atom_site_type_symbol
_atom_site_label
_atom_site_fract_x
_atom_site_fract_y
_atom_site_fract_z
Si Si1 0.242368 0.680011 0.282319
Si Si2 0.445051 0.315219 0.063104
Si Si3 0.726148 0.179588 0.576705
Si Si4 0.121078 0.180139 0.679237
Si Si5 0.638240 0.817095 0.172694
Si Si6 0.822348 0.182774 0.984003
Si Si7 0.501495 0.315107 0.785455
O O1 0.231481 0.500000 0.293885
O O2 0.230064 0.763494 0.359446
O O3 0.321211 0.700741 0.265660
O O4 0.197571 0.728817 0.220549
O O5 0.445525 0.500000 0.062445
O O6 0.465972 0.269625 0.141128
O O7 0.500000 0.264888 0.000000
O O8 0.373367 0.268340 0.041692
O O9 0.750000 0.250000 0.500000
O O10 0.653458 0.236712 0.607935
O O11 0.727422 0.000000 0.572178
O O12 0.051770 0.229763 0.717375
O O13 0.118042 0.000000 0.664445
O O14 0.648241 0.739709 0.094450
O O15 0.569452 0.760879 0.211781
O O16 0.639068 0.000000 0.164778
O O17 0.818990 0.000000 0.984514
O O18 0.750000 0.250000 0.000000
O O19 0.495343 0.500000 0.785578
#
# Coordination Sequence:
#
# PCOD9174421 Si02
#       7
#     8   8   8   8   8   8   8
#     4   8  18  35  52  74 105 140 176 208 253 312
#     4   9  17  33  54  73  97 137 182 217 262 319
#     4  10  18  31  55  84 112 138 171 215 260 307
#     4   8  17  33  53  78 105 139 178 214 257 310
#     4  11  22  36  53  75 107 141 172 217 271 317
#     4  11  23  37  54  75 101 134 178 226 273 323
#     4  10  19  34  56  76 101 140 182 223 261 314
#
# _framework density 16.886986
#
# number of rings (size 3 to 8) (size 9 to 14) (size 15 to 20)
#    0.857    1.571    1.429    1.714    2.000    1.714 
#    0.000    2.143    0.000    0.857    0.000    6.000 
#    0.000    0.000    0.000    0.000    0.000    0.000 
#
# Total GULP energy -155893.365541 kJ/mol
# GULP energy per Si atom -5567.620198 kJ/mol
# Density = 1.684855 g / cm^3
# Si number density = 16.886986 Si / 1000 Ang^3
#
#
#
# Elastic Constant Matrix: (Units=GPa)
#
#
# Indices 1 2 3 4 5 6 
#
# 1 72.0116 16.1905 -6.1438 0.0000 -14.2699 0.0000
# 2 16.1905 32.6232 5.6343 0.0000 -5.0043 0.0000
# 3 -6.1438 5.6343 20.8668 0.0000 -14.8921 0.0000
# 4 0.0000 0.0000 0.0000 22.3133 0.0000 -2.5952
# 5 -14.2699 -5.0043 -14.8921 0.0000 27.2176 0.0000
# 6 0.0000 0.0000 0.0000 -2.5952 0.0000 27.2451
#
#
#
# Elastic Compliance Matrix: (Units=1/GPa)
#
#
# Indices 1 2 3 4 5 6 
#
# 1 0.024879 -0.013419 0.030346 0.000000 0.027180 0.000000
# 2 -0.013419 0.039450 -0.023703 0.000000 -0.012751 0.000000
# 3 0.030346 -0.023703 0.117311 0.000000 0.075739 0.000000
# 4 0.000000 0.000000 0.000000 0.045318 0.000000 0.004317
# 5 0.027180 -0.012751 0.075739 0.000000 0.090087 0.000000
# 6 0.000000 0.000000 0.000000 0.004317 0.000000 0.037115
#
#
# Mechanical properties :
#
#
# Convention : Reuss Voigt Hill
#
# Bulk Modulus (GPa) = 5.94924 17.42930 11.68927
# Shear Modulus (GPa) = 11.79966 22.67658 17.23812
#
# Velocity S-wave (km/s) = 2.64624 3.66846 3.19845
# Velocity P-wave (km/s) = 3.58712 5.31855 4.53621
#
# Compressibility (1/GPa) = 0.16808857
#
# Stress axis : x y z
#
# Youngs Moduli (GPa) = 40.19494 25.34829 8.52438
#
# Poissons Ratio (x) = 0.34014 -0.25868
# Poissons Ratio (y) = 0.53937 0.20205
# Poissons Ratio (z) = -1.21976 0.60083
#
# Static dielectric constant tensor:
#      x y z
#    x 1.580700 0.000000 0.003290 
#    y 0.000000 1.569870 0.000000 
#    z 0.003290 0.000000 1.559270 
# 
# From -- ./inp_files/280338.got.cif
#   From: 2010.05.17/outbox.cif.g08.bks.cpg/sg12_141_cif.got.tgz:280338.got - 2010.06.03 13:09:07.
