data_PCOD9174381
_publ_section_title
;
Structure prediction by ZEFSAII (Michael W. Deem and Ramdas Pophale) SiO2 
 PCOD9174381
Probable space group: C 2/M
;
_chemical_formula_sum "Si O2"
_cell_formula_units_Z 64
_cell_length_a 19.217911
_cell_length_b 15.672757
_cell_length_c 19.417044
_cell_angle_alpha 90.000000
_cell_angle_beta 147.631106
_cell_angle_gamma 90.000000
_cell_volume 3131.031005
_symmetry_space_group_name_H-M "C 2/M"
_symmetry_group_IT_number 12
_symmetry_cell_setting 'monoclinic'
loop_
_space_group_symop_operation_xyz
x,y,z
-x,y,-z
-x,-y,-z
x,-y,z
1/2+x,1/2+y,z
1/2-x,1/2+y,-z
1/2-x,1/2-y,-z
1/2+x,1/2-y,z
loop_
_atom_site_type_symbol
_atom_site_label
_atom_site_fract_x
_atom_site_fract_y
_atom_site_fract_z
Si Si1 0.353575 0.268961 0.373813
Si Si2 0.365222 0.181518 0.918139
Si Si3 0.006051 0.401925 0.739513
Si Si4 0.813038 0.258218 0.627454
Si Si5 0.758938 0.346717 0.976178
Si Si6 0.102021 0.881463 0.028939
Si Si7 0.488188 0.406664 0.785307
Si Si8 0.389011 0.096213 0.319133
O O1 0.500000 0.305785 0.500000
O O2 0.252529 0.312768 0.235568
O O3 0.285550 0.270892 0.391589
O O4 0.374542 0.171609 0.362747
O O5 0.323337 0.142847 0.955515
O O6 0.395345 0.279063 0.965050
O O7 0.500000 0.146054 0.000000
O O8 0.961516 0.500000 0.706666
O O9 0.019209 0.378928 0.669087
O O10 0.915826 0.335695 0.705216
O O11 0.149053 0.394758 0.892763
O O12 0.750000 0.250000 0.500000
O O13 0.886060 0.169057 0.700646
O O14 0.612983 0.380337 0.845225
O O15 0.750000 0.250000 0.000000
O O16 0.245455 0.909615 0.167025
O O17 0.050653 0.909091 0.912974
O O18 0.000000 0.910016 0.000000
O O19 0.435924 0.500000 0.723100
O O20 0.423685 0.000000 0.371211
#
# Coordination Sequence:
#
# PCOD9174381 Si02
#       8
#     8   8   8   8   8   8   8   8
#     4  11  24  41  63  94 125 171 225 272 331 403
#     4  10  20  36  62  93 127 168 216 268 323 385
#     4  11  22  41  68 102 137 174 219 273 332 400
#     4  12  27  44  67  91 128 182 227 271 331 393
#     4  12  19  35  67  97 133 171 213 268 333 393
#     4  10  18  31  54  90 132 166 199 248 325 401
#     4  12  24  38  61  99 135 169 215 273 330 394
#     4  10  20  35  59  94 133 169 206 261 332 404
#
# _framework density 20.440552
#
# number of rings (size 3 to 8) (size 9 to 14) (size 15 to 20)
#    0.000    1.000    3.750    5.250    1.750    3.250 
#    0.000    0.000    0.000    7.125    0.000    0.000 
#    0.000    0.000    0.000    0.000    0.000    0.000 
#
# Total GULP energy -178695.759128 kJ/mol
# GULP energy per Si atom -5584.242473 kJ/mol
# Density = 2.039403 g / cm^3
# Si number density = 20.440552 Si / 1000 Ang^3
#
#
#
# Elastic Constant Matrix: (Units=GPa)
#
#
# Indices 1 2 3 4 5 6 
#
# 1 164.1905 19.3955 36.0524 -0.0001 6.4788 0.0000
# 2 19.3955 61.0199 6.1395 -0.0002 10.5358 0.0000
# 3 36.0524 6.1395 97.0722 -0.0003 0.9486 -0.0002
# 4 -0.0001 -0.0002 -0.0003 -10.9793 -0.0003 -6.5393
# 5 6.4788 10.5358 0.9486 -0.0003 34.1892 -0.0002
# 6 0.0000 0.0000 -0.0002 -6.5393 -0.0002 -13.1392
#
#
#
# Elastic Compliance Matrix: (Units=1/GPa)
#
#
# Indices 1 2 3 4 5 6 
#
# 1 0.006865 -0.001822 -0.002428 0.000000 -0.000672 0.000000
# 2 -0.001822 0.017899 -0.000405 0.000000 -0.005159 0.000000
# 3 -0.002428 -0.000405 0.011226 0.000000 0.000273 0.000000
# 4 0.000000 0.000000 0.000000 -0.129455 -0.000001 0.064430
# 5 -0.000672 -0.005159 0.000273 -0.000001 0.030959 0.000000
# 6 0.000000 0.000000 0.000000 0.064430 0.000000 -0.108175
#
#
# Mechanical properties :
#
#
# Convention : Reuss Voigt Hill
#
# Bulk Modulus (GPa) = 37.48020 49.49527 43.48774
# Shear Modulus (GPa) = -32.79157 19.39383 -6.69887
#
# Velocity S-wave (km/s) = -4.00964 3.08359 -1.81228
# Velocity P-wave (km/s) = 1.74937 6.07823 4.11610
#
# Compressibility (1/GPa) = 0.02668075
#
# Stress axis : x y z
#
# Youngs Moduli (GPa) = 145.65908 55.86985 89.07660
#
# Poissons Ratio (x) = 0.10179 0.21628
# Poissons Ratio (y) = 0.26537 0.03608
# Poissons Ratio (z) = 0.35366 0.02263
#
# Static dielectric constant tensor:
#      x y z
#    x 1.753620 0.000000 0.008540 
#    y 0.000000 1.753730 0.000000 
#    z 0.008540 0.000000 1.730240 
# 
# From -- ./inp_files/278202.got.cif
#   From: 2010.05.17/outbox.cif.g08.bks.cpg/sg12_140_cif.got.tgz:278202.got - 2010.06.03 13:09:07.
