data_PCOD9174590
_publ_section_title
;
Structure prediction by ZEFSAII (Michael W. Deem and Ramdas Pophale) SiO2 
 PCOD9174590
Probable space group: C 2/M
;
_chemical_formula_sum "Si O2"
_cell_formula_units_Z 56
_cell_length_a 32.260020
_cell_length_b 17.690122
_cell_length_c 9.767574
_cell_angle_alpha 90.000000
_cell_angle_beta 140.389778
_cell_angle_gamma 90.000000
_cell_volume 3553.891926
_symmetry_space_group_name_H-M "C 2/M"
_symmetry_group_IT_number 12
_symmetry_cell_setting 'monoclinic'
loop_
_space_group_symop_operation_xyz
x,y,z
-x,y,-z
-x,-y,-z
x,-y,z
1/2+x,1/2+y,z
1/2-x,1/2+y,-z
1/2-x,1/2-y,-z
1/2+x,1/2-y,z
loop_
_atom_site_type_symbol
_atom_site_label
_atom_site_fract_x
_atom_site_fract_y
_atom_site_fract_z
Si Si1 0.137917 0.635130 0.556139
Si Si2 0.175862 0.223549 0.155945
Si Si3 0.710490 0.587756 0.061281
Si Si4 0.827917 0.225323 0.538027
Si Si5 0.039387 0.500000 0.239367
Si Si6 0.644306 0.861243 0.893540
Si Si7 0.295013 0.588922 0.269902
Si Si8 0.556136 0.000000 0.753850
O O1 0.211541 0.602167 0.732110
O O2 0.136285 0.709350 0.457098
O O3 0.086024 0.572542 0.378609
O O4 0.128694 0.652591 0.693922
O O5 0.176191 0.143529 0.079967
O O6 0.152422 0.220200 0.252953
O O7 0.251671 0.250049 0.347643
O O8 0.140019 0.286012 0.973018
O O9 0.698135 0.500000 0.057770
O O10 0.690005 0.604606 0.852123
O O11 0.830620 0.146326 0.462982
O O12 0.982185 0.500000 0.203861
O O13 0.000000 0.500000 0.000000
O O14 0.599363 0.926284 0.839956
O O15 0.718183 0.892593 0.087726
O O16 0.305890 0.500000 0.324632
O O17 0.500000 0.000000 0.500000
#
# Coordination Sequence:
#
# PCOD9174590 Si02
#       8
#     8   8   8   8   4   8   8   4
#     4  10  18  34  48  64  93 128 164 203 243 283
#     4   9  18  29  43  68  92 124 159 193 244 293
#     4   9  16  28  49  69  93 125 162 197 237 291
#     4   9  18  29  43  66  96 124 155 193 244 301
#     4  12  26  36  48  72  98 132 172 208 248 284
#     4  10  18  32  50  66  91 126 166 207 239 275
#     4   9  16  28  47  71  95 125 160 193 241 295
#     4  12  22  36  52  72  94 128 176 216 236 276
#
# _framework density 15.757372999999999
#
# number of rings (size 3 to 8) (size 9 to 14) (size 15 to 20)
#    0.000    2.286    2.857    0.857    2.000    4.000 
#    0.000    0.000    0.000    0.000    0.000    0.000 
#    0.000    2.286    0.000    0.143    0.000    0.000 
#
# Total GULP energy -156042.201479 kJ/mol
# GULP energy per Si atom -5572.935767 kJ/mol
# Density = 1.572151 g / cm^3
# Si number density = 15.757373 Si / 1000 Ang^3
#
#
#
# Elastic Constant Matrix: (Units=GPa)
#
#
# Indices 1 2 3 4 5 6 
#
# 1 105.6469 81.9985 54.3075 0.0000 -35.1213 0.0000
# 2 81.9985 147.8105 64.8504 0.0000 -38.4251 0.0000
# 3 54.3075 64.8504 79.2175 0.0000 -32.9131 0.0000
# 4 0.0000 0.0000 0.0000 10.7732 0.0000 2.2812
# 5 -35.1213 -38.4251 -32.9131 0.0000 29.2043 0.0000
# 6 0.0000 0.0000 0.0000 2.2812 0.0000 5.4476
#
#
#
# Elastic Compliance Matrix: (Units=1/GPa)
#
#
# Indices 1 2 3 4 5 6 
#
# 1 0.020407 -0.006687 -0.003714 0.000000 0.011558 0.000000
# 2 -0.006687 0.013788 -0.004714 0.000000 0.004786 0.000000
# 3 -0.003714 -0.004714 0.027449 0.000000 0.020265 0.000000
# 4 0.000000 0.000000 0.000000 0.101855 0.000000 -0.042652
# 5 0.011558 0.004786 0.020265 0.000000 0.077277 0.000000
# 6 0.000000 0.000000 0.000000 -0.042652 0.000000 0.201429
#
#
# Mechanical properties :
#
#
# Convention : Reuss Voigt Hill
#
# Bulk Modulus (GPa) = 31.83384 81.66530 56.74957
# Shear Modulus (GPa) = 10.35400 17.85291 14.10346
#
# Velocity S-wave (km/s) = 2.56616 3.36964 2.99497
# Velocity P-wave (km/s) = 5.38763 8.19015 6.93200
#
# Compressibility (1/GPa) = 0.03141311
#
# Stress axis : x y z
#
# Youngs Moduli (GPa) = 49.00303 72.52930 36.43175
#
# Poissons Ratio (x) = 0.48499 0.13530
# Poissons Ratio (y) = 0.32767 0.17175
# Poissons Ratio (z) = 0.18199 0.34193
#
# Static dielectric constant tensor:
#      x y z
#    x 1.505410 0.000000 -0.016270 
#    y 0.000000 1.516880 0.000000 
#    z -0.016270 0.000000 1.512600 
# 
# From -- ./inp_files/112625.got.cif
#   From: 2010.05.17/outbox.cif.g08.bks.cpg/sg12_57_cif.got.tgz:112625.got - 2010.06.03 13:09:07.
