data_PCOD9174936
_publ_section_title
;
Structure prediction by ZEFSAII (Michael W. Deem and Ramdas Pophale) SiO2 
 PCOD9174936
Probable space group: C 2/M
;
_chemical_formula_sum "Si O2"
_cell_formula_units_Z 32
_cell_length_a 10.636782
_cell_length_b 18.427566
_cell_length_c 12.875871
_cell_angle_alpha 90.000000
_cell_angle_beta 145.849887
_cell_angle_gamma 90.000000
_cell_volume 1416.767742
_symmetry_space_group_name_H-M "C 2/M"
_symmetry_group_IT_number 12
_symmetry_cell_setting 'monoclinic'
loop_
_space_group_symop_operation_xyz
x,y,z
-x,y,-z
-x,-y,-z
x,-y,z
1/2+x,1/2+y,z
1/2-x,1/2+y,-z
1/2-x,1/2-y,-z
1/2+x,1/2-y,z
loop_
_atom_site_type_symbol
_atom_site_label
_atom_site_fract_x
_atom_site_fract_y
_atom_site_fract_z
Si Si1 0.615212 0.083090 0.718869
Si Si2 0.514348 0.226215 0.890889
Si Si3 0.771554 0.583627 0.973081
Si Si4 0.191678 0.149232 0.357687
O O1 0.755835 0.086896 0.920164
O O2 0.397144 0.134324 0.574054
O O3 0.743928 0.105295 0.703187
O O4 0.537100 0.000000 0.656185
O O5 0.523990 0.139255 0.903392
O O6 0.334100 0.268147 0.698152
O O7 0.500000 0.252966 0.000000
O O8 0.750000 0.250000 0.000000
O O9 0.807348 0.500000 0.968652
O O10 0.546597 0.617077 0.769362
#
# Coordination Sequence:
#
# PCOD9174936 Si02
#       4
#     8   8   8   8
#     4  10  19  31  54  86 111 141 186 227 278 337
#     4  10  21  37  58  83 110 146 190 227 272 332
#     4  10  20  34  53  77 111 149 182 224 274 326
#     4  10  18  32  54  80 113 145 181 233 279 320
#
# _framework density 22.586625000000002
#
# number of rings (size 3 to 8) (size 9 to 14) (size 15 to 20)
#    0.000    2.000    0.000    6.750    0.000    3.500 
#    0.000    2.500    0.000    0.000    0.000   19.250 
#    0.000    0.000    0.000    0.000    0.000    0.000 
#
# Total GULP energy -89309.176911 kJ/mol
# GULP energy per Si atom -5581.823557 kJ/mol
# Density = 2.253522 g / cm^3
# Si number density = 22.586625 Si / 1000 Ang^3
#
#
#
# Elastic Constant Matrix: (Units=GPa)
#
#
# Indices 1 2 3 4 5 6 
#
# 1 59.8786 0.0152 -7.2130 0.0000 -6.9002 0.0000
# 2 0.0152 163.3807 25.7546 0.0000 17.9512 0.0000
# 3 -7.2130 25.7546 90.7479 0.0000 18.1945 0.0000
# 4 0.0000 0.0000 0.0000 31.8107 0.0000 1.0204
# 5 -6.9002 17.9512 18.1945 0.0000 17.0118 0.0000
# 6 0.0000 0.0000 0.0000 1.0204 0.0000 24.2029
#
#
#
# Elastic Compliance Matrix: (Units=1/GPa)
#
#
# Indices 1 2 3 4 5 6 
#
# 1 0.017633 -0.000893 0.000041 0.000000 0.008051 0.000000
# 2 -0.000893 0.006998 -0.000641 0.000000 -0.007060 0.000000
# 3 0.000041 -0.000641 0.014086 0.000000 -0.014372 0.000000
# 4 0.000000 0.000000 0.000000 0.031479 0.000000 -0.001327
# 5 0.008051 -0.007060 -0.014372 0.000000 0.084870 0.000000
# 6 0.000000 0.000000 0.000000 -0.001327 0.000000 0.041373
#
#
# Mechanical properties :
#
#
# Convention : Reuss Voigt Hill
#
# Bulk Modulus (GPa) = 27.98700 39.01342 33.50021
# Shear Modulus (GPa) = 23.65902 34.30177 28.98039
#
# Velocity S-wave (km/s) = 3.23999 3.90125 3.58589
# Velocity P-wave (km/s) = 5.13951 6.13215 5.65764
#
# Compressibility (1/GPa) = 0.03573088
#
# Stress axis : x y z
#
# Youngs Moduli (GPa) = 56.71077 142.90652 70.99052
#
# Poissons Ratio (x) = 0.12756 -0.00290
# Poissons Ratio (y) = 0.05062 0.04553
# Poissons Ratio (z) = -0.00231 0.09166
#
# Static dielectric constant tensor:
#      x y z
#    x 1.868130 0.000000 0.000660 
#    y 0.000000 1.901840 0.000000 
#    z 0.000660 0.000000 1.827440 
# 
# From -- ./inp_files/45977.got.cif
#   From: 2010.05.17/outbox.cif.g08.bks.cpg/sg12_23_cif.got.tgz:45977.got - 2010.06.03 13:09:07.
