data_PCOD9174748
_publ_section_title
;
Structure prediction by ZEFSAII (Michael W. Deem and Ramdas Pophale) SiO2 
 PCOD9174748
Probable space group: C 2/M
;
_chemical_formula_sum "Si O2"
_cell_formula_units_Z 64
_cell_length_a 25.572552
_cell_length_b 8.767320
_cell_length_c 21.726588
_cell_angle_alpha 90.000000
_cell_angle_beta 137.994796
_cell_angle_gamma 90.000000
_cell_volume 3259.771493
_symmetry_space_group_name_H-M "C 2/M"
_symmetry_group_IT_number 12
_symmetry_cell_setting 'monoclinic'
loop_
_space_group_symop_operation_xyz
x,y,z
-x,y,-z
-x,-y,-z
x,-y,z
1/2+x,1/2+y,z
1/2-x,1/2+y,-z
1/2-x,1/2-y,-z
1/2+x,1/2-y,z
loop_
_atom_site_type_symbol
_atom_site_label
_atom_site_fract_x
_atom_site_fract_y
_atom_site_fract_z
Si Si1 0.088715 0.822071 0.734102
Si Si2 0.620273 0.178925 0.084319
Si Si3 0.537375 0.318935 0.905507
Si Si4 0.219570 0.328079 0.776380
Si Si5 0.837837 0.682204 0.079205
Si Si6 0.214594 0.674485 0.624032
Si Si7 0.962872 0.314846 0.534526
Si Si8 0.877160 0.676849 0.764942
O O1 0.118746 0.734374 0.820471
O O2 0.014377 0.750730 0.634827
O O3 0.158367 0.794021 0.746582
O O4 0.077644 0.000000 0.737938
O O5 0.549417 0.247862 0.983886
O O6 0.606467 0.247238 0.925445
O O7 0.627974 0.000000 0.076158
O O8 0.619528 0.190692 0.157507
O O9 0.543745 0.500000 0.912926
O O10 0.451741 0.270584 0.806672
O O11 0.200494 0.500000 0.781475
O O12 0.304754 0.275871 0.871241
O O13 0.218258 0.331008 0.701580
O O14 0.832863 0.500000 0.070833
O O15 0.750000 0.750000 0.000000
O O16 0.219848 0.500000 0.606061
O O17 0.127230 0.734589 0.535678
O O18 0.291529 0.764731 0.670422
O O19 0.964412 0.500000 0.536794
O O20 0.000000 0.270735 0.500000
O O21 0.886843 0.500000 0.757556
#
# Coordination Sequence:
#
# PCOD9174748 Si02
#       8
#     8   8   8   8   8   8   8   8
#     4  12  24  37  56  86 121 157 200 245 295 353
#     4  10  20  34  53  82 117 152 192 240 292 347
#     4  12  24  39  59  83 112 149 196 245 294 350
#     4  10  18  32  52  78 113 155 195 235 286 346
#     4  12  26  46  67  87 116 155 200 247 297 349
#     4   9  18  33  55  82 116 154 193 235 286 347
#     4  10  19  36  59  87 122 161 200 243 296 355
#     4  10  21  36  56  83 117 154 194 240 293 350
#
# _framework density 19.633278000000001
#
# number of rings (size 3 to 8) (size 9 to 14) (size 15 to 20)
#    0.000    1.375    1.250    5.625    0.000    4.250 
#    0.000    0.000    0.000    0.750    0.000    0.000 
#    0.000    0.000    0.000    0.000    0.000    0.000 
#
# Total GULP energy -178704.478758 kJ/mol
# GULP energy per Si atom -5584.514961 kJ/mol
# Density = 1.958859 g / cm^3
# Si number density = 19.633278 Si / 1000 Ang^3
#
#
#
# Elastic Constant Matrix: (Units=GPa)
#
#
# Indices 1 2 3 4 5 6 
#
# 1 63.6545 26.7635 33.7597 0.0000 20.9840 0.0000
# 2 26.7635 83.0580 31.0111 0.0000 1.1953 0.0000
# 3 33.7597 31.0111 121.0039 0.0000 28.0813 0.0000
# 4 0.0000 0.0000 0.0000 27.0050 0.0000 6.1554
# 5 20.9840 1.1953 28.0813 0.0000 31.4753 0.0000
# 6 0.0000 0.0000 0.0000 6.1554 0.0000 20.4049
#
#
#
# Elastic Compliance Matrix: (Units=1/GPa)
#
#
# Indices 1 2 3 4 5 6 
#
# 1 0.024293 -0.007015 -0.001618 0.000000 -0.014485 0.000000
# 2 -0.007015 0.015600 -0.003769 0.000000 0.007447 0.000000
# 3 -0.001618 -0.003769 0.011852 0.000000 -0.009352 0.000000
# 4 0.000000 0.000000 0.000000 0.039764 0.000000 -0.011995
# 5 -0.014485 0.007447 -0.009352 0.000000 0.049489 0.000000
# 6 0.000000 0.000000 0.000000 -0.011995 0.000000 0.052626
#
#
# Mechanical properties :
#
#
# Convention : Reuss Voigt Hill
#
# Bulk Modulus (GPa) = 37.11925 50.08721 43.60323
# Shear Modulus (GPa) = 21.98677 27.52252 24.75465
#
# Velocity S-wave (km/s) = 3.35008 3.74816 3.55470
# Velocity P-wave (km/s) = 5.82335 6.65571 6.25339
#
# Compressibility (1/GPa) = 0.02694020
#
# Stress axis : x y z
#
# Youngs Moduli (GPa) = 41.16467 64.10120 84.37451
#
# Poissons Ratio (x) = 0.44968 0.13653
# Poissons Ratio (y) = 0.28878 0.31802
# Poissons Ratio (z) = 0.06661 0.24161
#
# Static dielectric constant tensor:
#      x y z
#    x 1.730740 0.000000 0.025310 
#    y 0.000000 1.662420 0.000000 
#    z 0.025310 0.000000 1.792140 
# 
# From -- ./inp_files/324301.got.cif
#   From: 2010.05.17/outbox.cif.g08.bks.cpg/sg12_163_cif.got.tgz:324301.got - 2010.06.03 13:09:07.
