data_PCOD9174878
_publ_section_title
;
Structure prediction by ZEFSAII (Michael W. Deem and Ramdas Pophale) SiO2 
 PCOD9174878
Probable space group: C 2/M
;
_chemical_formula_sum "Si O2"
_cell_formula_units_Z 56
_cell_length_a 29.403776
_cell_length_b 7.417628
_cell_length_c 12.147998
_cell_angle_alpha 90.000000
_cell_angle_beta 70.632488
_cell_angle_gamma 90.000000
_cell_volume 2499.618515
_symmetry_space_group_name_H-M "C 2/M"
_symmetry_group_IT_number 12
_symmetry_cell_setting 'monoclinic'
loop_
_space_group_symop_operation_xyz
x,y,z
-x,y,-z
-x,-y,-z
x,-y,z
1/2+x,1/2+y,z
1/2-x,1/2+y,-z
1/2-x,1/2-y,-z
1/2+x,1/2-y,z
loop_
_atom_site_type_symbol
_atom_site_label
_atom_site_fract_x
_atom_site_fract_y
_atom_site_fract_z
Si Si1 0.750614 0.214166 0.870428
Si Si2 0.307674 0.715625 0.459754
Si Si3 0.353858 0.216713 0.046837
Si Si4 0.844476 0.221272 0.668593
Si Si5 0.085941 0.793042 0.207151
Si Si6 0.393220 0.709585 0.242381
Si Si7 0.997377 0.778443 0.130815
O O1 0.698792 0.282660 0.873826
O O2 0.797722 0.285176 0.774042
O O3 0.751095 0.000000 0.851166
O O4 0.750000 0.250000 0.000000
O O5 0.309492 0.500000 0.456353
O O6 0.250000 0.750000 0.500000
O O7 0.332783 0.775488 0.553603
O O8 0.344204 0.785538 0.335683
O O9 0.389276 0.276376 0.113986
O O10 0.353558 0.000000 0.039370
O O11 0.370143 0.289509 0.916087
O O12 0.891911 0.282770 0.697319
O O13 0.845993 0.000000 0.669404
O O14 0.041519 0.715456 0.172459
O O15 0.072767 0.000000 0.241026
O O16 0.394696 0.500000 0.272562
O O17 0.446437 0.781979 0.224023
O O18 0.998610 0.000000 0.127854
O O19 0.000000 0.722120 0.000000
#
# Coordination Sequence:
#
# PCOD9174878 Si02
#       7
#     8   8   8   8   8   8   8
#     4  10  19  30  46  70 101 132 164 205 256 312
#     4  10  21  38  58  79 106 140 181 221 261 315
#     4  11  21  31  48  78 111 137 170 221 268 313
#     4   9  18  33  52  74 103 138 171 214 265 311
#     4  10  18  32  54  75 103 142 175 211 268 324
#     4  10  20  35  55  77 103 142 184 219 260 316
#     4   9  16  29  52  80 106 135 179 225 259 307
#
# _framework density 22.403417000000001
#
# number of rings (size 3 to 8) (size 9 to 14) (size 15 to 20)
#    0.000    2.143    2.857    1.286    0.000    2.286 
#    0.000    3.571    0.000    4.286    0.000    0.000 
#    0.000    3.429    0.000    0.000    0.000    0.000 
#
# Total GULP energy -156164.788556 kJ/mol
# GULP energy per Si atom -5577.313877 kJ/mol
# Density = 2.235243 g / cm^3
# Si number density = 22.403417 Si / 1000 Ang^3
#
#
#
# Elastic Constant Matrix: (Units=GPa)
#
#
# Indices 1 2 3 4 5 6 
#
# 1 174.4670 5.1688 41.7902 0.0000 17.1756 0.0000
# 2 5.1688 77.1633 -5.3366 0.0000 -3.9351 0.0000
# 3 41.7902 -5.3366 84.1799 0.0000 13.2931 0.0000
# 4 0.0000 0.0000 0.0000 4.5566 0.0000 -3.8379
# 5 17.1756 -3.9351 13.2931 0.0000 32.9646 0.0000
# 6 0.0000 0.0000 0.0000 -3.8379 0.0000 1.3888
#
#
#
# Elastic Compliance Matrix: (Units=1/GPa)
#
#
# Indices 1 2 3 4 5 6 
#
# 1 0.006708 -0.000778 -0.003004 0.000000 -0.002377 0.000000
# 2 -0.000778 0.013160 0.000970 0.000000 0.001585 0.000000
# 3 -0.003004 0.000970 0.014062 0.000000 -0.003989 0.000000
# 4 0.000000 0.000000 0.000000 -0.165311 0.000000 -0.456823
# 5 -0.002377 0.001585 -0.003989 0.000000 0.033372 0.000000
# 6 0.000000 0.000000 0.000000 -0.456823 0.000000 -0.542362
#
#
# Mechanical properties :
#
#
# Convention : Reuss Voigt Hill
#
# Bulk Modulus (GPa) = 35.32869 46.56168 40.94518
# Shear Modulus (GPa) = -7.99603 27.39451 9.69924
#
# Velocity S-wave (km/s) = -1.89126 3.50062 2.08297
# Velocity P-wave (km/s) = 3.32181 6.09652 4.90928
#
# Compressibility (1/GPa) = 0.02830561
#
# Stress axis : x y z
#
# Youngs Moduli (GPa) = 149.06661 75.99005 71.11207
#
# Poissons Ratio (x) = 0.05915 0.21365
# Poissons Ratio (y) = 0.11603 -0.06900
# Poissons Ratio (z) = 0.44785 -0.07374
#
# Static dielectric constant tensor:
#      x y z
#    x 1.891280 0.000000 -0.010530 
#    y 0.000000 1.847470 0.000000 
#    z -0.010530 0.000000 1.800480 
# 
# From -- ./inp_files/186371.got.cif
#   From: 2010.05.17/outbox.cif.g08.bks.cpg/sg12_94_cif.got.tgz:186371.got - 2010.06.03 13:09:07.
