data_PCOD9174268
_publ_section_title
;
Structure prediction by ZEFSAII (Michael W. Deem and Ramdas Pophale) SiO2 
 PCOD9174268
Probable space group: C 2/M
;
_chemical_formula_sum "Si O2"
_cell_formula_units_Z 58
_cell_length_a 20.093705
_cell_length_b 14.964475
_cell_length_c 15.130967
_cell_angle_alpha 90.000000
_cell_angle_beta 45.214969
_cell_angle_gamma 90.000000
_cell_volume 3229.211808
_symmetry_space_group_name_H-M "C 2/M"
_symmetry_group_IT_number 12
_symmetry_cell_setting 'monoclinic'
loop_
_space_group_symop_operation_xyz
x,y,z
-x,y,-z
-x,-y,-z
x,-y,z
1/2+x,1/2+y,z
1/2-x,1/2+y,-z
1/2-x,1/2-y,-z
1/2+x,1/2-y,z
loop_
_atom_site_type_symbol
_atom_site_label
_atom_site_fract_x
_atom_site_fract_y
_atom_site_fract_z
Si Si1 0.596265 0.401244 0.181822
Si Si2 0.718513 0.241024 0.806039
Si Si3 0.435549 0.252841 0.640558
Si Si4 0.010643 0.606276 0.279119
Si Si5 0.688683 0.100769 0.988925
Si Si6 0.447473 0.656623 0.967613
Si Si7 0.425614 0.831763 0.188037
Si Si8 0.000000 0.500000 0.000000
O O1 0.576480 0.500000 0.236720
O O2 0.567319 0.324932 0.277300
O O3 0.708908 0.395200 0.063866
O O4 0.552349 0.389896 0.126726
O O5 0.828800 0.258454 0.706459
O O6 0.695390 0.164189 0.899268
O O7 0.672774 0.205098 0.758088
O O8 0.657088 0.323161 0.899960
O O9 0.500000 0.283944 0.500000
O O10 0.478146 0.162531 0.642471
O O11 0.000601 0.500000 0.301294
O O12 0.932465 0.644570 0.285187
O O13 0.107902 0.622944 0.133656
O O14 0.668166 0.000000 0.975475
O O15 0.501233 0.751366 0.901391
O O16 0.500000 0.611019 0.000000
O O17 0.458174 0.920322 0.105358
#
# Coordination Sequence:
#
# PCOD9174268 Si02
#       8
#     8   8   8   8   8   8   8   2
#     4  10  20  35  55  77 109 146 190 233 273 327
#     4  10  19  32  52  82 115 149 176 224 277 344
#     4  11  24  41  57  76 107 160 205 238 268 315
#     4  11  20  33  58  88 118 142 177 233 301 357
#     4   9  17  27  49  84 112 138 165 217 287 344
#     4  10  18  31  53  84 115 138 167 216 294 357
#     4  11  19  28  53  89 122 144 165 220 296 356
#     4  12  16  28  52  96 130 140 164 218 304 382
#
# _framework density 17.961037999999999
#
# number of rings (size 3 to 8) (size 9 to 14) (size 15 to 20)
#    0.000    1.655    5.517    0.828    2.897    3.034 
#    0.000    0.690    0.000    0.828    0.000    0.000 
#    0.000    0.000    0.000    0.000    0.000    0.000 
#
# Total GULP energy -161509.967261 kJ/mol
# GULP energy per Si atom -5569.309216 kJ/mol
# Density = 1.792016 g / cm^3
# Si number density = 17.961038 Si / 1000 Ang^3
#
#
#
# Elastic Constant Matrix: (Units=GPa)
#
#
# Indices 1 2 3 4 5 6 
#
# 1 112.7004 29.3219 29.6445 0.0000 10.5591 0.0000
# 2 29.3219 54.5140 4.4512 0.0000 8.3025 0.0000
# 3 29.6445 4.4512 43.9543 0.0000 3.2112 0.0000
# 4 0.0000 0.0000 0.0000 5.0273 0.0000 0.4752
# 5 10.5591 8.3025 3.2112 0.0000 12.7267 0.0000
# 6 0.0000 0.0000 0.0000 0.4752 0.0000 16.8078
#
#
#
# Elastic Compliance Matrix: (Units=1/GPa)
#
#
# Indices 1 2 3 4 5 6 
#
# 1 0.012805 -0.005481 -0.007708 0.000000 -0.005103 0.000000
# 2 -0.005481 0.022767 0.002184 0.000000 -0.010856 0.000000
# 3 -0.007708 0.002184 0.027879 0.000000 -0.002064 0.000000
# 4 0.000000 0.000000 0.000000 0.199445 0.000000 -0.005638
# 5 -0.005103 -0.010856 -0.002064 0.000000 0.090412 0.000000
# 6 0.000000 0.000000 0.000000 -0.005638 0.000000 0.059655
#
#
# Mechanical properties :
#
#
# Convention : Reuss Voigt Hill
#
# Bulk Modulus (GPa) = 24.13062 37.55597 30.84330
# Shear Modulus (GPa) = 11.14115 16.76246 13.95180
#
# Velocity S-wave (km/s) = 2.49327 3.05826 2.79010
# Velocity P-wave (km/s) = 4.66398 5.78149 5.25254
#
# Compressibility (1/GPa) = 0.04144112
#
# Stress axis : x y z
#
# Youngs Moduli (GPa) = 78.09631 43.92336 35.86905
#
# Poissons Ratio (x) = 0.24073 0.27648
# Poissons Ratio (y) = 0.42802 -0.07834
# Poissons Ratio (z) = 0.60198 -0.09593
#
# Static dielectric constant tensor:
#      x y z
#    x 1.765560 0.000000 0.015970 
#    y 0.000000 1.630720 0.000000 
#    z 0.015970 0.000000 1.566410 
# 
# From -- ./inp_files/233423.got.cif
#   From: 2010.05.17/outbox.cif.g08.bks.cpg/sg12_117_cif.got.tgz:233423.got - 2010.06.03 13:09:07.
