data_PCOD9174188
_publ_section_title
;
Structure prediction by ZEFSAII (Michael W. Deem and Ramdas Pophale) SiO2 
 PCOD9174188
Probable space group: C 2/M
;
_chemical_formula_sum "Si O2"
_cell_formula_units_Z 48
_cell_length_a 17.957414
_cell_length_b 11.153496
_cell_length_c 21.177789
_cell_angle_alpha 90.000000
_cell_angle_beta 39.177163
_cell_angle_gamma 90.000000
_cell_volume 2679.540417
_symmetry_space_group_name_H-M "C 2/M"
_symmetry_group_IT_number 12
_symmetry_cell_setting 'monoclinic'
loop_
_space_group_symop_operation_xyz
x,y,z
-x,y,-z
-x,-y,-z
x,-y,z
1/2+x,1/2+y,z
1/2-x,1/2+y,-z
1/2-x,1/2-y,-z
1/2+x,1/2-y,z
loop_
_atom_site_type_symbol
_atom_site_label
_atom_site_fract_x
_atom_site_fract_y
_atom_site_fract_z
Si Si1 0.927643 0.207239 0.830527
Si Si2 0.613543 0.368538 0.283122
Si Si3 0.132772 0.860281 0.781121
Si Si4 0.223161 0.868867 0.954436
Si Si5 0.873565 0.704885 0.091312
Si Si6 0.406307 0.136751 0.617815
O O1 0.929663 0.148592 0.760427
O O2 0.860470 0.334085 0.868643
O O3 0.053425 0.206227 0.781526
O O4 0.839191 0.138619 0.936704
O O5 0.575003 0.500000 0.332425
O O6 0.756632 0.366705 0.187051
O O7 0.577680 0.249096 0.345424
O O8 0.109439 0.803374 0.864854
O O9 0.272987 0.852155 0.679058
O O10 0.098674 0.000000 0.802559
O O11 0.207646 0.000000 0.936969
O O12 0.162954 0.771571 0.949033
O O13 0.000000 0.643136 0.000000
O O14 0.500000 0.144179 0.500000
O O15 0.585847 0.000000 0.359609
#
# Coordination Sequence:
#
# PCOD9174188 Si02
#       6
#     8   8   8   8   8   8
#     4  10  20  31  46  74 106 142 182 212 257 312
#     4  10  21  35  52  76 110 145 173 208 265 327
#     4  10  18  31  53  77 104 135 177 226 265 308
#     4  10  19  31  47  68 105 149 187 223 256 296
#     4  10  19  30  48  76 104 140 188 222 254 293
#     4   9  20  40  64  84 100 126 172 228 276 315
#
# _framework density 17.913519000000001
#
# number of rings (size 3 to 8) (size 9 to 14) (size 15 to 20)
#    0.000    2.167    1.667    2.000    0.000    5.333 
#    0.000    4.167    0.000    0.000    0.000    0.000 
#    0.000    0.000    0.000    0.000    0.000    0.000 
#
# Total GULP energy -133709.801514 kJ/mol
# GULP energy per Si atom -5571.241730 kJ/mol
# Density = 1.787275 g / cm^3
# Si number density = 17.913519 Si / 1000 Ang^3
#
#
#
# Elastic Constant Matrix: (Units=GPa)
#
#
# Indices 1 2 3 4 5 6 
#
# 1 101.4042 30.3536 27.0851 0.0000 5.6208 0.0000
# 2 30.3536 105.8748 30.9749 0.0000 13.7930 0.0000
# 3 27.0851 30.9749 70.9730 0.0000 -1.6506 0.0000
# 4 0.0000 0.0000 0.0000 1.6286 0.0000 -2.5603
# 5 5.6208 13.7930 -1.6506 0.0000 14.8994 0.0000
# 6 0.0000 0.0000 0.0000 -2.5603 0.0000 7.9284
#
#
#
# Elastic Compliance Matrix: (Units=1/GPa)
#
#
# Indices 1 2 3 4 5 6 
#
# 1 0.011566 -0.001839 -0.003683 0.000000 -0.003069 0.000000
# 2 -0.001839 0.013083 -0.005287 0.000000 -0.012004 0.000000
# 3 -0.003683 -0.005287 0.017995 0.000000 0.008278 0.000000
# 4 0.000000 0.000000 0.000000 1.247164 0.000000 0.402750
# 5 -0.003069 -0.012004 0.008278 0.000000 0.080304 0.000000
# 6 0.000000 0.000000 0.000000 0.402750 0.000000 0.256190
#
#
# Mechanical properties :
#
#
# Convention : Reuss Voigt Hill
#
# Bulk Modulus (GPa) = 47.55856 50.56435 49.06146
# Shear Modulus (GPa) = 3.02128 17.54717 10.28422
#
# Velocity S-wave (km/s) = 1.30010 3.13317 2.39865
# Velocity P-wave (km/s) = 5.37218 6.43251 5.92611
#
# Compressibility (1/GPa) = 0.02102671
#
# Stress axis : x y z
#
# Youngs Moduli (GPa) = 86.46308 76.43592 55.56994
#
# Poissons Ratio (x) = 0.14053 0.20465
# Poissons Ratio (y) = 0.15897 0.29382
# Poissons Ratio (z) = 0.31842 0.40414
#
# Static dielectric constant tensor:
#      x y z
#    x 1.609960 0.000000 -0.017110 
#    y 0.000000 1.648770 0.000000 
#    z -0.017110 0.000000 1.610920 
# 
# From -- ./inp_files/315212.got.cif
#   From: 2010.05.17/outbox.cif.g08.bks.cpg/sg12_158_cif.got.tgz:315212.got - 2010.06.03 13:09:07.
