data_PCOD9174746
_publ_section_title
;
Structure prediction by ZEFSAII (Michael W. Deem and Ramdas Pophale) SiO2 
 PCOD9174746
Probable space group: C 2/M
;
_chemical_formula_sum "Si O2"
_cell_formula_units_Z 64
_cell_length_a 11.888251
_cell_length_b 22.513539
_cell_length_c 17.875416
_cell_angle_alpha 90.000000
_cell_angle_beta 133.001878
_cell_angle_gamma 90.000000
_cell_volume 3498.904440
_symmetry_space_group_name_H-M "C 2/M"
_symmetry_group_IT_number 12
_symmetry_cell_setting 'monoclinic'
loop_
_space_group_symop_operation_xyz
x,y,z
-x,y,-z
-x,-y,-z
x,-y,z
1/2+x,1/2+y,z
1/2-x,1/2+y,-z
1/2-x,1/2-y,-z
1/2+x,1/2-y,z
loop_
_atom_site_type_symbol
_atom_site_label
_atom_site_fract_x
_atom_site_fract_y
_atom_site_fract_z
Si Si1 0.428898 0.860315 0.050473
Si Si2 0.615358 0.351094 0.278232
Si Si3 0.676426 0.677776 0.630841
Si Si4 0.474545 0.227704 0.198828
Si Si5 0.242420 0.821698 0.496600
Si Si6 0.223104 0.567470 0.232327
Si Si7 0.587412 0.800460 0.664463
Si Si8 0.857647 0.066180 0.126018
O O1 0.416644 0.802565 0.097149
O O2 0.551342 0.905818 0.143900
O O3 0.500000 0.847230 0.000000
O O4 0.264519 0.891603 0.969957
O O5 0.494022 0.298139 0.206919
O O6 0.659020 0.346712 0.385722
O O7 0.771799 0.336102 0.306296
O O8 0.529489 0.409166 0.211149
O O9 0.657278 0.661659 0.534869
O O10 0.681138 0.617335 0.679804
O O11 0.587485 0.735048 0.624525
O O12 0.851716 0.703135 0.712429
O O13 0.389293 0.210147 0.236594
O O14 0.250000 0.750000 0.500000
O O15 0.425780 0.834517 0.579193
O O16 0.221793 0.500000 0.262453
O O17 0.294338 0.564487 0.182145
O O18 0.852450 0.000000 0.092117
#
# Coordination Sequence:
#
# PCOD9174746 Si02
#       8
#     8   8   8   8   8   8   8   8
#     4   9  18  35  57  81 105 138 172 217 270 329
#     4  11  21  33  53  79 109 141 175 221 263 313
#     4   9  18  30  50  80 111 137 171 212 259 317
#     4   9  18  32  51  81 108 130 168 217 271 317
#     4  11  19  32  52  82 105 143 176 210 259 329
#     4   9  17  32  55  80 106 138 174 216 265 314
#     4  10  18  32  52  78 110 138 172 211 268 320
#     4  10  21  37  54  74 104 144 185 219 257 314
#
# _framework density 18.291440000000001
#
# number of rings (size 3 to 8) (size 9 to 14) (size 15 to 20)
#    0.000    2.250    3.750    1.500    0.000    3.000 
#    0.000    1.250    0.000   11.250    0.000    0.000 
#    0.000    0.000    0.000    0.000    0.000    0.000 
#
# Total GULP energy -178416.423880 kJ/mol
# GULP energy per Si atom -5575.513246 kJ/mol
# Density = 1.824981 g / cm^3
# Si number density = 18.291440 Si / 1000 Ang^3
#
#
#
# Elastic Constant Matrix: (Units=GPa)
#
#
# Indices 1 2 3 4 5 6 
#
# 1 72.4147 14.3627 34.3295 0.0000 -2.0171 0.0000
# 2 14.3627 47.0007 38.0303 0.0000 -5.9701 0.0000
# 3 34.3295 38.0303 89.4811 0.0000 -1.9530 0.0000
# 4 0.0000 0.0000 0.0000 14.6040 0.0000 -1.6584
# 5 -2.0171 -5.9701 -1.9530 0.0000 25.3781 0.0000
# 6 0.0000 0.0000 0.0000 -1.6584 0.0000 16.3576
#
#
#
# Elastic Compliance Matrix: (Units=1/GPa)
#
#
# Indices 1 2 3 4 5 6 
#
# 1 0.016900 0.000275 -0.006581 0.000000 0.000901 0.000000
# 2 0.000275 0.033568 -0.014223 0.000000 0.006824 0.000000
# 3 -0.006581 -0.014223 0.019694 0.000000 -0.002353 0.000000
# 4 0.000000 0.000000 0.000000 0.069272 0.000000 0.007023
# 5 0.000901 0.006824 -0.002353 0.000000 0.040900 0.000000
# 6 0.000000 0.000000 0.000000 0.007023 0.000000 0.061846
#
#
# Mechanical properties :
#
#
# Convention : Reuss Voigt Hill
#
# Bulk Modulus (GPa) = 34.36030 42.48238 38.42134
# Shear Modulus (GPa) = 17.06848 19.41286 18.24067
#
# Velocity S-wave (km/s) = 3.05805 3.26131 3.16131
# Velocity P-wave (km/s) = 5.59416 6.12023 5.86310
#
# Compressibility (1/GPa) = 0.02910335
#
# Stress axis : x y z
#
# Youngs Moduli (GPa) = 59.17282 29.79067 50.77728
#
# Poissons Ratio (x) = -0.00819 0.33415
# Poissons Ratio (y) = -0.01627 0.72221
# Poissons Ratio (z) = 0.38940 0.42372
#
# Static dielectric constant tensor:
#      x y z
#    x 1.654930 0.000000 0.020650 
#    y 0.000000 1.632200 0.000000 
#    z 0.020650 0.000000 1.706780 
# 
# From -- ./inp_files/265103.got.cif
#   From: 2010.05.17/outbox.cif.g08.bks.cpg/sg12_133_cif.got.tgz:265103.got - 2010.06.03 13:09:07.
