data_PCOD9174531
_publ_section_title
;
Structure prediction by ZEFSAII (Michael W. Deem and Ramdas Pophale) SiO2 
 PCOD9174531
Probable space group: C 2/M
;
_chemical_formula_sum "Si O2"
_cell_formula_units_Z 44
_cell_length_a 14.941830
_cell_length_b 28.055659
_cell_length_c 7.011153
_cell_angle_alpha 90.000000
_cell_angle_beta 139.306722
_cell_angle_gamma 90.000000
_cell_volume 1916.318106
_symmetry_space_group_name_H-M "C 2/M"
_symmetry_group_IT_number 12
_symmetry_cell_setting 'monoclinic'
loop_
_space_group_symop_operation_xyz
x,y,z
-x,y,-z
-x,-y,-z
x,-y,z
1/2+x,1/2+y,z
1/2-x,1/2+y,-z
1/2-x,1/2-y,-z
1/2+x,1/2-y,z
loop_
_atom_site_type_symbol
_atom_site_label
_atom_site_fract_x
_atom_site_fract_y
_atom_site_fract_z
Si Si1 0.961271 0.052842 0.666507
Si Si2 0.759443 0.882297 0.179353
Si Si3 0.897418 0.737676 0.659843
Si Si4 0.767049 0.555975 0.236987
Si Si5 0.500000 0.690362 0.500000
Si Si6 0.037804 0.365649 0.338454
O O1 0.848661 0.093691 0.489850
O O2 0.000000 0.052139 0.500000
O O3 0.907675 0.000000 0.624344
O O4 0.103269 0.060808 0.007231
O O5 0.864461 0.843516 0.256187
O O6 0.723170 0.922526 0.962338
O O7 0.610589 0.864394 0.005222
O O8 0.750000 0.750000 0.500000
O O9 0.956514 0.774872 0.601273
O O10 0.887310 0.683975 0.568673
O O11 0.000000 0.738527 0.000000
O O12 0.800785 0.500000 0.295160
O O13 0.867294 0.587789 0.527791
O O14 0.000000 0.365119 0.500000
#
# Coordination Sequence:
#
# PCOD9174531 Si02
#       6
#     8   8   8   8   4   8
#     4   8  13  25  46  84 131 163 211 268 314 391
#     4  10  18  31  60  92 130 174 215 277 331 395
#     4  12  29  47  70  99 136 185 233 288 348 408
#     4   9  17  31  56  96 136 171 222 274 333 411
#     4  12  24  44  73  98 137 178 238 284 344 402
#     4  10  22  38  61  94 135 175 221 281 341 399
#
# _framework density 22.960699000000002
#
# number of rings (size 3 to 8) (size 9 to 14) (size 15 to 20)
#    0.000    2.000    3.636    2.727    5.091    5.455 
#    0.000    0.000    0.000    0.545    0.000    6.364 
#    0.000    0.000    0.000    0.000    0.000    0.000 
#
# Total GULP energy -122892.451016 kJ/mol
# GULP energy per Si atom -5586.020501 kJ/mol
# Density = 2.290844 g / cm^3
# Si number density = 22.960699 Si / 1000 Ang^3
#
#
#
# Elastic Constant Matrix: (Units=GPa)
#
#
# Indices 1 2 3 4 5 6 
#
# 1 91.8998 59.9876 30.6921 0.0000 18.1343 0.0000
# 2 59.9876 196.6192 79.6052 0.0000 28.3764 0.0000
# 3 30.6921 79.6052 122.5722 0.0000 29.2066 0.0000
# 4 0.0000 0.0000 0.0000 97.6609 0.0000 17.6315
# 5 18.1343 28.3764 29.2066 0.0000 41.0824 0.0000
# 6 0.0000 0.0000 0.0000 17.6315 0.0000 22.0296
#
#
#
# Elastic Compliance Matrix: (Units=1/GPa)
#
#
# Indices 1 2 3 4 5 6 
#
# 1 0.014059 -0.003662 -0.000320 0.000000 -0.003449 0.000000
# 2 -0.003662 0.007980 -0.004018 0.000000 -0.001039 0.000000
# 3 -0.000320 -0.004018 0.012224 0.000000 -0.005774 0.000000
# 4 0.000000 0.000000 0.000000 0.011969 0.000000 -0.009579
# 5 -0.003449 -0.001039 -0.005774 0.000000 0.030686 0.000000
# 6 0.000000 0.000000 0.000000 -0.009579 0.000000 0.053060
#
#
# Mechanical properties :
#
#
# Convention : Reuss Voigt Hill
#
# Bulk Modulus (GPa) = 54.75762 83.51790 69.13776
# Shear Modulus (GPa) = 32.88028 48.20833 40.54431
#
# Velocity S-wave (km/s) = 3.78832 4.58711 4.20672
# Velocity P-wave (km/s) = 6.56013 8.03173 7.33294
#
# Compressibility (1/GPa) = 0.01826230
#
# Stress axis : x y z
#
# Youngs Moduli (GPa) = 71.12723 125.31353 81.80626
#
# Poissons Ratio (x) = 0.45890 0.02621
# Poissons Ratio (y) = 0.26047 0.32871
# Poissons Ratio (z) = 0.02279 0.50353
#
# Static dielectric constant tensor:
#      x y z
#    x 1.937580 0.000000 -0.009840 
#    y 0.000000 1.863650 0.000000 
#    z -0.009840 0.000000 1.931840 
# 
# From -- ./inp_files/67208.got.cif
#   From: 2010.05.17/outbox.cif.g08.bks.cpg/sg12_34_cif.got.tgz:67208.got - 2010.06.03 13:09:07.
