data_PCOD9174522
_publ_section_title
;
Structure prediction by ZEFSAII (Michael W. Deem and Ramdas Pophale) SiO2 
 PCOD9174522
Probable space group: C 2/M
;
_chemical_formula_sum "Si O2"
_cell_formula_units_Z 60
_cell_length_a 28.448470
_cell_length_b 13.578179
_cell_length_c 15.176588
_cell_angle_alpha 90.000000
_cell_angle_beta 152.756856
_cell_angle_gamma 90.000000
_cell_volume 2683.611072
_symmetry_space_group_name_H-M "C 2/M"
_symmetry_group_IT_number 12
_symmetry_cell_setting 'monoclinic'
loop_
_space_group_symop_operation_xyz
x,y,z
-x,y,-z
-x,-y,-z
x,-y,z
1/2+x,1/2+y,z
1/2-x,1/2+y,-z
1/2-x,1/2-y,-z
1/2+x,1/2-y,z
loop_
_atom_site_type_symbol
_atom_site_label
_atom_site_fract_x
_atom_site_fract_y
_atom_site_fract_z
Si Si1 0.235286 0.613728 0.558099
Si Si2 0.275687 0.304763 0.809620
Si Si3 0.026404 0.609999 0.277204
Si Si4 0.966182 0.114460 0.240831
Si Si5 0.157095 0.610143 0.167254
Si Si6 0.922586 0.115644 0.750364
Si Si7 0.544074 0.218514 0.479423
Si Si8 0.500000 0.774642 0.000000
O O1 0.217009 0.500000 0.505494
O O2 0.283838 0.624722 0.737039
O O3 0.124014 0.659801 0.392422
O O4 0.313801 0.645678 0.612831
O O5 0.164722 0.307250 0.671727
O O6 0.366779 0.333711 0.028782
O O7 0.277584 0.195902 0.768353
O O8 0.058221 0.500000 0.356547
O O9 0.995428 0.662809 0.314515
O O10 0.936520 0.602510 0.057855
O O11 0.057031 0.118784 0.319048
O O12 0.009704 0.170156 0.398692
O O13 0.941566 0.000000 0.215381
O O14 0.199853 0.500000 0.252933
O O15 0.099053 0.655435 0.155226
O O16 0.998685 0.196591 0.918281
O O17 0.940874 0.000000 0.806907
O O18 0.500000 0.189650 0.500000
#
# Coordination Sequence:
#
# PCOD9174522 Si02
#       8
#     8   8   8   8   8   8   8   4
#     4   9  17  32  58  93 122 158 205 253 301 358
#     4  11  21  40  66  91 123 166 208 257 316 382
#     4   9  19  39  61  86 125 164 205 257 309 368
#     4  11  23  43  66  95 130 167 212 265 320 378
#     4  11  22  37  56  83 125 170 210 247 303 376
#     4  10  18  31  58  91 125 166 210 252 300 368
#     4  11  25  44  68  94 125 157 209 271 336 386
#     4  12  18  32  50  84 126 164 206 242 298 348
#
# _framework density 22.357934
#
# number of rings (size 3 to 8) (size 9 to 14) (size 15 to 20)
#    0.000    1.600    4.000    0.800    0.000    4.267 
#    2.400    2.000    0.000    0.000    0.000    0.000 
#    0.000    0.000    0.000    0.000    0.000    0.000 
#
# Total GULP energy -167463.976580 kJ/mol
# GULP energy per Si atom -5582.132553 kJ/mol
# Density = 2.230705 g / cm^3
# Si number density = 22.357934 Si / 1000 Ang^3
#
#
#
# Elastic Constant Matrix: (Units=GPa)
#
#
# Indices 1 2 3 4 5 6 
#
# 1 126.2431 15.6485 28.6474 0.0000 5.1674 0.0000
# 2 15.6485 120.1407 9.9203 0.0000 0.5851 0.0000
# 3 28.6474 9.9203 66.7488 0.0000 -0.4671 0.0000
# 4 0.0000 0.0000 0.0000 20.3222 0.0000 1.5341
# 5 5.1674 0.5851 -0.4671 0.0000 24.7718 0.0000
# 6 0.0000 0.0000 0.0000 1.5341 0.0000 16.2969
#
#
#
# Elastic Compliance Matrix: (Units=1/GPa)
#
#
# Indices 1 2 3 4 5 6 
#
# 1 0.008951 -0.000849 -0.003729 0.000000 -0.001917 0.000000
# 2 -0.000849 0.008509 -0.000901 0.000000 -0.000041 0.000000
# 3 -0.003729 -0.000901 0.016724 0.000000 0.001114 0.000000
# 4 0.000000 0.000000 0.000000 0.049559 0.000000 -0.004665
# 5 -0.001917 -0.000041 0.001114 0.000000 0.040790 0.000000
# 6 0.000000 0.000000 0.000000 -0.004665 0.000000 0.061800
#
#
# Mechanical properties :
#
#
# Convention : Reuss Voigt Hill
#
# Bulk Modulus (GPa) = 43.05350 46.84055 44.94703
# Shear Modulus (GPa) = 24.38640 29.53929 26.96284
#
# Velocity S-wave (km/s) = 3.30620 3.63877 3.47647
# Velocity P-wave (km/s) = 5.82004 6.21691 6.02175
#
# Compressibility (1/GPa) = 0.02322692
#
# Stress axis : x y z
#
# Youngs Moduli (GPa) = 111.71834 117.52712 59.79583
#
# Poissons Ratio (x) = 0.09974 0.22297
# Poissons Ratio (y) = 0.09481 0.05385
# Poissons Ratio (z) = 0.41659 0.10585
#
# Static dielectric constant tensor:
#      x y z
#    x 1.777240 0.000000 0.021330 
#    y 0.000000 1.906140 0.000000 
#    z 0.021330 0.000000 1.917530 
# 
# From -- ./inp_files/246745.got.cif
#   From: 2010.05.17/outbox.cif.g08.bks.cpg/sg12_124_cif.got.tgz:246745.got - 2010.06.03 13:09:07.
