data_PCOD9174972
_publ_section_title
;
Structure prediction by ZEFSAII (Michael W. Deem and Ramdas Pophale) SiO2 
 PCOD9174972
Probable space group: C 2/M
;
_chemical_formula_sum "Si O2"
_cell_formula_units_Z 42
_cell_length_a 12.939134
_cell_length_b 12.544168
_cell_length_c 14.058752
_cell_angle_alpha 90.000000
_cell_angle_beta 129.310807
_cell_angle_gamma 90.000000
_cell_volume 1765.542086
_symmetry_space_group_name_H-M "C 2/M"
_symmetry_group_IT_number 12
_symmetry_cell_setting 'monoclinic'
loop_
_space_group_symop_operation_xyz
x,y,z
-x,y,-z
-x,-y,-z
x,-y,z
1/2+x,1/2+y,z
1/2-x,1/2+y,-z
1/2-x,1/2-y,-z
1/2+x,1/2-y,z
loop_
_atom_site_type_symbol
_atom_site_label
_atom_site_fract_x
_atom_site_fract_y
_atom_site_fract_z
Si Si1 0.925682 0.290673 0.708865
Si Si2 0.947161 0.117687 0.078338
Si Si3 0.000000 0.500000 0.000000
Si Si4 0.298854 0.882645 0.173835
Si Si5 0.269358 0.155823 0.785189
Si Si6 0.970628 0.881925 0.592493
O O1 0.994389 0.212257 0.826641
O O2 0.043973 0.370495 0.749677
O O3 0.896011 0.211638 0.604635
O O4 0.808130 0.349478 0.696023
O O5 0.982825 0.000000 0.136341
O O6 0.786627 0.123391 0.973438
O O7 0.000000 0.122406 0.000000
O O8 0.113214 0.593354 0.092684
O O9 0.248942 0.781295 0.203056
O O10 0.270195 0.000000 0.198220
O O11 0.122148 0.113700 0.722378
O O12 0.000000 0.855240 0.500000
O O13 0.910679 0.000000 0.564890
#
# Coordination Sequence:
#
# PCOD9174972 Si02
#       6
#     8   8   2   8   8   8
#     4  11  22  37  61  92 123 171 215 265 328 381
#     4  10  18  32  54  83 125 169 212 256 312 392
#     4  12  24  40  68 104 134 174 208 272 340 404
#     4  10  22  38  56  88 131 175 211 255 316 399
#     4  11  23  41  66  94 138 169 213 270 329 391
#     4  10  23  45  68  93 126 173 230 279 320 380
#
# _framework density 23.788727999999999
#
# number of rings (size 3 to 8) (size 9 to 14) (size 15 to 20)
#    0.000    1.524    2.857    2.286    1.333    3.048 
#    6.857    0.000    0.000    9.143    0.000    0.000 
#    0.000    0.000    0.000    0.000    0.000    0.000 
#
# Total GULP energy -117094.148724 kJ/mol
# GULP energy per Si atom -5575.911844 kJ/mol
# Density = 2.373458 g / cm^3
# Si number density = 23.788728 Si / 1000 Ang^3
#
#
#
# Elastic Constant Matrix: (Units=GPa)
#
#
# Indices 1 2 3 4 5 6 
#
# 1 103.0758 31.3853 10.3564 0.0000 6.1664 0.0000
# 2 31.3853 152.8005 17.4483 0.0000 -3.4512 0.0000
# 3 10.3564 17.4483 47.1814 0.0000 -2.7727 0.0000
# 4 0.0000 0.0000 0.0000 22.2666 0.0000 0.2442
# 5 6.1664 -3.4512 -2.7727 0.0000 28.8514 0.0000
# 6 0.0000 0.0000 0.0000 0.2442 0.0000 3.6429
#
#
#
# Elastic Compliance Matrix: (Units=1/GPa)
#
#
# Indices 1 2 3 4 5 6 
#
# 1 0.010662 -0.002052 -0.001740 0.000000 -0.002692 0.000000
# 2 -0.002052 0.007238 -0.002162 0.000000 0.001097 0.000000
# 3 -0.001740 -0.002162 0.022510 0.000000 0.002276 0.000000
# 4 0.000000 0.000000 0.000000 0.044943 0.000000 -0.003013
# 5 -0.002692 0.001097 0.002276 0.000000 0.035586 0.000000
# 6 0.000000 0.000000 0.000000 -0.003013 0.000000 0.274707
#
#
# Mechanical properties :
#
#
# Convention : Reuss Voigt Hill
#
# Bulk Modulus (GPa) = 35.08428 46.82639 40.95533
# Shear Modulus (GPa) = 11.98887 27.21003 19.59945
#
# Velocity S-wave (km/s) = 2.24737 3.38571 2.87347
# Velocity P-wave (km/s) = 4.63837 5.91701 5.31628
#
# Compressibility (1/GPa) = 0.02850280
#
# Stress axis : x y z
#
# Youngs Moduli (GPa) = 93.78866 138.16722 44.42499
#
# Poissons Ratio (x) = 0.28354 0.07728
# Poissons Ratio (y) = 0.19247 0.09603
# Poissons Ratio (z) = 0.16316 0.29867
#
# Static dielectric constant tensor:
#      x y z
#    x 1.975150 0.000000 0.018290 
#    y 0.000000 1.910630 0.000000 
#    z 0.018290 0.000000 1.970690 
# 
# From -- ./inp_files/212463.got.cif
#   From: 2010.05.17/outbox.cif.g08.bks.cpg/sg12_107_cif.got.tgz:212463.got - 2010.06.03 13:09:07.
