data_PCOD9174352
_publ_section_title
;
Structure prediction by ZEFSAII (Michael W. Deem and Ramdas Pophale) SiO2 
 PCOD9174352
Probable space group: C 2/M
;
_chemical_formula_sum "Si O2"
_cell_formula_units_Z 60
_cell_length_a 22.054281
_cell_length_b 13.765867
_cell_length_c 16.925634
_cell_angle_alpha 90.000000
_cell_angle_beta 41.312442
_cell_angle_gamma 90.000000
_cell_volume 3392.296290
_symmetry_space_group_name_H-M "C 2/M"
_symmetry_group_IT_number 12
_symmetry_cell_setting 'monoclinic'
loop_
_space_group_symop_operation_xyz
x,y,z
-x,y,-z
-x,-y,-z
x,-y,z
1/2+x,1/2+y,z
1/2-x,1/2+y,-z
1/2-x,1/2-y,-z
1/2+x,1/2-y,z
loop_
_atom_site_type_symbol
_atom_site_label
_atom_site_fract_x
_atom_site_fract_y
_atom_site_fract_z
Si Si1 0.171748 0.383489 0.083970
Si Si2 0.500000 0.833294 0.000000
Si Si3 0.516274 0.386828 0.393100
Si Si4 0.509925 0.780637 0.809996
Si Si5 0.394852 0.613328 0.365946
Si Si6 0.294198 0.890715 0.214233
Si Si7 0.198945 0.785226 0.169305
Si Si8 0.201065 0.384237 0.606134
O O1 0.163477 0.500000 0.099030
O O2 0.197738 0.324748 0.138316
O O3 0.078727 0.333851 0.140131
O O4 0.250507 0.352588 0.944924
O O5 0.498238 0.779803 0.086714
O O6 0.404139 0.890976 0.093931
O O7 0.500000 0.362483 0.500000
O O8 0.544611 0.500000 0.361788
O O9 0.427798 0.377233 0.424421
O O10 0.595496 0.320298 0.281020
O O11 0.532967 0.673802 0.755820
O O12 0.601317 0.838168 0.692554
O O13 0.398380 0.500000 0.341616
O O14 0.288497 0.646262 0.467854
O O15 0.250354 0.810744 0.200282
O O16 0.276981 0.868171 0.322615
O O17 0.258817 0.000000 0.231263
O O18 0.192505 0.500000 0.604597
#
# Coordination Sequence:
#
# PCOD9174352 Si02
#       8
#     8   4   8   8   8   8   8   8
#     4  11  23  37  56  81 112 146 187 228 275 336
#     4  10  21  32  53  80 112 140 183 224 275 328
#     4  10  19  32  54  84 114 143 180 228 277 326
#     4  11  20  37  55  81 111 149 183 228 280 329
#     4  10  20  35  53  80 112 145 187 230 275 330
#     4  10  18  31  54  83 113 140 171 224 284 333
#     4  11  21  35  54  82 112 146 182 221 282 327
#     4   9  19  33  56  86 111 139 182 232 284 328
#
# _framework density 17.687134
#
# number of rings (size 3 to 8) (size 9 to 14) (size 15 to 20)
#    0.000    1.733    2.667    3.000    0.000    3.200 
#    0.000    0.333    0.000    3.600    0.000    0.000 
#    0.000    0.000    0.000    0.000    0.000    0.000 
#
# Total GULP energy -167231.278911 kJ/mol
# GULP energy per Si atom -5574.375964 kJ/mol
# Density = 1.764688 g / cm^3
# Si number density = 17.687134 Si / 1000 Ang^3
#
#
#
# Elastic Constant Matrix: (Units=GPa)
#
#
# Indices 1 2 3 4 5 6 
#
# 1 46.7151 25.4241 -9.0097 0.0000 -1.3097 0.0000
# 2 25.4241 94.1016 30.5207 0.0000 0.8302 0.0000
# 3 -9.0097 30.5207 57.5172 0.0000 -5.0621 0.0000
# 4 0.0000 0.0000 0.0000 21.0253 0.0000 -1.7752
# 5 -1.3097 0.8302 -5.0621 0.0000 22.3976 0.0000
# 6 0.0000 0.0000 0.0000 -1.7752 0.0000 21.4142
#
#
#
# Elastic Compliance Matrix: (Units=1/GPa)
#
#
# Indices 1 2 3 4 5 6 
#
# 1 0.030265 -0.011951 0.011506 0.000000 0.004813 0.000000
# 2 -0.011951 0.017649 -0.011587 0.000000 -0.003972 0.000000
# 3 0.011506 -0.011587 0.025950 0.000000 0.006967 0.000000
# 4 0.000000 0.000000 0.000000 0.047897 0.000000 0.003971
# 5 0.004813 -0.003972 0.006967 0.000000 0.046651 0.000000
# 6 0.000000 0.000000 0.000000 0.003971 0.000000 0.047027
#
#
# Mechanical properties :
#
#
# Convention : Reuss Voigt Hill
#
# Bulk Modulus (GPa) = 20.08033 32.46710 26.27371
# Shear Modulus (GPa) = 19.52346 23.06068 21.29207
#
# Velocity S-wave (km/s) = 3.32599 3.61475 3.47337
# Velocity P-wave (km/s) = 5.11149 5.98482 5.56531
#
# Compressibility (1/GPa) = 0.04979998
#
# Stress axis : x y z
#
# Youngs Moduli (GPa) = 33.04180 56.66111 38.53565
#
# Poissons Ratio (x) = 0.67717 -0.44340
# Poissons Ratio (y) = 0.39489 0.44650
# Poissons Ratio (z) = -0.38018 0.65652
#
# Static dielectric constant tensor:
#      x y z
#    x 1.646080 0.000000 -0.009430 
#    y 0.000000 1.596290 0.000000 
#    z -0.009430 0.000000 1.607770 
# 
# From -- ./inp_files/289371.got.cif
#   From: 2010.05.17/outbox.cif.g08.bks.cpg/sg12_145_cif.got.tgz:289371.got - 2010.06.03 13:09:07.
