data_PCOD9174106
_publ_section_title
;
Structure prediction by ZEFSAII (Michael W. Deem and Ramdas Pophale) SiO2 
 PCOD9174106
Probable space group: C 2/M
;
_chemical_formula_sum "Si O2"
_cell_formula_units_Z 64
_cell_length_a 21.108070
_cell_length_b 13.929948
_cell_length_c 12.438937
_cell_angle_alpha 90.000000
_cell_angle_beta 68.595055
_cell_angle_gamma 90.000000
_cell_volume 3405.197575
_symmetry_space_group_name_H-M "C 2/M"
_symmetry_group_IT_number 12
_symmetry_cell_setting 'monoclinic'
loop_
_space_group_symop_operation_xyz
x,y,z
-x,y,-z
-x,-y,-z
x,-y,z
1/2+x,1/2+y,z
1/2-x,1/2+y,-z
1/2-x,1/2-y,-z
1/2+x,1/2-y,z
loop_
_atom_site_type_symbol
_atom_site_label
_atom_site_fract_x
_atom_site_fract_y
_atom_site_fract_z
Si Si1 0.061790 0.786343 0.311290
Si Si2 0.927870 0.886707 0.348837
Si Si3 0.522090 0.107425 0.611718
Si Si4 0.642595 0.239632 0.478704
Si Si5 0.601864 0.611351 0.864681
Si Si6 0.357730 0.301953 0.948780
Si Si7 0.740180 0.109308 0.302040
Si Si8 0.209726 0.610308 0.075148
O O1 0.105570 0.773875 0.391579
O O2 0.105148 0.824456 0.185338
O O3 0.995513 0.852521 0.368226
O O4 0.030361 0.681491 0.302861
O O5 0.864101 0.829487 0.437762
O O6 0.939034 0.860541 0.216450
O O7 0.917420 0.000000 0.361211
O O8 0.500000 0.102988 0.500000
O O9 0.595558 0.157491 0.562318
O O10 0.521665 0.000000 0.655630
O O11 0.711986 0.189555 0.399499
O O12 0.587387 0.500000 0.900509
O O13 0.680303 0.616305 0.774945
O O14 0.597822 0.673750 0.974147
O O15 0.334358 0.191058 0.956347
O O16 0.288596 0.364429 0.001438
O O17 0.702988 0.121107 0.208945
O O18 0.726258 0.000000 0.348166
O O19 0.195092 0.500000 0.056738
#
# Coordination Sequence:
#
# PCOD9174106 Si02
#       8
#     8   8   8   8   8   8   8   8
#     4  10  20  31  50  79 104 134 171 210 263 308
#     4  10  22  38  51  68 103 146 181 211 245 300
#     4   8  15  27  44  71 103 128 159 205 248 301
#     4  10  18  31  52  79 104 130 171 210 268 309
#     4   9  20  37  55  74  98 137 182 215 252 302
#     4  10  18  32  53  77 106 132 169 218 255 301
#     4   9  16  30  55  82 104 127 164 215 262 308
#     4   9  18  31  51  79 108 135 163 206 265 313
#
# _framework density 18.794799000000001
#
# number of rings (size 3 to 8) (size 9 to 14) (size 15 to 20)
#    0.000    2.625    1.250    2.625    0.000    4.000 
#    0.000    1.250    0.000    3.750    0.000    4.375 
#    0.000    0.000    0.000    0.000    0.000    0.000 
#
# Total GULP energy -178410.673435 kJ/mol
# GULP energy per Si atom -5575.333545 kJ/mol
# Density = 1.875202 g / cm^3
# Si number density = 18.794799 Si / 1000 Ang^3
#
#
#
# Elastic Constant Matrix: (Units=GPa)
#
#
# Indices 1 2 3 4 5 6 
#
# 1 27.6836 1.8506 7.5780 0.0000 4.9948 0.0000
# 2 1.8506 80.6752 26.3686 0.0000 7.7365 0.0000
# 3 7.5780 26.3686 74.0092 0.0000 -4.3116 0.0000
# 4 0.0000 0.0000 0.0000 26.4959 0.0000 5.2689
# 5 4.9948 7.7365 -4.3116 0.0000 24.7394 0.0000
# 6 0.0000 0.0000 0.0000 5.2689 0.0000 7.5479
#
#
#
# Elastic Compliance Matrix: (Units=1/GPa)
#
#
# Indices 1 2 3 4 5 6 
#
# 1 0.039099 0.001678 -0.005144 0.000000 -0.009315 0.000000
# 2 0.001678 0.014828 -0.005804 0.000000 -0.005987 0.000000
# 3 -0.005144 -0.005804 0.016439 0.000000 0.005719 0.000000
# 4 0.000000 0.000000 0.000000 0.043825 0.000000 -0.030593
# 5 -0.009315 -0.005987 0.005719 0.000000 0.045171 0.000000
# 6 0.000000 0.000000 0.000000 -0.030593 0.000000 0.153843
#
#
# Mechanical properties :
#
#
# Convention : Reuss Voigt Hill
#
# Bulk Modulus (GPa) = 19.29505 28.21805 23.75655
# Shear Modulus (GPa) = 14.32581 21.52802 17.92691
#
# Velocity S-wave (km/s) = 2.76383 3.38808 3.09175
# Velocity P-wave (km/s) = 4.52476 5.50925 5.04110
#
# Compressibility (1/GPa) = 0.05182676
#
# Stress axis : x y z
#
# Youngs Moduli (GPa) = 25.57612 67.44022 60.82943
#
# Poissons Ratio (x) = -0.11314 0.31290
# Poissons Ratio (y) = -0.04291 0.35303
# Poissons Ratio (z) = 0.13156 0.39140
#
# Static dielectric constant tensor:
#      x y z
#    x 1.689840 0.000000 -0.007130 
#    y 0.000000 1.648100 0.000000 
#    z -0.007130 0.000000 1.650330 
# 
# From -- ./inp_files/176118.got.cif
#   From: 2010.05.17/outbox.cif.g08.bks.cpg/sg12_89_cif.got.tgz:176118.got - 2010.06.03 13:09:07.
