data_PCOD9174655
_publ_section_title
;
Structure prediction by ZEFSAII (Michael W. Deem and Ramdas Pophale) SiO2 
 PCOD9174655
Probable space group: C 2/M
;
_chemical_formula_sum "Si O2"
_cell_formula_units_Z 64
_cell_length_a 9.741030
_cell_length_b 18.681489
_cell_length_c 19.977521
_cell_angle_alpha 90.000000
_cell_angle_beta 58.740662
_cell_angle_gamma 90.000000
_cell_volume 3107.680437
_symmetry_space_group_name_H-M "C 2/M"
_symmetry_group_IT_number 12
_symmetry_cell_setting 'monoclinic'
loop_
_space_group_symop_operation_xyz
x,y,z
-x,y,-z
-x,-y,-z
x,-y,z
1/2+x,1/2+y,z
1/2-x,1/2+y,-z
1/2-x,1/2-y,-z
1/2+x,1/2-y,z
loop_
_atom_site_type_symbol
_atom_site_label
_atom_site_fract_x
_atom_site_fract_y
_atom_site_fract_z
Si Si1 0.635888 0.080031 0.909629
Si Si2 0.997080 0.825959 0.680021
Si Si3 0.350371 0.163091 0.581731
Si Si4 0.918596 0.586262 0.842550
Si Si5 0.908669 0.819465 0.851231
Si Si6 0.646521 0.692662 0.911455
Si Si7 0.647462 0.662765 0.417549
Si Si8 0.000483 0.652608 0.321760
O O1 0.550049 0.111705 0.864740
O O2 0.784462 0.120204 0.904927
O O3 0.686153 0.000000 0.879061
O O4 0.500000 0.078180 0.000000
O O5 0.963928 0.845709 0.764259
O O6 0.871724 0.851614 0.656600
O O7 0.997103 0.739157 0.684619
O O8 0.168238 0.852189 0.608624
O O9 0.500000 0.137315 0.500000
O O10 0.357207 0.250234 0.577294
O O11 0.375333 0.136456 0.650960
O O12 0.914858 0.500000 0.845178
O O13 0.743145 0.619638 0.901863
O O14 0.964575 0.615529 0.757349
O O15 0.790257 0.750785 0.877157
O O16 0.058982 0.807807 0.861550
O O17 0.500000 0.707004 0.000000
O O18 0.500000 0.636686 0.500000
O O19 0.821863 0.635808 0.393682
#
# Coordination Sequence:
#
# PCOD9174655 Si02
#       8
#     8   8   8   8   8   8   8   8
#     4  10  22  41  62  84 114 153 193 237 289 343
#     4  10  19  29  51  77 112 145 180 228 282 332
#     4   9  17  29  47  76 109 144 179 224 278 332
#     4  11  23  40  61  83 113 153 197 239 287 347
#     4  12  23  37  61  87 120 151 190 238 288 349
#     4  12  25  40  60  87 116 151 192 239 294 343
#     4   9  17  28  48  78 109 143 179 226 276 332
#     4  10  18  32  51  73 110 142 184 230 278 334
#
# _framework density 20.594139999999999
#
# number of rings (size 3 to 8) (size 9 to 14) (size 15 to 20)
#    0.000    1.625    1.250    4.500    3.500    3.750 
#    0.000    0.000    0.000    0.750    0.000    1.750 
#    0.000    0.000    0.000    0.000    0.000    0.000 
#
# Total GULP energy -178500.421931 kJ/mol
# GULP energy per Si atom -5578.138185 kJ/mol
# Density = 2.054727 g / cm^3
# Si number density = 20.594140 Si / 1000 Ang^3
#
#
#
# Elastic Constant Matrix: (Units=GPa)
#
#
# Indices 1 2 3 4 5 6 
#
# 1 85.8277 20.4813 -14.6231 0.0000 2.9012 0.0000
# 2 20.4813 33.9115 -5.4048 0.0000 -2.6039 0.0000
# 3 -14.6231 -5.4048 60.5965 0.0000 -1.8483 0.0000
# 4 0.0000 0.0000 0.0000 11.3194 0.0000 6.7998
# 5 2.9012 -2.6039 -1.8483 0.0000 31.4657 0.0000
# 6 0.0000 0.0000 0.0000 6.7998 0.0000 1.7436
#
#
#
# Elastic Compliance Matrix: (Units=1/GPa)
#
#
# Indices 1 2 3 4 5 6 
#
# 1 0.014130 -0.008257 0.002617 0.000000 -0.001832 0.000000
# 2 -0.008257 0.034959 0.001239 0.000000 0.003727 0.000000
# 3 0.002617 0.001239 0.017271 0.000000 0.000876 0.000000
# 4 0.000000 0.000000 0.000000 -0.065794 0.000000 0.256590
# 5 -0.001832 0.003727 0.000876 0.000000 0.032309 0.000000
# 6 0.000000 0.000000 0.000000 0.256590 0.000000 -0.427141
#
#
# Mechanical properties :
#
#
# Convention : Reuss Voigt Hill
#
# Bulk Modulus (GPa) = 17.37354 20.13805 18.75579
# Shear Modulus (GPa) = -13.65084 20.89789 3.62353
#
# Velocity S-wave (km/s) = -2.57738 3.18897 1.32790
# Velocity P-wave (km/s) = 0.63461 4.83313 3.38795
#
# Compressibility (1/GPa) = 0.05755881
#
# Stress axis : x y z
#
# Youngs Moduli (GPa) = 70.77354 28.60471 57.89896
#
# Poissons Ratio (x) = 0.23620 -0.15154
# Poissons Ratio (y) = 0.58440 -0.07175
# Poissons Ratio (z) = -0.18524 -0.03545
#
# Static dielectric constant tensor:
#      x y z
#    x 1.721350 0.000000 0.004140 
#    y 0.000000 1.735890 0.000000 
#    z 0.004140 0.000000 1.774570 
# 
# From -- ./inp_files/301721.got.cif
#   From: 2010.05.17/outbox.cif.g08.bks.cpg/sg12_151_cif.got.tgz:301721.got - 2010.06.03 13:09:07.
