data_PCOD9174422
_publ_section_title
;
Structure prediction by ZEFSAII (Michael W. Deem and Ramdas Pophale) SiO2 
 PCOD9174422
Probable space group: C 2/M
;
_chemical_formula_sum "Si O2"
_cell_formula_units_Z 56
_cell_length_a 8.667424
_cell_length_b 20.642210
_cell_length_c 16.330029
_cell_angle_alpha 90.000000
_cell_angle_beta 89.083343
_cell_angle_gamma 90.000000
_cell_volume 2921.309744
_symmetry_space_group_name_H-M "C 2/M"
_symmetry_group_IT_number 12
_symmetry_cell_setting 'monoclinic'
loop_
_space_group_symop_operation_xyz
x,y,z
-x,y,-z
-x,-y,-z
x,-y,z
1/2+x,1/2+y,z
1/2-x,1/2+y,-z
1/2-x,1/2-y,-z
1/2+x,1/2-y,z
loop_
_atom_site_type_symbol
_atom_site_label
_atom_site_fract_x
_atom_site_fract_y
_atom_site_fract_z
Si Si1 0.252905 0.341807 0.656160
Si Si2 0.247881 0.194393 0.857212
Si Si3 0.076153 0.426977 0.088894
Si Si4 0.183447 0.678352 0.485690
Si Si5 0.921763 0.817948 0.911917
Si Si6 0.742280 0.075663 0.816836
Si Si7 0.902005 0.706833 0.681165
O O1 0.252358 0.363057 0.560384
O O2 0.272337 0.394864 0.726573
O O3 0.373671 0.283085 0.664681
O O4 0.081978 0.311386 0.674096
O O5 0.299805 0.129167 0.902285
O O6 0.306059 0.257670 0.905022
O O7 0.330552 0.193338 0.769471
O O8 0.064982 0.197078 0.850871
O O9 0.138691 0.500000 0.097857
O O10 0.937458 0.417814 0.155338
O O11 0.000000 0.422477 0.000000
O O12 0.250000 0.750000 0.500000
O O13 0.193030 0.667346 0.388409
O O14 0.000000 0.679909 0.500000
O O15 0.837090 0.881848 0.881224
O O16 0.000000 0.822681 0.000000
O O17 0.781065 0.000000 0.820575
#
# Coordination Sequence:
#
# PCOD9174422 Si02
#       7
#     8   8   8   8   8   8   8
#     4  10  18  34  54  82 114 140 182 224 276 333
#     4  12  21  36  59  82 113 142 182 231 284 331
#     4  10  21  38  58  79 107 147 189 228 275 332
#     4   8  16  28  49  79 112 138 169 219 269 328
#     4  12  25  38  56  83 113 146 188 238 286 334
#     4  11  23  39  57  78 110 153 193 233 282 336
#     4  10  18  31  55  84 113 139 176 223 278 328
#
# _framework density 19.169483
#
# number of rings (size 3 to 8) (size 9 to 14) (size 15 to 20)
#    0.000    1.571    2.857    3.429    0.000    0.857 
#    0.000    0.000    0.000    4.714    0.000    1.000 
#    0.000    0.000    0.000    0.000    0.000    0.000 
#
# Total GULP energy -156246.385202 kJ/mol
# GULP energy per Si atom -5580.228043 kJ/mol
# Density = 1.912585 g / cm^3
# Si number density = 19.169483 Si / 1000 Ang^3
#
#
#
# Elastic Constant Matrix: (Units=GPa)
#
#
# Indices 1 2 3 4 5 6 
#
# 1 42.9847 28.3152 -9.5348 0.0000 3.7445 0.0000
# 2 28.3152 103.6204 25.5052 0.0000 9.6401 0.0000
# 3 -9.5348 25.5052 105.9092 0.0000 7.8298 0.0000
# 4 0.0000 0.0000 0.0000 16.9865 0.0000 5.7586
# 5 3.7445 9.6401 7.8298 0.0000 18.7283 0.0000
# 6 0.0000 0.0000 0.0000 5.7586 0.0000 20.8794
#
#
#
# Elastic Compliance Matrix: (Units=1/GPa)
#
#
# Indices 1 2 3 4 5 6 
#
# 1 0.030977 -0.009445 0.005326 0.000000 -0.003559 0.000000
# 2 -0.009445 0.013499 -0.003846 0.000000 -0.003452 0.000000
# 3 0.005326 -0.003846 0.011124 0.000000 -0.003736 0.000000
# 4 0.000000 0.000000 0.000000 0.064942 0.000000 -0.017911
# 5 -0.003559 -0.003452 -0.003736 0.000000 0.057446 0.000000
# 6 0.000000 0.000000 0.000000 -0.017911 0.000000 0.052834
#
#
# Mechanical properties :
#
#
# Convention : Reuss Voigt Hill
#
# Bulk Modulus (GPa) = 25.20686 37.89839 31.55263
# Shear Modulus (GPa) = 19.23263 25.20076 22.21669
#
# Velocity S-wave (km/s) = 3.17092 3.62971 3.40805
# Velocity P-wave (km/s) = 5.15600 6.11388 5.65526
#
# Compressibility (1/GPa) = 0.03967173
#
# Stress axis : x y z
#
# Youngs Moduli (GPa) = 32.28194 74.07795 89.89600
#
# Poissons Ratio (x) = 0.69964 -0.47882
# Poissons Ratio (y) = 0.30489 0.34574
# Poissons Ratio (z) = -0.17195 0.28490
#
# Static dielectric constant tensor:
#      x y z
#    x 1.670910 0.000000 -0.011530 
#    y 0.000000 1.630060 0.000000 
#    z -0.011530 0.000000 1.763460 
# 
# From -- ./inp_files/197537.got.cif
#   From: 2010.05.17/outbox.cif.g08.bks.cpg/sg12_99_cif.got.tgz:197537.got - 2010.06.03 13:09:07.
