data_PCOD9174811
_publ_section_title
;
Structure prediction by ZEFSAII (Michael W. Deem and Ramdas Pophale) SiO2 
 PCOD9174811
Probable space group: C 2/M
;
_chemical_formula_sum "Si O2"
_cell_formula_units_Z 56
_cell_length_a 25.931448
_cell_length_b 8.201229
_cell_length_c 26.363499
_cell_angle_alpha 90.000000
_cell_angle_beta 145.444664
_cell_angle_gamma 90.000000
_cell_volume 3180.141479
_symmetry_space_group_name_H-M "C 2/M"
_symmetry_group_IT_number 12
_symmetry_cell_setting 'monoclinic'
loop_
_space_group_symop_operation_xyz
x,y,z
-x,y,-z
-x,-y,-z
x,-y,z
1/2+x,1/2+y,z
1/2-x,1/2+y,-z
1/2-x,1/2-y,-z
1/2+x,1/2-y,z
loop_
_atom_site_type_symbol
_atom_site_label
_atom_site_fract_x
_atom_site_fract_y
_atom_site_fract_z
Si Si1 0.859690 0.809001 0.905216
Si Si2 0.966645 0.303253 0.590833
Si Si3 0.324042 0.801201 0.390612
Si Si4 0.147198 0.195077 0.405082
Si Si5 0.662942 0.800317 0.715720
Si Si6 0.372877 0.697216 0.725613
Si Si7 0.969634 0.688613 0.900135
O O1 0.756689 0.747258 0.817879
O O2 0.905288 0.789218 0.886477
O O3 0.859008 0.000000 0.917436
O O4 0.927616 0.721118 0.998800
O O5 0.967538 0.500000 0.589332
O O6 0.903304 0.246273 0.492797
O O7 0.919454 0.254044 0.604859
O O8 0.070042 0.246921 0.667074
O O9 0.336845 0.748652 0.343043
O O10 0.226062 0.751893 0.333095
O O11 0.325415 0.000000 0.391625
O O12 0.250000 0.250000 0.500000
O O13 0.119449 0.252371 0.326287
O O14 0.146881 0.000000 0.404181
O O15 0.664804 0.000000 0.717106
O O16 0.375706 0.500000 0.728889
O O17 0.447398 0.762613 0.824928
O O18 0.947951 0.500000 0.890769
#
# Coordination Sequence:
#
# PCOD9174811 Si02
#       7
#     8   8   8   8   8   8   8
#     4  10  18  32  53  76 105 141 175 209 250 313
#     4  10  19  33  53  78 106 138 174 215 253 300
#     4   9  15  28  50  77 104 135 172 208 246 298
#     4  11  22  36  54  76 103 138 178 217 257 303
#     4   9  17  29  52  80 104 135 177 211 248 301
#     4  10  19  34  54  74 100 138 177 212 254 308
#     4  11  21  32  49  78 107 134 168 217 271 309
#
# _framework density 17.609279999999998
#
# number of rings (size 3 to 8) (size 9 to 14) (size 15 to 20)
#    0.000    2.000    2.857    3.429    0.000    2.857 
#    0.000    1.429    0.000    1.714    0.000    0.000 
#    0.000    0.000    0.000    0.000    0.000    0.000 
#
# Total GULP energy -156278.351869 kJ/mol
# GULP energy per Si atom -5581.369710 kJ/mol
# Density = 1.756920 g / cm^3
# Si number density = 17.609280 Si / 1000 Ang^3
#
#
#
# Elastic Constant Matrix: (Units=GPa)
#
#
# Indices 1 2 3 4 5 6 
#
# 1 116.2948 0.1329 76.0928 0.0000 12.6124 0.0000
# 2 0.1329 12.7100 5.8407 0.0000 2.2647 -0.0001
# 3 76.0928 5.8407 153.7009 0.0000 1.2091 0.0000
# 4 0.0000 0.0000 0.0000 8.5700 0.0000 -6.3979
# 5 12.6124 2.2647 1.2091 0.0000 24.2519 0.0000
# 6 0.0000 -0.0001 0.0000 -6.3979 0.0000 19.2662
#
#
#
# Elastic Compliance Matrix: (Units=1/GPa)
#
#
# Indices 1 2 3 4 5 6 
#
# 1 0.013994 0.004395 -0.007037 0.000000 -0.007337 0.000000
# 2 0.004395 0.082781 -0.005245 0.000000 -0.009755 0.000001
# 3 -0.007037 -0.005245 0.010161 0.000000 0.003643 0.000000
# 4 0.000000 0.000000 0.000000 0.155149 0.000000 0.051521
# 5 -0.007337 -0.009755 0.003643 0.000000 0.045779 0.000000
# 6 0.000000 0.000001 0.000000 0.051521 0.000000 0.069013
#
#
# Mechanical properties :
#
#
# Convention : Reuss Voigt Hill
#
# Bulk Modulus (GPa) = 10.96956 49.64873 30.30915
# Shear Modulus (GPa) = 11.81924 23.79357 17.80640
#
# Velocity S-wave (km/s) = 2.59355 3.67985 3.18338
# Velocity P-wave (km/s) = 3.90021 6.80521 5.54628
#
# Compressibility (1/GPa) = 0.09116137
#
# Stress axis : x y z
#
# Youngs Moduli (GPa) = 71.45809 12.08009 98.41735
#
# Poissons Ratio (x) = -0.05309 0.69260
# Poissons Ratio (y) = -0.31406 0.51618
# Poissons Ratio (z) = 0.50288 0.06336
#
# Static dielectric constant tensor:
#      x y z
#    x 1.613380 0.000000 0.004520 
#    y 0.000000 1.614810 0.000000 
#    z 0.004520 0.000000 1.605840 
# 
# From -- ./inp_files/348641.got.cif
#   From: 2010.05.17/outbox.cif.g08.bks.cpg/sg12_175_cif.got.tgz:348641.got - 2010.06.03 13:09:07.
