data_PCOD9174415
_publ_section_title
;
Structure prediction by ZEFSAII (Michael W. Deem and Ramdas Pophale) SiO2 
 PCOD9174415
Probable space group: C 2/M
;
_chemical_formula_sum "Si O2"
_cell_formula_units_Z 56
_cell_length_a 15.498746
_cell_length_b 8.164188
_cell_length_c 25.300320
_cell_angle_alpha 90.000000
_cell_angle_beta 120.631437
_cell_angle_gamma 90.000000
_cell_volume 2754.657248
_symmetry_space_group_name_H-M "C 2/M"
_symmetry_group_IT_number 12
_symmetry_cell_setting 'monoclinic'
loop_
_space_group_symop_operation_xyz
x,y,z
-x,y,-z
-x,-y,-z
x,-y,z
1/2+x,1/2+y,z
1/2-x,1/2+y,-z
1/2-x,1/2-y,-z
1/2+x,1/2-y,z
loop_
_atom_site_type_symbol
_atom_site_label
_atom_site_fract_x
_atom_site_fract_y
_atom_site_fract_z
Si Si1 0.642916 0.197623 0.489184
Si Si2 0.421573 0.697185 0.712412
Si Si3 0.197974 0.700054 0.621010
Si Si4 0.786428 0.307782 0.068984
Si Si5 0.010076 0.806676 0.151838
Si Si6 0.030073 0.302267 0.644660
Si Si7 0.908700 0.306428 0.934202
O O1 0.750000 0.250000 0.500000
O O2 0.641879 0.252455 0.549866
O O3 0.555745 0.256885 0.423108
O O4 0.636549 0.000000 0.487660
O O5 0.417710 0.500000 0.713253
O O6 0.312570 0.756895 0.658872
O O7 0.446651 0.756147 0.779012
O O8 0.503439 0.744755 0.694625
O O9 0.199438 0.500000 0.620444
O O10 0.135551 0.750482 0.652842
O O11 0.807638 0.500000 0.073491
O O12 0.890482 0.219472 0.114624
O O13 0.695883 0.273730 0.081210
O O14 0.750000 0.250000 0.000000
O O15 0.058848 0.724180 0.115776
O O16 0.031095 0.000000 0.154299
O O17 0.028023 0.500000 0.644118
O O18 0.898157 0.500000 0.940650
O O19 0.000000 0.244973 0.000000
#
# Coordination Sequence:
#
# PCOD9174415 Si02
#       7
#     8   8   8   8   8   8   8
#     4  10  18  31  55  83 112 148 193 244 299 349
#     4  10  22  40  59  82 116 158 195 238 293 349
#     4   9  18  35  57  80 114 154 193 239 292 350
#     4  12  24  40  65  94 124 158 197 246 302 356
#     4  11  24  41  62  90 124 162 207 249 298 363
#     4  10  20  34  57  86 113 150 200 246 291 351
#     4  11  23  40  65  95 125 157 195 243 303 361
#
# _framework density 20.329207
#
# number of rings (size 3 to 8) (size 9 to 14) (size 15 to 20)
#    0.000    1.571    2.857    2.571    0.000    4.571 
#    0.000    2.857    0.000    1.714    0.000    0.000 
#    0.000    0.000    0.000    0.000    0.000    0.000 
#
# Total GULP energy -156456.995565 kJ/mol
# GULP energy per Si atom -5587.749842 kJ/mol
# Density = 2.028294 g / cm^3
# Si number density = 20.329207 Si / 1000 Ang^3
#
#
#
# Elastic Constant Matrix: (Units=GPa)
#
#
# Indices 1 2 3 4 5 6 
#
# 1 99.6272 -11.8337 15.1142 0.0000 -29.5389 0.0000
# 2 -11.8337 14.2529 -2.6487 0.0000 -1.6343 0.0000
# 3 15.1142 -2.6487 89.9009 0.0000 -29.7802 0.0000
# 4 0.0000 0.0000 0.0000 16.8454 0.0000 -4.1068
# 5 -29.5389 -1.6343 -29.7802 0.0000 31.8520 0.0000
# 6 0.0000 0.0000 0.0000 -4.1068 0.0000 30.2858
#
#
#
# Elastic Compliance Matrix: (Units=1/GPa)
#
#
# Indices 1 2 3 4 5 6 
#
# 1 0.018111 0.018507 0.004895 0.000000 0.022322 0.000000
# 2 0.018507 0.090916 0.009848 0.000000 0.031035 0.000000
# 3 0.004895 0.009848 0.017763 0.000000 0.021652 0.000000
# 4 0.000000 0.000000 0.000000 0.061393 0.000000 0.008325
# 5 0.022322 0.031035 0.021652 0.000000 0.073932 0.000000
# 6 0.000000 0.000000 0.000000 0.008325 0.000000 0.034148
#
#
# Mechanical properties :
#
#
# Convention : Reuss Voigt Hill
#
# Bulk Modulus (GPa) = 5.17363 22.78273 13.97818
# Shear Modulus (GPa) = 16.99555 29.33990 23.16773
#
# Velocity S-wave (km/s) = 2.89453 3.80312 3.37950
# Velocity P-wave (km/s) = 3.70426 5.52415 4.70307
#
# Compressibility (1/GPa) = 0.19328786
#
# Stress axis : x y z
#
# Youngs Moduli (GPa) = 55.21372 10.99921 56.29684
#
# Poissons Ratio (x) = -0.20356 -0.27555
# Poissons Ratio (y) = -1.02182 -0.55439
# Poissons Ratio (z) = -0.27025 -0.10832
#
# Static dielectric constant tensor:
#      x y z
#    x 1.681230 0.000000 -0.004490 
#    y 0.000000 1.722600 0.000000 
#    z -0.004490 0.000000 1.714360 
# 
# From -- ./inp_files/339090.got.cif
#   From: 2010.05.17/outbox.cif.g08.bks.cpg/sg12_170_cif.got.tgz:339090.got - 2010.06.03 13:09:07.
