data_PCOD9174587
_publ_section_title
;
Structure prediction by ZEFSAII (Michael W. Deem and Ramdas Pophale) SiO2 
 PCOD9174587
Probable space group: C 2/M
;
_chemical_formula_sum "Si O2"
_cell_formula_units_Z 48
_cell_length_a 27.206510
_cell_length_b 15.245314
_cell_length_c 11.042063
_cell_angle_alpha 90.000000
_cell_angle_beta 31.286777
_cell_angle_gamma 90.000000
_cell_volume 2378.461184
_symmetry_space_group_name_H-M "C 2/M"
_symmetry_group_IT_number 12
_symmetry_cell_setting 'monoclinic'
loop_
_space_group_symop_operation_xyz
x,y,z
-x,y,-z
-x,-y,-z
x,-y,z
1/2+x,1/2+y,z
1/2-x,1/2+y,-z
1/2-x,1/2-y,-z
1/2+x,1/2-y,z
loop_
_atom_site_type_symbol
_atom_site_label
_atom_site_fract_x
_atom_site_fract_y
_atom_site_fract_z
Si Si1 0.077011 0.593001 0.651119
Si Si2 0.170576 0.903590 0.606148
Si Si3 0.384227 0.873319 0.146852
Si Si4 0.835196 0.229156 0.587335
Si Si5 0.861987 0.190851 0.083944
Si Si6 0.968993 0.103242 0.426063
O O1 0.117578 0.500000 0.522966
O O2 0.101579 0.604990 0.741997
O O3 0.109356 0.679721 0.515842
O O4 0.964287 0.588441 0.893065
O O5 0.279870 0.904417 0.335837
O O6 0.133911 0.823526 0.600678
O O7 0.170765 0.880594 0.747932
O O8 0.127468 0.000000 0.677271
O O9 0.394708 0.770437 0.100431
O O10 0.726913 0.264677 0.800706
O O11 0.872527 0.159040 0.606773
O O12 0.946107 0.149810 0.828310
O O13 0.000000 0.106651 0.500000
O O14 0.958249 0.000000 0.415262
#
# Coordination Sequence:
#
# PCOD9174587 Si02
#       6
#     8   8   8   8   8   8
#     4  11  19  30  53  83 122 164 196 228 285 366
#     4  11  20  33  55  91 131 160 191 239 303 377
#     4  10  18  32  49  83 124 158 190 227 287 363
#     4  11  22  39  61  93 126 160 204 250 305 371
#     4  11  21  37  62  88 124 163 195 248 307 372
#     4  11  26  47  67  87 116 162 218 268 313 359
#
# _framework density 20.181117
#
# number of rings (size 3 to 8) (size 9 to 14) (size 15 to 20)
#    0.000    1.167    5.000    4.000    0.000    2.000 
#    0.000    1.667    0.000    0.500    0.000    0.000 
#    0.000    0.000    0.000    0.000    0.000    0.000 
#
# Total GULP energy -133688.353314 kJ/mol
# GULP energy per Si atom -5570.348055 kJ/mol
# Density = 2.013518 g / cm^3
# Si number density = 20.181117 Si / 1000 Ang^3
#
#
#
# Elastic Constant Matrix: (Units=GPa)
#
#
# Indices 1 2 3 4 5 6 
#
# 1 67.8812 26.2662 10.4819 0.0000 -7.1709 0.0000
# 2 26.2662 169.4803 21.3208 0.0000 -0.6159 0.0000
# 3 10.4819 21.3208 39.2445 0.0000 -8.1015 0.0000
# 4 0.0000 0.0000 0.0000 14.6486 0.0000 1.8467
# 5 -7.1709 -0.6159 -8.1015 0.0000 14.6510 0.0000
# 6 0.0000 0.0000 0.0000 1.8467 0.0000 24.4593
#
#
#
# Elastic Compliance Matrix: (Units=1/GPa)
#
#
# Indices 1 2 3 4 5 6 
#
# 1 0.016652 -0.002340 -0.001709 0.000000 0.007107 0.000000
# 2 -0.002340 0.006707 -0.003609 0.000000 -0.002859 0.000000
# 3 -0.001709 -0.003609 0.031263 0.000000 0.016299 0.000000
# 4 0.000000 0.000000 0.000000 0.068922 0.000000 -0.005204
# 5 0.007107 -0.002859 0.016299 0.000000 0.080626 0.000000
# 6 0.000000 0.000000 0.000000 -0.005204 0.000000 0.041277
#
#
# Mechanical properties :
#
#
# Convention : Reuss Voigt Hill
#
# Bulk Modulus (GPa) = 25.44169 43.63821 34.53995
# Shear Modulus (GPa) = 18.25725 25.32093 21.78909
#
# Velocity S-wave (km/s) = 3.01104 3.54599 3.28941
# Velocity P-wave (km/s) = 4.97217 6.19965 5.61953
#
# Compressibility (1/GPa) = 0.03930556
#
# Stress axis : x y z
#
# Youngs Moduli (GPa) = 60.05405 149.10632 31.98654
#
# Poissons Ratio (x) = 0.34888 0.05467
# Poissons Ratio (y) = 0.14052 0.11543
# Poissons Ratio (z) = 0.10265 0.53810
#
# Static dielectric constant tensor:
#      x y z
#    x 1.744690 0.000000 -0.059860 
#    y 0.000000 1.832200 0.000000 
#    z -0.059860 0.000000 1.725300 
# 
# From -- ./inp_files/189374.got.cif
#   From: 2010.05.17/outbox.cif.g08.bks.cpg/sg12_95_cif.got.tgz:189374.got - 2010.06.03 13:09:07.
