data_PCOD9174836
_publ_section_title
;
Structure prediction by ZEFSAII (Michael W. Deem and Ramdas Pophale) SiO2 
 PCOD9174836
Probable space group: C 2/M
;
_chemical_formula_sum "Si O2"
_cell_formula_units_Z 64
_cell_length_a 8.798271
_cell_length_b 28.620003
_cell_length_c 13.063052
_cell_angle_alpha 90.000000
_cell_angle_beta 60.116801
_cell_angle_gamma 90.000000
_cell_volume 2852.017880
_symmetry_space_group_name_H-M "C 2/M"
_symmetry_group_IT_number 12
_symmetry_cell_setting 'monoclinic'
loop_
_space_group_symop_operation_xyz
x,y,z
-x,y,-z
-x,-y,-z
x,-y,z
1/2+x,1/2+y,z
1/2-x,1/2+y,-z
1/2-x,1/2-y,-z
1/2+x,1/2-y,z
loop_
_atom_site_type_symbol
_atom_site_label
_atom_site_fract_x
_atom_site_fract_y
_atom_site_fract_z
Si Si1 0.389672 0.344922 0.930690
Si Si2 0.805777 0.947315 0.566071
Si Si3 0.592956 0.313594 0.663850
Si Si4 0.437613 0.914215 0.768934
Si Si5 0.805683 0.593365 0.594330
Si Si6 0.779407 0.239055 0.714606
Si Si7 0.912971 0.307784 0.847027
Si Si8 0.168491 0.051249 0.019291
O O1 0.499275 0.320957 0.805601
O O2 0.500000 0.345597 0.000000
O O3 0.349859 0.399239 0.915432
O O4 0.215768 0.315448 0.014187
O O5 0.641476 0.925155 0.680962
O O6 0.746313 0.946253 0.467755
O O7 0.000000 0.925466 0.500000
O O8 0.823686 0.000000 0.599102
O O9 0.682321 0.362741 0.614434
O O10 0.731938 0.272267 0.635357
O O11 0.439103 0.296122 0.642534
O O12 0.322234 0.923062 0.705368
O O13 0.421298 0.859357 0.795923
O O14 0.343360 0.941770 0.892015
O O15 0.000000 0.609734 0.500000
O O16 0.606566 0.210522 0.803488
O O17 0.834177 0.272870 0.789313
O O18 0.173545 0.000000 0.069462
O O19 0.000000 0.050483 0.000000
#
# Coordination Sequence:
#
# PCOD9174836 Si02
#       8
#     8   8   8   8   8   8   8   8
#     4  10  18  32  53  78 118 148 185 230 280 328
#     4  10  23  40  62  88 111 143 189 235 284 340
#     4  11  21  38  54  83 112 150 185 237 279 324
#     4  10  19  36  60  84 119 147 186 234 282 332
#     4  10  21  38  60  82 115 144 184 233 285 330
#     4  10  22  34  58  78 117 144 197 228 274 336
#     4  10  20  35  53  87 113 154 184 229 279 329
#     4   9  17  29  51  85 115 148 184 222 275 338
#
# _framework density 22.440251
#
# number of rings (size 3 to 8) (size 9 to 14) (size 15 to 20)
#    0.000    2.000    2.500    1.875    1.750    6.250 
#    0.000    1.250    0.000    0.000    0.000    1.750 
#    0.000    0.000    0.000    0.000    0.000    0.000 
#
# Total GULP energy -178751.186022 kJ/mol
# GULP energy per Si atom -5585.974563 kJ/mol
# Density = 2.238918 g / cm^3
# Si number density = 22.440251 Si / 1000 Ang^3
#
#
#
# Elastic Constant Matrix: (Units=GPa)
#
#
# Indices 1 2 3 4 5 6 
#
# 1 80.1472 10.9762 27.8572 0.0000 -33.4052 0.0000
# 2 10.9762 42.7368 7.1123 0.0000 -8.7735 0.0000
# 3 27.8572 7.1123 45.0480 0.0000 -13.8160 0.0000
# 4 0.0000 0.0000 0.0000 24.3020 0.0000 -8.3893
# 5 -33.4052 -8.7735 -13.8160 0.0000 27.0026 0.0000
# 6 0.0000 0.0000 0.0000 -8.3893 0.0000 17.3596
#
#
#
# Elastic Compliance Matrix: (Units=1/GPa)
#
#
# Indices 1 2 3 4 5 6 
#
# 1 0.027964 0.000437 -0.007957 0.000000 0.030666 0.000000
# 2 0.000437 0.025193 -0.001864 0.000000 0.007773 0.000000
# 3 -0.007957 -0.001864 0.028715 0.000000 0.004243 0.000000
# 4 0.000000 0.000000 0.000000 0.049388 0.000000 0.023868
# 5 0.030666 0.007773 0.004243 0.000000 0.079667 0.000000
# 6 0.000000 0.000000 0.000000 0.023868 0.000000 0.069139
#
#
# Mechanical properties :
#
#
# Convention : Reuss Voigt Hill
#
# Bulk Modulus (GPa) = 15.84678 28.86929 22.35804
# Shear Modulus (GPa) = 15.63149 21.86526 18.74838
#
# Velocity S-wave (km/s) = 2.64215 3.12489 2.89360
# Velocity P-wave (km/s) = 4.04784 5.09046 4.59879
#
# Compressibility (1/GPa) = 0.06310432
#
# Stress axis : x y z
#
# Youngs Moduli (GPa) = 35.76008 39.69421 34.82557
#
# Poissons Ratio (x) = -0.01737 0.27710
# Poissons Ratio (y) = -0.01564 0.06492
# Poissons Ratio (z) = 0.28454 0.07400
#
# Static dielectric constant tensor:
#      x y z
#    x 1.859790 0.000000 -0.015790 
#    y 0.000000 1.852650 0.000000 
#    z -0.015790 0.000000 1.833710 
# 
# From -- ./inp_files/201304.got.cif
#   From: 2010.05.17/outbox.cif.g08.bks.cpg/sg12_101_cif.got.tgz:201304.got - 2010.06.03 13:09:07.
