data_PCOD9174185
_publ_section_title
;
Structure prediction by ZEFSAII (Michael W. Deem and Ramdas Pophale) SiO2 
 PCOD9174185
Probable space group: C 2/M
;
_chemical_formula_sum "Si O2"
_cell_formula_units_Z 40
_cell_length_a 10.752791
_cell_length_b 29.158407
_cell_length_c 7.448747
_cell_angle_alpha 90.000000
_cell_angle_beta 41.179535
_cell_angle_gamma 90.000000
_cell_volume 1537.700224
_symmetry_space_group_name_H-M "C 2/M"
_symmetry_group_IT_number 12
_symmetry_cell_setting 'monoclinic'
loop_
_space_group_symop_operation_xyz
x,y,z
-x,y,-z
-x,-y,-z
x,-y,z
1/2+x,1/2+y,z
1/2-x,1/2+y,-z
1/2-x,1/2-y,-z
1/2+x,1/2-y,z
loop_
_atom_site_type_symbol
_atom_site_label
_atom_site_fract_x
_atom_site_fract_y
_atom_site_fract_z
Si Si1 0.712192 0.069069 0.221009
Si Si2 0.210459 0.638557 0.704919
Si Si3 0.576848 0.550512 0.631966
Si Si4 0.223124 0.735920 0.737113
Si Si5 0.771628 0.167358 0.231481
O O1 0.500000 0.054177 0.500000
O O2 0.824529 0.058201 0.281770
O O3 0.710119 0.123738 0.184461
O O4 0.852109 0.050609 0.916253
O O5 0.339528 0.593666 0.565780
O O6 0.291803 0.684982 0.708906
O O7 0.198279 0.655103 0.510086
O O8 0.000000 0.627688 0.000000
O O9 0.632419 0.500000 0.505745
O O10 0.250000 0.750000 0.500000
O O11 0.288189 0.782074 0.768573
O O12 0.000000 0.732087 0.000000
O O13 0.000000 0.166971 0.000000
#
# Coordination Sequence:
#
# PCOD9174185 Si02
#       5
#     8   8   8   8   8
#     4  10  18  31  53  77 104 126 159 211 261 293
#     4   9  16  28  46  74 100 134 167 198 244 298
#     4  10  20  33  49  74 102 128 170 213 244 293
#     4   8  14  22  42  71  95 126 165 192 237 293
#     4   9  14  28  48  75 101 126 162 207 242 292
#
# _framework density 26.012872000000002
#
# number of rings (size 3 to 8) (size 9 to 14) (size 15 to 20)
#    0.000    2.800    4.000    1.200    0.000    2.000 
#    0.000    0.000    0.000    6.000    0.000    7.000 
#    0.000    0.000    0.000    0.000    0.000    0.000 
#
# Total GULP energy -111713.338827 kJ/mol
# GULP energy per Si atom -5585.666941 kJ/mol
# Density = 2.595367 g / cm^3
# Si number density = 26.012872 Si / 1000 Ang^3
#
#
#
# Elastic Constant Matrix: (Units=GPa)
#
#
# Indices 1 2 3 4 5 6 
#
# 1 63.0924 13.6178 39.0826 0.0000 -8.2168 0.0000
# 2 13.6178 307.8986 69.7104 0.0000 -5.0434 0.0000
# 3 39.0826 69.7104 231.3470 0.0000 -32.1938 0.0000
# 4 0.0000 0.0000 0.0000 141.8516 0.0000 41.0491
# 5 -8.2168 -5.0434 -32.1938 0.0000 43.1705 0.0000
# 6 0.0000 0.0000 0.0000 41.0491 0.0000 1.1145
#
#
#
# Elastic Compliance Matrix: (Units=1/GPa)
#
#
# Indices 1 2 3 4 5 6 
#
# 1 0.017770 -0.000135 -0.002781 0.000000 0.001292 0.000000
# 2 -0.000135 0.003493 -0.001090 0.000000 -0.000430 0.000000
# 3 -0.002781 -0.001090 0.005612 0.000000 0.003528 0.000000
# 4 0.000000 0.000000 0.000000 -0.000730 0.000000 0.026883
# 5 0.001292 -0.000430 0.003528 0.000000 0.025991 0.000000
# 6 0.000000 0.000000 0.000000 0.026883 0.000000 -0.092899
#
#
# Mechanical properties :
#
#
# Convention : Reuss Voigt Hill
#
# Bulk Modulus (GPa) = 53.01406 94.12884 73.57145
# Shear Modulus (GPa) = -188.94460 69.22247 -59.86107
#
# Velocity S-wave (km/s) = -8.53187 5.16417 -4.80230
# Velocity P-wave (km/s) = 8.75402 8.47480 1.55090
#
# Compressibility (1/GPa) = 0.01886292
#
# Stress axis : x y z
#
# Youngs Moduli (GPa) = 56.27395 286.24849 178.19804
#
# Poissons Ratio (x) = 0.03865 0.49566
# Poissons Ratio (y) = 0.00760 0.19419
# Poissons Ratio (z) = 0.15653 0.31193
#
# Static dielectric constant tensor:
#      x y z
#    x 2.058440 0.000000 0.054730 
#    y 0.000000 2.149250 0.000000 
#    z 0.054730 0.000000 2.021170 
# 
# From -- ./inp_files/161054.got.cif
#   From: 2010.05.17/outbox.cif.g08.bks.cpg/sg12_81_cif.got.tgz:161054.got - 2010.06.03 13:09:07.
