data_PCOD9174574
_publ_section_title
;
Structure prediction by ZEFSAII (Michael W. Deem and Ramdas Pophale) SiO2 
 PCOD9174574
Probable space group: C 2/M
;
_chemical_formula_sum "Si O2"
_cell_formula_units_Z 64
_cell_length_a 24.707546
_cell_length_b 23.352249
_cell_length_c 7.919548
_cell_angle_alpha 90.000000
_cell_angle_beta 44.677123
_cell_angle_gamma 90.000000
_cell_volume 3212.791292
_symmetry_space_group_name_H-M "C 2/M"
_symmetry_group_IT_number 12
_symmetry_cell_setting 'monoclinic'
loop_
_space_group_symop_operation_xyz
x,y,z
-x,y,-z
-x,-y,-z
x,-y,z
1/2+x,1/2+y,z
1/2-x,1/2+y,-z
1/2-x,1/2-y,-z
1/2+x,1/2-y,z
loop_
_atom_site_type_symbol
_atom_site_label
_atom_site_fract_x
_atom_site_fract_y
_atom_site_fract_z
Si Si1 0.299446 0.433643 0.054829
Si Si2 0.292296 0.819500 0.224621
Si Si3 0.796457 0.667910 0.827280
Si Si4 0.481005 0.689202 0.289515
Si Si5 0.877978 0.178386 0.832444
Si Si6 0.552179 0.560989 0.717384
Si Si7 0.777883 0.936366 0.505969
Si Si8 0.640894 0.240580 0.606261
O O1 0.305434 0.500000 0.991429
O O2 0.224697 0.399508 0.150209
O O3 0.295388 0.430302 0.267397
O O4 0.368655 0.391175 0.846480
O O5 0.274356 0.884695 0.316993
O O6 0.346716 0.791376 0.244292
O O7 0.211120 0.785598 0.423814
O O8 0.318393 0.820037 0.971663
O O9 0.788788 0.804733 0.021161
O O10 0.850248 0.693563 0.563434
O O11 0.426921 0.702894 0.570697
O O12 0.571474 0.697156 0.120637
O O13 0.472261 0.620922 0.302675
O O14 0.436333 0.723177 0.245253
O O15 0.541617 0.500000 0.648199
O O16 0.641147 0.566131 0.575011
O O17 0.500000 0.557206 0.000000
O O18 0.745038 0.000000 0.605392
#
# Coordination Sequence:
#
# PCOD9174574 Si02
#       8
#     8   8   8   8   8   8   8   8
#     4   9  18  33  53  75 106 147 185 223 269 318
#     4  11  20  34  53  74  98 138 184 225 280 324
#     4  10  20  36  54  75 105 140 186 232 275 320
#     4  11  20  35  48  73 103 145 186 235 278 315
#     4   9  20  33  50  71 105 140 188 224 275 316
#     4  10  20  31  45  66  99 143 189 228 264 310
#     4  10  18  32  49  71 102 135 176 224 269 317
#     4  11  21  34  55  74 102 139 192 230 278 326
#
# _framework density 19.920372
#
# number of rings (size 3 to 8) (size 9 to 14) (size 15 to 20)
#    0.750    1.125    3.750    1.125    0.000    2.500 
#    0.000    1.250    0.000    0.000    0.000    0.000 
#    0.000    0.000    0.000   14.625    0.250    0.625 
#
# Total GULP energy -178463.582042 kJ/mol
# GULP energy per Si atom -5576.986939 kJ/mol
# Density = 1.987503 g / cm^3
# Si number density = 19.920372 Si / 1000 Ang^3
#
#
#
# Elastic Constant Matrix: (Units=GPa)
#
#
# Indices 1 2 3 4 5 6 
#
# 1 96.7698 40.1342 28.0872 0.0000 18.7060 0.0000
# 2 40.1342 116.6643 32.4549 0.0000 3.4759 0.0000
# 3 28.0872 32.4549 53.6443 0.0000 9.4505 0.0000
# 4 0.0000 0.0000 0.0000 12.1152 0.0000 21.2396
# 5 18.7060 3.4759 9.4505 0.0000 18.8569 0.0000
# 6 0.0000 0.0000 0.0000 21.2396 0.0000 -4.5831
#
#
#
# Elastic Compliance Matrix: (Units=1/GPa)
#
#
# Indices 1 2 3 4 5 6 
#
# 1 0.015473 -0.003989 -0.003416 0.000000 -0.012903 0.000000
# 2 -0.003989 0.011365 -0.005611 0.000000 0.004674 0.000000
# 3 -0.003416 -0.005611 0.025277 0.000000 -0.008245 0.000000
# 4 0.000000 0.000000 0.000000 0.009046 0.000000 0.041922
# 5 -0.012903 0.004674 -0.008245 0.000000 0.069101 0.000000
# 6 0.000000 0.000000 0.000000 0.041922 0.000000 -0.023913
#
#
# Mechanical properties :
#
#
# Convention : Reuss Voigt Hill
#
# Bulk Modulus (GPa) = 38.33548 52.04787 45.19167
# Shear Modulus (GPa) = 35.44189 16.37128 25.90659
#
# Velocity S-wave (km/s) = 4.22261 2.86988 3.61017
# Velocity P-wave (km/s) = 6.56201 6.09642 6.33349
#
# Compressibility (1/GPa) = 0.02608550
#
# Stress axis : x y z
#
# Youngs Moduli (GPa) = 64.62668 87.98620 39.56173
#
# Poissons Ratio (x) = 0.35093 0.13512
# Poissons Ratio (y) = 0.25776 0.22199
# Poissons Ratio (z) = 0.22073 0.49370
#
# Static dielectric constant tensor:
#      x y z
#    x 1.788320 0.000000 0.059660 
#    y 0.000000 1.766740 0.000000 
#    z 0.059660 0.000000 1.733980 
# 
# From -- ./inp_files/99086.got.cif
#   From: 2010.05.17/outbox.cif.g08.bks.cpg/sg12_50_cif.got.tgz:99086.got - 2010.06.03 13:09:07.
