data_PCOD9174718
_publ_section_title
;
Structure prediction by ZEFSAII (Michael W. Deem and Ramdas Pophale) SiO2 
 PCOD9174718
Probable space group: C 2/M
;
_chemical_formula_sum "Si O2"
_cell_formula_units_Z 64
_cell_length_a 20.559311
_cell_length_b 8.906937
_cell_length_c 20.774988
_cell_angle_alpha 90.000000
_cell_angle_beta 96.890148
_cell_angle_gamma 90.000000
_cell_volume 3776.851038
_symmetry_space_group_name_H-M "C 2/M"
_symmetry_group_IT_number 12
_symmetry_cell_setting 'monoclinic'
loop_
_space_group_symop_operation_xyz
x,y,z
-x,y,-z
-x,-y,-z
x,-y,z
1/2+x,1/2+y,z
1/2-x,1/2+y,-z
1/2-x,1/2-y,-z
1/2+x,1/2-y,z
loop_
_atom_site_type_symbol
_atom_site_label
_atom_site_fract_x
_atom_site_fract_y
_atom_site_fract_z
Si Si1 0.696415 0.680724 0.945980
Si Si2 0.443909 0.321175 0.546123
Si Si3 0.158285 0.180716 0.674031
Si Si4 0.318408 0.173065 0.190912
Si Si5 0.454993 0.680094 0.053233
Si Si6 0.485965 0.180218 0.328859
Si Si7 0.193092 0.819530 0.535526
Si Si8 0.024237 0.328282 0.813093
O O1 0.699482 0.500000 0.947499
O O2 0.707794 0.740061 0.874649
O O3 0.621752 0.727451 0.956926
O O4 0.750000 0.750000 0.000000
O O5 0.500000 0.293783 0.500000
O O6 0.443427 0.500000 0.559732
O O7 0.462239 0.232300 0.612339
O O8 0.375646 0.277997 0.505710
O O9 0.192264 0.248378 0.741608
O O10 0.083581 0.241631 0.663764
O O11 0.191543 0.225259 0.610482
O O12 0.156368 0.000000 0.678160
O O13 0.397472 0.172753 0.191252
O O14 0.296525 0.000000 0.188765
O O15 0.454397 0.500000 0.050949
O O16 0.485298 0.731431 0.124659
O O17 0.500000 0.736130 0.000000
O O18 0.505714 0.223467 0.258217
O O19 0.476952 0.000000 0.328389
O O20 0.250000 0.750000 0.500000
O O21 0.197814 0.000000 0.534957
O O22 0.004567 0.500000 0.823413
#
# Coordination Sequence:
#
# PCOD9174718 Si02
#       8
#     8   8   8   8   8   8   8   8
#     4  10  19  32  52  77 105 136 169 210 258 303
#     4  10  19  35  54  76 104 133 169 211 258 307
#     4  10  18  32  52  75 103 136 171 210 258 307
#     4   9  17  30  49  76 104 130 168 215 255 301
#     4   9  18  32  51  75 101 131 169 206 244 295
#     4  10  19  30  49  79 106 130 167 217 260 297
#     4  10  22  37  54  75 103 138 172 210 255 310
#     4   8  16  29  45  71 104 131 162 202 250 298
#
# _framework density 16.945333000000002
#
# number of rings (size 3 to 8) (size 9 to 14) (size 15 to 20)
#    0.000    2.500    1.250    2.250    0.000    6.000 
#    0.000    0.000    2.750    0.000    0.000    0.000 
#    0.000    0.000    0.000    0.000    0.000    0.000 
#
# Total GULP energy -178349.055984 kJ/mol
# GULP energy per Si atom -5573.407999 kJ/mol
# Density = 1.690676 g / cm^3
# Si number density = 16.945333 Si / 1000 Ang^3
#
#
#
# Elastic Constant Matrix: (Units=GPa)
#
#
# Indices 1 2 3 4 5 6 
#
# 1 68.2564 30.5310 63.8961 0.0000 -3.2892 0.0000
# 2 30.5310 48.8193 57.4752 0.0000 1.9289 0.0000
# 3 63.8961 57.4752 183.3844 0.0000 3.0902 0.0000
# 4 0.0000 0.0000 0.0000 34.6944 0.0000 3.9593
# 5 -3.2892 1.9289 3.0902 0.0000 26.3090 0.0000
# 6 0.0000 0.0000 0.0000 3.9593 0.0000 20.1548
#
#
#
# Elastic Compliance Matrix: (Units=1/GPa)
#
#
# Indices 1 2 3 4 5 6 
#
# 1 0.024055 -0.008337 -0.005841 0.000000 0.004305 0.000000
# 2 -0.008337 0.035388 -0.008141 0.000000 -0.002681 0.000000
# 3 -0.005841 -0.008141 0.010062 0.000000 -0.001315 0.000000
# 4 0.000000 0.000000 0.000000 0.029484 0.000000 -0.005792
# 5 0.004305 -0.002681 -0.001315 0.000000 0.038899 0.000000
# 6 0.000000 0.000000 0.000000 -0.005792 0.000000 0.050754
#
#
# Mechanical properties :
#
#
# Convention : Reuss Voigt Hill
#
# Bulk Modulus (GPa) = 40.21461 67.14054 53.67757
# Shear Modulus (GPa) = 20.69798 26.13549 23.41673
#
# Velocity S-wave (km/s) = 3.49873 3.93153 3.72142
# Velocity P-wave (km/s) = 6.33284 7.76641 7.08597
#
# Compressibility (1/GPa) = 0.02486659
#
# Stress axis : x y z
#
# Youngs Moduli (GPa) = 41.57107 28.25814 99.38506
#
# Poissons Ratio (x) = 0.23559 0.58051
# Poissons Ratio (y) = 0.34659 0.80910
# Poissons Ratio (z) = 0.24282 0.23005
#
# Static dielectric constant tensor:
#      x y z
#    x 1.555690 0.000000 0.003450 
#    y 0.000000 1.574400 0.000000 
#    z 0.003450 0.000000 1.584170 
# 
# From -- ./inp_files/314057.got.cif
#   From: 2010.05.17/outbox.cif.g08.bks.cpg/sg12_158_cif.got.tgz:314057.got - 2010.06.03 13:09:07.
