data_PCOD9174813
_publ_section_title
;
Structure prediction by ZEFSAII (Michael W. Deem and Ramdas Pophale) SiO2 
 PCOD9174813
Probable space group: C 2/M
;
_chemical_formula_sum "Si O2"
_cell_formula_units_Z 64
_cell_length_a 15.276530
_cell_length_b 11.802803
_cell_length_c 17.133094
_cell_angle_alpha 90.000000
_cell_angle_beta 88.373196
_cell_angle_gamma 90.000000
_cell_volume 3087.952369
_symmetry_space_group_name_H-M "C 2/M"
_symmetry_group_IT_number 12
_symmetry_cell_setting 'monoclinic'
loop_
_space_group_symop_operation_xyz
x,y,z
-x,y,-z
-x,-y,-z
x,-y,z
1/2+x,1/2+y,z
1/2-x,1/2+y,-z
1/2-x,1/2-y,-z
1/2+x,1/2-y,z
loop_
_atom_site_type_symbol
_atom_site_label
_atom_site_fract_x
_atom_site_fract_y
_atom_site_fract_z
Si Si1 0.036036 0.129903 0.207572
Si Si2 0.066287 0.373181 0.615237
Si Si3 0.800377 0.364498 0.527529
Si Si4 0.148115 0.210957 0.062974
Si Si5 0.159093 0.624043 0.937036
Si Si6 0.863976 0.284326 0.230744
Si Si7 0.794436 0.374719 0.807358
Si Si8 0.606773 0.215069 0.323565
O O1 0.080139 0.150464 0.121973
O O2 0.104258 0.167529 0.274700
O O3 0.951363 0.208924 0.219007
O O4 0.012292 0.000000 0.217212
O O5 0.030221 0.500000 0.623264
O O6 0.116759 0.365688 0.532961
O O7 0.129489 0.348312 0.687102
O O8 0.984643 0.291130 0.628626
O O9 0.768266 0.500000 0.526706
O O10 0.750000 0.250000 0.500000
O O11 0.824815 0.328937 0.614648
O O12 0.235990 0.136891 0.051621
O O13 0.179729 0.320058 0.111838
O O14 0.118221 0.267493 0.982873
O O15 0.128824 0.500000 0.964064
O O16 0.142751 0.637296 0.845293
O O17 0.779355 0.204064 0.228995
O O18 0.760659 0.500000 0.817218
O O19 0.879433 0.369500 0.749693
#
# Coordination Sequence:
#
# PCOD9174813 Si02
#       8
#     8   8   8   8   8   8   8   8
#     4  10  21  39  58  79 112 147 183 229 283 343
#     4  10  20  36  57  81 112 148 189 234 279 329
#     4  11  23  39  60  88 121 155 193 238 286 339
#     4   9  20  34  53  80 104 141 189 226 274 337
#     4  10  19  35  55  77 109 142 182 235 282 328
#     4  10  21  34  53  82 110 144 187 225 277 340
#     4  10  18  32  53  76 106 140 179 228 279 329
#     4  10  21  36  58  84 107 143 190 233 279 333
#
# _framework density 20.725708000000001
#
# number of rings (size 3 to 8) (size 9 to 14) (size 15 to 20)
#    0.000    2.000    0.000    3.750    0.000    2.000 
#    0.000   10.625    0.000    3.750    0.000    0.000 
#    0.000    0.000    0.000    0.000    0.000    0.000 
#
# Total GULP energy -178244.313971 kJ/mol
# GULP energy per Si atom -5570.134812 kJ/mol
# Density = 2.067854 g / cm^3
# Si number density = 20.725708 Si / 1000 Ang^3
#
#
#
# Elastic Constant Matrix: (Units=GPa)
#
#
# Indices 1 2 3 4 5 6 
#
# 1 31.6398 9.4729 -2.6668 0.0000 -10.0218 0.0000
# 2 9.4729 89.9510 11.5318 0.0000 3.8995 0.0000
# 3 -2.6668 11.5318 88.5070 0.0000 -1.6878 0.0000
# 4 0.0000 0.0000 0.0000 13.8029 0.0000 -0.3706
# 5 -10.0218 3.8995 -1.6878 0.0000 28.8171 0.0000
# 6 0.0000 0.0000 0.0000 -0.3706 0.0000 14.1785
#
#
#
# Elastic Compliance Matrix: (Units=1/GPa)
#
#
# Indices 1 2 3 4 5 6 
#
# 1 0.037606 -0.004820 0.002025 0.000000 0.013849 0.000000
# 2 -0.004820 0.012000 -0.001774 0.000000 -0.003404 0.000000
# 3 0.002025 -0.001774 0.011622 0.000000 0.001625 0.000000
# 4 0.000000 0.000000 0.000000 0.072499 0.000000 0.001895
# 5 0.013849 -0.003404 0.001625 0.000000 0.040074 0.000000
# 6 0.000000 0.000000 0.000000 0.001895 0.000000 0.070579
#
#
# Mechanical properties :
#
#
# Convention : Reuss Voigt Hill
#
# Bulk Modulus (GPa) = 19.19743 27.41928 23.30836
# Shear Modulus (GPa) = 18.45830 24.14370 21.30100
#
# Velocity S-wave (km/s) = 2.98753 3.41679 3.20934
# Velocity P-wave (km/s) = 4.60252 5.36882 5.00037
#
# Compressibility (1/GPa) = 0.05209030
#
# Stress axis : x y z
#
# Youngs Moduli (GPa) = 26.59121 83.33505 86.04632
#
# Poissons Ratio (x) = 0.40171 -0.17427
# Poissons Ratio (y) = 0.12818 0.15261
# Poissons Ratio (z) = -0.05385 0.14781
#
# Static dielectric constant tensor:
#      x y z
#    x 1.803330 0.000000 0.013030 
#    y 0.000000 1.744550 0.000000 
#    z 0.013030 0.000000 1.753150 
# 
# From -- ./inp_files/269307.got.cif
#   From: 2010.05.17/outbox.cif.g08.bks.cpg/sg12_135_cif.got.tgz:269307.got - 2010.06.03 13:09:07.
