data_PCOD9174624
_publ_section_title
;
Structure prediction by ZEFSAII (Michael W. Deem and Ramdas Pophale) SiO2 
 PCOD9174624
Probable space group: C 2/M
;
_chemical_formula_sum "Si O2"
_cell_formula_units_Z 64
_cell_length_a 17.134599
_cell_length_b 24.776556
_cell_length_c 7.426931
_cell_angle_alpha 90.000000
_cell_angle_beta 76.864501
_cell_angle_gamma 90.000000
_cell_volume 3070.505001
_symmetry_space_group_name_H-M "C 2/M"
_symmetry_group_IT_number 12
_symmetry_cell_setting 'monoclinic'
loop_
_space_group_symop_operation_xyz
x,y,z
-x,y,-z
-x,-y,-z
x,-y,z
1/2+x,1/2+y,z
1/2-x,1/2+y,-z
1/2-x,1/2-y,-z
1/2+x,1/2-y,z
loop_
_atom_site_type_symbol
_atom_site_label
_atom_site_fract_x
_atom_site_fract_y
_atom_site_fract_z
Si Si1 0.164976 0.633743 0.688143
Si Si2 0.456520 0.710609 0.216337
Si Si3 0.276204 0.278049 0.799961
Si Si4 0.669581 0.834684 0.277407
Si Si5 0.314883 0.563918 0.563289
Si Si6 0.003143 0.330904 0.708582
Si Si7 0.664196 0.371525 0.816595
Si Si8 0.911792 0.131488 0.779691
O O1 0.205819 0.687628 0.746993
O O2 0.162075 0.636326 0.472500
O O3 0.230202 0.586850 0.687910
O O4 0.069983 0.635112 0.780785
O O5 0.468144 0.768456 0.299531
O O6 0.367946 0.687045 0.234767
O O7 0.503093 0.660607 0.283794
O O8 0.500000 0.716944 0.000000
O O9 0.311369 0.226841 0.677638
O O10 0.349354 0.319154 0.787379
O O11 0.250000 0.250000 0.000000
O O12 0.590834 0.835004 0.194837
O O13 0.747373 0.862003 0.148596
O O14 0.313476 0.500000 0.555332
O O15 0.328981 0.589776 0.358170
O O16 0.385479 0.586411 0.653617
O O17 0.000000 0.346583 0.500000
O O18 0.604339 0.388392 0.007203
#
# Coordination Sequence:
#
# PCOD9174624 Si02
#       8
#     8   8   8   8   8   8   8   8
#     4   9  21  34  51  78 111 144 193 241 276 336
#     4  10  21  34  50  83 124 157 180 219 279 349
#     4  11  18  29  50  76 115 150 183 212 278 344
#     4  10  18  32  50  78 114 152 187 218 271 346
#     4  10  23  42  64  81 103 150 203 250 298 327
#     4  10  20  30  51  81 117 155 184 221 276 343
#     4  10  21  37  58  80 114 149 191 237 284 338
#     4  10  21  36  55  87 118 147 188 238 277 344
#
# _framework density 20.843475999999999
#
# number of rings (size 3 to 8) (size 9 to 14) (size 15 to 20)
#    0.000    2.000    2.500    1.125    3.500    2.500 
#    0.000    1.250    0.000   11.625    0.000    0.875 
#    0.000    0.000    0.000    0.000    0.000    0.000 
#
# Total GULP energy -178520.983390 kJ/mol
# GULP energy per Si atom -5578.780731 kJ/mol
# Density = 2.079604 g / cm^3
# Si number density = 20.843476 Si / 1000 Ang^3
#
#
#
# Elastic Constant Matrix: (Units=GPa)
#
#
# Indices 1 2 3 4 5 6 
#
# 1 102.6447 -5.3332 1.2909 0.0000 1.1749 0.0000
# 2 -5.3332 54.5958 9.6710 0.0000 0.8628 0.0000
# 3 1.2909 9.6710 47.1860 0.0000 7.8831 0.0000
# 4 0.0000 0.0000 0.0000 8.1090 0.0000 -1.4046
# 5 1.1749 0.8628 7.8831 0.0000 21.3266 0.0000
# 6 0.0000 0.0000 0.0000 -1.4046 0.0000 12.3182
#
#
#
# Elastic Compliance Matrix: (Units=1/GPa)
#
#
# Indices 1 2 3 4 5 6 
#
# 1 0.009806 0.001037 -0.000409 0.000000 -0.000431 0.000000
# 2 0.001037 0.019126 -0.004060 0.000000 0.000670 0.000000
# 3 -0.000409 -0.004060 0.023453 0.000000 -0.008482 0.000000
# 4 0.000000 0.000000 0.000000 0.125804 0.000000 0.014346
# 5 -0.000431 0.000670 -0.008482 0.000000 0.050022 0.000000
# 6 0.000000 0.000000 0.000000 0.014346 0.000000 0.082816
#
#
# Mechanical properties :
#
#
# Convention : Reuss Voigt Hill
#
# Bulk Modulus (GPa) = 21.96748 23.96490 22.96619
# Shear Modulus (GPa) = 15.01202 21.60396 18.30799
#
# Velocity S-wave (km/s) = 2.68661 3.22294 2.96692
# Velocity P-wave (km/s) = 4.49288 5.03709 4.77275
#
# Compressibility (1/GPa) = 0.04552183
#
# Stress axis : x y z
#
# Youngs Moduli (GPa) = 101.97520 52.28375 42.63807
#
# Poissons Ratio (x) = -0.05423 0.01743
# Poissons Ratio (y) = -0.10576 0.17313
# Poissons Ratio (z) = 0.04169 0.21229
#
# Static dielectric constant tensor:
#      x y z
#    x 1.893800 0.000000 -0.060630 
#    y 0.000000 1.696250 0.000000 
#    z -0.060630 0.000000 1.865490 
# 
# From -- ./inp_files/78748.got.cif
#   From: 2010.05.17/outbox.cif.g08.bks.cpg/sg12_40_cif.got.tgz:78748.got - 2010.06.03 13:09:07.
