data_PCOD9174576
_publ_section_title
;
Structure prediction by ZEFSAII (Michael W. Deem and Ramdas Pophale) SiO2 
 PCOD9174576
Probable space group: C 2/M
;
_chemical_formula_sum "Si O2"
_cell_formula_units_Z 56
_cell_length_a 11.502486
_cell_length_b 25.124562
_cell_length_c 14.036988
_cell_angle_alpha 90.000000
_cell_angle_beta 38.332367
_cell_angle_gamma 90.000000
_cell_volume 2516.004952
_symmetry_space_group_name_H-M "C 2/M"
_symmetry_group_IT_number 12
_symmetry_cell_setting 'monoclinic'
loop_
_space_group_symop_operation_xyz
x,y,z
-x,y,-z
-x,-y,-z
x,-y,z
1/2+x,1/2+y,z
1/2-x,1/2+y,-z
1/2-x,1/2-y,-z
1/2+x,1/2-y,z
loop_
_atom_site_type_symbol
_atom_site_label
_atom_site_fract_x
_atom_site_fract_y
_atom_site_fract_z
Si Si1 0.831452 0.058214 0.186145
Si Si2 0.420556 0.324832 0.444093
Si Si3 0.877928 0.941607 0.482655
Si Si4 0.558303 0.058120 0.191229
Si Si5 0.576933 0.242570 0.708583
Si Si6 0.231033 0.668280 0.072485
Si Si7 0.324923 0.330653 0.232615
O O1 0.648653 0.055047 0.238154
O O2 0.800464 0.107530 0.275605
O O3 0.871617 0.000000 0.201185
O O4 0.000000 0.069823 0.000000
O O5 0.500000 0.323431 0.500000
O O6 0.434942 0.385567 0.398721
O O7 0.508791 0.281546 0.316474
O O8 0.204796 0.305141 0.586151
O O9 0.662660 0.935600 0.654658
O O10 0.000000 0.944076 0.500000
O O11 0.896507 0.000000 0.422692
O O12 0.656796 0.110581 0.086199
O O13 0.597829 0.000000 0.119979
O O14 0.413124 0.212685 0.870342
O O15 0.722500 0.280771 0.671774
O O16 0.232370 0.672077 0.187851
O O17 0.449040 0.675377 0.912145
#
# Coordination Sequence:
#
# PCOD9174576 Si02
#       7
#     8   8   8   8   8   8   8
#     4   9  15  27  48  73 103 135 163 195 244 305
#     4  10  21  36  51  71  96 129 171 209 251 300
#     4   9  17  31  52  73  90 118 168 218 253 289
#     4   9  15  26  48  74  97 124 163 207 245 295
#     4  11  21  33  50  71 100 136 166 203 249 299
#     4  10  18  32  49  73 102 131 163 198 247 300
#     4  10  19  31  49  75 103 130 166 206 241 298
#
# _framework density 22.257508000000001
#
# number of rings (size 3 to 8) (size 9 to 14) (size 15 to 20)
#    0.000    2.286    4.286    1.286    0.000    0.000 
#    0.000    0.714    0.000    0.000    0.000    5.000 
#    0.000    6.286    0.000    0.000    0.000    0.000 
#
# Total GULP energy -155905.037032 kJ/mol
# GULP energy per Si atom -5568.037037 kJ/mol
# Density = 2.220685 g / cm^3
# Si number density = 22.257508 Si / 1000 Ang^3
#
#
#
# Elastic Constant Matrix: (Units=GPa)
#
#
# Indices 1 2 3 4 5 6 
#
# 1 76.8403 9.8336 15.0087 0.0000 -13.8732 0.0000
# 2 9.8336 196.2131 1.2817 0.0000 -4.4587 0.0000
# 3 15.0087 1.2817 16.0183 0.0000 -17.4991 0.0000
# 4 0.0000 0.0000 0.0000 6.4789 0.0000 -9.0462
# 5 -13.8732 -4.4587 -17.4991 0.0000 31.6425 0.0000
# 6 0.0000 0.0000 0.0000 -9.0462 0.0000 29.0384
#
#
#
# Elastic Compliance Matrix: (Units=1/GPa)
#
#
# Indices 1 2 3 4 5 6 
#
# 1 0.016173 -0.000766 -0.018855 0.000000 -0.003445 0.000000
# 2 -0.000766 0.005155 0.001848 0.000000 0.001413 0.000000
# 3 -0.018855 0.001848 0.179868 -0.000001 0.091465 0.000000
# 4 0.000000 0.000000 -0.000001 0.273164 0.000000 0.085098
# 5 -0.003445 0.001413 0.091465 0.000000 0.080875 0.000000
# 6 0.000000 0.000000 0.000000 0.085098 0.000000 0.060947
#
#
# Mechanical properties :
#
#
# Convention : Reuss Voigt Hill
#
# Bulk Modulus (GPa) = 6.03679 37.92440 21.98060
# Shear Modulus (GPa) = 7.07269 30.96183 19.01726
#
# Velocity S-wave (km/s) = 1.78453 3.73376 2.92622
# Velocity P-wave (km/s) = 2.63898 5.97192 4.61671
#
# Compressibility (1/GPa) = 0.16565085
#
# Stress axis : x y z
#
# Youngs Moduli (GPa) = 61.83153 193.99005 5.55963
#
# Poissons Ratio (x) = 0.14853 0.10483
# Poissons Ratio (y) = 0.04734 -0.01028
# Poissons Ratio (z) = 1.16586 -0.35859
#
# Static dielectric constant tensor:
#      x y z
#    x 1.817770 0.000000 0.009550 
#    y 0.000000 1.940260 0.000000 
#    z 0.009550 0.000000 1.845360 
# 
# From -- ./inp_files/209123.got.cif
#   From: 2010.05.17/outbox.cif.g08.bks.cpg/sg12_105_cif.got.tgz:209123.got - 2010.06.03 13:09:07.
