data_PCOD9174621
_publ_section_title
;
Structure prediction by ZEFSAII (Michael W. Deem and Ramdas Pophale) SiO2 
 PCOD9174621
Probable space group: C 2/M
;
_chemical_formula_sum "Si O2"
_cell_formula_units_Z 56
_cell_length_a 17.830391
_cell_length_b 16.865978
_cell_length_c 13.697619
_cell_angle_alpha 90.000000
_cell_angle_beta 126.753928
_cell_angle_gamma 90.000000
_cell_volume 3300.390686
_symmetry_space_group_name_H-M "C 2/M"
_symmetry_group_IT_number 12
_symmetry_cell_setting 'monoclinic'
loop_
_space_group_symop_operation_xyz
x,y,z
-x,y,-z
-x,-y,-z
x,-y,z
1/2+x,1/2+y,z
1/2-x,1/2+y,-z
1/2-x,1/2-y,-z
1/2+x,1/2-y,z
loop_
_atom_site_type_symbol
_atom_site_label
_atom_site_fract_x
_atom_site_fract_y
_atom_site_fract_z
Si Si1 0.271973 0.310920 0.191190
Si Si2 0.612047 0.296604 0.398636
Si Si3 0.734590 0.189539 0.638815
Si Si4 0.081523 0.287164 0.797937
Si Si5 0.084588 0.403863 0.986399
Si Si6 0.095991 0.587759 0.635565
Si Si7 0.889937 0.913392 0.429406
O O1 0.246564 0.243598 0.251272
O O2 0.326004 0.268839 0.142486
O O3 0.183555 0.367446 0.101168
O O4 0.347590 0.362147 0.309559
O O5 0.661216 0.230042 0.505711
O O6 0.671097 0.314455 0.348513
O O7 0.509236 0.267580 0.289782
O O8 0.620248 0.372174 0.474590
O O9 0.683678 0.110648 0.636020
O O10 0.088821 0.346291 0.712227
O O11 0.068055 0.345121 0.880594
O O12 0.091319 0.500000 0.970716
O O13 0.000000 0.395129 0.000000
O O14 0.106940 0.500000 0.685748
O O15 0.000000 0.590447 0.500000
O O16 0.000000 0.918336 0.500000
O O17 0.846023 0.000000 0.394326
#
# Coordination Sequence:
#
# PCOD9174621 Si02
#       7
#     8   8   8   8   8   8   8
#     4  10  20  36  58  79 105 143 185 226 265 322
#     4  10  18  32  50  78 107 142 176 220 265 321
#     4   9  19  31  52  76 107 140 180 219 265 317
#     4  11  20  35  59  79 106 141 186 222 268 327
#     4  11  24  40  56  79 112 145 182 231 278 323
#     4  10  19  32  51  76 107 141 179 221 263 315
#     4  10  19  32  53  81 110 141 174 218 273 322
#
# _framework density 16.967689
#
# number of rings (size 3 to 8) (size 9 to 14) (size 15 to 20)
#    0.000    1.857    2.857    2.143    0.000    0.571 
#    0.000    0.000    0.000    0.000    0.000    0.000 
#    0.000   12.571    0.000    0.000    0.000    0.000 
#
# Total GULP energy -155872.419643 kJ/mol
# GULP energy per Si atom -5566.872130 kJ/mol
# Density = 1.692907 g / cm^3
# Si number density = 16.967689 Si / 1000 Ang^3
#
#
#
# Elastic Constant Matrix: (Units=GPa)
#
#
# Indices 1 2 3 4 5 6 
#
# 1 111.6919 40.2821 26.6342 0.0000 -8.1992 0.0000
# 2 40.2821 87.7996 16.2596 0.0000 -4.9852 0.0000
# 3 26.6342 16.2596 49.4620 0.0000 -3.9045 0.0000
# 4 0.0000 0.0000 0.0000 21.2369 0.0000 -1.2904
# 5 -8.1992 -4.9852 -3.9045 0.0000 22.8352 0.0000
# 6 0.0000 0.0000 0.0000 -1.2904 0.0000 -127.9929
#
#
#
# Elastic Compliance Matrix: (Units=1/GPa)
#
#
# Indices 1 2 3 4 5 6 
#
# 1 0.011860 -0.004423 -0.004736 0.000000 0.002483 0.000000
# 2 -0.004423 0.013868 -0.002091 0.000000 0.001082 0.000000
# 3 -0.004736 -0.002091 0.023604 0.000000 0.001879 0.000000
# 4 0.000000 0.000000 0.000000 0.047059 0.000000 -0.000474
# 5 0.002483 0.001082 0.001879 0.000000 0.045241 0.000000
# 6 0.000000 0.000000 0.000000 -0.000474 0.000000 -0.007808
#
#
# Mechanical properties :
#
#
# Convention : Reuss Voigt Hill
#
# Bulk Modulus (GPa) = 37.27257 46.14504 41.70881
# Shear Modulus (GPa) = 30.25370 -5.73233 12.26069
#
# Velocity S-wave (km/s) = 4.22716 -1.84003 2.69102
# Velocity P-wave (km/s) = 6.77050 4.76871 5.85578
#
# Compressibility (1/GPa) = 0.02682938
#
# Stress axis : x y z
#
# Youngs Moduli (GPa) = 84.31560 72.11006 42.36601
#
# Poissons Ratio (x) = 0.31896 0.20066
# Poissons Ratio (y) = 0.37295 0.08861
# Poissons Ratio (z) = 0.39935 0.15082
#
# Static dielectric constant tensor:
#      x y z
#    x 1.577310 0.000000 -0.002280 
#    y 0.000000 1.594060 0.000000 
#    z -0.002280 0.000000 1.578110 
# 
# From -- ./inp_files/156722.got.cif
#   From: 2010.05.17/outbox.cif.g08.bks.cpg/sg12_79_cif.got.tgz:156722.got - 2010.06.03 13:09:07.
