data_PCOD9174932
_publ_section_title
;
Structure prediction by ZEFSAII (Michael W. Deem and Ramdas Pophale) SiO2 
 PCOD9174932
Probable space group: C 2/M
;
_chemical_formula_sum "Si O2"
_cell_formula_units_Z 48
_cell_length_a 22.728458
_cell_length_b 7.671675
_cell_length_c 24.136090
_cell_angle_alpha 90.000000
_cell_angle_beta 149.145966
_cell_angle_gamma 90.000000
_cell_volume 2158.339352
_symmetry_space_group_name_H-M "C 2/M"
_symmetry_group_IT_number 12
_symmetry_cell_setting 'monoclinic'
loop_
_space_group_symop_operation_xyz
x,y,z
-x,y,-z
-x,-y,-z
x,-y,z
1/2+x,1/2+y,z
1/2-x,1/2+y,-z
1/2-x,1/2-y,-z
1/2+x,1/2-y,z
loop_
_atom_site_type_symbol
_atom_site_label
_atom_site_fract_x
_atom_site_fract_y
_atom_site_fract_z
Si Si1 0.520046 0.791942 0.079584
Si Si2 0.702529 0.210572 0.310780
Si Si3 0.300563 0.292068 0.978706
Si Si4 0.084554 0.286121 0.735673
Si Si5 0.134123 0.290820 0.372872
Si Si6 0.967532 0.291696 0.532130
O O1 0.638205 0.725556 0.203655
O O2 0.530969 0.000000 0.082637
O O3 0.500000 0.724214 0.000000
O O4 0.420225 0.765266 0.045869
O O5 0.636377 0.273010 0.311996
O O6 0.832594 0.262775 0.428527
O O7 0.700137 0.000000 0.307371
O O8 0.305492 0.500000 0.981863
O O9 0.202976 0.226998 0.857268
O O10 0.250000 0.250000 0.000000
O O11 0.086613 0.500000 0.737612
O O12 0.978374 0.227377 0.687352
O O13 0.049371 0.225093 0.646496
O O14 0.126935 0.500000 0.365370
O O15 0.250000 0.250000 0.500000
O O16 0.985140 0.500000 0.545553
O O17 0.000000 0.213566 0.500000
#
# Coordination Sequence:
#
# PCOD9174932 Si02
#       6
#     8   8   8   8   8   8
#     4  10  23  43  64  88 122 163 205 253 308 361
#     4  10  21  37  58  84 116 151 188 239 297 350
#     4  11  23  41  65  91 123 162 206 253 303 361
#     4   9  19  36  57  83 117 152 184 235 295 345
#     4  10  18  32  54  80 110 144 181 224 280 341
#     4  10  21  36  57  84 114 151 192 234 287 350
#
# _framework density 22.239321
#
# number of rings (size 3 to 8) (size 9 to 14) (size 15 to 20)
#    0.000    2.000    1.667    1.500    2.333    4.000 
#    0.000    5.000    0.000    0.000    0.000    0.000 
#    0.000    0.000    0.000    0.000    0.000    0.000 
#
# Total GULP energy -133842.197857 kJ/mol
# GULP energy per Si atom -5576.758244 kJ/mol
# Density = 2.218870 g / cm^3
# Si number density = 22.239321 Si / 1000 Ang^3
#
#
#
# Elastic Constant Matrix: (Units=GPa)
#
#
# Indices 1 2 3 4 5 6 
#
# 1 78.2607 -6.2615 22.0721 0.0000 -31.5266 0.0000
# 2 -6.2615 41.9124 -8.2217 -0.0001 -9.6438 0.0000
# 3 22.0721 -8.2217 131.6917 0.0000 -30.7639 0.0000
# 4 0.0000 -0.0001 0.0000 57.1106 0.0000 -2.2180
# 5 -31.5266 -9.6438 -30.7639 0.0000 43.5049 0.0000
# 6 0.0000 0.0000 0.0000 -2.2180 0.0000 17.9611
#
#
#
# Elastic Compliance Matrix: (Units=1/GPa)
#
#
# Indices 1 2 3 4 5 6 
#
# 1 0.019709 0.006940 0.000989 0.000000 0.016520 0.000000
# 2 0.006940 0.028957 0.003976 0.000000 0.014259 0.000000
# 3 0.000989 0.003976 0.009642 0.000000 0.008416 0.000000
# 4 0.000000 0.000000 0.000000 0.017594 0.000000 0.002173
# 5 0.016520 0.014259 0.008416 0.000000 0.044070 0.000000
# 6 0.000000 0.000000 0.000000 0.002173 0.000000 0.055944
#
#
# Mechanical properties :
#
#
# Convention : Reuss Voigt Hill
#
# Bulk Modulus (GPa) = 12.17766 29.67138 20.92452
# Shear Modulus (GPa) = 27.85825 40.00037 33.92931
#
# Velocity S-wave (km/s) = 3.54313 4.24563 3.91019
# Velocity P-wave (km/s) = 4.71444 6.11593 5.46034
#
# Compressibility (1/GPa) = 0.08211762
#
# Stress axis : x y z
#
# Youngs Moduli (GPa) = 50.73780 34.53399 103.71264
#
# Poissons Ratio (x) = -0.23966 -0.10259
# Poissons Ratio (y) = -0.35211 -0.41234
# Poissons Ratio (z) = -0.05019 -0.13730
#
# Static dielectric constant tensor:
#      x y z
#    x 2.098130 0.000000 0.007390 
#    y 0.000000 1.807230 0.000000 
#    z 0.007390 0.000000 1.870100 
# 
# From -- ./inp_files/348886.got.cif
#   From: 2010.05.17/outbox.cif.g08.bks.cpg/sg12_175_cif.got.tgz:348886.got - 2010.06.03 13:09:07.
