data_PCOD9174096
_publ_section_title
;
Structure prediction by ZEFSAII (Michael W. Deem and Ramdas Pophale) SiO2 
 PCOD9174096
Probable space group: C 2/M
;
_chemical_formula_sum "Si O2"
_cell_formula_units_Z 52
_cell_length_a 20.856605
_cell_length_b 9.971089
_cell_length_c 20.387187
_cell_angle_alpha 90.000000
_cell_angle_beta 138.733481
_cell_angle_gamma 90.000000
_cell_volume 2796.401360
_symmetry_space_group_name_H-M "C 2/M"
_symmetry_group_IT_number 12
_symmetry_cell_setting 'monoclinic'
loop_
_space_group_symop_operation_xyz
x,y,z
-x,y,-z
-x,-y,-z
x,-y,z
1/2+x,1/2+y,z
1/2-x,1/2+y,-z
1/2-x,1/2-y,-z
1/2+x,1/2-y,z
loop_
_atom_site_type_symbol
_atom_site_label
_atom_site_fract_x
_atom_site_fract_y
_atom_site_fract_z
Si Si1 0.982163 0.153926 0.237048
Si Si2 0.740693 0.349756 0.892784
Si Si3 0.500000 0.258391 0.000000
Si Si4 0.788349 0.153514 0.812521
Si Si5 0.976325 0.161595 0.587041
Si Si6 0.449921 0.149484 0.101753
Si Si7 0.339430 0.661333 0.364754
O O1 0.865345 0.152108 0.157611
O O2 0.999552 0.243692 0.187151
O O3 0.023254 0.209499 0.337761
O O4 0.014056 0.000000 0.251910
O O5 0.750976 0.500000 0.869307
O O6 0.749871 0.231450 0.847395
O O7 0.832092 0.337708 0.011768
O O8 0.404393 0.342085 0.909221
O O9 0.523441 0.172091 0.953602
O O10 0.750853 0.247079 0.724536
O O11 0.754758 0.000000 0.782011
O O12 0.886704 0.197491 0.471220
O O13 0.075495 0.192034 0.623502
O O14 0.976532 0.000000 0.591655
O O15 0.475852 0.000000 0.142452
O O16 0.321186 0.500000 0.349010
#
# Coordination Sequence:
#
# PCOD9174096 Si02
#       7
#     8   8   4   8   8   8   8
#     4  10  18  31  52  78 109 141 169 204 257 319
#     4   9  18  33  51  73 105 143 176 204 250 322
#     4  10  24  42  54  68 100 144 186 216 258 326
#     4  11  21  33  53  79 106 136 176 226 269 301
#     4   8  15  29  52  79 107 143 178 201 242 318
#     4  10  21  35  53  76 100 133 178 225 265 301
#     4   9  16  31  54  77 106 143 178 209 247 309
#
# _framework density 18.595327999999999
#
# number of rings (size 3 to 8) (size 9 to 14) (size 15 to 20)
#    0.000    2.462    1.538    2.308    0.000    5.538 
#    0.000    2.308    0.000    0.923    0.000    0.000 
#    0.000    0.000    0.000    0.000    0.000    0.000 
#
# Total GULP energy -144889.512322 kJ/mol
# GULP energy per Si atom -5572.673551 kJ/mol
# Density = 1.855300 g / cm^3
# Si number density = 18.595328 Si / 1000 Ang^3
#
#
#
# Elastic Constant Matrix: (Units=GPa)
#
#
# Indices 1 2 3 4 5 6 
#
# 1 30.1507 20.4922 28.2702 0.0000 -11.5231 0.0000
# 2 20.4922 103.0680 58.4372 0.0000 -10.5934 0.0000
# 3 28.2702 58.4372 116.8734 0.0000 -24.4602 0.0000
# 4 0.0000 0.0000 0.0000 13.1649 0.0000 0.3591
# 5 -11.5231 -10.5934 -24.4602 0.0000 27.4921 0.0000
# 6 0.0000 0.0000 0.0000 0.3591 0.0000 5.3286
#
#
#
# Elastic Compliance Matrix: (Units=1/GPa)
#
#
# Indices 1 2 3 4 5 6 
#
# 1 0.046978 -0.004312 -0.006678 0.000000 0.012088 0.000000
# 2 -0.004312 0.013959 -0.006376 0.000000 -0.002102 0.000000
# 3 -0.006678 -0.006376 0.015065 0.000000 0.008148 0.000000
# 4 0.000000 0.000000 0.000000 0.076099 0.000000 -0.005128
# 5 0.012088 -0.002102 0.008148 0.000000 0.047880 0.000000
# 6 0.000000 0.000000 0.000000 -0.005128 0.000000 0.188012
#
#
# Mechanical properties :
#
#
# Convention : Reuss Voigt Hill
#
# Bulk Modulus (GPa) = 24.23046 51.61015 37.92030
# Shear Modulus (GPa) = 11.45522 18.72328 15.08925
#
# Velocity S-wave (km/s) = 2.48468 3.17658 2.85169
# Velocity P-wave (km/s) = 4.61413 6.42408 5.59281
#
# Compressibility (1/GPa) = 0.04127037
#
# Stress axis : x y z
#
# Youngs Moduli (GPa) = 21.28640 71.63910 66.37926
#
# Poissons Ratio (x) = 0.30889 0.44326
# Poissons Ratio (y) = 0.09178 0.42326
# Poissons Ratio (z) = 0.14214 0.45680
#
# Static dielectric constant tensor:
#      x y z
#    x 1.656690 0.000000 -0.006060 
#    y 0.000000 1.634220 0.000000 
#    z -0.006060 0.000000 1.682980 
# 
# From -- ./inp_files/324391.got.cif
#   From: 2010.05.17/outbox.cif.g08.bks.cpg/sg12_163_cif.got.tgz:324391.got - 2010.06.03 13:09:07.
