data_PCOD9174469
_publ_section_title
;
Structure prediction by ZEFSAII (Michael W. Deem and Ramdas Pophale) SiO2 
 PCOD9174469
Probable space group: C 2/M
;
_chemical_formula_sum "Si O2"
_cell_formula_units_Z 56
_cell_length_a 15.948030
_cell_length_b 13.653643
_cell_length_c 25.185650
_cell_angle_alpha 90.000000
_cell_angle_beta 32.116104
_cell_angle_gamma 90.000000
_cell_volume 2915.571320
_symmetry_space_group_name_H-M "C 2/M"
_symmetry_group_IT_number 12
_symmetry_cell_setting 'monoclinic'
loop_
_space_group_symop_operation_xyz
x,y,z
-x,y,-z
-x,-y,-z
x,-y,z
1/2+x,1/2+y,z
1/2-x,1/2+y,-z
1/2-x,1/2-y,-z
1/2+x,1/2-y,z
loop_
_atom_site_type_symbol
_atom_site_label
_atom_site_fract_x
_atom_site_fract_y
_atom_site_fract_z
Si Si1 0.171265 0.389799 0.915177
Si Si2 0.207226 0.111115 0.270898
Si Si3 0.624508 0.611799 0.982364
Si Si4 0.415589 0.723501 0.385432
Si Si5 0.493484 0.382931 0.236937
Si Si6 0.095957 0.207636 0.823209
Si Si7 0.652616 0.115425 0.229223
O O1 0.139626 0.500000 0.953315
O O2 0.240445 0.395676 0.818834
O O3 0.322001 0.349323 0.865152
O O4 0.000000 0.340281 0.000000
O O5 0.341992 0.182816 0.221430
O O6 0.037547 0.165533 0.359199
O O7 0.200098 0.000000 0.295700
O O8 0.624966 0.500000 0.004245
O O9 0.784970 0.630895 0.864301
O O10 0.500000 0.610257 0.000000
O O11 0.566888 0.687856 0.057588
O O12 0.250000 0.750000 0.500000
O O13 0.412410 0.659853 0.333147
O O14 0.496633 0.824730 0.324382
O O15 0.497711 0.500000 0.239057
O O16 0.409682 0.349508 0.228641
O O17 0.222062 0.160402 0.796346
O O18 0.640679 0.000000 0.244074
#
# Coordination Sequence:
#
# PCOD9174469 Si02
#       7
#     8   8   8   8   8   8   8
#     4   8  15  30  51  74 103 141 179 212 257 325
#     4   9  19  35  54  76 107 148 186 223 274 337
#     4   8  14  27  49  77 110 146 178 213 268 338
#     4  10  21  37  57  78 104 144 195 239 281 336
#     4  10  20  35  57  86 115 140 177 236 290 327
#     4  10  18  31  56  86 115 143 177 224 283 342
#     4   9  18  33  54  80 110 147 190 231 277 340
#
# _framework density 19.207214
#
# number of rings (size 3 to 8) (size 9 to 14) (size 15 to 20)
#    0.000    2.857    0.000    3.429    0.000    5.143 
#    0.000    6.429    0.000    8.571    0.000    0.000 
#    0.000    0.571    0.000    0.000    0.000    0.000 
#
# Total GULP energy -155995.220986 kJ/mol
# GULP energy per Si atom -5571.257892 kJ/mol
# Density = 1.916350 g / cm^3
# Si number density = 19.207214 Si / 1000 Ang^3
#
#
#
# Elastic Constant Matrix: (Units=GPa)
#
#
# Indices 1 2 3 4 5 6 
#
# 1 37.3372 17.3699 25.1919 0.0000 7.4043 0.0000
# 2 17.3699 147.0723 56.4771 -0.0002 -5.5043 0.0000
# 3 25.1919 56.4771 143.4753 -0.0009 -11.4668 0.0001
# 4 0.0000 -0.0002 -0.0009 22.5964 0.0001 -2.1135
# 5 7.4043 -5.5043 -11.4668 0.0001 13.2386 0.0000
# 6 0.0000 0.0000 0.0001 -2.1135 0.0000 18.2693
#
#
#
# Elastic Compliance Matrix: (Units=1/GPa)
#
#
# Indices 1 2 3 4 5 6 
#
# 1 0.039721 -0.002614 -0.008388 0.000000 -0.030568 0.000000
# 2 -0.002614 0.008187 -0.002552 0.000000 0.002656 0.000000
# 3 -0.008388 -0.002552 0.010461 0.000000 0.012692 0.000000
# 4 0.000000 0.000000 0.000000 0.044739 0.000000 0.005176
# 5 -0.030568 0.002656 0.012692 0.000000 0.104732 0.000000
# 6 0.000000 0.000000 0.000000 0.005176 0.000000 0.055335
#
#
# Mechanical properties :
#
#
# Convention : Reuss Voigt Hill
#
# Bulk Modulus (GPa) = 31.98814 58.44029 45.21422
# Shear Modulus (GPa) = 16.62764 26.07725 21.35245
#
# Velocity S-wave (km/s) = 2.94547 3.68867 3.33782
# Velocity P-wave (km/s) = 5.31583 6.97381 6.20049
#
# Compressibility (1/GPa) = 0.03126159
#
# Stress axis : x y z
#
# Youngs Moduli (GPa) = 25.17571 122.13977 95.58870
#
# Poissons Ratio (x) = 0.31928 0.80184
# Poissons Ratio (y) = 0.06581 0.24390
# Poissons Ratio (z) = 0.21118 0.31165
#
# Static dielectric constant tensor:
#      x y z
#    x 1.694420 0.000000 -0.041580 
#    y 0.000000 1.747010 0.000000 
#    z -0.041580 0.000000 1.685900 
# 
# From -- ./inp_files/340318.got.cif
#   From: 2010.05.17/outbox.cif.g08.bks.cpg/sg12_171_cif.got.tgz:340318.got - 2010.06.03 13:09:07.
