data_PCOD9174451
_publ_section_title
;
Structure prediction by ZEFSAII (Michael W. Deem and Ramdas Pophale) SiO2 
 PCOD9174451
Probable space group: C 2/M
;
_chemical_formula_sum "Si O2"
_cell_formula_units_Z 56
_cell_length_a 31.254470
_cell_length_b 8.482801
_cell_length_c 12.548831
_cell_angle_alpha 90.000000
_cell_angle_beta 129.999641
_cell_angle_gamma 90.000000
_cell_volume 2548.654337
_symmetry_space_group_name_H-M "C 2/M"
_symmetry_group_IT_number 12
_symmetry_cell_setting 'monoclinic'
loop_
_space_group_symop_operation_xyz
x,y,z
-x,y,-z
-x,-y,-z
x,-y,z
1/2+x,1/2+y,z
1/2-x,1/2+y,-z
1/2-x,1/2-y,-z
1/2+x,1/2-y,z
loop_
_atom_site_type_symbol
_atom_site_label
_atom_site_fract_x
_atom_site_fract_y
_atom_site_fract_z
Si Si1 0.894210 0.689257 0.199200
Si Si2 0.007557 0.681123 0.304162
Si Si3 0.956625 0.825453 0.026276
Si Si4 0.805005 0.811455 0.892329
Si Si5 0.365971 0.189158 0.538207
Si Si6 0.689481 0.314763 0.758498
Si Si7 0.337169 0.683569 0.721748
O O1 0.895928 0.500000 0.200753
O O2 0.958736 0.748169 0.302568
O O3 0.857881 0.745976 0.240315
O O4 0.859315 0.746634 0.040139
O O5 0.016239 0.500000 0.350238
O O6 0.975576 0.695575 0.140152
O O7 0.069678 0.744782 0.380608
O O8 0.959215 0.000000 0.082954
O O9 0.897301 0.809461 0.875716
O O10 0.000000 0.823834 0.000000
O O11 0.750194 0.762406 0.868998
O O12 0.799535 0.755898 0.760006
O O13 0.809500 0.000000 0.895884
O O14 0.329515 0.273903 0.391101
O O15 0.343814 0.228714 0.620869
O O16 0.363489 0.000000 0.520256
O O17 0.694083 0.500000 0.784063
O O18 0.323335 0.500000 0.677646
#
# Coordination Sequence:
#
# PCOD9174451 Si02
#       7
#     8   8   8   8   8   8   8
#     4  11  23  42  67  95 126 160 204 257 311 365
#     4  10  22  37  60  93 127 162 201 249 305 365
#     4  10  18  31  55  88 126 163 199 247 303 358
#     4  11  23  42  68  96 125 160 206 258 310 363
#     4  11  24  42  63  91 128 169 208 249 303 369
#     4  12  27  46  65  87 120 164 213 261 311 368
#     4  10  21  37  61  94 128 163 203 250 305 366
#
# _framework density 21.972379
#
# number of rings (size 3 to 8) (size 9 to 14) (size 15 to 20)
#    0.000    1.286    2.857    3.000    0.000    4.286 
#    0.000    2.857    0.000    0.000    0.000    0.000 
#    0.000    0.000    0.000    0.000    0.000    0.000 
#
# Total GULP energy -156365.267860 kJ/mol
# GULP energy per Si atom -5584.473852 kJ/mol
# Density = 2.192237 g / cm^3
# Si number density = 21.972379 Si / 1000 Ang^3
#
#
#
# Elastic Constant Matrix: (Units=GPa)
#
#
# Indices 1 2 3 4 5 6 
#
# 1 123.8923 15.8208 16.0704 0.0000 -17.7251 0.0000
# 2 15.8208 50.0482 -1.8365 0.0000 0.1611 0.0000
# 3 16.0704 -1.8365 39.6890 0.0000 -0.8817 0.0000
# 4 0.0000 0.0000 0.0000 24.5290 0.0000 -4.2837
# 5 -17.7251 0.1611 -0.8817 0.0000 15.3296 0.0000
# 6 0.0000 0.0000 0.0000 -4.2837 0.0000 24.7172
#
#
#
# Elastic Compliance Matrix: (Units=1/GPa)
#
#
# Indices 1 2 3 4 5 6 
#
# 1 0.010858 -0.003629 -0.004290 0.000000 0.012346 0.000000
# 2 -0.003629 0.021228 0.002357 0.000000 -0.004284 0.000000
# 3 -0.004290 0.002357 0.026966 0.000000 -0.003434 0.000000
# 4 0.000000 0.000000 0.000000 0.042040 0.000000 0.007286
# 5 0.012346 -0.004284 -0.003434 0.000000 0.079356 0.000000
# 6 0.000000 0.000000 0.000000 0.007286 0.000000 0.041720
#
#
# Mechanical properties :
#
#
# Convention : Reuss Voigt Hill
#
# Bulk Modulus (GPa) = 20.86540 30.41543 25.64042
# Shear Modulus (GPa) = 20.05861 25.15347 22.60604
#
# Velocity S-wave (km/s) = 3.02470 3.38713 3.21103
# Velocity P-wave (km/s) = 4.65996 5.40088 5.04404
#
# Compressibility (1/GPa) = 0.04792623
#
# Stress axis : x y z
#
# Youngs Moduli (GPa) = 92.09977 47.10691 37.08406
#
# Poissons Ratio (x) = 0.17097 0.15909
# Poissons Ratio (y) = 0.33427 -0.08740
# Poissons Ratio (z) = 0.39512 -0.11102
#
# Static dielectric constant tensor:
#      x y z
#    x 1.895620 0.000000 -0.009110 
#    y 0.000000 1.788110 0.000000 
#    z -0.009110 0.000000 1.786530 
# 
# From -- ./inp_files/187696.got.cif
#   From: 2010.05.17/outbox.cif.g08.bks.cpg/sg12_94_cif.got.tgz:187696.got - 2010.06.03 13:09:07.
