data_PCOD9174307
_publ_section_title
;
Structure prediction by ZEFSAII (Michael W. Deem and Ramdas Pophale) SiO2 
 PCOD9174307
Probable space group: C 2/M
;
_chemical_formula_sum "Si O2"
_cell_formula_units_Z 48
_cell_length_a 8.755560
_cell_length_b 14.446173
_cell_length_c 19.341232
_cell_angle_alpha 90.000000
_cell_angle_beta 55.955214
_cell_angle_gamma 90.000000
_cell_volume 2027.056799
_symmetry_space_group_name_H-M "C 2/M"
_symmetry_group_IT_number 12
_symmetry_cell_setting 'monoclinic'
loop_
_space_group_symop_operation_xyz
x,y,z
-x,y,-z
-x,-y,-z
x,-y,z
1/2+x,1/2+y,z
1/2-x,1/2+y,-z
1/2-x,1/2-y,-z
1/2+x,1/2-y,z
loop_
_atom_site_type_symbol
_atom_site_label
_atom_site_fract_x
_atom_site_fract_y
_atom_site_fract_z
Si Si1 0.954618 0.288598 0.938803
Si Si2 0.171858 0.694260 0.168988
Si Si3 0.566072 0.597206 0.228494
Si Si4 0.645737 0.853250 0.330834
Si Si5 0.268121 0.860443 0.477267
Si Si6 0.109118 0.134138 0.367220
O O1 0.934343 0.342693 0.871542
O O2 0.106355 0.205802 0.893000
O O3 0.750000 0.250000 0.000000
O O4 0.000000 0.337986 0.000000
O O5 0.115638 0.645959 0.255047
O O6 0.119555 0.803784 0.184147
O O7 0.608532 0.500000 0.181102
O O8 0.345018 0.605062 0.292882
O O9 0.658847 0.595627 0.280446
O O10 0.480842 0.889390 0.421129
O O11 0.641399 0.744139 0.349553
O O12 0.250000 0.750000 0.500000
O O13 0.208825 0.884402 0.413841
O O14 0.103261 0.895332 0.566353
#
# Coordination Sequence:
#
# PCOD9174307 Si02
#       6
#     8   8   8   8   8   8
#     4   9  18  32  58  93 112 132 178 231 274 326
#     4  10  18  34  58  86 110 147 182 230 269 328
#     4  11  23  36  52  81 119 154 184 227 281 329
#     4  10  18  31  54  79 107 146 191 231 275 327
#     4   9  17  30  53  79 104 135 193 249 280 317
#     4   9  18  33  53  77 104 144 191 239 282 324
#
# _framework density 23.679651
#
# number of rings (size 3 to 8) (size 9 to 14) (size 15 to 20)
#    0.000    2.333    1.667    3.000    2.333    2.000 
#    0.000    4.167    0.000    5.000    0.000    0.000 
#    0.000    0.000    0.000    0.000    0.000    0.000 
#
# Total GULP energy -133691.487099 kJ/mol
# GULP energy per Si atom -5570.478629 kJ/mol
# Density = 2.362575 g / cm^3
# Si number density = 23.679651 Si / 1000 Ang^3
#
#
#
# Elastic Constant Matrix: (Units=GPa)
#
#
# Indices 1 2 3 4 5 6 
#
# 1 100.1451 6.8393 52.1894 -0.0001 15.7843 0.0001
# 2 6.8393 78.6379 -1.3484 0.0000 -5.6051 0.0000
# 3 52.1894 -1.3484 103.7677 -0.0002 4.0487 0.0001
# 4 -0.0001 0.0000 -0.0002 -42.7918 0.0001 25.0594
# 5 15.7843 -5.6051 4.0487 0.0001 72.4927 -0.0001
# 6 0.0001 0.0000 0.0001 25.0594 -0.0001 -24.2130
#
#
#
# Elastic Compliance Matrix: (Units=1/GPa)
#
#
# Indices 1 2 3 4 5 6 
#
# 1 0.014216 -0.001559 -0.007060 0.000000 -0.002822 0.000000
# 2 -0.001559 0.012960 0.000902 0.000000 0.001291 0.000000
# 3 -0.007060 0.000902 0.013165 0.000000 0.000872 0.000000
# 4 0.000000 0.000000 0.000000 -0.059325 0.000000 -0.061399
# 5 -0.002822 0.001291 0.000872 0.000000 0.014460 0.000000
# 6 0.000000 0.000000 0.000000 -0.061399 0.000000 -0.104846
#
#
# Mechanical properties :
#
#
# Convention : Reuss Voigt Hill
#
# Bulk Modulus (GPa) = 40.14840 44.21234 42.18037
# Shear Modulus (GPa) = -58.38791 16.08897 -21.14947
#
# Velocity S-wave (km/s) = -4.97101 2.60944 -2.99180
# Velocity P-wave (km/s) = 3.99454 5.27167 2.43250
#
# Compressibility (1/GPa) = 0.02490760
#
# Stress axis : x y z
#
# Youngs Moduli (GPa) = 70.34393 77.16317 75.95680
#
# Poissons Ratio (x) = 0.12026 0.53625
# Poissons Ratio (y) = 0.10963 -0.06851
# Poissons Ratio (z) = 0.49662 -0.06959
#
# Static dielectric constant tensor:
#      x y z
#    x 1.973050 0.000000 0.000000 
#    y 0.000000 2.069520 0.000000 
#    z 0.000000 0.000000 1.943940 
# 
# From -- ./inp_files/300404.got.cif
#   From: 2010.05.17/outbox.cif.g08.bks.cpg/sg12_151_cif.got.tgz:300404.got - 2010.06.03 13:09:07.
