data_PCOD9174839
_publ_section_title
;
Structure prediction by ZEFSAII (Michael W. Deem and Ramdas Pophale) SiO2 
 PCOD9174839
Probable space group: C 2/M
;
_chemical_formula_sum "Si O2"
_cell_formula_units_Z 56
_cell_length_a 20.797416
_cell_length_b 21.796008
_cell_length_c 15.249933
_cell_angle_alpha 90.000000
_cell_angle_beta 27.881734
_cell_angle_gamma 90.000000
_cell_volume 3232.759493
_symmetry_space_group_name_H-M "C 2/M"
_symmetry_group_IT_number 12
_symmetry_cell_setting 'monoclinic'
loop_
_space_group_symop_operation_xyz
x,y,z
-x,y,-z
-x,-y,-z
x,-y,z
1/2+x,1/2+y,z
1/2-x,1/2+y,-z
1/2-x,1/2-y,-z
1/2+x,1/2-y,z
loop_
_atom_site_type_symbol
_atom_site_label
_atom_site_fract_x
_atom_site_fract_y
_atom_site_fract_z
Si Si1 0.395896 0.000000 0.490372
Si Si2 0.048107 0.308387 0.843001
Si Si3 0.318910 0.759742 0.570101
Si Si4 0.955457 0.378828 0.317878
Si Si5 0.766457 0.883691 0.014141
Si Si6 0.952023 0.836214 0.653209
Si Si7 0.706086 0.000000 0.196221
Si Si8 0.721395 0.263191 0.882729
O O1 0.386009 0.938966 0.443447
O O2 0.549101 0.000000 0.348541
O O3 0.298394 0.000000 0.693127
O O4 0.185575 0.267752 0.682944
O O5 0.063545 0.367577 0.762707
O O6 0.000000 0.323214 0.000000
O O7 0.927223 0.267596 0.946286
O O8 0.391376 0.817411 0.437877
O O9 0.424926 0.703588 0.454153
O O10 0.271615 0.780311 0.724496
O O11 0.117076 0.383660 0.147403
O O12 0.772149 0.939479 0.075194
O O13 0.778456 0.820586 0.053447
O O14 0.887288 0.885176 0.796915
O O15 0.829192 0.787505 0.785409
O O16 0.000000 0.859348 0.500000
#
# Coordination Sequence:
#
# PCOD9174839 Si02
#       8
#     4   8   8   8   8   8   4   8
#     4   9  20  34  53  79 105 137 175 215 254 305
#     4  10  21  34  50  78 111 140 173 216 262 310
#     4  10  20  31  52  81 110 138 169 216 264 314
#     4  11  19  33  53  76 107 141 177 215 260 309
#     4  11  19  32  54  77 106 141 174 216 264 310
#     4  10  19  31  51  79 103 135 176 214 260 313
#     4   9  20  34  51  81 109 131 171 221 260 301
#     4  10  18  32  53  79 109 137 171 214 265 313
#
# _framework density 17.322662000000001
#
# number of rings (size 3 to 8) (size 9 to 14) (size 15 to 20)
#    0.000    1.857    2.857    2.571    0.000    1.143 
#    0.000    0.714    0.000    3.429    0.000    7.000 
#    0.000    0.000    0.000    0.000    0.000    0.000 
#
# Total GULP energy -156242.002008 kJ/mol
# GULP energy per Si atom -5580.071500 kJ/mol
# Density = 1.728323 g / cm^3
# Si number density = 17.322662 Si / 1000 Ang^3
#
#
#
# Elastic Constant Matrix: (Units=GPa)
#
#
# Indices 1 2 3 4 5 6 
#
# 1 59.7724 36.4429 34.7477 0.0024 17.3198 -0.0017
# 2 36.4429 61.9643 37.8627 0.0014 31.2624 -0.0012
# 3 34.7477 37.8627 103.5905 0.0022 15.3477 -0.0018
# 4 0.0024 0.0014 0.0022 20.7451 -0.0019 8.2010
# 5 17.3198 31.2624 15.3477 -0.0019 42.4934 0.0013
# 6 -0.0017 -0.0012 -0.0018 8.2010 0.0013 20.3694
#
#
#
# Elastic Compliance Matrix: (Units=1/GPa)
#
#
# Indices 1 2 3 4 5 6 
#
# 1 0.027476 -0.013822 -0.004239 -0.000003 0.000501 0.000002
# 2 -0.013822 0.038436 -0.006400 -0.000004 -0.020332 0.000003
# 3 -0.004239 -0.006400 0.013165 -0.000001 0.001681 0.000001
# 4 -0.000003 -0.000004 -0.000001 0.057329 0.000007 -0.023081
# 5 0.000501 -0.020332 0.001681 0.000007 0.037680 -0.000006
# 6 0.000002 0.000003 0.000001 -0.023081 -0.000006 0.058386
#
#
# Mechanical properties :
#
#
# Convention : Reuss Voigt Hill
#
# Bulk Modulus (GPa) = 33.16047 49.27043 41.21545
# Shear Modulus (GPa) = 17.15581 24.47317 20.81449
#
# Velocity S-wave (km/s) = 3.15043 3.76278 3.47014
# Velocity P-wave (km/s) = 5.69368 6.88350 6.31666
#
# Compressibility (1/GPa) = 0.03015639
#
# Stress axis : x y z
#
# Youngs Moduli (GPa) = 36.39477 26.01716 75.95765
#
# Poissons Ratio (x) = 0.35962 0.32195
# Poissons Ratio (y) = 0.50307 0.48610
# Poissons Ratio (z) = 0.15426 0.16650
#
# Static dielectric constant tensor:
#      x y z
#    x 1.608870 0.000000 0.034910 
#    y 0.000000 1.552670 0.000000 
#    z 0.034910 0.000000 1.613430 
# 
# From -- ./inp_files/227608.got.cif
#   From: 2010.05.17/outbox.cif.g08.bks.cpg/sg12_114_cif.got.tgz:227608.got - 2010.06.03 13:09:07.
