data_PCOD9174675
_publ_section_title
;
Structure prediction by ZEFSAII (Michael W. Deem and Ramdas Pophale) SiO2 
 PCOD9174675
Probable space group: C 2/M
;
_chemical_formula_sum "Si O2"
_cell_formula_units_Z 64
_cell_length_a 24.521003
_cell_length_b 18.028214
_cell_length_c 18.900051
_cell_angle_alpha 90.000000
_cell_angle_beta 21.563570
_cell_angle_gamma 90.000000
_cell_volume 3070.793486
_symmetry_space_group_name_H-M "C 2/M"
_symmetry_group_IT_number 12
_symmetry_cell_setting 'monoclinic'
loop_
_space_group_symop_operation_xyz
x,y,z
-x,y,-z
-x,-y,-z
x,-y,z
1/2+x,1/2+y,z
1/2-x,1/2+y,-z
1/2-x,1/2-y,-z
1/2+x,1/2-y,z
loop_
_atom_site_type_symbol
_atom_site_label
_atom_site_fract_x
_atom_site_fract_y
_atom_site_fract_z
Si Si1 0.603245 0.742765 0.432569
Si Si2 0.199238 0.916018 0.465648
Si Si3 0.801455 0.081540 0.692886
Si Si4 0.635813 0.697513 0.946402
Si Si5 0.012886 0.361658 0.102434
Si Si6 0.964203 0.587110 0.319327
Si Si7 0.617115 0.588292 0.718794
Si Si8 0.650117 0.793069 0.176903
O O1 0.500000 0.783456 0.500000
O O2 0.642688 0.662572 0.350915
O O3 0.754914 0.788591 0.252457
O O4 0.492328 0.740888 0.631741
O O5 0.138161 0.919680 0.460397
O O6 0.343161 0.865834 0.284345
O O7 0.106611 0.895003 0.646353
O O8 0.253834 0.000000 0.416365
O O9 0.836848 0.000000 0.681429
O O10 0.624869 0.092916 0.916960
O O11 0.741959 0.688184 0.887209
O O12 0.556689 0.776288 0.052512
O O13 0.512850 0.634570 0.088083
O O14 0.018482 0.396329 0.173939
O O15 0.975258 0.500000 0.320721
O O16 0.787740 0.607218 0.533748
O O17 0.068938 0.634771 0.243640
O O18 0.597819 0.500000 0.752259
O O19 0.750000 0.750000 0.000000
#
# Coordination Sequence:
#
# PCOD9174675 Si02
#       8
#     8   8   8   8   8   8   8   8
#     4   9  22  40  55  79 117 149 193 245 289 346
#     4   9  18  30  48  78 116 150 186 232 277 335
#     4  10  19  31  51  78 113 155 193 230 280 342
#     4  10  21  38  61  85 113 154 194 235 293 343
#     4  10  18  32  51  80 117 154 189 224 282 347
#     4  10  21  38  60  88 120 152 192 244 297 349
#     4   9  20  38  59  87 119 149 193 248 295 345
#     4  11  22  40  61  84 113 154 194 241 288 343
#
# _framework density 20.841519000000002
#
# number of rings (size 3 to 8) (size 9 to 14) (size 15 to 20)
#    0.000    2.250    1.250    2.250    1.750    4.750 
#    0.000    3.125    0.000    3.750    0.000    0.000 
#    0.000    0.000    0.000    0.000    0.000    0.000 
#
# Total GULP energy -178164.589911 kJ/mol
# GULP energy per Si atom -5567.643435 kJ/mol
# Density = 2.079408 g / cm^3
# Si number density = 20.841519 Si / 1000 Ang^3
#
#
#
# Elastic Constant Matrix: (Units=GPa)
#
#
# Indices 1 2 3 4 5 6 
#
# 1 16.9891 12.9003 4.6410 0.0011 -0.9106 -0.0011
# 2 12.9003 92.3536 62.0081 -0.0005 -5.5565 0.0004
# 3 4.6410 62.0081 141.4795 -0.0004 9.7414 -0.0011
# 4 0.0011 -0.0005 -0.0004 -2.9745 -0.0002 -1.8464
# 5 -0.9106 -5.5565 9.7414 -0.0002 17.2066 0.0005
# 6 -0.0011 0.0004 -0.0011 -1.8464 0.0005 26.2291
#
#
#
# Elastic Compliance Matrix: (Units=1/GPa)
#
#
# Indices 1 2 3 4 5 6 
#
# 1 0.066604 -0.011376 0.002926 0.000023 -0.001806 0.000005
# 2 -0.011376 0.018796 -0.008576 -0.000006 0.010323 -0.000002
# 3 0.002926 -0.008576 0.011353 0.000001 -0.009042 0.000001
# 4 0.000023 -0.000006 0.000001 -0.322118 -0.000005 -0.022676
# 5 -0.001806 0.010323 -0.009042 -0.000005 0.066474 -0.000002
# 6 0.000005 -0.000002 0.000001 -0.022676 -0.000002 0.036529
#
#
# Mechanical properties :
#
#
# Convention : Reuss Voigt Hill
#
# Bulk Modulus (GPa) = 15.94889 45.54679 30.74784
# Shear Modulus (GPa) = -74.17415 19.51042 -27.33186
#
# Velocity S-wave (km/s) = -5.97217 3.06295 -3.62527
# Velocity P-wave (km/s) = 6.31560 5.86602 1.65478
#
# Compressibility (1/GPa) = 0.06270029
#
# Stress axis : x y z
#
# Youngs Moduli (GPa) = 15.01416 53.20304 88.08031
#
# Poissons Ratio (x) = 0.60526 -0.25769
# Poissons Ratio (y) = 0.17081 0.75533
# Poissons Ratio (z) = -0.04393 0.45624
#
# Static dielectric constant tensor:
#      x y z
#    x 1.840220 0.000000 0.016020 
#    y 0.000000 1.760970 0.000000 
#    z 0.016020 0.000000 1.788830 
# 
# From -- ./inp_files/328623.got.cif
#   From: 2010.05.17/outbox.cif.g08.bks.cpg/sg12_165_cif.got.tgz:328623.got - 2010.06.03 13:09:07.
