data_PCOD9174842
_publ_section_title
;
Structure prediction by ZEFSAII (Michael W. Deem and Ramdas Pophale) SiO2 
 PCOD9174842
Probable space group: C 2/M
;
_chemical_formula_sum "Si O2"
_cell_formula_units_Z 56
_cell_length_a 10.451356
_cell_length_b 14.278999
_cell_length_c 22.317977
_cell_angle_alpha 90.000000
_cell_angle_beta 48.804201
_cell_angle_gamma 90.000000
_cell_volume 2506.169826
_symmetry_space_group_name_H-M "C 2/M"
_symmetry_group_IT_number 12
_symmetry_cell_setting 'monoclinic'
loop_
_space_group_symop_operation_xyz
x,y,z
-x,y,-z
-x,-y,-z
x,-y,z
1/2+x,1/2+y,z
1/2-x,1/2+y,-z
1/2-x,1/2-y,-z
1/2+x,1/2-y,z
loop_
_atom_site_type_symbol
_atom_site_label
_atom_site_fract_x
_atom_site_fract_y
_atom_site_fract_z
Si Si1 0.977125 0.614754 0.367603
Si Si2 0.145068 0.888837 0.738960
Si Si3 0.503959 0.676694 0.091688
Si Si4 0.231911 0.663446 0.079973
Si Si5 0.425011 0.894051 0.248416
Si Si6 0.886450 0.114152 0.478007
Si Si7 0.913968 0.114336 0.703730
O O1 0.981686 0.500000 0.367338
O O2 0.950301 0.645290 0.306914
O O3 0.809746 0.643763 0.455348
O O4 0.163312 0.647264 0.330813
O O5 0.003498 0.851462 0.736686
O O6 0.084551 0.873403 0.825463
O O7 0.154839 0.000000 0.726189
O O8 0.359425 0.707606 0.089527
O O9 0.611911 0.761568 0.085027
O O10 0.643288 0.620173 0.008797
O O11 0.100612 0.603126 0.158561
O O12 0.276269 0.851450 0.253120
O O13 0.366290 0.000000 0.278604
O O14 0.971798 0.139551 0.388888
O O15 0.000000 0.145174 0.500000
O O16 0.887166 0.000000 0.479777
O O17 0.908321 0.000000 0.710452
#
# Coordination Sequence:
#
# PCOD9174842 Si02
#       7
#     8   8   8   8   8   8   8
#     4   9  16  27  47  73 105 137 170 213 254 301
#     4  10  20  34  51  78 111 138 169 216 267 305
#     4  10  22  39  56  77 104 135 173 215 257 312
#     4  10  22  38  57  78 102 135 174 214 258 311
#     4  10  18  32  53  80 106 135 175 215 256 305
#     4   9  14  24  43  70 105 141 173 207 252 303
#     4   9  18  29  46  75 110 141 171 211 258 306
#
# _framework density 22.344854999999999
#
# number of rings (size 3 to 8) (size 9 to 14) (size 15 to 20)
#    0.000    2.429    2.857    0.000    2.000    1.143 
#    0.000    4.286    0.000    2.571    0.000    6.000 
#    0.000    0.000    0.000    0.000    0.000    0.000 
#
# Total GULP energy -156263.092817 kJ/mol
# GULP energy per Si atom -5580.824743 kJ/mol
# Density = 2.229400 g / cm^3
# Si number density = 22.344855 Si / 1000 Ang^3
#
#
#
# Elastic Constant Matrix: (Units=GPa)
#
#
# Indices 1 2 3 4 5 6 
#
# 1 156.6714 2.8610 43.8787 0.0000 -14.3043 0.0000
# 2 2.8610 43.8142 -16.1577 0.0000 -5.4236 0.0000
# 3 43.8787 -16.1577 117.5086 0.0000 -16.8730 0.0000
# 4 0.0000 0.0000 0.0000 16.3497 0.0000 -1.6552
# 5 -14.3043 -5.4236 -16.8730 0.0000 41.3428 0.0000
# 6 0.0000 0.0000 0.0000 -1.6552 0.0000 4.8169
#
#
#
# Elastic Compliance Matrix: (Units=1/GPa)
#
#
# Indices 1 2 3 4 5 6 
#
# 1 0.007283 -0.001328 -0.002725 0.000000 0.001234 0.000000
# 2 -0.001328 0.025210 0.004643 0.000000 0.004743 0.000000
# 3 -0.002725 0.004643 0.010748 0.000000 0.004053 0.000000
# 4 0.000000 0.000000 0.000000 0.063368 0.000000 0.021775
# 5 0.001234 0.004743 0.004053 0.000000 0.026891 0.000000
# 6 0.000000 0.000000 0.000000 0.021775 0.000000 0.215083
#
#
# Mechanical properties :
#
#
# Convention : Reuss Voigt Hill
#
# Bulk Modulus (GPa) = 22.51158 42.12867 32.32012
# Shear Modulus (GPa) = 13.80421 31.66271 22.73346
#
# Velocity S-wave (km/s) = 2.48821 3.76839 3.19312
# Velocity P-wave (km/s) = 4.28386 6.15054 5.30003
#
# Compressibility (1/GPa) = 0.04442159
#
# Stress axis : x y z
#
# Youngs Moduli (GPa) = 137.30960 39.66720 93.04126
#
# Poissons Ratio (x) = 0.05267 0.25353
# Poissons Ratio (y) = 0.18231 -0.43201
# Poissons Ratio (z) = 0.37416 -0.18418
#
# Static dielectric constant tensor:
#      x y z
#    x 1.820980 0.000000 -0.013940 
#    y 0.000000 1.854910 0.000000 
#    z -0.013940 0.000000 1.813480 
# 
# From -- ./inp_files/257681.got.cif
#   From: 2010.05.17/outbox.cif.g08.bks.cpg/sg12_129_cif.got.tgz:257681.got - 2010.06.03 13:09:07.
