data_PCOD9174761
_publ_section_title
;
Structure prediction by ZEFSAII (Michael W. Deem and Ramdas Pophale) SiO2 
 PCOD9174761
Probable space group: C 2/M
;
_chemical_formula_sum "Si O2"
_cell_formula_units_Z 60
_cell_length_a 23.685798
_cell_length_b 25.139623
_cell_length_c 9.183110
_cell_angle_alpha 90.000000
_cell_angle_beta 35.782590
_cell_angle_gamma 90.000000
_cell_volume 3197.260178
_symmetry_space_group_name_H-M "C 2/M"
_symmetry_group_IT_number 12
_symmetry_cell_setting 'monoclinic'
loop_
_space_group_symop_operation_xyz
x,y,z
-x,y,-z
-x,-y,-z
x,-y,z
1/2+x,1/2+y,z
1/2-x,1/2+y,-z
1/2-x,1/2-y,-z
1/2+x,1/2-y,z
loop_
_atom_site_type_symbol
_atom_site_label
_atom_site_fract_x
_atom_site_fract_y
_atom_site_fract_z
Si Si1 0.707334 0.141188 0.232615
Si Si2 0.799185 0.062381 0.817348
Si Si3 0.643321 0.269710 0.672427
Si Si4 0.261367 0.143097 0.291350
Si Si5 0.398003 0.850309 0.274417
Si Si6 0.406141 0.313252 0.917734
Si Si7 0.500000 0.391225 0.500000
Si Si8 0.603357 0.798749 0.220713
O O1 0.626416 0.126880 0.517629
O O2 0.675669 0.191910 0.203175
O O3 0.731524 0.093498 0.073723
O O4 0.801950 0.159021 0.121520
O O5 0.778568 0.091612 0.707208
O O6 0.906912 0.074754 0.650231
O O7 0.781841 0.000000 0.846760
O O8 0.750000 0.250000 0.500000
O O9 0.672928 0.314893 0.495083
O O10 0.598068 0.214313 0.714374
O O11 0.586674 0.294577 0.929351
O O12 0.312698 0.135485 0.339616
O O13 0.346964 0.168622 0.014176
O O14 0.500000 0.868084 0.000000
O O15 0.477118 0.354018 0.688199
O O16 0.407225 0.260362 0.817400
O O17 0.500000 0.817090 0.500000
#
# Coordination Sequence:
#
# PCOD9174761 Si02
#       8
#     8   8   8   8   8   8   4   8
#     4  10  21  33  55  81 113 153 197 241 284 341
#     4  10  23  44  66  81 106 150 201 257 304 337
#     4  10  18  32  52  80 126 163 191 217 276 351
#     4  10  20  38  57  81 118 160 197 237 281 355
#     4  11  20  33  56  87 125 160 188 229 287 351
#     4  11  18  33  51  85 121 158 186 226 280 352
#     4  10  23  36  64  92 116 142 195 246 294 356
#     4  11  19  30  49  82 122 155 195 226 273 340
#
# _framework density 18.766065999999999
#
# number of rings (size 3 to 8) (size 9 to 14) (size 15 to 20)
#    0.000    1.600    6.000    1.400    0.000    3.200 
#    0.000    0.667    0.000   16.000    0.000    0.000 
#    0.000    0.000    0.000    0.000    0.000    0.000 
#
# Total GULP energy -167379.447493 kJ/mol
# GULP energy per Si atom -5579.314916 kJ/mol
# Density = 1.872335 g / cm^3
# Si number density = 18.766066 Si / 1000 Ang^3
#
#
#
# Elastic Constant Matrix: (Units=GPa)
#
#
# Indices 1 2 3 4 5 6 
#
# 1 59.2960 40.8509 24.7698 0.0000 12.6642 0.0000
# 2 40.8509 93.7321 25.5448 0.0000 11.3297 0.0000
# 3 24.7698 25.5448 115.4026 0.0000 18.3099 0.0000
# 4 0.0000 0.0000 0.0000 2.5714 0.0000 2.5223
# 5 12.6642 11.3297 18.3099 0.0000 25.2478 0.0000
# 6 0.0000 0.0000 0.0000 2.5223 0.0000 21.5960
#
#
#
# Elastic Compliance Matrix: (Units=1/GPa)
#
#
# Indices 1 2 3 4 5 6 
#
# 1 0.026162 -0.009928 -0.002308 0.000000 -0.006994 0.000000
# 2 -0.009928 0.015435 -0.001104 0.000000 -0.001146 0.000000
# 3 -0.002308 -0.001104 0.010332 0.000000 -0.005839 0.000000
# 4 0.000000 0.000000 0.000000 0.439206 0.000000 -0.051297
# 5 -0.006994 -0.001146 -0.005839 0.000000 0.047865 0.000000
# 6 0.000000 0.000000 0.000000 -0.051297 0.000000 0.052296
#
#
# Mechanical properties :
#
#
# Convention : Reuss Voigt Hill
#
# Bulk Modulus (GPa) = 39.60563 50.08463 44.84513
# Shear Modulus (GPa) = 7.98224 21.70071 14.84148
#
# Velocity S-wave (km/s) = 2.06465 3.40425 2.81529
# Velocity P-wave (km/s) = 5.18020 6.49606 5.87508
#
# Compressibility (1/GPa) = 0.02524893
#
# Stress axis : x y z
#
# Youngs Moduli (GPa) = 38.22346 64.78866 96.79068
#
# Poissons Ratio (x) = 0.64320 0.22341
# Poissons Ratio (y) = 0.37947 0.10684
# Poissons Ratio (z) = 0.08823 0.07152
#
# Static dielectric constant tensor:
#      x y z
#    x 1.698540 0.000000 -0.007670 
#    y 0.000000 1.610390 0.000000 
#    z -0.007670 0.000000 1.694710 
# 
# From -- ./inp_files/99796.got.cif
#   From: 2010.05.17/outbox.cif.g08.bks.cpg/sg12_50_cif.got.tgz:99796.got - 2010.06.03 13:09:07.
