data_PCOD9174327
_publ_section_title
;
Structure prediction by ZEFSAII (Michael W. Deem and Ramdas Pophale) SiO2 
 PCOD9174327
Probable space group: C 2/M
;
_chemical_formula_sum "Si O2"
_cell_formula_units_Z 36
_cell_length_a 15.275389
_cell_length_b 14.112457
_cell_length_c 9.354598
_cell_angle_alpha 90.000000
_cell_angle_beta 82.498167
_cell_angle_gamma 90.000000
_cell_volume 1999.340559
_symmetry_space_group_name_H-M "C 2/M"
_symmetry_group_IT_number 12
_symmetry_cell_setting 'monoclinic'
loop_
_space_group_symop_operation_xyz
x,y,z
-x,y,-z
-x,-y,-z
x,-y,z
1/2+x,1/2+y,z
1/2-x,1/2+y,-z
1/2-x,1/2-y,-z
1/2+x,1/2-y,z
loop_
_atom_site_type_symbol
_atom_site_label
_atom_site_fract_x
_atom_site_fract_y
_atom_site_fract_z
Si Si1 0.796776 0.000000 0.607535
Si Si2 0.580641 0.363417 0.246323
Si Si3 0.625613 0.500000 0.988262
Si Si4 0.398146 0.000000 0.263151
Si Si5 0.834127 0.500000 0.949971
Si Si6 0.966167 0.657660 0.842303
Si Si7 0.429658 0.500000 0.326741
O O1 0.836169 0.907938 0.684490
O O2 0.690802 0.000000 0.624315
O O3 0.845488 0.000000 0.445400
O O4 0.562281 0.253475 0.229601
O O5 0.494156 0.410753 0.334723
O O6 0.592747 0.410056 0.086569
O O7 0.730548 0.500000 0.962232
O O8 0.594570 0.500000 0.833874
O O9 0.459977 0.906299 0.254642
O O10 0.361093 0.000000 0.109796
O O11 0.880465 0.591325 0.873106
O O12 0.000000 0.674446 0.000000
#
# Coordination Sequence:
#
# PCOD9174327 Si02
#       7
#     4   8   4   4   4   8   4
#     4  10  20  37  58  74 109 142 178 213 264 318
#     4  10  18  34  55  82 102 138 175 224 263 308
#     4  10  18  31  54  80 111 126 186 221 258 304
#     4   9  17  37  53  79 109 143 173 214 264 319
#     4   9  17  33  51  83 107 143 167 226 262 311
#     4   9  18  31  56  79 112 135 175 217 274 307
#     4  10  20  34  54  75 110 143 168 218 274 310
#
# _framework density 18.005936999999999
#
# number of rings (size 3 to 8) (size 9 to 14) (size 15 to 20)
#    0.000    2.667    2.222    5.333    0.000    0.889 
#    4.000    1.111    4.889    1.333    0.000    0.000 
#    0.000    0.000    0.000    0.000    0.000    0.000 
#
# Total GULP energy -100279.651521 kJ/mol
# GULP energy per Si atom -5571.091751 kJ/mol
# Density = 1.796495 g / cm^3
# Si number density = 18.005937 Si / 1000 Ang^3
#
#
#
# Elastic Constant Matrix: (Units=GPa)
#
#
# Indices 1 2 3 4 5 6 
#
# 1 120.3511 50.2816 30.5817 0.0000 -35.6166 0.0000
# 2 50.2816 117.8990 14.1682 0.0000 -17.8614 0.0000
# 3 30.5817 14.1682 77.0562 0.0000 -22.7286 0.0000
# 4 0.0000 0.0000 0.0000 2.1234 0.0000 11.2768
# 5 -35.6166 -17.8614 -22.7286 0.0000 36.2384 0.0000
# 6 0.0000 0.0000 0.0000 11.2768 0.0000 24.5289
#
#
#
# Elastic Compliance Matrix: (Units=1/GPa)
#
#
# Indices 1 2 3 4 5 6 
#
# 1 0.013393 -0.003975 -0.001570 0.000000 0.010219 0.000000
# 2 -0.003975 0.010358 0.000033 0.000000 0.001219 0.000000
# 3 -0.001570 0.000033 0.016128 0.000000 0.008588 0.000000
# 4 0.000000 0.000000 0.000000 -0.326702 0.000000 0.150196
# 5 0.010219 0.001219 0.008588 0.000000 0.043626 0.000000
# 6 0.000000 0.000000 0.000000 0.150196 0.000000 -0.028282
#
#
# Mechanical properties :
#
#
# Convention : Reuss Voigt Hill
#
# Bulk Modulus (GPa) = 34.65774 56.15213 45.40494
# Shear Modulus (GPa) = -19.93334 27.26313 3.66490
#
# Velocity S-wave (km/s) = -3.33083 3.89539 1.42822
# Velocity P-wave (km/s) = 2.12064 7.17531 5.29066
#
# Compressibility (1/GPa) = 0.02885358
#
# Stress axis : x y z
#
# Youngs Moduli (GPa) = 74.66611 96.54536 62.00428
#
# Poissons Ratio (x) = 0.38376 0.09736
# Poissons Ratio (y) = 0.29680 -0.00202
# Poissons Ratio (z) = 0.11724 -0.00315
#
# Static dielectric constant tensor:
#      x y z
#    x 1.637590 0.000000 0.003520 
#    y 0.000000 1.612210 0.000000 
#    z 0.003520 0.000000 1.636900 
# 
# From -- ./inp_files/58508.got.cif
#   From: 2010.05.17/outbox.cif.g08.bks.cpg/sg12_30_cif.got.tgz:58508.got - 2010.06.03 13:09:07.
