data_PCOD9174602
_publ_section_title
;
Structure prediction by ZEFSAII (Michael W. Deem and Ramdas Pophale) SiO2 
 PCOD9174602
Probable space group: C 2/M
;
_chemical_formula_sum "Si O2"
_cell_formula_units_Z 52
_cell_length_a 26.554871
_cell_length_b 12.626963
_cell_length_c 8.467784
_cell_angle_alpha 90.000000
_cell_angle_beta 124.272011
_cell_angle_gamma 90.000000
_cell_volume 2346.330823
_symmetry_space_group_name_H-M "C 2/M"
_symmetry_group_IT_number 12
_symmetry_cell_setting 'monoclinic'
loop_
_space_group_symop_operation_xyz
x,y,z
-x,y,-z
-x,-y,-z
x,-y,z
1/2+x,1/2+y,z
1/2-x,1/2+y,-z
1/2-x,1/2-y,-z
1/2+x,1/2-y,z
loop_
_atom_site_type_symbol
_atom_site_label
_atom_site_fract_x
_atom_site_fract_y
_atom_site_fract_z
Si Si1 0.834937 0.255767 0.874774
Si Si2 0.707737 0.205465 0.659175
Si Si3 0.645120 0.000000 0.056906
Si Si4 0.537346 0.381047 0.422628
Si Si5 0.070183 0.500000 0.255103
Si Si6 0.920632 0.727341 0.754796
Si Si7 0.830766 0.879590 0.184143
Si Si8 0.657225 0.000000 0.716230
O O1 0.773609 0.202730 0.692971
O O2 0.825832 0.382853 0.873957
O O3 0.897684 0.243695 0.888049
O O4 0.840726 0.191158 0.047087
O O5 0.646884 0.210552 0.445567
O O6 0.709928 0.309238 0.771969
O O7 0.697114 0.104678 0.753846
O O8 0.603260 0.000000 0.141348
O O9 0.627541 0.000000 0.838317
O O10 0.500000 0.329105 0.500000
O O11 0.512995 0.500000 0.353862
O O12 0.542893 0.316464 0.272531
O O13 0.605317 0.387531 0.611294
O O14 0.043058 0.617544 0.206336
O O15 0.109246 0.500000 0.486451
O O16 0.809965 0.000000 0.118082
#
# Coordination Sequence:
#
# PCOD9174602 Si02
#       8
#     8   8   4   8   4   8   8   4
#     4  11  21  32  50  76 111 142 180 221 263 319
#     4  10  20  32  50  73 108 147 184 215 260 319
#     4  10  20  32  50  72 103 156 179 210 270 314
#     4   9  19  39  61  78 101 136 177 222 278 335
#     4   8  18  34  51  77 110 131 182 225 253 329
#     4   9  19  36  53  76 105 142 178 221 273 318
#     4  10  21  33  51  80 107 134 179 230 257 315
#     4  10  18  32  50  71 102 153 184 214 266 314
#
# _framework density 22.162261000000001
#
# number of rings (size 3 to 8) (size 9 to 14) (size 15 to 20)
#    0.000    2.308    1.538    0.923    2.154    0.615 
#    0.000    1.154    0.000    2.769    0.000    3.231 
#    0.000    0.000    0.000    0.000    0.000    0.000 
#
# Total GULP energy -144792.069421 kJ/mol
# GULP energy per Si atom -5568.925747 kJ/mol
# Density = 2.211182 g / cm^3
# Si number density = 22.162261 Si / 1000 Ang^3
#
#
#
# Elastic Constant Matrix: (Units=GPa)
#
#
# Indices 1 2 3 4 5 6 
#
# 1 50.5850 11.7066 16.1433 0.0000 -16.1365 0.0000
# 2 11.7066 97.2110 16.2367 0.0000 -3.6696 0.0000
# 3 16.1433 16.2367 70.0398 0.0000 -9.3807 0.0000
# 4 0.0000 0.0000 0.0000 13.5760 0.0000 -15.9442
# 5 -16.1365 -3.6696 -9.3807 0.0000 27.3981 0.0000
# 6 0.0000 0.0000 0.0000 -15.9442 0.0000 8.6097
#
#
#
# Elastic Compliance Matrix: (Units=1/GPa)
#
#
# Indices 1 2 3 4 5 6 
#
# 1 0.025744 -0.001976 -0.003648 0.000000 0.013649 0.000000
# 2 -0.001976 0.010863 -0.002121 0.000000 -0.000435 0.000000
# 3 -0.003648 -0.002121 0.016019 0.000000 0.003052 0.000000
# 4 0.000000 0.000000 0.000000 -0.062692 0.000000 -0.116099
# 5 0.013649 -0.000435 0.003052 0.000000 0.045524 0.000000
# 6 0.000000 0.000000 0.000000 -0.116099 0.000000 -0.098855
#
#
# Mechanical properties :
#
#
# Convention : Reuss Voigt Hill
#
# Bulk Modulus (GPa) = 26.92762 34.00101 30.46432
# Shear Modulus (GPa) = -140.73072 21.50004 -59.61534
#
# Velocity S-wave (km/s) = -7.97734 3.11805 -5.19210
# Velocity P-wave (km/s) = 8.52491 5.32336 4.70829
#
# Compressibility (1/GPa) = 0.03713659
#
# Stress axis : x y z
#
# Youngs Moduli (GPa) = 38.84418 92.05832 62.42656
#
# Poissons Ratio (x) = 0.18188 0.22771
# Poissons Ratio (y) = 0.07675 0.13241
# Poissons Ratio (z) = 0.14169 0.19526
#
# Static dielectric constant tensor:
#      x y z
#    x 1.813940 0.000000 0.036970 
#    y 0.000000 1.828440 0.000000 
#    z 0.036970 0.000000 1.884370 
# 
# From -- ./inp_files/102606.got.cif
#   From: 2010.05.17/outbox.cif.g08.bks.cpg/sg12_52_cif.got.tgz:102606.got - 2010.06.03 13:09:07.
