data_PCOD9174757
_publ_section_title
;
Structure prediction by ZEFSAII (Michael W. Deem and Ramdas Pophale) SiO2 
 PCOD9174757
Probable space group: C 2/M
;
_chemical_formula_sum "Si O2"
_cell_formula_units_Z 32
_cell_length_a 22.293283
_cell_length_b 10.906311
_cell_length_c 7.569669
_cell_angle_alpha 90.000000
_cell_angle_beta 60.162743
_cell_angle_gamma 90.000000
_cell_volume 1596.501375
_symmetry_space_group_name_H-M "C 2/M"
_symmetry_group_IT_number 12
_symmetry_cell_setting 'monoclinic'
loop_
_space_group_symop_operation_xyz
x,y,z
-x,y,-z
-x,-y,-z
x,-y,z
1/2+x,1/2+y,z
1/2-x,1/2+y,-z
1/2-x,1/2-y,-z
1/2+x,1/2-y,z
loop_
_atom_site_type_symbol
_atom_site_label
_atom_site_fract_x
_atom_site_fract_y
_atom_site_fract_z
Si Si1 0.678005 0.356000 0.438259
Si Si2 0.916767 0.863027 0.749004
Si Si3 0.323432 0.258216 0.166372
Si Si4 0.956735 0.634970 0.884354
O O1 0.695523 0.500000 0.417944
O O2 0.614200 0.341740 0.398893
O O3 0.663538 0.310455 0.657249
O O4 0.744164 0.280729 0.271078
O O5 0.946093 0.000000 0.722397
O O6 0.850702 0.852417 0.978883
O O7 0.964821 0.752190 0.745351
O O8 0.375817 0.145426 0.056846
O O9 0.972057 0.500000 0.787962
O O10 0.000000 0.651201 0.000000
#
# Coordination Sequence:
#
# PCOD9174757 Si02
#       4
#     8   8   8   8
#     4  10  18  32  52  80 108 131 169 211 255 309
#     4   9  19  33  53  79 103 133 170 212 256 302
#     4   9  19  32  52  76 105 139 163 206 259 298
#     4   9  19  36  55  74 101 138 175 210 251 303
#
# _framework density 20.043828999999999
#
# number of rings (size 3 to 8) (size 9 to 14) (size 15 to 20)
#    1.500    1.250    0.000    2.250    0.000    0.500 
#    0.000    7.500    0.000    6.000    0.000    0.000 
#    0.000    0.000    0.000    0.000    0.000    0.000 
#
# Total GULP energy -89088.910960 kJ/mol
# GULP energy per Si atom -5568.056935 kJ/mol
# Density = 1.999821 g / cm^3
# Si number density = 20.043829 Si / 1000 Ang^3
#
#
#
# Elastic Constant Matrix: (Units=GPa)
#
#
# Indices 1 2 3 4 5 6 
#
# 1 40.9498 52.8226 18.4847 0.0000 11.5633 0.0000
# 2 52.8226 161.4817 29.2737 0.0000 27.2348 0.0000
# 3 18.4847 29.2737 76.7536 0.0000 -3.4253 0.0000
# 4 0.0000 0.0000 0.0000 7.0901 0.0000 24.2767
# 5 11.5633 27.2348 -3.4253 0.0000 32.3221 0.0000
# 6 0.0000 0.0000 0.0000 24.2767 0.0000 125.9671
#
#
#
# Elastic Compliance Matrix: (Units=1/GPa)
#
#
# Indices 1 2 3 4 5 6 
#
# 1 0.045353 -0.012620 -0.006389 0.000000 -0.006268 0.000000
# 2 -0.012620 0.011512 -0.001590 0.000000 -0.005354 0.000000
# 3 -0.006389 -0.001590 0.015409 0.000000 0.005259 0.000000
# 4 0.000000 0.000000 0.000000 0.414689 0.000000 -0.079920
# 5 -0.006268 -0.005354 0.005259 0.000000 0.038250 0.000000
# 6 0.000000 0.000000 0.000000 -0.079920 0.000000 0.023341
#
#
# Mechanical properties :
#
#
# Convention : Reuss Voigt Hill
#
# Bulk Modulus (GPa) = 32.17998 53.37189 42.77593
# Shear Modulus (GPa) = 8.33178 44.98280 26.65729
#
# Velocity S-wave (km/s) = 2.04103 4.74246 3.65080
# Velocity P-wave (km/s) = 4.65232 7.52817 6.25769
#
# Compressibility (1/GPa) = 0.03107522
#
# Stress axis : x y z
#
# Youngs Moduli (GPa) = 22.04902 86.86495 64.89894
#
# Poissons Ratio (x) = 1.09626 0.41464
# Poissons Ratio (y) = 0.27826 0.10321
# Poissons Ratio (z) = 0.14087 0.13814
#
# Static dielectric constant tensor:
#      x y z
#    x 1.687970 0.000000 -0.028250 
#    y 0.000000 1.703380 0.000000 
#    z -0.028250 0.000000 1.706230 
# 
# From -- ./inp_files/27098.got.cif
#   From: 2010.05.17/outbox.cif.g08.bks.cpg/sg12_14_cif.got.tgz:27098.got - 2010.06.03 13:09:07.
