data_PCOD9174310
_publ_section_title
;
Structure prediction by ZEFSAII (Michael W. Deem and Ramdas Pophale) SiO2 
 PCOD9174310
Probable space group: C 2/M
;
_chemical_formula_sum "Si O2"
_cell_formula_units_Z 64
_cell_length_a 28.618442
_cell_length_b 17.303865
_cell_length_c 13.078501
_cell_angle_alpha 90.000000
_cell_angle_beta 143.740251
_cell_angle_gamma 90.000000
_cell_volume 3830.564717
_symmetry_space_group_name_H-M "C 2/M"
_symmetry_group_IT_number 12
_symmetry_cell_setting 'monoclinic'
loop_
_space_group_symop_operation_xyz
x,y,z
-x,y,-z
-x,-y,-z
x,-y,z
1/2+x,1/2+y,z
1/2-x,1/2+y,-z
1/2-x,1/2-y,-z
1/2+x,1/2-y,z
loop_
_atom_site_type_symbol
_atom_site_label
_atom_site_fract_x
_atom_site_fract_y
_atom_site_fract_z
Si Si1 0.912563 0.094063 0.310103
Si Si2 0.167019 0.410026 0.377950
Si Si3 0.074153 0.855494 0.309586
Si Si4 0.657400 0.593904 0.251898
Si Si5 0.366017 0.909837 0.921853
Si Si6 0.409618 0.411113 0.078687
Si Si7 0.695985 0.406707 0.691029
Si Si8 0.483624 0.190678 0.849685
O O1 0.894446 0.123193 0.163833
O O2 0.847913 0.113565 0.281181
O O3 0.000000 0.119197 0.500000
O O4 0.915460 0.000000 0.309728
O O5 0.158706 0.500000 0.391400
O O6 0.252749 0.382813 0.565936
O O7 0.161917 0.405673 0.245929
O O8 0.094154 0.362328 0.292670
O O9 0.101434 0.876597 0.243530
O O10 0.148336 0.866563 0.515070
O O11 0.037017 0.770523 0.240868
O O12 0.003553 0.909306 0.225162
O O13 0.653332 0.500000 0.247115
O O14 0.629848 0.623453 0.092514
O O15 0.288858 0.888592 0.851093
O O16 0.387322 0.000000 0.978747
O O17 0.441124 0.854290 0.062894
O O18 0.382355 0.500000 0.033987
O O19 0.689484 0.500000 0.663840
O O20 0.500000 0.203750 0.000000
#
# Coordination Sequence:
#
# PCOD9174310 Si02
#       8
#     8   8   8   8   8   8   8   8
#     4   9  16  28  48  73  98 123 166 213 246 281
#     4   9  17  32  51  70  95 128 168 209 246 291
#     4  12  20  30  45  72 107 136 157 193 245 305
#     4  10  19  30  46  72 102 134 164 192 242 305
#     4   9  17  33  54  73  95 126 171 216 247 284
#     4  10  19  30  46  70 101 136 164 195 239 296
#     4  10  18  31  54  79  98 128 169 208 249 287
#     4  10  21  33  45  71 101 135 169 200 249 294
#
# _framework density 16.707719000000001
#
# number of rings (size 3 to 8) (size 9 to 14) (size 15 to 20)
#    0.000    2.125    2.500    2.625    0.000    3.000 
#    2.250    0.000    0.000    0.750    3.250    0.000 
#    0.000    6.000    0.000    0.000    0.000    0.000 
#
# Total GULP energy -178429.420596 kJ/mol
# GULP energy per Si atom -5575.919394 kJ/mol
# Density = 1.666969 g / cm^3
# Si number density = 16.707719 Si / 1000 Ang^3
#
#
#
# Elastic Constant Matrix: (Units=GPa)
#
#
# Indices 1 2 3 4 5 6 
#
# 1 126.4457 35.2052 54.8754 0.0000 3.4247 0.0000
# 2 35.2052 39.0058 26.1446 0.0000 7.8955 0.0000
# 3 54.8754 26.1446 59.0264 0.0000 2.3912 0.0000
# 4 0.0000 0.0000 0.0000 25.1049 0.0000 13.1888
# 5 3.4247 7.8955 2.3912 0.0000 31.7975 0.0000
# 6 0.0000 0.0000 0.0000 13.1888 0.0000 10.4816
#
#
#
# Elastic Compliance Matrix: (Units=1/GPa)
#
#
# Indices 1 2 3 4 5 6 
#
# 1 0.014080 -0.005773 -0.010562 0.000000 0.000711 0.000000
# 2 -0.005773 0.040901 -0.012401 0.000000 -0.008602 0.000000
# 3 -0.010562 -0.012401 0.032181 0.000000 0.001797 0.000000
# 4 0.000000 0.000000 0.000000 0.117512 0.000000 -0.147863
# 5 0.000711 -0.008602 0.001797 0.000000 0.033373 0.000000
# 6 0.000000 0.000000 0.000000 -0.147863 0.000000 0.281458
#
#
# Mechanical properties :
#
#
# Convention : Reuss Voigt Hill
#
# Bulk Modulus (GPa) = 33.68096 50.76982 42.22539
# Shear Modulus (GPa) = 8.51974 20.69364 14.60669
#
# Velocity S-wave (km/s) = 2.26061 3.52315 2.95998
# Velocity P-wave (km/s) = 5.19774 6.85588 6.08357
#
# Compressibility (1/GPa) = 0.02969037
#
# Stress axis : x y z
#
# Youngs Moduli (GPa) = 71.02137 24.44950 31.07469
#
# Poissons Ratio (x) = 0.14115 0.32821
# Poissons Ratio (y) = 0.41000 0.38535
# Poissons Ratio (z) = 0.75012 0.30319
#
# Static dielectric constant tensor:
#      x y z
#    x 1.562060 0.000000 -0.004030 
#    y 0.000000 1.566180 0.000000 
#    z -0.004030 0.000000 1.565340 
# 
# From -- ./inp_files/183848.got.cif
#   From: 2010.05.17/outbox.cif.g08.bks.cpg/sg12_92_cif.got.tgz:183848.got - 2010.06.03 13:09:07.
