data_PCOD9174831
_publ_section_title
;
Structure prediction by ZEFSAII (Michael W. Deem and Ramdas Pophale) SiO2 
 PCOD9174831
Probable space group: C 2/M
;
_chemical_formula_sum "Si O2"
_cell_formula_units_Z 56
_cell_length_a 16.763501
_cell_length_b 14.159574
_cell_length_c 19.889506
_cell_angle_alpha 90.000000
_cell_angle_beta 146.205303
_cell_angle_gamma 90.000000
_cell_volume 2625.938168
_symmetry_space_group_name_H-M "C 2/M"
_symmetry_group_IT_number 12
_symmetry_cell_setting 'monoclinic'
loop_
_space_group_symop_operation_xyz
x,y,z
-x,y,-z
-x,-y,-z
x,-y,z
1/2+x,1/2+y,z
1/2-x,1/2+y,-z
1/2-x,1/2-y,-z
1/2+x,1/2-y,z
loop_
_atom_site_type_symbol
_atom_site_label
_atom_site_fract_x
_atom_site_fract_y
_atom_site_fract_z
Si Si1 0.671559 0.606463 0.626474
Si Si2 0.483232 0.753692 0.685304
Si Si3 0.395401 0.803964 0.864992
Si Si4 0.302091 0.211749 0.441577
Si Si5 0.845580 0.892722 0.772481
Si Si6 0.567222 0.888168 0.859511
Si Si7 0.622656 0.607547 0.868443
O O1 0.500000 0.607244 0.500000
O O2 0.718725 0.500000 0.644279
O O3 0.746694 0.639026 0.748725
O O4 0.716396 0.685839 0.604905
O O5 0.449043 0.785685 0.586026
O O6 0.334726 0.702177 0.604926
O O7 0.516280 0.844139 0.754030
O O8 0.601562 0.678812 0.791857
O O9 0.360259 0.692202 0.836031
O O10 0.484897 0.835229 0.861740
O O11 0.500000 0.825893 0.000000
O O12 0.282267 0.136563 0.368245
O O13 0.988515 0.886900 0.825800
O O14 0.832059 0.000000 0.788072
O O15 0.544065 0.000000 0.846542
O O16 0.734922 0.870591 0.990138
O O17 0.631716 0.500000 0.849966
#
# Coordination Sequence:
#
# PCOD9174831 Si02
#       7
#     8   8   8   8   8   8   8
#     4  10  21  39  58  79 113 152 186 224 270 326
#     4  10  18  32  53  78 110 141 175 219 270 323
#     4  11  23  38  57  82 108 144 190 231 270 320
#     4   9  19  33  53  82 105 138 182 221 268 321
#     4   9  18  37  59  79 109 139 175 225 273 323
#     4  11  21  34  54  79 113 147 175 220 276 326
#     4   9  18  32  53  81 110 142 175 214 271 325
#
# _framework density 21.325711999999999
#
# number of rings (size 3 to 8) (size 9 to 14) (size 15 to 20)
#    0.000    2.143    4.286    0.857    0.000    3.714 
#    0.000    5.714    0.000    6.857    0.000    0.000 
#    0.000    0.000    0.000    0.000    0.000    0.000 
#
# Total GULP energy -156153.647644 kJ/mol
# GULP energy per Si atom -5576.915987 kJ/mol
# Density = 2.127717 g / cm^3
# Si number density = 21.325712 Si / 1000 Ang^3
#
#
#
# Elastic Constant Matrix: (Units=GPa)
#
#
# Indices 1 2 3 4 5 6 
#
# 1 11.0528 2.1472 15.8015 0.0000 -9.3669 0.0000
# 2 2.1472 122.1779 37.7604 0.0000 -9.0437 0.0000
# 3 15.8015 37.7604 176.4743 -0.0001 -22.6017 0.0000
# 4 0.0000 0.0000 -0.0001 24.2315 0.0000 8.3384
# 5 -9.3669 -9.0437 -22.6017 0.0000 26.8742 0.0000
# 6 0.0000 0.0000 0.0000 8.3384 0.0000 4.9904
#
#
#
# Elastic Compliance Matrix: (Units=1/GPa)
#
#
# Indices 1 2 3 4 5 6 
#
# 1 0.136367 0.003034 -0.007443 0.000000 0.042292 -0.000002
# 2 0.003034 0.008889 -0.001855 0.000000 0.002489 0.000000
# 3 -0.007443 -0.001855 0.007080 0.000000 0.002736 0.000000
# 4 0.000000 0.000000 0.000000 0.097097 0.000000 -0.162237
# 5 0.042292 0.002489 0.002736 0.000000 0.055090 -0.000001
# 6 -0.000002 0.000000 0.000000 -0.162237 -0.000001 0.471462
#
#
# Mechanical properties :
#
#
# Convention : Reuss Voigt Hill
#
# Bulk Modulus (GPa) = 7.15262 46.79146 26.97204
# Shear Modulus (GPa) = 5.98720 28.15228 17.06974
#
# Velocity S-wave (km/s) = 1.67738 3.63727 2.83226
# Velocity P-wave (km/s) = 2.66697 6.29513 4.83432
#
# Compressibility (1/GPa) = 0.13980884
#
# Stress axis : x y z
#
# Youngs Moduli (GPa) = 7.33315 112.49894 141.23619
#
# Poissons Ratio (x) = -0.34135 1.05124
# Poissons Ratio (y) = -0.02225 0.26198
# Poissons Ratio (z) = 0.05458 0.20868
#
# Static dielectric constant tensor:
#      x y z
#    x 1.816520 0.000000 0.032080 
#    y 0.000000 1.753720 0.000000 
#    z 0.032080 0.000000 1.836870 
# 
# From -- ./inp_files/316768.got.cif
#   From: 2010.05.17/outbox.cif.g08.bks.cpg/sg12_159_cif.got.tgz:316768.got - 2010.06.03 13:09:07.
