data_PCOD9174733
_publ_section_title
;
Structure prediction by ZEFSAII (Michael W. Deem and Ramdas Pophale) SiO2 
 PCOD9174733
Probable space group: C 2/M
;
_chemical_formula_sum "Si O2"
_cell_formula_units_Z 56
_cell_length_a 21.765456
_cell_length_b 18.030763
_cell_length_c 16.998171
_cell_angle_alpha 90.000000
_cell_angle_beta 25.073695
_cell_angle_gamma 90.000000
_cell_volume 2827.015822
_symmetry_space_group_name_H-M "C 2/M"
_symmetry_group_IT_number 12
_symmetry_cell_setting 'monoclinic'
loop_
_space_group_symop_operation_xyz
x,y,z
-x,y,-z
-x,-y,-z
x,-y,z
1/2+x,1/2+y,z
1/2-x,1/2+y,-z
1/2-x,1/2-y,-z
1/2+x,1/2-y,z
loop_
_atom_site_type_symbol
_atom_site_label
_atom_site_fract_x
_atom_site_fract_y
_atom_site_fract_z
Si Si1 0.533281 0.214922 0.275734
Si Si2 0.715826 0.242948 0.632100
Si Si3 0.150977 0.770081 0.291169
Si Si4 0.759751 0.419218 0.134165
Si Si5 0.750640 0.584300 0.961859
Si Si6 0.925479 0.802835 0.932927
Si Si7 0.074585 0.584737 0.827856
O O1 0.366159 0.227768 0.493528
O O2 0.627621 0.265728 0.224295
O O3 0.604043 0.134778 0.208646
O O4 0.556719 0.243491 0.159758
O O5 0.750000 0.250000 0.500000
O O6 0.575295 0.295029 0.805963
O O7 0.675564 0.157054 0.698491
O O8 0.186285 0.854711 0.269251
O O9 0.000000 0.743298 0.500000
O O10 0.293642 0.722776 0.141110
O O11 0.729482 0.500000 0.203682
O O12 0.709948 0.417990 0.101474
O O13 0.934386 0.409469 0.933312
O O14 0.776173 0.500000 0.906927
O O15 0.628304 0.623620 0.049841
O O16 0.135235 0.500000 0.748781
O O17 0.000000 0.589371 0.000000
#
# Coordination Sequence:
#
# PCOD9174733 Si02
#       7
#     8   8   8   8   8   8   8
#     4  10  19  34  53  79 105 139 183 231 278 329
#     4  10  20  34  56  79 108 151 191 240 278 330
#     4  11  20  31  51  77 105 140 180 225 268 321
#     4  10  18  32  52  76 107 149 184 217 269 326
#     4  10  18  33  59  80 105 146 185 229 285 333
#     4  10  18  37  53  75 107 140 187 235 272 332
#     4  10  21  36  55  80 118 161 190 222 280 346
#
# _framework density 19.808872999999998
#
# number of rings (size 3 to 8) (size 9 to 14) (size 15 to 20)
#    0.000    1.857    4.286    1.714    2.000    0.286 
#    0.000    4.286    0.000    6.857    0.000    0.000 
#    0.000   13.143    0.000    0.000    0.000    0.000 
#
# Total GULP energy -155963.981702 kJ/mol
# GULP energy per Si atom -5570.142204 kJ/mol
# Density = 1.976379 g / cm^3
# Si number density = 19.808873 Si / 1000 Ang^3
#
#
#
# Elastic Constant Matrix: (Units=GPa)
#
#
# Indices 1 2 3 4 5 6 
#
# 1 40.7663 25.4280 11.9578 -0.0006 -15.5971 0.0004
# 2 25.4280 148.8137 32.0801 -0.0019 -13.4338 0.0011
# 3 11.9578 32.0801 109.1963 -0.0033 -25.5845 0.0020
# 4 -0.0006 -0.0019 -0.0033 24.3463 0.0011 0.2519
# 5 -15.5971 -13.4338 -25.5845 0.0011 35.7482 -0.0006
# 6 0.0004 0.0011 0.0020 0.2519 -0.0006 9.4724
#
#
#
# Elastic Compliance Matrix: (Units=1/GPa)
#
#
# Indices 1 2 3 4 5 6 
#
# 1 0.032011 -0.004486 0.000829 0.000000 0.012874 0.000000
# 2 -0.004486 0.007864 -0.001905 0.000000 -0.000365 0.000000
# 3 0.000829 -0.001905 0.011466 0.000001 0.007852 -0.000002
# 4 0.000000 0.000000 0.000001 0.041085 0.000000 -0.001093
# 5 0.012874 -0.000365 0.007852 0.000000 0.039073 0.000000
# 6 0.000000 0.000000 -0.000002 -0.001093 0.000000 0.105599
#
#
# Mechanical properties :
#
#
# Convention : Reuss Voigt Hill
#
# Bulk Modulus (GPa) = 24.86503 48.63424 36.74964
# Shear Modulus (GPa) = 19.11109 29.20074 24.15591
#
# Velocity S-wave (km/s) = 3.10945 3.84360 3.49585
# Velocity P-wave (km/s) = 5.04691 6.65603 5.90652
#
# Compressibility (1/GPa) = 0.04021712
#
# Stress axis : x y z
#
# Youngs Moduli (GPa) = 31.23954 127.16190 87.21166
#
# Poissons Ratio (x) = 0.57048 -0.07229
# Poissons Ratio (y) = 0.14015 0.16611
# Poissons Ratio (z) = -0.02589 0.24220
#
# Static dielectric constant tensor:
#      x y z
#    x 1.807080 0.000000 -0.019220 
#    y 0.000000 1.722760 0.000000 
#    z -0.019220 0.000000 1.735390 
# 
# From -- ./inp_files/317188.got.cif
#   From: 2010.05.17/outbox.cif.g08.bks.cpg/sg12_159_cif.got.tgz:317188.got - 2010.06.03 13:09:07.
