data_PCOD9174881
_publ_section_title
;
Structure prediction by ZEFSAII (Michael W. Deem and Ramdas Pophale) SiO2 
 PCOD9174881
Probable space group: C 2/M
;
_chemical_formula_sum "Si O2"
_cell_formula_units_Z 56
_cell_length_a 19.456171
_cell_length_b 7.559052
_cell_length_c 20.913085
_cell_angle_alpha 90.000000
_cell_angle_beta 115.883016
_cell_angle_gamma 90.000000
_cell_volume 2767.160573
_symmetry_space_group_name_H-M "C 2/M"
_symmetry_group_IT_number 12
_symmetry_cell_setting 'monoclinic'
loop_
_space_group_symop_operation_xyz
x,y,z
-x,y,-z
-x,-y,-z
x,-y,z
1/2+x,1/2+y,z
1/2-x,1/2+y,-z
1/2-x,1/2-y,-z
1/2+x,1/2-y,z
loop_
_atom_site_type_symbol
_atom_site_label
_atom_site_fract_x
_atom_site_fract_y
_atom_site_fract_z
Si Si1 0.205009 0.211482 0.917303
Si Si2 0.673319 0.212594 0.427424
Si Si3 0.616019 0.202136 0.703707
Si Si4 0.455319 0.713304 0.191836
Si Si5 0.480126 0.216646 0.563328
Si Si6 0.773867 0.300649 0.813141
Si Si7 0.866482 0.290479 0.733150
O O1 0.115439 0.266391 0.883329
O O2 0.249896 0.281437 0.872184
O O3 0.202989 0.000000 0.907336
O O4 0.250000 0.250000 0.000000
O O5 0.750000 0.250000 0.500000
O O6 0.599407 0.275915 0.437786
O O7 0.663421 0.276409 0.348986
O O8 0.668391 0.000000 0.421479
O O9 0.573835 0.205567 0.754104
O O10 0.553254 0.278776 0.631915
O O11 0.693443 0.306427 0.743448
O O12 0.634839 0.000000 0.693049
O O13 0.456104 0.500000 0.195956
O O14 0.542624 0.770489 0.220642
O O15 0.500000 0.267945 0.500000
O O16 0.478830 0.000000 0.565908
O O17 0.802629 0.500000 0.838076
O O18 0.828693 0.214279 0.782613
O O19 0.848271 0.500000 0.725603
#
# Coordination Sequence:
#
# PCOD9174881 Si02
#       7
#     8   8   8   8   8   8   8
#     4   9  19  36  57  82 109 139 171 214 265 318
#     4  10  21  36  52  74 106 142 181 224 274 322
#     4  10  18  32  54  76 100 138 184 220 264 322
#     4  10  20  35  56  81 109 138 176 222 267 312
#     4   9  18  32  49  71 102 134 173 225 269 312
#     4   9  20  36  54  79 111 139 174 223 268 309
#     4  10  20  37  57  77 108 147 185 224 267 322
#
# _framework density 20.237351
#
# number of rings (size 3 to 8) (size 9 to 14) (size 15 to 20)
#    0.000    2.429    1.429    1.714    2.000    4.000 
#    0.000    0.714    0.000    6.429    0.000    0.000 
#    0.000    0.000    0.000    0.000    0.000    0.000 
#
# Total GULP energy -155901.448165 kJ/mol
# GULP energy per Si atom -5567.908863 kJ/mol
# Density = 2.019129 g / cm^3
# Si number density = 20.237351 Si / 1000 Ang^3
#
#
#
# Elastic Constant Matrix: (Units=GPa)
#
#
# Indices 1 2 3 4 5 6 
#
# 1 126.7938 -5.4571 65.1718 0.0000 -5.7548 0.0000
# 2 -5.4571 47.9229 -10.0266 0.0000 -5.4239 0.0000
# 3 65.1718 -10.0266 155.4247 0.0000 10.8346 0.0000
# 4 0.0000 0.0000 0.0000 26.4547 0.0000 10.3070
# 5 -5.7548 -5.4239 10.8346 0.0000 19.0708 0.0000
# 6 0.0000 0.0000 0.0000 10.3070 0.0000 8.4811
#
#
#
# Elastic Compliance Matrix: (Units=1/GPa)
#
#
# Indices 1 2 3 4 5 6 
#
# 1 0.010713 0.000909 -0.004870 0.000000 0.006258 0.000000
# 2 0.000909 0.021789 0.000597 0.000000 0.006132 0.000000
# 3 -0.004870 0.000597 0.008960 0.000000 -0.006390 0.000000
# 4 0.000000 0.000000 0.000000 0.071794 0.000000 -0.087251
# 5 0.006258 0.006132 -0.006390 0.000000 0.059699 0.000000
# 6 0.000000 0.000000 0.000000 -0.087251 0.000000 0.223944
#
#
# Mechanical properties :
#
#
# Convention : Reuss Voigt Hill
#
# Bulk Modulus (GPa) = 28.78924 47.72418 38.25671
# Shear Modulus (GPa) = 12.04224 29.49822 20.77023
#
# Velocity S-wave (km/s) = 2.44201 3.82201 3.20712
# Velocity P-wave (km/s) = 4.71253 6.56585 5.71482
#
# Compressibility (1/GPa) = 0.03473520
#
# Stress axis : x y z
#
# Youngs Moduli (GPa) = 93.34447 45.89407 111.60869
#
# Poissons Ratio (x) = -0.04173 0.54350
# Poissons Ratio (y) = -0.08488 -0.06662
# Poissons Ratio (z) = 0.45456 -0.02739
#
# Static dielectric constant tensor:
#      x y z
#    x 1.754050 0.000000 0.082890 
#    y 0.000000 1.766420 0.000000 
#    z 0.082890 0.000000 2.108600 
# 
# From -- ./inp_files/313743.got.cif
#   From: 2010.05.17/outbox.cif.g08.bks.cpg/sg12_157_cif.got.tgz:313743.got - 2010.06.03 13:09:07.
