data_PCOD9174386
_publ_section_title
;
Structure prediction by ZEFSAII (Michael W. Deem and Ramdas Pophale) SiO2 
 PCOD9174386
Probable space group: C 2/M
;
_chemical_formula_sum "Si O2"
_cell_formula_units_Z 64
_cell_length_a 9.420218
_cell_length_b 20.603061
_cell_length_c 24.463250
_cell_angle_alpha 90.000000
_cell_angle_beta 125.691975
_cell_angle_gamma 90.000000
_cell_volume 3856.126383
_symmetry_space_group_name_H-M "C 2/M"
_symmetry_group_IT_number 12
_symmetry_cell_setting 'monoclinic'
loop_
_space_group_symop_operation_xyz
x,y,z
-x,y,-z
-x,-y,-z
x,-y,z
1/2+x,1/2+y,z
1/2-x,1/2+y,-z
1/2-x,1/2-y,-z
1/2+x,1/2-y,z
loop_
_atom_site_type_symbol
_atom_site_label
_atom_site_fract_x
_atom_site_fract_y
_atom_site_fract_z
Si Si1 0.290112 0.077274 0.463088
Si Si2 0.047770 0.839734 0.327528
Si Si3 0.451414 0.239428 0.115325
Si Si4 0.301528 0.331566 0.176381
Si Si5 0.199427 0.571602 0.062880
Si Si6 0.147069 0.159292 0.996569
Si Si7 0.351685 0.256387 0.372461
Si Si8 0.210741 0.311066 0.452194
O O1 0.500000 0.084282 0.500000
O O2 0.173069 0.109955 0.388352
O O3 0.252123 0.121968 0.508018
O O4 0.254121 0.000000 0.460638
O O5 0.171219 0.783029 0.330432
O O6 0.930633 0.861190 0.250362
O O7 0.914873 0.807371 0.341387
O O8 0.397521 0.284351 0.154152
O O9 0.642041 0.209396 0.166001
O O10 0.441605 0.280829 0.056550
O O11 0.304255 0.185435 0.069504
O O12 0.217071 0.388410 0.121995
O O13 0.273691 0.500000 0.085486
O O14 0.289626 0.611523 0.035441
O O15 0.000000 0.567891 0.000000
O O16 0.000000 0.127577 0.000000
O O17 0.322726 0.296350 0.422842
O O18 0.501599 0.200581 0.400546
O O19 0.250000 0.250000 0.500000
#
# Coordination Sequence:
#
# PCOD9174386 Si02
#       8
#     8   8   8   8   8   8   8   8
#     4  11  22  36  56  83 110 142 185 227 273 324
#     4  11  22  35  53  83 109 147 175 226 267 331
#     4  10  19  31  51  84 109 135 169 220 279 325
#     4  11  21  35  54  78 114 140 178 218 277 321
#     4  10  21  36  55  77 101 143 190 219 257 322
#     4  10  18  31  55  79 108 136 169 228 274 315
#     4  10  20  32  57  82 109 135 184 217 270 319
#     4  11  17  33  59  81 104 140 177 228 267 315
#
# _framework density 16.596965999999998
#
# number of rings (size 3 to 8) (size 9 to 14) (size 15 to 20)
#    0.000    1.500    6.250    1.125    0.000    0.750 
#    0.000    1.250    0.000    0.000    0.000    0.000 
#    0.000    0.000    0.000    0.000    0.000    0.000 
#
# Total GULP energy -178173.080288 kJ/mol
# GULP energy per Si atom -5567.908759 kJ/mol
# Density = 1.655919 g / cm^3
# Si number density = 16.596966 Si / 1000 Ang^3
#
#
#
# Elastic Constant Matrix: (Units=GPa)
#
#
# Indices 1 2 3 4 5 6 
#
# 1 74.5186 10.2704 28.0473 0.0000 -3.0332 0.0000
# 2 10.2704 80.9621 34.7337 0.0000 -1.6088 0.0000
# 3 28.0473 34.7337 98.5654 0.0001 3.0600 -0.0001
# 4 0.0000 0.0000 0.0001 63.1765 0.0001 -66.3172
# 5 -3.0332 -1.6088 3.0600 0.0001 16.9635 -0.0001
# 6 0.0000 0.0000 -0.0001 -66.3172 -0.0001 73.0395
#
#
#
# Elastic Compliance Matrix: (Units=1/GPa)
#
#
# Indices 1 2 3 4 5 6 
#
# 1 0.015236 0.000052 -0.004464 0.000000 0.003535 0.000000
# 2 0.000052 0.014643 -0.005248 0.000000 0.002345 0.000000
# 3 -0.004464 -0.005248 0.013380 0.000000 -0.003709 0.000000
# 4 0.000000 0.000000 0.000000 0.337509 0.000000 0.306446
# 5 0.003535 0.002345 -0.003709 0.000000 0.060474 0.000000
# 6 0.000000 0.000000 0.000000 0.306446 0.000000 0.291933
#
#
# Mechanical properties :
#
#
# Convention : Reuss Voigt Hill
#
# Bulk Modulus (GPa) = 41.76925 44.46098 43.11511
# Shear Modulus (GPa) = 6.57486 42.70222 24.63854
#
# Velocity S-wave (km/s) = 1.99251 5.07787 3.85713
# Velocity P-wave (km/s) = 5.52403 7.82474 6.77279
#
# Compressibility (1/GPa) = 0.02394106
#
# Stress axis : x y z
#
# Youngs Moduli (GPa) = 65.63328 68.29334 74.73762
#
# Poissons Ratio (x) = -0.00358 0.33361
# Poissons Ratio (y) = -0.00344 0.39220
# Poissons Ratio (z) = 0.29297 0.35838
#
# Static dielectric constant tensor:
#      x y z
#    x 1.601260 0.000000 0.041760 
#    y 0.000000 1.555360 0.000000 
#    z 0.041760 0.000000 1.605790 
# 
# From -- ./inp_files/333597.got.cif
#   From: 2010.05.17/outbox.cif.g08.bks.cpg/sg12_167_cif.got.tgz:333597.got - 2010.06.03 13:09:07.
