data_PCOD9174557
_publ_section_title
;
Structure prediction by ZEFSAII (Michael W. Deem and Ramdas Pophale) SiO2 
 PCOD9174557
Probable space group: C 2/M
;
_chemical_formula_sum "Si O2"
_cell_formula_units_Z 28
_cell_length_a 5.640215
_cell_length_b 30.581370
_cell_length_c 7.735936
_cell_angle_alpha 90.000000
_cell_angle_beta 56.783392
_cell_angle_gamma 90.000000
_cell_volume 1116.313587
_symmetry_space_group_name_H-M "C 2/M"
_symmetry_group_IT_number 12
_symmetry_cell_setting 'monoclinic'
loop_
_space_group_symop_operation_xyz
x,y,z
-x,y,-z
-x,-y,-z
x,-y,z
1/2+x,1/2+y,z
1/2-x,1/2+y,-z
1/2-x,1/2-y,-z
1/2+x,1/2-y,z
loop_
_atom_site_type_symbol
_atom_site_label
_atom_site_fract_x
_atom_site_fract_y
_atom_site_fract_z
Si Si1 0.436718 0.597358 0.254767
Si Si2 0.651872 0.500000 0.628152
Si Si3 0.428646 0.868400 0.268272
Si Si4 0.947803 0.266173 0.761065
O O1 0.451093 0.545040 0.247038
O O2 0.250256 0.612939 0.496902
O O3 0.736340 0.618537 0.182935
O O4 0.238691 0.611933 0.176602
O O5 0.500000 0.500000 0.500000
O O6 0.000000 0.500000 0.500000
O O7 0.464560 0.816462 0.258283
O O8 0.738391 0.260400 0.680660
O O9 0.750000 0.250000 0.000000
#
# Coordination Sequence:
#
# PCOD9174557 Si02
#       4
#     8   4   8   8
#     4  10  19  30  48  77 111 139 160 202 253 313
#     4  12  16  30  48  74 114 144 170 188 244 310
#     4  10  18  32  48  72 104 135 171 206 259 304
#     4  10  21  37  54  70  94 130 181 228 261 298
#
# _framework density 25.082559
#
# number of rings (size 3 to 8) (size 9 to 14) (size 15 to 20)
#    0.000    1.714    5.714    1.714    0.000    0.000 
#    0.000   17.143    0.000    0.000    0.000    0.000 
#    0.000  155.429    0.000    0.000    0.000    0.000 
#
# Total GULP energy -78324.428268 kJ/mol
# GULP energy per Si atom -5594.602019 kJ/mol
# Density = 2.502547 g / cm^3
# Si number density = 25.082559 Si / 1000 Ang^3
#
#
#
# Elastic Constant Matrix: (Units=GPa)
#
#
# Indices 1 2 3 4 5 6 
#
# 1 356.5897 93.7247 68.2242 0.0000 0.2765 0.0000
# 2 93.7247 251.4136 6.5120 0.0000 -5.8461 0.0000
# 3 68.2242 6.5120 73.7589 0.0000 2.6944 0.0000
# 4 0.0000 0.0000 0.0000 -31.2222 0.0000 -10.9666
# 5 0.2765 -5.8461 2.6944 0.0000 79.2177 0.0000
# 6 0.0000 0.0000 0.0000 -10.9666 0.0000 68.3716
#
#
#
# Elastic Compliance Matrix: (Units=1/GPa)
#
#
# Indices 1 2 3 4 5 6 
#
# 1 0.003805 -0.001330 -0.003402 0.000000 0.000004 0.000000
# 2 -0.001330 0.004459 0.000826 0.000000 0.000306 0.000000
# 3 -0.003402 0.000826 0.016650 0.000000 -0.000493 0.000000
# 4 0.000000 0.000000 0.000000 -0.030320 0.000000 -0.004863
# 5 0.000004 0.000306 -0.000493 0.000000 0.012663 0.000000
# 6 0.000000 0.000000 0.000000 -0.004863 0.000000 0.013846
#
#
# Mechanical properties :
#
#
# Convention : Reuss Voigt Hill
#
# Bulk Modulus (GPa) = 58.47909 113.18711 85.83310
# Shear Modulus (GPa) = 144.44387 57.49350 100.96869
#
# Velocity S-wave (km/s) = 7.59687 4.79286 6.35153
# Velocity P-wave (km/s) = 10.01574 8.70933 9.38529
#
# Compressibility (1/GPa) = 0.01710013
#
# Stress axis : x y z
#
# Youngs Moduli (GPa) = 262.82161 224.25951 60.06145
#
# Poissons Ratio (x) = 0.29831 0.20433
# Poissons Ratio (y) = 0.34961 -0.04958
# Poissons Ratio (z) = 0.89414 -0.18513
#
# Static dielectric constant tensor:
#      x y z
#    x 1.857540 0.000000 -0.104310 
#    y 0.000000 1.850430 0.000000 
#    z -0.104310 0.000000 1.835940 
# 
# From -- ./inp_files/34237.got.cif
#   From: 2010.05.17/outbox.cif.g08.bks.cpg/sg12_18_cif.got.tgz:34237.got - 2010.06.03 13:09:07.
