data_PCOD9174116
_publ_section_title
;
Structure prediction by ZEFSAII (Michael W. Deem and Ramdas Pophale) SiO2 
 PCOD9174116
Probable space group: C 2/M
;
_chemical_formula_sum "Si O2"
_cell_formula_units_Z 48
_cell_length_a 12.591333
_cell_length_b 13.319813
_cell_length_c 14.076007
_cell_angle_alpha 90.000000
_cell_angle_beta 84.800059
_cell_angle_gamma 90.000000
_cell_volume 2351.030597
_symmetry_space_group_name_H-M "C 2/M"
_symmetry_group_IT_number 12
_symmetry_cell_setting 'monoclinic'
loop_
_space_group_symop_operation_xyz
x,y,z
-x,y,-z
-x,-y,-z
x,-y,z
1/2+x,1/2+y,z
1/2-x,1/2+y,-z
1/2-x,1/2-y,-z
1/2+x,1/2-y,z
loop_
_atom_site_type_symbol
_atom_site_label
_atom_site_fract_x
_atom_site_fract_y
_atom_site_fract_z
Si Si1 0.097575 0.171623 0.560552
Si Si2 0.898222 0.170618 0.946293
Si Si3 0.662689 0.886997 0.490411
Si Si4 0.960974 0.191594 0.228093
Si Si5 0.740661 0.338809 0.878595
Si Si6 0.916176 0.391236 0.720094
O O1 0.209446 0.124567 0.519612
O O2 0.115848 0.293105 0.552344
O O3 0.069147 0.141768 0.669945
O O4 0.000000 0.146046 0.500000
O O5 0.821921 0.259032 0.917042
O O6 0.955963 0.131243 0.846210
O O7 0.823583 0.112089 0.027620
O O8 0.000000 0.206800 0.000000
O O9 0.623884 0.874576 0.384436
O O10 0.632711 0.000000 0.523478
O O11 0.853273 0.208573 0.177466
O O12 0.014664 0.297755 0.250303
O O13 0.813890 0.395999 0.797857
O O14 0.970885 0.500000 0.720583
#
# Coordination Sequence:
#
# PCOD9174116 Si02
#       6
#     8   8   8   8   8   8
#     4  11  21  35  56  79 106 146 185 223 265 325
#     4   8  16  28  51  77  99 129 179 217 253 306
#     4  10  22  36  51  77 111 144 181 226 271 318
#     4  10  18  31  52  80 103 136 181 221 257 318
#     4   9  16  31  52  75 105 139 172 212 259 318
#     4  10  19  32  52  79 109 139 173 220 272 317
#
# _framework density 20.416577
#
# number of rings (size 3 to 8) (size 9 to 14) (size 15 to 20)
#    0.000    2.333    3.333    0.000    0.000    1.333 
#    0.000    0.000    0.000   55.500    0.000    5.833 
#    0.000    0.000    0.000    0.000    0.000    0.000 
#
# Total GULP energy -133651.292757 kJ/mol
# GULP energy per Si atom -5568.803865 kJ/mol
# Density = 2.037011 g / cm^3
# Si number density = 20.416577 Si / 1000 Ang^3
#
#
#
# Elastic Constant Matrix: (Units=GPa)
#
#
# Indices 1 2 3 4 5 6 
#
# 1 109.0548 14.3104 36.4256 0.0000 -0.1101 0.0000
# 2 14.3104 58.1980 4.1910 0.0000 10.0563 0.0000
# 3 36.4256 4.1910 117.9807 0.0000 -22.9245 0.0000
# 4 0.0000 0.0000 0.0000 -17.1978 0.0000 5.8823
# 5 -0.1101 10.0563 -22.9245 0.0000 42.8781 0.0000
# 6 0.0000 0.0000 0.0000 5.8823 0.0000 -2.1536
#
#
#
# Elastic Compliance Matrix: (Units=1/GPa)
#
#
# Indices 1 2 3 4 5 6 
#
# 1 0.010602 -0.002130 -0.003454 0.000000 -0.001320 0.000000
# 2 -0.002130 0.018618 -0.000952 0.000000 -0.004881 0.000000
# 3 -0.003454 -0.000952 0.010733 0.000000 0.005953 0.000000
# 4 0.000000 0.000000 0.000000 -0.884512 0.000000 -2.415996
# 5 -0.001320 -0.004881 0.005953 0.000000 0.027646 0.000000
# 6 0.000000 0.000000 0.000000 -2.415996 0.000000 -7.063508
#
#
# Mechanical properties :
#
#
# Convention : Reuss Voigt Hill
#
# Bulk Modulus (GPa) = 37.20170 43.89862 40.55016
# Shear Modulus (GPa) = -0.63626 20.05911 9.71142
#
# Velocity S-wave (km/s) = -0.55885 3.13787 2.18334
# Velocity P-wave (km/s) = 4.22427 5.88867 5.12450
#
# Compressibility (1/GPa) = 0.02688049
#
# Stress axis : x y z
#
# Youngs Moduli (GPa) = 94.32597 53.71005 93.17218
#
# Poissons Ratio (x) = 0.11440 0.32181
# Poissons Ratio (y) = 0.20092 0.08872
# Poissons Ratio (z) = 0.32580 0.05114
#
# Static dielectric constant tensor:
#      x y z
#    x 1.718070 0.000000 -0.058900 
#    y 0.000000 1.756750 0.000000 
#    z -0.058900 0.000000 1.756360 
# 
# From -- ./inp_files/183694.got.cif
#   From: 2010.05.17/outbox.cif.g08.bks.cpg/sg12_92_cif.got.tgz:183694.got - 2010.06.03 13:09:07.
