data_PCOD9174562
_publ_section_title
;
Structure prediction by ZEFSAII (Michael W. Deem and Ramdas Pophale) SiO2 
 PCOD9174562
Probable space group: C 2/M
;
_chemical_formula_sum "Si O2"
_cell_formula_units_Z 56
_cell_length_a 28.526012
_cell_length_b 9.993618
_cell_length_c 18.952537
_cell_angle_alpha 90.000000
_cell_angle_beta 143.288598
_cell_angle_gamma 90.000000
_cell_volume 3229.802355
_symmetry_space_group_name_H-M "C 2/M"
_symmetry_group_IT_number 12
_symmetry_cell_setting 'monoclinic'
loop_
_space_group_symop_operation_xyz
x,y,z
-x,y,-z
-x,-y,-z
x,-y,z
1/2+x,1/2+y,z
1/2-x,1/2+y,-z
1/2-x,1/2-y,-z
1/2+x,1/2-y,z
loop_
_atom_site_type_symbol
_atom_site_label
_atom_site_fract_x
_atom_site_fract_y
_atom_site_fract_z
Si Si1 0.740671 0.221213 0.071611
Si Si2 0.016595 0.342504 0.366957
Si Si3 0.452037 0.345204 0.010317
Si Si4 0.089999 0.144497 0.677672
Si Si5 0.438902 0.851901 0.120344
Si Si6 0.267291 0.352306 0.792737
Si Si7 0.140726 0.155637 0.580985
O O1 0.819326 0.143562 0.188239
O O2 0.740011 0.337320 0.130778
O O3 0.750000 0.250000 0.000000
O O4 0.654876 0.157500 0.978913
O O5 0.028422 0.500000 0.398493
O O6 0.092967 0.250055 0.470096
O O7 0.951823 0.270950 0.338179
O O8 0.983051 0.334193 0.247516
O O9 0.473609 0.500000 0.049609
O O10 0.358657 0.341501 0.884162
O O11 0.500000 0.298581 0.000000
O O12 0.464332 0.256937 0.094257
O O13 0.091861 0.154452 0.595567
O O14 0.054707 0.000000 0.656493
O O15 0.455755 0.000000 0.112967
O O16 0.237743 0.500000 0.736908
O O17 0.219686 0.233567 0.698309
O O18 0.152069 0.000000 0.574038
#
# Coordination Sequence:
#
# PCOD9174562 Si02
#       7
#     8   8   8   8   8   8   8
#     4  10  18  32  48  74 107 143 174 216 257 309
#     4  11  22  34  49  71 102 139 179 224 260 301
#     4   9  19  37  60  85 110 135 166 208 261 322
#     4  10  20  32  48  69  97 139 184 222 260 302
#     4  10  21  35  51  79 110 139 176 217 265 314
#     4   9  19  33  54  80 103 134 174 212 256 309
#     4  10  21  36  51  70 100 139 181 222 260 303
#
# _framework density 17.338522999999999
#
# number of rings (size 3 to 8) (size 9 to 14) (size 15 to 20)
#    0.000    2.143    1.429    1.714    0.000   10.571 
#    0.000    0.000    0.000    0.857    0.000    0.000 
#    0.000    0.000    0.000    0.000    0.000    0.000 
#
# Total GULP energy -156009.479827 kJ/mol
# GULP energy per Si atom -5571.767137 kJ/mol
# Density = 1.729906 g / cm^3
# Si number density = 17.338523 Si / 1000 Ang^3
#
#
#
# Elastic Constant Matrix: (Units=GPa)
#
#
# Indices 1 2 3 4 5 6 
#
# 1 71.3606 35.9904 13.2687 0.0000 -0.0038 0.0000
# 2 35.9904 141.3168 50.9642 0.0000 -5.9149 0.0000
# 3 13.2687 50.9642 86.7631 0.0000 -6.1288 0.0000
# 4 0.0000 0.0000 0.0000 22.2460 0.0000 -3.5558
# 5 -0.0038 -5.9149 -6.1288 0.0000 10.9051 0.0000
# 6 0.0000 0.0000 0.0000 -3.5558 0.0000 14.1767
#
#
#
# Elastic Compliance Matrix: (Units=1/GPa)
#
#
# Indices 1 2 3 4 5 6 
#
# 1 0.016136 -0.004134 -0.000206 0.000000 -0.002352 0.000000
# 2 -0.004134 0.010079 -0.005105 0.000000 0.002596 0.000000
# 3 -0.000206 -0.005105 0.014954 0.000000 0.005635 0.000000
# 4 0.000000 0.000000 0.000000 0.046829 0.000000 0.011746
# 5 -0.002352 0.002596 0.005635 0.000000 0.096275 0.000000
# 6 0.000000 0.000000 0.000000 0.011746 0.000000 0.073484
#
#
# Mechanical properties :
#
#
# Convention : Reuss Voigt Hill
#
# Bulk Modulus (GPa) = 44.88256 55.54301 50.21278
# Shear Modulus (GPa) = 17.60116 22.74669 20.17393
#
# Velocity S-wave (km/s) = 3.18959 3.62597 3.41476
# Velocity P-wave (km/s) = 6.28545 7.04515 6.67612
#
# Compressibility (1/GPa) = 0.02228037
#
# Stress axis : x y z
#
# Youngs Moduli (GPa) = 61.97186 99.21932 66.87375
#
# Poissons Ratio (x) = 0.41016 0.01375
# Poissons Ratio (y) = 0.25618 0.34136
# Poissons Ratio (z) = 0.01275 0.50647
#
# Static dielectric constant tensor:
#      x y z
#    x 1.553560 0.000000 0.015750 
#    y 0.000000 1.614220 0.000000 
#    z 0.015750 0.000000 1.620180 
# 
# From -- ./inp_files/292540.got.cif
#   From: 2010.05.17/outbox.cif.g08.bks.cpg/sg12_147_cif.got.tgz:292540.got - 2010.06.03 13:09:07.
