data_PCOD9174646
_publ_section_title
;
Structure prediction by ZEFSAII (Michael W. Deem and Ramdas Pophale) SiO2 
 PCOD9174646
Probable space group: C 2/M
;
_chemical_formula_sum "Si O2"
_cell_formula_units_Z 64
_cell_length_a 20.844128
_cell_length_b 7.479815
_cell_length_c 22.628822
_cell_angle_alpha 90.000000
_cell_angle_beta 119.718379
_cell_angle_gamma 90.000000
_cell_volume 3064.027262
_symmetry_space_group_name_H-M "C 2/M"
_symmetry_group_IT_number 12
_symmetry_cell_setting 'monoclinic'
loop_
_space_group_symop_operation_xyz
x,y,z
-x,y,-z
-x,-y,-z
x,-y,z
1/2+x,1/2+y,z
1/2-x,1/2+y,-z
1/2-x,1/2-y,-z
1/2+x,1/2-y,z
loop_
_atom_site_type_symbol
_atom_site_label
_atom_site_fract_x
_atom_site_fract_y
_atom_site_fract_z
Si Si1 0.763657 0.211013 0.768078
Si Si2 0.597967 0.780950 0.707214
Si Si3 0.549691 0.713658 0.938630
Si Si4 0.530779 0.787461 0.799599
Si Si5 0.977125 0.718533 0.554931
Si Si6 0.666586 0.213799 0.442695
Si Si7 0.365359 0.783822 0.704637
Si Si8 0.889801 0.218825 0.912072
O O1 0.680616 0.281923 0.731045
O O2 0.803840 0.231508 0.723756
O O3 0.819371 0.283704 0.843457
O O4 0.757057 0.000000 0.777045
O O5 0.572854 0.721188 0.760881
O O6 0.537963 0.726765 0.631065
O O7 0.597636 0.000000 0.706232
O O8 0.547511 0.500000 0.942149
O O9 0.568151 0.756664 0.879814
O O10 0.466231 0.776393 0.915419
O O11 0.602368 0.775164 0.015999
O O12 0.446419 0.718684 0.761533
O O13 0.525369 0.000000 0.789677
O O14 0.976479 0.500000 0.553407
O O15 0.896526 0.778184 0.540881
O O16 0.000000 0.778047 0.500000
O O17 0.750000 0.250000 0.500000
O O18 0.651272 0.279920 0.369258
O O19 0.657916 0.000000 0.436342
O O20 0.366707 0.000000 0.704412
O O21 0.888800 0.000000 0.910059
#
# Coordination Sequence:
#
# PCOD9174646 Si02
#       8
#     8   8   8   8   8   8   8   8
#     4  10  19  32  54  79  98 126 175 218 242 284
#     4   9  18  32  50  73 101 131 165 208 251 292
#     4   9  16  29  49  71 100 134 167 203 250 299
#     4  10  18  32  51  73 100 132 167 203 250 300
#     4   9  17  31  51  75 101 130 165 203 246 294
#     4  10  21  36  54  77 105 133 164 206 252 297
#     4  10  20  34  51  72 105 137 159 200 260 304
#     4   8  15  28  46  72 103 130 161 209 255 289
#
# _framework density 20.887543000000001
#
# number of rings (size 3 to 8) (size 9 to 14) (size 15 to 20)
#    0.000    2.625    2.500    0.750    1.750    0.500 
#    0.000    3.125    0.000    1.125    0.000    0.000 
#    0.000    0.000    0.000    0.000    0.000    0.000 
#
# Total GULP energy -178614.182485 kJ/mol
# GULP energy per Si atom -5581.693203 kJ/mol
# Density = 2.084000 g / cm^3
# Si number density = 20.887543 Si / 1000 Ang^3
#
#
#
# Elastic Constant Matrix: (Units=GPa)
#
#
# Indices 1 2 3 4 5 6 
#
# 1 179.7078 0.8535 101.6753 0.0000 -10.2380 0.0000
# 2 0.8535 54.2082 -0.3000 0.0000 4.5883 0.0000
# 3 101.6753 -0.3000 167.5433 0.0000 -23.2053 0.0000
# 4 0.0000 0.0000 0.0000 18.2354 0.0000 -6.4961
# 5 -10.2380 4.5883 -23.2053 0.0000 34.2323 0.0000
# 6 0.0000 0.0000 0.0000 -6.4961 0.0000 13.3719
#
#
#
# Elastic Compliance Matrix: (Units=1/GPa)
#
#
# Indices 1 2 3 4 5 6 
#
# 1 0.008509 -0.000075 -0.005308 0.000000 -0.001044 0.000000
# 2 -0.000075 0.018678 -0.000299 0.000000 -0.002729 0.000000
# 3 -0.005308 -0.000299 0.009905 0.000000 0.005167 0.000000
# 4 0.000000 0.000000 0.000000 0.066315 0.000000 0.032216
# 5 -0.001044 -0.002729 0.005167 0.000000 0.032768 0.000000
# 6 0.000000 0.000000 0.000000 0.032216 0.000000 0.090435
#
#
# Mechanical properties :
#
#
# Convention : Reuss Voigt Hill
#
# Bulk Modulus (GPa) = 38.86933 67.32408 53.09671
# Shear Modulus (GPa) = 20.27984 33.11663 26.69823
#
# Velocity S-wave (km/s) = 3.11932 3.98612 3.57906
# Velocity P-wave (km/s) = 5.62341 7.31349 6.52342
#
# Compressibility (1/GPa) = 0.02572722
#
# Stress axis : x y z
#
# Youngs Moduli (GPa) = 117.52449 53.53932 100.95769
#
# Poissons Ratio (x) = 0.00402 0.53592
# Poissons Ratio (y) = 0.00882 0.03018
# Poissons Ratio (z) = 0.62386 0.01601
#
# Static dielectric constant tensor:
#      x y z
#    x 1.716970 0.000000 -0.001710 
#    y 0.000000 1.829410 0.000000 
#    z -0.001710 0.000000 1.742800 
# 
# From -- ./inp_files/319814.got.cif
#   From: 2010.05.17/outbox.cif.g08.bks.cpg/sg12_160_cif.got.tgz:319814.got - 2010.06.03 13:09:07.
