data_PCOD9174301
_publ_section_title
;
Structure prediction by ZEFSAII (Michael W. Deem and Ramdas Pophale) SiO2 
 PCOD9174301
Probable space group: C 2/M
;
_chemical_formula_sum "Si O2"
_cell_formula_units_Z 56
_cell_length_a 14.167130
_cell_length_b 14.227339
_cell_length_c 12.860477
_cell_angle_alpha 90.000000
_cell_angle_beta 97.111636
_cell_angle_gamma 90.000000
_cell_volume 2572.222958
_symmetry_space_group_name_H-M "C 2/M"
_symmetry_group_IT_number 12
_symmetry_cell_setting 'monoclinic'
loop_
_space_group_symop_operation_xyz
x,y,z
-x,y,-z
-x,-y,-z
x,-y,z
1/2+x,1/2+y,z
1/2-x,1/2+y,-z
1/2-x,1/2-y,-z
1/2+x,1/2-y,z
loop_
_atom_site_type_symbol
_atom_site_label
_atom_site_fract_x
_atom_site_fract_y
_atom_site_fract_z
Si Si1 0.968980 0.789042 0.619466
Si Si2 0.345085 0.608328 0.306433
Si Si3 0.997717 0.394584 0.874004
Si Si4 0.089838 0.602736 0.439726
Si Si5 0.714362 0.112006 0.918706
Si Si6 0.786587 0.893106 0.541114
Si Si7 0.808238 0.706909 0.857664
O O1 0.948590 0.680903 0.642323
O O2 0.867280 0.839421 0.614323
O O3 0.000000 0.791816 0.500000
O O4 0.053587 0.840088 0.690435
O O5 0.350452 0.500000 0.272026
O O6 0.320322 0.606699 0.425653
O O7 0.262645 0.663619 0.236625
O O8 0.971896 0.500000 0.831045
O O9 0.916691 0.317602 0.847168
O O10 0.106989 0.374041 0.859248
O O11 0.000000 0.402741 0.000000
O O12 0.120034 0.500000 0.403426
O O13 0.178602 0.643484 0.518273
O O14 0.000000 0.588925 0.500000
O O15 0.785167 0.183217 0.870219
O O16 0.734474 0.000000 0.917952
O O17 0.713156 0.150525 0.037249
O O18 0.781429 0.000000 0.578976
#
# Coordination Sequence:
#
# PCOD9174301 Si02
#       7
#     8   8   8   8   8   8   8
#     4   9  17  30  48  69  98 131 163 202 252 302
#     4  10  19  31  48  74 101 126 164 214 262 304
#     4   8  14  28  51  76  99 127 167 211 254 307
#     4   9  17  30  49  71  95 127 173 212 244 297
#     4   9  18  33  55  80 105 136 176 217 262 318
#     4   9  17  30  49  73  97 128 167 210 254 298
#     4  10  18  31  54  79 105 136 173 216 265 309
#
# _framework density 21.771052999999998
#
# number of rings (size 3 to 8) (size 9 to 14) (size 15 to 20)
#    0.000    2.857    0.000    3.000    0.000    1.714 
#    2.571    0.714    0.000   13.286    0.000    0.000 
#    0.000    0.000    0.000    0.000    0.000    0.000 
#
# Total GULP energy -156233.972472 kJ/mol
# GULP energy per Si atom -5579.784731 kJ/mol
# Density = 2.172150 g / cm^3
# Si number density = 21.771053 Si / 1000 Ang^3
#
#
#
# Elastic Constant Matrix: (Units=GPa)
#
#
# Indices 1 2 3 4 5 6 
#
# 1 118.6605 55.7187 13.6018 0.0000 28.3327 0.0000
# 2 55.7187 149.5363 16.6795 0.0000 16.3516 0.0000
# 3 13.6018 16.6795 41.7369 0.0000 11.6869 0.0000
# 4 0.0000 0.0000 0.0000 2.6334 0.0000 14.1701
# 5 28.3327 16.3516 11.6869 0.0000 26.4833 0.0000
# 6 0.0000 0.0000 0.0000 14.1701 0.0000 38.2737
#
#
#
# Elastic Compliance Matrix: (Units=1/GPa)
#
#
# Indices 1 2 3 4 5 6 
#
# 1 0.012852 -0.003559 0.000535 0.000000 -0.011788 0.000000
# 2 -0.003559 0.008286 -0.002037 0.000000 -0.000409 0.000000
# 3 0.000535 -0.002037 0.027849 0.000000 -0.011604 0.000000
# 4 0.000000 0.000000 0.000000 -0.382738 0.000000 0.141701
# 5 -0.011788 -0.000409 -0.011604 0.000000 0.055744 0.000000
# 6 0.000000 0.000000 0.000000 0.141701 0.000000 -0.026334
#
#
# Mechanical properties :
#
#
# Convention : Reuss Voigt Hill
#
# Bulk Modulus (GPa) = 25.73100 53.54818 39.63959
# Shear Modulus (GPa) = -17.77681 28.40701 5.31510
#
# Velocity S-wave (km/s) = -2.86061 3.61613 1.56418
# Velocity P-wave (km/s) = 0.96633 6.48727 4.63780
#
# Compressibility (1/GPa) = 0.03886363
#
# Stress axis : x y z
#
# Youngs Moduli (GPa) = 77.80823 120.69244 35.90849
#
# Poissons Ratio (x) = 0.42960 -0.01921
# Poissons Ratio (y) = 0.27696 0.07313
# Poissons Ratio (z) = -0.04162 0.24581
#
# Static dielectric constant tensor:
#      x y z
#    x 1.794960 0.000000 -0.012830 
#    y 0.000000 1.840810 0.000000 
#    z -0.012830 0.000000 1.820560 
# 
# From -- ./inp_files/269603.got.cif
#   From: 2010.05.17/outbox.cif.g08.bks.cpg/sg12_135_cif.got.tgz:269603.got - 2010.06.03 13:09:07.
