data_PCOD9174666
_publ_section_title
;
Structure prediction by ZEFSAII (Michael W. Deem and Ramdas Pophale) SiO2 
 PCOD9174666
Probable space group: C 2/M
;
_chemical_formula_sum "Si O2"
_cell_formula_units_Z 64
_cell_length_a 24.652316
_cell_length_b 11.159825
_cell_length_c 13.886987
_cell_angle_alpha 90.000000
_cell_angle_beta 67.954463
_cell_angle_gamma 90.000000
_cell_volume 3541.191268
_symmetry_space_group_name_H-M "C 2/M"
_symmetry_group_IT_number 12
_symmetry_cell_setting 'monoclinic'
loop_
_space_group_symop_operation_xyz
x,y,z
-x,y,-z
-x,-y,-z
x,-y,z
1/2+x,1/2+y,z
1/2-x,1/2+y,-z
1/2-x,1/2-y,-z
1/2+x,1/2-y,z
loop_
_atom_site_type_symbol
_atom_site_label
_atom_site_fract_x
_atom_site_fract_y
_atom_site_fract_z
Si Si1 0.727575 0.716422 0.820145
Si Si2 0.431945 0.855117 0.534464
Si Si3 0.838903 0.360570 0.988780
Si Si4 0.357209 0.138481 0.764678
Si Si5 0.063449 0.365061 0.909495
Si Si6 0.749134 0.133056 0.624406
Si Si7 0.653272 0.758562 0.565211
Si Si8 0.383245 0.365886 0.222724
O O1 0.788683 0.648048 0.784755
O O2 0.737045 0.826452 0.740502
O O3 0.674731 0.643357 0.806120
O O4 0.708797 0.771984 0.934196
O O5 0.500000 0.824009 0.500000
O O6 0.395954 0.809927 0.652276
O O7 0.401336 0.805040 0.459047
O O8 0.427227 0.000000 0.533490
O O9 0.818727 0.500000 0.990562
O O10 0.862154 0.314763 0.870364
O O11 0.889642 0.362068 0.035151
O O12 0.375093 0.000000 0.758986
O O13 0.067654 0.500000 0.861639
O O14 0.077909 0.249959 0.833566
O O15 0.000000 0.354296 0.000000
O O16 0.688299 0.145668 0.606983
O O17 0.797528 0.216327 0.543147
O O18 0.771527 0.000000 0.604664
O O19 0.636107 0.657198 0.654094
O O20 0.408437 0.500000 0.194882
#
# Coordination Sequence:
#
# PCOD9174666 Si02
#       8
#     8   8   8   8   8   8   8   8
#     4  10  18  32  51  76 107 141 177 220 275 342
#     4  10  21  36  54  78 107 144 191 240 285 335
#     4   9  18  31  50  78 107 136 174 223 278 332
#     4  10  19  32  50  73 104 139 178 226 280 331
#     4   9  19  36  57  81 109 143 183 230 280 331
#     4  10  19  31  52  78 106 139 178 227 282 335
#     4  10  20  34  51  79 108 141 180 228 278 338
#     4  10  21  34  54  83 113 145 182 227 284 345
#
# _framework density 18.073014000000001
#
# number of rings (size 3 to 8) (size 9 to 14) (size 15 to 20)
#    0.000    2.250    1.250    1.875    0.000    4.750 
#    0.000    2.500    0.000    2.250    0.000    0.000 
#    0.000    0.000    0.000    0.000    0.000    0.000 
#
# Total GULP energy -178265.618021 kJ/mol
# GULP energy per Si atom -5570.800563 kJ/mol
# Density = 1.803188 g / cm^3
# Si number density = 18.073014 Si / 1000 Ang^3
#
#
#
# Elastic Constant Matrix: (Units=GPa)
#
#
# Indices 1 2 3 4 5 6 
#
# 1 62.5581 19.8076 22.8271 0.0000 -3.8500 0.0000
# 2 19.8076 59.6067 24.5278 0.0000 -5.1849 0.0000
# 3 22.8271 24.5278 97.7399 0.0000 3.3528 0.0000
# 4 0.0000 0.0000 0.0000 7.2520 0.0000 -8.9402
# 5 -3.8500 -5.1849 3.3528 0.0000 24.4180 0.0000
# 6 0.0000 0.0000 0.0000 -8.9402 0.0000 9.0797
#
#
#
# Elastic Compliance Matrix: (Units=1/GPa)
#
#
# Indices 1 2 3 4 5 6 
#
# 1 0.018823 -0.004684 -0.003304 0.000000 0.002427 0.000000
# 2 -0.004684 0.020412 -0.004171 0.000000 0.004169 0.000000
# 3 -0.003304 -0.004171 0.012155 0.000000 -0.003076 0.000000
# 4 0.000000 0.000000 0.000000 -0.644752 0.000000 -0.634851
# 5 0.002427 0.004169 -0.003076 0.000000 0.042643 0.000000
# 6 0.000000 0.000000 0.000000 -0.634851 0.000000 -0.514966
#
#
# Mechanical properties :
#
#
# Convention : Reuss Voigt Hill
#
# Bulk Modulus (GPa) = 36.93939 39.35889 38.14914
# Shear Modulus (GPa) = -4.84336 18.33274 6.74469
#
# Velocity S-wave (km/s) = -1.63881 3.18837 1.93391
# Velocity P-wave (km/s) = 4.11125 5.94805 5.11281
#
# Compressibility (1/GPa) = 0.02707137
#
# Stress axis : x y z
#
# Youngs Moduli (GPa) = 53.12574 48.98977 82.26946
#
# Poissons Ratio (x) = 0.22949 0.27181
# Poissons Ratio (y) = 0.24887 0.34318
# Poissons Ratio (z) = 0.17552 0.20436
#
# Static dielectric constant tensor:
#      x y z
#    x 1.613810 0.000000 -0.006520 
#    y 0.000000 1.625100 0.000000 
#    z -0.006520 0.000000 1.636200 
# 
# From -- ./inp_files/174622.got.cif
#   From: 2010.05.17/outbox.cif.g08.bks.cpg/sg12_88_cif.got.tgz:174622.got - 2010.06.03 13:09:07.
