data_PCOD9174588
_publ_section_title
;
Structure prediction by ZEFSAII (Michael W. Deem and Ramdas Pophale) SiO2 
 PCOD9174588
Probable space group: C 2/M
;
_chemical_formula_sum "Si O2"
_cell_formula_units_Z 64
_cell_length_a 29.796302
_cell_length_b 7.716874
_cell_length_c 21.890821
_cell_angle_alpha 90.000000
_cell_angle_beta 47.268031
_cell_angle_gamma 90.000000
_cell_volume 3697.251266
_symmetry_space_group_name_H-M "C 2/M"
_symmetry_group_IT_number 12
_symmetry_cell_setting 'monoclinic'
loop_
_space_group_symop_operation_xyz
x,y,z
-x,y,-z
-x,-y,-z
x,-y,z
1/2+x,1/2+y,z
1/2-x,1/2+y,-z
1/2-x,1/2-y,-z
1/2+x,1/2-y,z
loop_
_atom_site_type_symbol
_atom_site_label
_atom_site_fract_x
_atom_site_fract_y
_atom_site_fract_z
Si Si1 0.189111 0.703589 0.336830
Si Si2 0.653283 0.208475 0.595716
Si Si3 0.392517 0.787180 0.826310
Si Si4 0.797585 0.296000 0.810820
Si Si5 0.947810 0.793737 0.501558
Si Si6 0.752592 0.708010 0.595193
Si Si7 0.700971 0.206028 0.992416
Si Si8 0.525585 0.209337 0.663672
O O1 0.204893 0.500000 0.317699
O O2 0.197828 0.779832 0.261195
O O3 0.118469 0.717221 0.421995
O O4 0.230078 0.776914 0.354121
O O5 0.686447 0.253677 0.628250
O O6 0.697719 0.273775 0.500252
O O7 0.584997 0.271544 0.645919
O O8 0.652172 0.000000 0.592751
O O9 0.347936 0.726980 0.812375
O O10 0.362372 0.732945 0.918645
O O11 0.461058 0.729181 0.749771
O O12 0.391457 0.000000 0.827150
O O13 0.811534 0.500000 0.793230
O O14 0.731132 0.278186 0.903222
O O15 0.966250 0.756185 0.414890
O O16 0.000000 0.729529 0.500000
O O17 0.942567 0.000000 0.514312
O O18 0.759375 0.500000 0.590668
O O19 0.697959 0.000000 0.988011
O O20 0.750000 0.250000 0.000000
O O21 0.524818 0.000000 0.667414
#
# Coordination Sequence:
#
# PCOD9174588 Si02
#       8
#     8   8   8   8   8   8   8   8
#     4  10  19  33  50  67  87 120 162 191 217 269
#     4   9  17  29  46  67  87 112 148 189 232 270
#     4   8  15  27  45  67  88 115 149 185 219 258
#     4   9  17  29  46  68  91 117 151 187 226 264
#     4  11  23  33  41  62  96 126 152 184 225 266
#     4   9  17  30  46  66  88 113 148 189 231 269
#     4   9  16  28  45  66  91 118 150 185 226 266
#     4  10  18  32  50  66  86 118 160 191 217 265
#
# _framework density 17.310157
#
# number of rings (size 3 to 8) (size 9 to 14) (size 15 to 20)
#    0.000    2.625    1.250    2.250    0.000    3.500 
#    0.000    4.375    0.000    0.000    0.000    0.875 
#    0.000    7.000    0.000    0.000    0.000    0.000 
#
# Total GULP energy -178336.142446 kJ/mol
# GULP energy per Si atom -5573.004451 kJ/mol
# Density = 1.727076 g / cm^3
# Si number density = 17.310157 Si / 1000 Ang^3
#
#
#
# Elastic Constant Matrix: (Units=GPa)
#
#
# Indices 1 2 3 4 5 6 
#
# 1 129.5725 -2.1028 59.3292 -0.0018 -8.7378 0.0009
# 2 -2.1028 22.8013 -13.3321 -0.0093 0.6979 -0.0015
# 3 59.3292 -13.3321 108.9667 -0.0051 -11.4263 0.0065
# 4 -0.0018 -0.0093 -0.0051 13.0408 0.0027 -1.9561
# 5 -8.7378 0.6979 -11.4263 0.0027 6.3254 0.0007
# 6 0.0009 -0.0015 0.0065 -1.9561 0.0007 12.5269
#
#
#
# Elastic Compliance Matrix: (Units=1/GPa)
#
#
# Indices 1 2 3 4 5 6 
#
# 1 0.010533 -0.002405 -0.005522 -0.000003 0.004841 0.000001
# 2 -0.002405 0.048000 0.007746 0.000037 0.005373 0.000007
# 3 -0.005522 0.007746 0.015103 0.000006 0.018799 -0.000007
# 4 -0.000003 0.000037 0.000006 0.078521 -0.000032 0.012262
# 5 0.004841 0.005373 0.018799 -0.000032 0.198145 -0.000025
# 6 0.000001 0.000007 -0.000007 0.012262 -0.000025 0.081743
#
#
# Mechanical properties :
#
#
# Convention : Reuss Voigt Hill
#
# Bulk Modulus (GPa) = 13.64748 38.79212 26.21980
# Shear Modulus (GPa) = 10.94492 20.87504 15.90998
#
# Velocity S-wave (km/s) = 2.51725 3.47643 3.03498
# Velocity P-wave (km/s) = 4.04351 6.21070 5.24036
#
# Compressibility (1/GPa) = 0.07327358
#
# Stress axis : x y z
#
# Youngs Moduli (GPa) = 94.93538 20.83330 66.21390
#
# Poissons Ratio (x) = 0.05011 0.36562
# Poissons Ratio (y) = 0.22836 -0.51289
# Poissons Ratio (z) = 0.52421 -0.16137
#
# Static dielectric constant tensor:
#      x y z
#    x 1.594390 -0.000010 0.003940 
#    y -0.000010 1.644770 0.000000 
#    z 0.003940 0.000000 1.597880 
# 
# From -- ./inp_files/326902.got.cif
#   From: 2010.05.17/outbox.cif.g08.bks.cpg/sg12_164_cif.got.tgz:326902.got - 2010.06.03 13:09:07.
