data_PCOD9174433
_publ_section_title
;
Structure prediction by ZEFSAII (Michael W. Deem and Ramdas Pophale) SiO2 
 PCOD9174433
Probable space group: C 2/M
;
_chemical_formula_sum "Si O2"
_cell_formula_units_Z 64
_cell_length_a 24.166851
_cell_length_b 7.899257
_cell_length_c 18.082973
_cell_angle_alpha 90.000000
_cell_angle_beta 52.295870
_cell_angle_gamma 90.000000
_cell_volume 2731.185140
_symmetry_space_group_name_H-M "C 2/M"
_symmetry_group_IT_number 12
_symmetry_cell_setting 'monoclinic'
loop_
_space_group_symop_operation_xyz
x,y,z
-x,y,-z
-x,-y,-z
x,-y,z
1/2+x,1/2+y,z
1/2-x,1/2+y,-z
1/2-x,1/2-y,-z
1/2+x,1/2-y,z
loop_
_atom_site_type_symbol
_atom_site_label
_atom_site_fract_x
_atom_site_fract_y
_atom_site_fract_z
Si Si1 0.723266 0.705593 0.802062
Si Si2 0.821999 0.801062 0.842027
Si Si3 0.075883 0.807061 0.942821
Si Si4 0.102234 0.306190 0.080121
Si Si5 0.646044 0.796631 0.401806
Si Si6 0.829609 0.201061 0.450185
Si Si7 0.971296 0.196707 0.282097
Si Si8 0.548757 0.194239 0.359149
O O1 0.721569 0.500000 0.802703
O O2 0.749137 0.763908 0.861791
O O3 0.783323 0.764708 0.696711
O O4 0.645144 0.767253 0.848514
O O5 0.836611 0.747528 0.913638
O O6 0.878690 0.697928 0.747178
O O7 0.838010 0.000000 0.822413
O O8 0.094988 0.806416 0.013691
O O9 0.068205 0.000000 0.920700
O O10 0.000000 0.722711 0.000000
O O11 0.111960 0.500000 0.049693
O O12 0.029631 0.289023 0.185673
O O13 0.651519 0.753118 0.482240
O O14 0.576825 0.736322 0.414564
O O15 0.644533 0.000000 0.395237
O O16 0.750000 0.250000 0.500000
O O17 0.892192 0.266116 0.346049
O O18 0.833941 0.000000 0.440671
O O19 0.996708 0.209696 0.347083
O O20 0.972883 0.000000 0.258360
O O21 0.523894 0.000000 0.387240
#
# Coordination Sequence:
#
# PCOD9174433 Si02
#       8
#     8   8   8   8   8   8   8   8
#     4   9  19  37  59  84 115 150 186 227 278 334
#     4  10  18  31  55  85 115 147 184 227 277 334
#     4  10  22  40  60  82 111 149 193 235 276 330
#     4  11  22  37  59  86 116 148 183 229 284 336
#     4   9  19  36  58  84 115 149 185 227 278 335
#     4  11  25  41  58  81 111 149 194 239 279 327
#     4  10  21  38  59  84 114 149 188 230 278 332
#     4   9  17  32  56  86 116 146 180 222 277 338
#
# _framework density 23.433050999999999
#
# number of rings (size 3 to 8) (size 9 to 14) (size 15 to 20)
#    0.000    2.125    0.000    5.625    0.000    7.250 
#    0.000    5.000    0.000    0.000    0.000    0.000 
#    0.000    0.000    0.000    0.000    0.000    0.000 
#
# Total GULP energy -178767.070138 kJ/mol
# GULP energy per Si atom -5586.470942 kJ/mol
# Density = 2.337972 g / cm^3
# Si number density = 23.433051 Si / 1000 Ang^3
#
#
#
# Elastic Constant Matrix: (Units=GPa)
#
#
# Indices 1 2 3 4 5 6 
#
# 1 45.3863 -11.5270 23.6010 0.0018 -30.0007 -0.0017
# 2 -11.5270 60.8014 -3.8353 0.0064 -4.7137 -0.0035
# 3 23.6010 -3.8353 83.3017 -0.0019 -29.5456 0.0007
# 4 0.0018 0.0064 -0.0019 13.3899 0.0011 4.7892
# 5 -30.0007 -4.7137 -29.5456 0.0011 47.2607 0.0001
# 6 -0.0017 -0.0035 0.0007 4.7892 0.0001 22.2074
#
#
#
# Elastic Compliance Matrix: (Units=1/GPa)
#
#
# Indices 1 2 3 4 5 6 
#
# 1 0.044079 0.010359 -0.002211 -0.000017 0.027632 0.000009
# 2 0.010359 0.019207 0.001235 -0.000013 0.009264 0.000007
# 3 -0.002211 0.001235 0.015719 0.000002 0.008547 -0.000001
# 4 -0.000017 -0.000013 0.000002 0.080926 -0.000013 -0.017452
# 5 0.027632 0.009264 0.008547 -0.000013 0.044967 0.000006
# 6 0.000009 0.000007 -0.000001 -0.017452 0.000006 0.048794
#
#
# Mechanical properties :
#
#
# Convention : Reuss Voigt Hill
#
# Bulk Modulus (GPa) = 10.22790 22.88520 16.55655
# Shear Modulus (GPa) = 18.69056 28.65497 23.67276
#
# Velocity S-wave (km/s) = 2.82727 3.50071 3.18186
# Velocity P-wave (km/s) = 3.87713 5.11150 4.53649
#
# Compressibility (1/GPa) = 0.09777178
#
# Stress axis : x y z
#
# Youngs Moduli (GPa) = 22.68676 52.06416 63.61654
#
# Poissons Ratio (x) = -0.53935 0.14065
# Poissons Ratio (y) = -0.23502 -0.07857
# Poissons Ratio (z) = 0.05016 -0.06430
#
# Static dielectric constant tensor:
#      x y z
#    x 1.870140 0.000010 -0.029570 
#    y 0.000010 1.958500 0.000000 
#    z -0.029570 0.000000 1.944040 
# 
# From -- ./inp_files/324115.got.cif
#   From: 2010.05.17/outbox.cif.g08.bks.cpg/sg12_163_cif.got.tgz:324115.got - 2010.06.03 13:09:07.
