data_PCOD9174467
_publ_section_title
;
Structure prediction by ZEFSAII (Michael W. Deem and Ramdas Pophale) SiO2 
 PCOD9174467
Probable space group: C 2/M
;
_chemical_formula_sum "Si O2"
_cell_formula_units_Z 64
_cell_length_a 29.573683
_cell_length_b 12.741954
_cell_length_c 18.251092
_cell_angle_alpha 90.000000
_cell_angle_beta 152.714379
_cell_angle_gamma 90.000000
_cell_volume 3152.826306
_symmetry_space_group_name_H-M "C 2/M"
_symmetry_group_IT_number 12
_symmetry_cell_setting 'monoclinic'
loop_
_space_group_symop_operation_xyz
x,y,z
-x,y,-z
-x,-y,-z
x,-y,z
1/2+x,1/2+y,z
1/2-x,1/2+y,-z
1/2-x,1/2-y,-z
1/2+x,1/2-y,z
loop_
_atom_site_type_symbol
_atom_site_label
_atom_site_fract_x
_atom_site_fract_y
_atom_site_fract_z
Si Si1 0.587996 0.373573 0.682729
Si Si2 0.252950 0.117917 0.808188
Si Si3 0.335709 0.613760 0.474480
Si Si4 0.745633 0.335951 0.361235
Si Si5 0.548287 0.881378 0.274676
Si Si6 0.146160 0.830053 0.070456
Si Si7 0.049433 0.781684 0.146351
Si Si8 0.053557 0.807324 0.796021
O O1 0.500000 0.343595 0.500000
O O2 0.580954 0.500000 0.683223
O O3 0.691483 0.351504 0.791334
O O4 0.580330 0.318676 0.750004
O O5 0.174459 0.114547 0.628406
O O6 0.291316 0.000000 0.871060
O O7 0.331759 0.204536 0.898987
O O8 0.302050 0.500000 0.452771
O O9 0.269261 0.711044 0.402316
O O10 0.449132 0.633315 0.656869
O O11 0.845562 0.385975 0.532843
O O12 0.646991 0.346682 0.267049
O O13 0.721057 0.366954 0.241414
O O14 0.565571 0.812458 0.226425
O O15 0.475102 0.811301 0.220158
O O16 0.515268 0.000000 0.213441
O O17 0.037275 0.851419 0.943884
O O18 0.136329 0.854405 0.970215
O O19 0.000000 0.740946 0.000000
#
# Coordination Sequence:
#
# PCOD9174467 Si02
#       8
#     8   8   8   8   8   8   8   8
#     4  10  18  31  56  86 106 125 166 225 277 315
#     4   9  17  30  50  76 104 132 168 214 266 318
#     4   9  16  29  50  78 104 129 167 217 270 310
#     4   9  18  34  54  76 103 140 178 215 251 305
#     4  10  21  35  53  76 107 147 179 207 251 311
#     4   9  19  32  49  74 106 145 170 205 259 312
#     4   9  18  34  55  77 103 129 172 225 269 301
#     4  10  19  32  51  76 105 138 172 213 262 313
#
# _framework density 20.299247999999999
#
# number of rings (size 3 to 8) (size 9 to 14) (size 15 to 20)
#    0.000    2.625    1.250    0.750    0.000    3.250 
#    0.000    5.000    0.000    6.750    0.000    0.000 
#    0.000    0.000    0.000    0.000    0.000    0.000 
#
# Total GULP energy -178272.487372 kJ/mol
# GULP energy per Si atom -5571.015230 kJ/mol
# Density = 2.025305 g / cm^3
# Si number density = 20.299248 Si / 1000 Ang^3
#
#
#
# Elastic Constant Matrix: (Units=GPa)
#
#
# Indices 1 2 3 4 5 6 
#
# 1 66.6817 3.1328 9.1235 0.0000 -15.2895 0.0000
# 2 3.1328 41.9461 -7.8340 0.0000 -3.3113 0.0000
# 3 9.1235 -7.8340 101.8978 0.0000 -23.0144 0.0000
# 4 0.0000 0.0000 0.0000 -2.2485 0.0000 -12.2258
# 5 -15.2895 -3.3113 -23.0144 0.0000 35.7198 0.0000
# 6 0.0000 0.0000 0.0000 -12.2258 0.0000 -10.1815
#
#
#
# Elastic Compliance Matrix: (Units=1/GPa)
#
#
# Indices 1 2 3 4 5 6 
#
# 1 0.016649 -0.000671 0.000062 0.000000 0.007104 0.000000
# 2 -0.000671 0.024720 0.002824 0.000000 0.003824 0.000000
# 3 0.000062 0.002824 0.011809 0.000000 0.007897 0.000000
# 4 0.000000 0.000000 0.000000 0.080436 0.000000 -0.096587
# 5 0.007104 0.003824 0.007897 0.000000 0.036479 0.000000
# 6 0.000000 0.000000 0.000000 -0.096587 0.000000 0.017763
#
#
# Mechanical properties :
#
#
# Convention : Reuss Voigt Hill
#
# Bulk Modulus (GPa) = 17.35866 24.37447 20.86656
# Shear Modulus (GPa) = 24.67592 18.39820 21.53706
#
# Velocity S-wave (km/s) = 3.49034 3.01383 3.26080
# Velocity P-wave (km/s) = 4.98129 4.91371 4.94761
#
# Compressibility (1/GPa) = 0.05760813
#
# Stress axis : x y z
#
# Youngs Moduli (GPa) = 60.06524 40.45384 84.68186
#
# Poissons Ratio (x) = 0.02714 -0.00528
# Poissons Ratio (y) = 0.04030 -0.23916
# Poissons Ratio (z) = -0.00374 -0.11425
#
# Static dielectric constant tensor:
#      x y z
#    x 1.740750 0.000000 -0.019110 
#    y 0.000000 1.729890 0.000000 
#    z -0.019110 0.000000 1.771700 
# 
# From -- ./inp_files/296714.got.cif
#   From: 2010.05.17/outbox.cif.g08.bks.cpg/sg12_149_cif.got.tgz:296714.got - 2010.06.03 13:09:07.
