data_PCOD9174091
_publ_section_title
;
Structure prediction by ZEFSAII (Michael W. Deem and Ramdas Pophale) SiO2 
 PCOD9174091
Probable space group: C 2/M
;
_chemical_formula_sum "Si O2"
_cell_formula_units_Z 56
_cell_length_a 23.569981
_cell_length_b 17.842122
_cell_length_c 10.639382
_cell_angle_alpha 90.000000
_cell_angle_beta 139.986100
_cell_angle_gamma 90.000000
_cell_volume 2876.836422
_symmetry_space_group_name_H-M "C 2/M"
_symmetry_group_IT_number 12
_symmetry_cell_setting 'monoclinic'
loop_
_space_group_symop_operation_xyz
x,y,z
-x,y,-z
-x,-y,-z
x,-y,z
1/2+x,1/2+y,z
1/2-x,1/2+y,-z
1/2-x,1/2-y,-z
1/2+x,1/2-y,z
loop_
_atom_site_type_symbol
_atom_site_label
_atom_site_fract_x
_atom_site_fract_y
_atom_site_fract_z
Si Si1 0.122923 0.829878 0.466910
Si Si2 0.715285 0.089551 0.372172
Si Si3 0.402216 0.139415 0.317676
Si Si4 0.107523 0.653994 0.418939
Si Si5 0.457553 0.413319 0.286763
Si Si6 0.589067 0.911895 0.928298
Si Si7 0.837593 0.795743 0.183572
O O1 0.191583 0.870881 0.493273
O O2 0.110351 0.743489 0.408970
O O3 0.164116 0.826793 0.677917
O O4 0.030927 0.874185 0.324143
O O5 0.668054 0.114576 0.419340
O O6 0.725629 0.000000 0.385488
O O7 0.650406 0.112135 0.147201
O O8 0.500000 0.106499 0.500000
O O9 0.360727 0.133993 0.385081
O O10 0.364496 0.102994 0.127872
O O11 0.408835 0.228262 0.300813
O O12 0.005697 0.628528 0.232307
O O13 0.500000 0.411804 0.500000
O O14 0.441409 0.500000 0.227056
O O15 0.370531 0.361821 0.149400
O O16 0.572347 0.000000 0.913048
O O17 0.750000 0.750000 0.000000
#
# Coordination Sequence:
#
# PCOD9174091 Si02
#       7
#     8   8   8   8   8   8   8
#     4  10  20  34  53  75 104 143 185 222 263 321
#     4  11  22  35  53  80 111 140 178 230 280 324
#     4   9  18  33  52  76 106 142 177 212 261 324
#     4  10  20  34  53  77 108 147 184 219 270 330
#     4   9  17  31  52  77 106 140 176 218 269 319
#     4  10  20  34  54  81 111 139 173 224 280 326
#     4  10  18  31  52  78 108 137 174 220 265 315
#
# _framework density 19.465826
#
# number of rings (size 3 to 8) (size 9 to 14) (size 15 to 20)
#    0.000    2.143    0.000    5.571    0.000    4.857 
#    0.000    0.714    0.000    1.714    0.000    0.000 
#    0.000   17.143    0.000    0.000    0.000    0.000 
#
# Total GULP energy -156197.827308 kJ/mol
# GULP energy per Si atom -5578.493832 kJ/mol
# Density = 1.942152 g / cm^3
# Si number density = 19.465826 Si / 1000 Ang^3
#
#
#
# Elastic Constant Matrix: (Units=GPa)
#
#
# Indices 1 2 3 4 5 6 
#
# 1 110.5473 52.2644 33.7279 0.0000 1.6626 0.0000
# 2 52.2644 73.7456 39.5927 0.0000 12.6916 0.0000
# 3 33.7279 39.5927 46.8574 0.0000 10.3545 0.0000
# 4 0.0000 0.0000 0.0000 16.9157 0.0000 -3.1356
# 5 1.6626 12.6916 10.3545 0.0000 28.2832 0.0000
# 6 0.0000 0.0000 0.0000 -3.1356 0.0000 29.4237
#
#
#
# Elastic Compliance Matrix: (Units=1/GPa)
#
#
# Indices 1 2 3 4 5 6 
#
# 1 0.014351 -0.008910 -0.003806 0.000000 0.004548 0.000000
# 2 -0.008910 0.030725 -0.018080 0.000000 -0.006645 0.000000
# 3 -0.003806 -0.018080 0.040818 0.000000 -0.006607 0.000000
# 4 0.000000 0.000000 0.000000 0.060308 0.000000 0.006427
# 5 0.004548 -0.006645 -0.006607 0.000000 0.040490 0.000000
# 6 0.000000 0.000000 0.000000 0.006427 0.000000 0.034671
#
#
# Mechanical properties :
#
#
# Convention : Reuss Voigt Hill
#
# Bulk Modulus (GPa) = 41.14934 53.59113 47.37024
# Shear Modulus (GPa) = 17.17885 21.96220 19.57052
#
# Velocity S-wave (km/s) = 2.97394 3.36258 3.17421
# Velocity P-wave (km/s) = 5.74261 6.53196 6.14996
#
# Compressibility (1/GPa) = 0.02430172
#
# Stress axis : x y z
#
# Youngs Moduli (GPa) = 69.67990 32.54683 24.49921
#
# Poissons Ratio (x) = 0.29000 0.09325
# Poissons Ratio (y) = 0.62086 0.44294
# Poissons Ratio (z) = 0.26523 0.58843
#
# Static dielectric constant tensor:
#      x y z
#    x 1.693690 0.000000 0.011500 
#    y 0.000000 1.672570 0.000000 
#    z 0.011500 0.000000 1.728670 
# 
# From -- ./inp_files/177184.got.cif
#   From: 2010.05.17/outbox.cif.g08.bks.cpg/sg12_89_cif.got.tgz:177184.got - 2010.06.03 13:09:07.
