data_PCOD9174787
_publ_section_title
;
Structure prediction by ZEFSAII (Michael W. Deem and Ramdas Pophale) SiO2 
 PCOD9174787
Probable space group: C 2/M
;
_chemical_formula_sum "Si O2"
_cell_formula_units_Z 64
_cell_length_a 15.110967
_cell_length_b 7.450374
_cell_length_c 28.012457
_cell_angle_alpha 90.000000
_cell_angle_beta 105.094942
_cell_angle_gamma 90.000000
_cell_volume 3044.891657
_symmetry_space_group_name_H-M "C 2/M"
_symmetry_group_IT_number 12
_symmetry_cell_setting 'monoclinic'
loop_
_space_group_symop_operation_xyz
x,y,z
-x,y,-z
-x,-y,-z
x,-y,z
1/2+x,1/2+y,z
1/2-x,1/2+y,-z
1/2-x,1/2-y,-z
1/2+x,1/2-y,z
loop_
_atom_site_type_symbol
_atom_site_label
_atom_site_fract_x
_atom_site_fract_y
_atom_site_fract_z
Si Si1 0.543434 0.216884 0.744025
Si Si2 0.854877 0.214229 0.000001
Si Si3 0.415147 0.709101 0.810527
Si Si4 0.262928 0.780893 0.269916
Si Si5 0.052601 0.709594 0.365011
Si Si6 0.537587 0.719943 0.078032
Si Si7 0.450410 0.219884 0.444956
Si Si8 0.740461 0.783522 0.620493
O O1 0.502062 0.279848 0.787910
O O2 0.646707 0.271321 0.746401
O O3 0.481217 0.282479 0.690738
O O4 0.540311 0.000000 0.745063
O O5 0.935286 0.277072 0.047385
O O6 0.862455 0.000000 0.000012
O O7 0.750000 0.250000 0.000000
O O8 0.889445 0.275760 0.952477
O O9 0.392911 0.500000 0.814934
O O10 0.328884 0.784436 0.768936
O O11 0.435519 0.784364 0.865626
O O12 0.269537 0.722079 0.325906
O O13 0.261213 0.000000 0.271288
O O14 0.026724 0.500000 0.359925
O O15 0.161017 0.725873 0.384230
O O16 0.002811 0.782565 0.404700
O O17 0.536650 0.500000 0.078670
O O18 0.500000 0.280206 0.500000
O O19 0.345074 0.274841 0.423440
O O20 0.452630 0.000000 0.445876
O O21 0.739407 0.000000 0.621272
#
# Coordination Sequence:
#
# PCOD9174787 Si02
#       8
#     8   8   8   8   8   8   8   8
#     4  10  19  32  49  72 100 131 163 203 249 291
#     4   9  17  33  55  76  99 132 170 204 244 292
#     4  10  19  33  52  74 100 132 169 204 240 291
#     4   9  17  30  49  70  94 128 166 197 234 290
#     4  10  19  32  51  73  99 128 161 202 250 294
#     4   8  17  33  51  72 103 137 164 197 247 301
#     4   9  18  33  53  74  97 129 166 201 243 300
#     4  10  18  32  53  74  95 126 167 203 237 290
#
# _framework density 21.018810999999999
#
# number of rings (size 3 to 8) (size 9 to 14) (size 15 to 20)
#    0.000    2.625    2.500    0.750    0.000    1.500 
#    0.000    5.625    0.000    0.750    0.000    0.000 
#    0.000    0.000    0.000    0.000    0.000    0.000 
#
# Total GULP energy -178607.539287 kJ/mol
# GULP energy per Si atom -5581.485603 kJ/mol
# Density = 2.097097 g / cm^3
# Si number density = 21.018811 Si / 1000 Ang^3
#
#
#
# Elastic Constant Matrix: (Units=GPa)
#
#
# Indices 1 2 3 4 5 6 
#
# 1 80.5342 -10.4257 -4.3120 0.0000 -2.2599 0.0000
# 2 -10.4257 59.4981 7.0170 0.0000 3.4010 0.0000
# 3 -4.3120 7.0170 77.2435 0.0000 1.2619 0.0000
# 4 0.0000 0.0000 0.0000 -2.5283 0.0000 2.8035
# 5 -2.2599 3.4010 1.2619 0.0000 22.0845 0.0000
# 6 0.0000 0.0000 0.0000 2.8035 0.0000 4.3458
#
#
#
# Elastic Compliance Matrix: (Units=1/GPa)
#
#
# Indices 1 2 3 4 5 6 
#
# 1 0.012745 0.002120 0.000503 0.000000 0.000949 0.000000
# 2 0.002120 0.017484 -0.001431 0.000000 -0.002394 0.000000
# 3 0.000503 -0.001431 0.013112 0.000000 -0.000477 0.000000
# 4 0.000000 0.000000 0.000000 -0.230582 0.000000 0.148748
# 5 0.000949 -0.002394 -0.000477 0.000000 0.045774 0.000000
# 6 0.000000 0.000000 0.000000 0.148748 0.000000 0.134151
#
#
# Mechanical properties :
#
#
# Convention : Reuss Voigt Hill
#
# Bulk Modulus (GPa) = 21.86954 22.42605 22.14779
# Shear Modulus (GPa) = 902.42669 19.78015 461.10342
#
# Velocity S-wave (km/s) = 20.74306 3.07101 14.82743
# Velocity P-wave (km/s) = 24.16871 4.82364 17.42691
#
# Compressibility (1/GPa) = 0.04572570
#
# Stress axis : x y z
#
# Youngs Moduli (GPa) = 78.46167 57.19425 76.26623
#
# Poissons Ratio (x) = -0.12123 -0.03839
# Poissons Ratio (y) = -0.16631 0.10913
# Poissons Ratio (z) = -0.03950 0.08184
#
# Static dielectric constant tensor:
#      x y z
#    x 1.721010 0.000000 0.012460 
#    y 0.000000 1.820520 0.000000 
#    z 0.012460 0.000000 1.735120 
# 
# From -- ./inp_files/359873.got.cif
#   From: 2010.05.17/outbox.cif.g08.bks.cpg/sg12_180_cif.got.tgz:359873.got - 2010.06.03 13:09:07.
