data_PCOD9174553
_publ_section_title
;
Structure prediction by ZEFSAII (Michael W. Deem and Ramdas Pophale) SiO2 
 PCOD9174553
Probable space group: C 2/M
;
_chemical_formula_sum "Si O2"
_cell_formula_units_Z 48
_cell_length_a 14.024364
_cell_length_b 17.494062
_cell_length_c 14.653702
_cell_angle_alpha 90.000000
_cell_angle_beta 41.880743
_cell_angle_gamma 90.000000
_cell_volume 2400.081791
_symmetry_space_group_name_H-M "C 2/M"
_symmetry_group_IT_number 12
_symmetry_cell_setting 'monoclinic'
loop_
_space_group_symop_operation_xyz
x,y,z
-x,y,-z
-x,-y,-z
x,-y,z
1/2+x,1/2+y,z
1/2-x,1/2+y,-z
1/2-x,1/2-y,-z
1/2+x,1/2-y,z
loop_
_atom_site_type_symbol
_atom_site_label
_atom_site_fract_x
_atom_site_fract_y
_atom_site_fract_z
Si Si1 0.803105 0.589134 0.887157
Si Si2 0.302183 0.738672 0.609823
Si Si3 0.093216 0.331547 0.624317
Si Si4 0.365981 0.588065 0.486936
Si Si5 0.043017 0.091843 0.187434
Si Si6 0.866269 0.838443 0.149165
O O1 0.838545 0.500000 0.874659
O O2 0.704045 0.600248 0.868352
O O3 0.945353 0.636816 0.766823
O O4 0.701458 0.616620 0.042763
O O5 0.159724 0.730096 0.647406
O O6 0.405686 0.791868 0.475412
O O7 0.355219 0.651559 0.573402
O O8 0.251672 0.777264 0.737623
O O9 0.215294 0.397559 0.540631
O O10 0.377735 0.500000 0.506405
O O11 0.489794 0.609301 0.326967
O O12 0.930550 0.123425 0.193915
O O13 0.041944 0.000000 0.180559
O O14 0.000000 0.802893 0.000000
#
# Coordination Sequence:
#
# PCOD9174553 Si02
#       6
#     8   8   8   8   8   8
#     4  10  20  30  48  81 110 128 159 205 253 303
#     4   9  18  33  48  69 104 131 171 207 239 307
#     4   9  17  32  51  70 102 127 162 213 248 283
#     4   9  16  30  54  70  90 130 169 208 248 285
#     4   9  16  29  46  70 103 137 164 193 244 310
#     4  10  18  32  48  68 105 147 166 190 250 308
#
# _framework density 19.999317999999999
#
# number of rings (size 3 to 8) (size 9 to 14) (size 15 to 20)
#    1.000    1.667    1.667    1.000    0.000    2.667 
#    0.000    8.333    0.000    0.500    0.000    2.333 
#    0.000    0.000    0.000    0.000    0.000    0.000 
#
# Total GULP energy -133670.519342 kJ/mol
# GULP energy per Si atom -5569.604973 kJ/mol
# Density = 1.995380 g / cm^3
# Si number density = 19.999318 Si / 1000 Ang^3
#
#
#
# Elastic Constant Matrix: (Units=GPa)
#
#
# Indices 1 2 3 4 5 6 
#
# 1 25.6596 -1.5988 13.7412 -0.0001 -11.0671 0.0000
# 2 -1.5988 65.3589 37.5307 0.0000 -2.8157 0.0000
# 3 13.7412 37.5307 134.6026 -0.0002 -20.2497 0.0001
# 4 -0.0001 0.0000 -0.0002 26.7949 0.0001 -2.1100
# 5 -11.0671 -2.8157 -20.2497 0.0001 27.1935 0.0000
# 6 0.0000 0.0000 0.0001 -2.1100 0.0000 7.9131
#
#
#
# Elastic Compliance Matrix: (Units=1/GPa)
#
#
# Indices 1 2 3 4 5 6 
#
# 1 0.048658 0.003902 -0.003396 0.000000 0.017678 0.000000
# 2 0.003902 0.018640 -0.005706 0.000000 -0.000731 0.000000
# 3 -0.003396 -0.005706 0.010214 0.000000 0.005633 0.000000
# 4 0.000000 0.000000 0.000000 0.038121 0.000000 0.010165
# 5 0.017678 -0.000731 0.005633 0.000000 0.048087 0.000000
# 6 0.000000 0.000000 0.000000 0.010165 0.000000 0.129083
#
#
# Mechanical properties :
#
#
# Convention : Reuss Voigt Hill
#
# Bulk Modulus (GPa) = 14.90015 36.10748 25.50382
# Shear Modulus (GPa) = 15.35746 24.11017 19.73382
#
# Velocity S-wave (km/s) = 2.77411 3.47587 3.14462
# Velocity P-wave (km/s) = 4.21039 5.84829 5.09558
#
# Compressibility (1/GPa) = 0.06711341
#
# Stress axis : x y z
#
# Youngs Moduli (GPa) = 20.55159 53.64677 97.90183
#
# Poissons Ratio (x) = -0.20932 0.33246
# Poissons Ratio (y) = -0.08019 0.55860
# Poissons Ratio (z) = 0.06979 0.30609
#
# Static dielectric constant tensor:
#      x y z
#    x 1.721590 0.000000 -0.018080 
#    y 0.000000 1.692480 0.000000 
#    z -0.018080 0.000000 1.734080 
# 
# From -- ./inp_files/278888.got.cif
#   From: 2010.05.17/outbox.cif.g08.bks.cpg/sg12_140_cif.got.tgz:278888.got - 2010.06.03 13:09:07.
