data_PCOD9174194
_publ_section_title
;
Structure prediction by ZEFSAII (Michael W. Deem and Ramdas Pophale) SiO2 
 PCOD9174194
Probable space group: C 2/M
;
_chemical_formula_sum "Si O2"
_cell_formula_units_Z 48
_cell_length_a 18.980969
_cell_length_b 12.741820
_cell_length_c 11.874005
_cell_angle_alpha 90.000000
_cell_angle_beta 98.129837
_cell_angle_gamma 90.000000
_cell_volume 2842.892241
_symmetry_space_group_name_H-M "C 2/M"
_symmetry_group_IT_number 12
_symmetry_cell_setting 'monoclinic'
loop_
_space_group_symop_operation_xyz
x,y,z
-x,y,-z
-x,-y,-z
x,-y,z
1/2+x,1/2+y,z
1/2-x,1/2+y,-z
1/2-x,1/2-y,-z
1/2+x,1/2-y,z
loop_
_atom_site_type_symbol
_atom_site_label
_atom_site_fract_x
_atom_site_fract_y
_atom_site_fract_z
Si Si1 0.415230 0.119166 0.957149
Si Si2 0.596978 0.126219 0.793365
Si Si3 0.922991 0.877557 0.542400
Si Si4 0.695661 0.883427 0.397751
Si Si5 0.936629 0.710467 0.731673
Si Si6 0.812753 0.732313 0.379043
O O1 0.407572 0.198974 0.852413
O O2 0.393104 0.000000 0.919094
O O3 0.500000 0.113608 0.000000
O O4 0.383354 0.146965 0.071366
O O5 0.518252 0.172760 0.752123
O O6 0.650737 0.179801 0.719191
O O7 0.594343 0.000000 0.779088
O O8 0.928657 0.820273 0.664785
O O9 0.867006 0.812658 0.453998
O O10 0.000000 0.869701 0.500000
O O11 0.903773 0.000000 0.546877
O O12 0.612941 0.868279 0.350703
O O13 0.741757 0.798517 0.340353
O O14 0.705562 0.854617 0.530940
O O15 0.719456 0.000000 0.377975
#
# Coordination Sequence:
#
# PCOD9174194 Si02
#       6
#     8   8   8   8   8   8
#     4   8  15  28  49  75 102 128 154 197 253 295
#     4  10  18  31  53  78 101 127 164 207 246 287
#     4  10  19  32  49  69  97 131 165 200 240 290
#     4  10  20  32  49  71 102 133 159 202 252 297
#     4  10  18  32  53  77  98 125 165 205 247 293
#     4  10  20  33  47  74 100 132 167 199 246 295
#
# _framework density 16.884214
#
# number of rings (size 3 to 8) (size 9 to 14) (size 15 to 20)
#    0.000    2.333    1.667    3.500    0.000    0.000 
#    0.000    4.167    0.000    6.500    0.000    0.000 
#    0.000    0.000    0.000    0.000    0.000    0.000 
#
# Total GULP energy -133716.563925 kJ/mol
# GULP energy per Si atom -5571.523497 kJ/mol
# Density = 1.684579 g / cm^3
# Si number density = 16.884214 Si / 1000 Ang^3
#
#
#
# Elastic Constant Matrix: (Units=GPa)
#
#
# Indices 1 2 3 4 5 6 
#
# 1 37.9300 4.0032 15.2138 0.0000 -14.7838 0.0000
# 2 4.0032 73.2774 49.2922 0.0000 -9.2576 0.0000
# 3 15.2138 49.2922 99.1330 0.0000 -25.5258 0.0000
# 4 0.0000 0.0000 0.0000 22.2259 0.0000 -6.1072
# 5 -14.7838 -9.2576 -25.5258 0.0000 24.9618 0.0000
# 6 0.0000 0.0000 0.0000 -6.1072 0.0000 14.9582
#
#
#
# Elastic Compliance Matrix: (Units=1/GPa)
#
#
# Indices 1 2 3 4 5 6 
#
# 1 0.034334 0.001093 -0.000641 0.000000 0.020085 0.000000
# 2 0.001093 0.020814 -0.011352 0.000000 -0.003242 0.000000
# 3 -0.000641 -0.011352 0.019884 0.000000 0.015744 0.000000
# 4 0.000000 0.000000 0.000000 0.050678 0.000000 0.020691
# 5 0.020085 -0.003242 0.015744 0.000000 0.066854 0.000000
# 6 0.000000 0.000000 0.000000 0.020691 0.000000 0.075301
#
#
# Mechanical properties :
#
#
# Convention : Reuss Voigt Hill
#
# Bulk Modulus (GPa) = 18.78551 38.59543 28.69047
# Shear Modulus (GPa) = 16.26500 21.88459 19.07480
#
# Velocity S-wave (km/s) = 3.10712 3.60412 3.36481
# Velocity P-wave (km/s) = 4.90127 6.34256 5.66792
#
# Compressibility (1/GPa) = 0.05323250
#
# Stress axis : x y z
#
# Youngs Moduli (GPa) = 29.12528 48.04570 50.29144
#
# Poissons Ratio (x) = -0.05251 0.03224
# Poissons Ratio (y) = -0.03183 0.57089
# Poissons Ratio (z) = 0.01867 0.54540
#
# Static dielectric constant tensor:
#      x y z
#    x 1.580410 0.000000 0.002870 
#    y 0.000000 1.555110 0.000000 
#    z 0.002870 0.000000 1.587290 
# 
# From -- ./inp_files/153635.got.cif
#   From: 2010.05.17/outbox.cif.g08.bks.cpg/sg12_77_cif.got.tgz:153635.got - 2010.06.03 13:09:07.
