data_PCOD9174107
_publ_section_title
;
Structure prediction by ZEFSAII (Michael W. Deem and Ramdas Pophale) SiO2 
 PCOD9174107
Probable space group: C 2/M
;
_chemical_formula_sum "Si O2"
_cell_formula_units_Z 48
_cell_length_a 17.726207
_cell_length_b 13.759876
_cell_length_c 13.434231
_cell_angle_alpha 90.000000
_cell_angle_beta 139.003142
_cell_angle_gamma 90.000000
_cell_volume 2149.605015
_symmetry_space_group_name_H-M "C 2/M"
_symmetry_group_IT_number 12
_symmetry_cell_setting 'monoclinic'
loop_
_space_group_symop_operation_xyz
x,y,z
-x,y,-z
-x,-y,-z
x,-y,z
1/2+x,1/2+y,z
1/2-x,1/2+y,-z
1/2-x,1/2-y,-z
1/2+x,1/2-y,z
loop_
_atom_site_type_symbol
_atom_site_label
_atom_site_fract_x
_atom_site_fract_y
_atom_site_fract_z
Si Si1 0.926257 0.110635 0.547882
Si Si2 0.685775 0.272848 0.042186
Si Si3 0.797610 0.717556 0.656298
Si Si4 0.429827 0.204556 0.337106
Si Si5 0.546427 0.608317 0.188417
Si Si6 0.974936 0.387240 0.165096
O O1 0.812347 0.169062 0.402006
O O2 0.922995 0.103922 0.664350
O O3 0.033608 0.181631 0.634217
O O4 0.929681 0.000000 0.515070
O O5 0.794113 0.304906 0.214032
O O6 0.750000 0.250000 0.000000
O O7 0.584538 0.352456 0.942654
O O8 0.615944 0.173485 0.991480
O O9 0.750000 0.750000 0.500000
O O10 0.867077 0.810438 0.768703
O O11 0.896674 0.637424 0.741526
O O12 0.500000 0.163178 0.500000
O O13 0.466211 0.155008 0.269176
O O14 0.558634 0.500000 0.159279
O O15 0.949758 0.500000 0.138891
#
# Coordination Sequence:
#
# PCOD9174107 Si02
#       6
#     8   8   8   8   8   8
#     4  10  18  31  52  79 106 133 170 220 269 308
#     4   9  17  33  49  74 101 136 179 216 254 297
#     4   9  15  31  50  81 107 124 167 225 274 301
#     4  11  22  36  50  75 113 147 174 209 257 318
#     4   9  16  28  53  78  99 127 166 218 266 305
#     4  10  19  33  55  79 103 134 176 222 265 306
#
# _framework density 22.329682999999999
#
# number of rings (size 3 to 8) (size 9 to 14) (size 15 to 20)
#    0.000    2.333    6.667    0.500    0.000    4.667 
#    0.000    0.000    0.000    4.000    0.000    7.000 
#    0.000    0.000    0.000    0.000    0.000    0.000 
#
# Total GULP energy -133926.720570 kJ/mol
# GULP energy per Si atom -5580.280024 kJ/mol
# Density = 2.227886 g / cm^3
# Si number density = 22.329683 Si / 1000 Ang^3
#
#
#
# Elastic Constant Matrix: (Units=GPa)
#
#
# Indices 1 2 3 4 5 6 
#
# 1 75.8493 21.1485 33.5247 0.0000 23.0550 0.0000
# 2 21.1485 162.9175 34.6402 0.0000 30.6504 0.0000
# 3 33.5247 34.6402 135.6408 0.0000 37.5321 0.0000
# 4 0.0000 0.0000 0.0000 11.5256 0.0000 -0.1559
# 5 23.0550 30.6504 37.5321 0.0000 46.9572 0.0000
# 6 0.0000 0.0000 0.0000 -0.1559 0.0000 1.6141
#
#
#
# Elastic Compliance Matrix: (Units=1/GPa)
#
#
# Indices 1 2 3 4 5 6 
#
# 1 0.016072 -0.000527 -0.002246 0.000000 -0.005752 0.000000
# 2 -0.000527 0.007063 -0.000603 0.000000 -0.003870 0.000000
# 3 -0.002246 -0.000603 0.009845 0.000000 -0.006372 0.000000
# 4 0.000000 0.000000 0.000000 0.086877 0.000000 0.008393
# 5 -0.005752 -0.003870 -0.006372 0.000000 0.031739 0.000000
# 6 0.000000 0.000000 0.000000 0.008393 0.000000 0.620362
#
#
# Mechanical properties :
#
#
# Convention : Reuss Voigt Hill
#
# Bulk Modulus (GPa) = 38.12694 61.44825 49.78760
# Shear Modulus (GPa) = 6.34959 31.02564 18.68761
#
# Velocity S-wave (km/s) = 1.68812 3.73156 2.89605
# Velocity P-wave (km/s) = 4.57288 6.79297 5.79032
#
# Compressibility (1/GPa) = 0.02622817
#
# Stress axis : x y z
#
# Youngs Moduli (GPa) = 62.21988 141.59067 101.57628
#
# Poissons Ratio (x) = 0.07456 0.22817
# Poissons Ratio (y) = 0.03276 0.06123
# Poissons Ratio (z) = 0.13976 0.08535
#
# Static dielectric constant tensor:
#      x y z
#    x 1.908580 0.000000 -0.056560 
#    y 0.000000 1.800850 0.000000 
#    z -0.056560 0.000000 1.870320 
# 
# From -- ./inp_files/289647.got.cif
#   From: 2010.05.17/outbox.cif.g08.bks.cpg/sg12_145_cif.got.tgz:289647.got - 2010.06.03 13:09:07.
