data_PCOD9174028
_publ_section_title
;
Structure prediction by ZEFSAII (Michael W. Deem and Ramdas Pophale) SiO2 
 PCOD9174028
Probable space group: C 2/M
;
_chemical_formula_sum "Si O2"
_cell_formula_units_Z 64
_cell_length_a 16.668543
_cell_length_b 13.746592
_cell_length_c 15.029280
_cell_angle_alpha 90.000000
_cell_angle_beta 110.564627
_cell_angle_gamma 90.000000
_cell_volume 3224.296830
_symmetry_space_group_name_H-M "C 2/M"
_symmetry_group_IT_number 12
_symmetry_cell_setting 'monoclinic'
loop_
_space_group_symop_operation_xyz
x,y,z
-x,y,-z
-x,-y,-z
x,-y,z
1/2+x,1/2+y,z
1/2-x,1/2+y,-z
1/2-x,1/2-y,-z
1/2+x,1/2-y,z
loop_
_atom_site_type_symbol
_atom_site_label
_atom_site_fract_x
_atom_site_fract_y
_atom_site_fract_z
Si Si1 0.375014 0.768331 0.882601
Si Si2 0.402607 0.745099 0.192292
Si Si3 0.796173 0.608690 0.594998
Si Si4 0.899593 0.383265 0.456295
Si Si5 0.401862 0.611523 0.033807
Si Si6 0.212090 0.755187 0.697397
Si Si7 0.803161 0.387511 0.020270
Si Si8 0.036219 0.609637 0.221769
O O1 0.303111 0.736996 0.782090
O O2 0.446678 0.836083 0.864696
O O3 0.411373 0.674967 0.948188
O O4 0.330174 0.835746 0.939471
O O5 0.436028 0.666258 0.134743
O O6 0.348093 0.698114 0.249889
O O7 0.343539 0.821222 0.113612
O O8 0.478228 0.815666 0.254096
O O9 0.760400 0.500000 0.566450
O O10 0.845196 0.639880 0.524581
O O11 0.729597 0.679541 0.617219
O O12 0.872433 0.601477 0.696304
O O13 0.902011 0.500000 0.448842
O O14 0.842714 0.337167 0.355830
O O15 0.000000 0.351099 0.500000
O O16 0.428828 0.500000 0.038065
O O17 0.298797 0.613225 0.009305
O O18 0.831010 0.500000 0.033174
O O19 0.001799 0.500000 0.201097
#
# Coordination Sequence:
#
# PCOD9174028 Si02
#       8
#     8   8   8   8   8   8   8   8
#     4  10  19  36  51  80 108 143 190 228 269 320
#     4  11  20  34  50  82 109 143 189 228 271 324
#     4   9  20  38  57  83 112 141 178 219 269 328
#     4  10  21  37  58  86 116 141 170 217 277 332
#     4  10  20  34  51  71 106 150 190 231 270 312
#     4  11  20  33  58  81 109 143 183 219 264 320
#     4  10  18  31  52  75 110 144 183 233 276 317
#     4  10  21  35  56  81 112 142 175 230 284 325
#
# _framework density 19.849288999999999
#
# number of rings (size 3 to 8) (size 9 to 14) (size 15 to 20)
#    0.000    1.875    2.500    2.625    0.000    5.500 
#    0.000    4.375    0.000    1.125    0.000    0.000 
#    0.000    0.000    0.000    0.000    0.000    0.000 
#
# Total GULP energy -178494.775842 kJ/mol
# GULP energy per Si atom -5577.961745 kJ/mol
# Density = 1.980411 g / cm^3
# Si number density = 19.849289 Si / 1000 Ang^3
#
#
#
# Elastic Constant Matrix: (Units=GPa)
#
#
# Indices 1 2 3 4 5 6 
#
# 1 70.0272 25.4939 14.8134 0.0000 -12.4077 0.0000
# 2 25.4939 103.4684 28.7732 0.0000 -5.6909 0.0000
# 3 14.8134 28.7732 61.6045 0.0000 -15.2992 0.0000
# 4 0.0000 0.0000 0.0000 21.5468 0.0000 4.5191
# 5 -12.4077 -5.6909 -15.2992 0.0000 32.5577 0.0000
# 6 0.0000 0.0000 0.0000 4.5191 0.0000 22.2842
#
#
#
# Elastic Compliance Matrix: (Units=1/GPa)
#
#
# Indices 1 2 3 4 5 6 
#
# 1 0.016724 -0.003535 -0.001065 0.000000 0.005255 0.000000
# 2 -0.003535 0.011864 -0.005107 0.000000 -0.001673 0.000000
# 3 -0.001065 -0.005107 0.021002 0.000000 0.008571 0.000000
# 4 0.000000 0.000000 0.000000 0.048472 0.000000 -0.009830
# 5 0.005255 -0.001673 0.008571 0.000000 0.036452 0.000000
# 6 0.000000 0.000000 0.000000 -0.009830 0.000000 0.046868
#
#
# Mechanical properties :
#
#
# Convention : Reuss Voigt Hill
#
# Bulk Modulus (GPa) = 33.13922 41.47343 37.30633
# Shear Modulus (GPa) = 23.71290 26.34570 25.02930
#
# Velocity S-wave (km/s) = 3.46012 3.64715 3.55486
# Velocity P-wave (km/s) = 5.71794 6.21893 5.97369
#
# Compressibility (1/GPa) = 0.03017573
#
# Stress axis : x y z
#
# Youngs Moduli (GPa) = 59.79565 84.28907 47.61380
#
# Poissons Ratio (x) = 0.29799 0.05071
# Poissons Ratio (y) = 0.21140 0.24315
# Poissons Ratio (z) = 0.06369 0.43043
#
# Static dielectric constant tensor:
#      x y z
#    x 1.749140 0.000000 -0.016810 
#    y 0.000000 1.714890 0.000000 
#    z -0.016810 0.000000 1.732180 
# 
# From -- ./inp_files/224844.got.cif
#   From: 2010.05.17/outbox.cif.g08.bks.cpg/sg12_113_cif.got.tgz:224844.got - 2010.06.03 13:09:07.
