data_PCOD9174133
_publ_section_title
;
Structure prediction by ZEFSAII (Michael W. Deem and Ramdas Pophale) SiO2 
 PCOD9174133
Probable space group: C 2/M
;
_chemical_formula_sum "Si O2"
_cell_formula_units_Z 64
_cell_length_a 19.354304
_cell_length_b 22.845881
_cell_length_c 10.583411
_cell_angle_alpha 90.000000
_cell_angle_beta 145.129642
_cell_angle_gamma 90.000000
_cell_volume 2675.442663
_symmetry_space_group_name_H-M "C 2/M"
_symmetry_group_IT_number 12
_symmetry_cell_setting 'monoclinic'
loop_
_space_group_symop_operation_xyz
x,y,z
-x,y,-z
-x,-y,-z
x,-y,z
1/2+x,1/2+y,z
1/2-x,1/2+y,-z
1/2-x,1/2-y,-z
1/2+x,1/2-y,z
loop_
_atom_site_type_symbol
_atom_site_label
_atom_site_fract_x
_atom_site_fract_y
_atom_site_fract_z
Si Si1 0.428522 0.146142 0.011768
Si Si2 0.720857 0.364340 0.510452
Si Si3 0.944554 0.235151 0.717013
Si Si4 0.254499 0.065041 0.112027
Si Si5 0.629495 0.228099 0.650419
Si Si6 0.400897 0.071425 0.580769
Si Si7 0.347386 0.328134 0.127832
Si Si8 0.504599 0.566152 0.143075
O O1 0.477605 0.212528 0.105428
O O2 0.473923 0.105420 0.195924
O O3 0.500000 0.119071 0.000000
O O4 0.297377 0.148987 0.751482
O O5 0.652663 0.305495 0.358855
O O6 0.801372 0.397672 0.524899
O O7 0.610011 0.405842 0.381606
O O8 0.870296 0.269091 0.497731
O O9 0.037458 0.191221 0.783968
O O10 0.356357 0.081184 0.369141
O O11 0.283046 0.000000 0.109317
O O12 0.204734 0.107402 0.928385
O O13 0.129933 0.064941 0.006780
O O14 0.500000 0.204078 0.500000
O O15 0.637406 0.292947 0.721427
O O16 0.737964 0.196048 0.879126
O O17 0.405669 0.000000 0.606227
O O18 0.545597 0.500000 0.184354
O O19 0.500000 0.596819 0.000000
#
# Coordination Sequence:
#
# PCOD9174133 Si02
#       8
#     8   8   8   8   8   8   8   8
#     4  10  24  36  50  80 115 156 196 230 281 327
#     4  11  21  34  54  80 112 155 191 233 275 329
#     4  11  21  36  54  80 114 145 183 238 285 337
#     4  10  19  32  56  86 114 147 185 229 283 328
#     4   9  20  36  58  80 103 139 184 230 289 346
#     4  10  21  37  55  79 115 157 198 232 269 329
#     4  10  19  35  58  84 108 138 180 236 286 341
#     4  10  18  31  52  82 114 150 193 231 267 319
#
# _framework density 23.921275999999999
#
# number of rings (size 3 to 8) (size 9 to 14) (size 15 to 20)
#    0.000    1.875    2.500    1.875    0.000    6.250 
#    0.000    0.000    0.000    5.250    0.000   10.500 
#    0.000    0.000    0.000    0.000    0.000    0.000 
#
# Total GULP energy -178410.362786 kJ/mol
# GULP energy per Si atom -5575.323837 kJ/mol
# Density = 2.386683 g / cm^3
# Si number density = 23.921276 Si / 1000 Ang^3
#
#
#
# Elastic Constant Matrix: (Units=GPa)
#
#
# Indices 1 2 3 4 5 6 
#
# 1 31.5407 0.6919 -0.7563 0.0000 12.5799 0.0000
# 2 0.6919 109.2646 50.4550 0.0000 -0.9931 0.0000
# 3 -0.7563 50.4550 153.9015 0.0000 10.3864 0.0000
# 4 0.0000 0.0000 0.0000 22.8256 0.0000 -6.6146
# 5 12.5799 -0.9931 10.3864 0.0000 23.4763 0.0000
# 6 0.0000 0.0000 0.0000 -6.6146 0.0000 19.3327
#
#
#
# Elastic Compliance Matrix: (Units=1/GPa)
#
#
# Indices 1 2 3 4 5 6 
#
# 1 0.040971 -0.001507 0.002248 0.000000 -0.023013 0.000000
# 2 -0.001507 0.010940 -0.003793 0.000000 0.002948 0.000000
# 3 0.002248 -0.003793 0.008086 0.000000 -0.004943 0.000000
# 4 0.000000 0.000000 0.000000 0.048632 0.000000 0.016639
# 5 -0.023013 0.002948 -0.004943 0.000000 0.057239 0.000000
# 6 0.000000 0.000000 0.000000 0.016639 0.000000 0.057419
#
#
# Mechanical properties :
#
#
# Convention : Reuss Voigt Hill
#
# Bulk Modulus (GPa) = 18.55511 43.94314 31.24912
# Shear Modulus (GPa) = 20.21396 29.41466 24.81431
#
# Velocity S-wave (km/s) = 2.91008 3.51043 3.22426
# Velocity P-wave (km/s) = 4.36635 5.90259 5.19161
#
# Compressibility (1/GPa) = 0.05389352
#
# Stress axis : x y z
#
# Youngs Moduli (GPa) = 24.40775 91.40873 123.67469
#
# Poissons Ratio (x) = 0.13774 -0.27807
# Poissons Ratio (y) = 0.03678 0.46909
# Poissons Ratio (z) = -0.05488 0.34670
#
# Static dielectric constant tensor:
#      x y z
#    x 1.953000 0.000000 0.035700 
#    y 0.000000 2.056590 0.000000 
#    z 0.035700 0.000000 1.914220 
# 
# From -- ./inp_files/178437.got.cif
#   From: 2010.05.17/outbox.cif.g08.bks.cpg/sg12_90_cif.got.tgz:178437.got - 2010.06.03 13:09:07.
