data_PCOD9174575
_publ_section_title
;
Structure prediction by ZEFSAII (Michael W. Deem and Ramdas Pophale) SiO2 
 PCOD9174575
Probable space group: C 2/M
;
_chemical_formula_sum "Si O2"
_cell_formula_units_Z 56
_cell_length_a 21.989871
_cell_length_b 21.887060
_cell_length_c 8.360801
_cell_angle_alpha 90.000000
_cell_angle_beta 52.506398
_cell_angle_gamma 90.000000
_cell_volume 3192.727547
_symmetry_space_group_name_H-M "C 2/M"
_symmetry_group_IT_number 12
_symmetry_cell_setting 'monoclinic'
loop_
_space_group_symop_operation_xyz
x,y,z
-x,y,-z
-x,-y,-z
x,-y,z
1/2+x,1/2+y,z
1/2-x,1/2+y,-z
1/2-x,1/2-y,-z
1/2+x,1/2-y,z
loop_
_atom_site_type_symbol
_atom_site_label
_atom_site_fract_x
_atom_site_fract_y
_atom_site_fract_z
Si Si1 0.915712 0.269030 0.643273
Si Si2 0.374986 0.202340 0.376554
Si Si3 0.421696 0.659550 0.220941
Si Si4 0.703203 0.344575 0.147594
Si Si5 0.211595 0.823780 0.772244
Si Si6 0.575837 0.429200 0.485671
Si Si7 0.643956 0.188923 0.935923
O O1 0.909486 0.311609 0.496220
O O2 0.847205 0.218331 0.750871
O O3 0.000000 0.238864 0.500000
O O4 0.907057 0.305832 0.823141
O O5 0.394867 0.274583 0.331079
O O6 0.285445 0.187581 0.545707
O O7 0.394809 0.172793 0.172279
O O8 0.353226 0.637787 0.214452
O O9 0.434068 0.611897 0.341631
O O10 0.500000 0.668958 0.000000
O O11 0.646571 0.399360 0.278160
O O12 0.777272 0.344793 0.143034
O O13 0.730062 0.346483 0.920473
O O14 0.171909 0.758301 0.862227
O O15 0.500000 0.424867 0.500000
O O16 0.589316 0.500000 0.502624
#
# Coordination Sequence:
#
# PCOD9174575 Si02
#       7
#     8   8   8   8   8   8   8
#     4  11  21  29  45  72 105 137 166 203 245 308
#     4  11  20  31  48  72 102 133 172 202 250 310
#     4  11  22  32  49  72  96 138 176 212 255 307
#     4  11  18  34  52  69  94 134 177 207 262 310
#     4  10  18  32  49  71  96 127 168 205 253 311
#     4  11  23  37  51  69  96 133 182 236 271 293
#     4  10  19  31  48  72  99 132 171 204 248 313
#
# _framework density 17.539860999999998
#
# number of rings (size 3 to 8) (size 9 to 14) (size 15 to 20)
#    0.000    1.286    4.286    4.714    6.000    0.286 
#    0.000    0.714    0.000    0.000    0.000    0.000 
#    0.000    0.571    0.000    4.000    0.000    0.000 
#
# Total GULP energy -156063.526935 kJ/mol
# GULP energy per Si atom -5573.697391 kJ/mol
# Density = 1.749994 g / cm^3
# Si number density = 17.539861 Si / 1000 Ang^3
#
#
#
# Elastic Constant Matrix: (Units=GPa)
#
#
# Indices 1 2 3 4 5 6 
#
# 1 76.7723 26.3615 50.0943 0.0000 13.6334 0.0000
# 2 26.3615 40.0736 35.0762 0.0000 -1.2086 0.0000
# 3 50.0943 35.0762 121.1036 0.0000 16.7424 0.0000
# 4 0.0000 0.0000 0.0000 6.6593 0.0000 -0.0761
# 5 13.6334 -1.2086 16.7424 0.0000 38.4167 0.0000
# 6 0.0000 0.0000 0.0000 -0.0761 0.0000 17.0674
#
#
#
# Elastic Compliance Matrix: (Units=1/GPa)
#
#
# Indices 1 2 3 4 5 6 
#
# 1 0.020418 -0.009170 -0.005053 0.000000 -0.005332 0.000000
# 2 -0.009170 0.038723 -0.008556 0.000000 0.008201 0.000000
# 3 -0.005053 -0.008556 0.013424 0.000000 -0.004326 0.000000
# 4 0.000000 0.000000 0.000000 0.150173 0.000000 0.000670
# 5 -0.005332 0.008201 -0.004326 0.000000 0.030066 0.000000
# 6 0.000000 0.000000 0.000000 0.000670 0.000000 0.058594
#
#
# Mechanical properties :
#
#
# Convention : Reuss Voigt Hill
#
# Bulk Modulus (GPa) = 37.02744 51.22372 44.12558
# Shear Modulus (GPa) = 13.66274 20.85651 17.25962
#
# Velocity S-wave (km/s) = 2.79400 3.45206 3.14032
# Velocity P-wave (km/s) = 5.61826 6.71986 6.19360
#
# Compressibility (1/GPa) = 0.02700700
#
# Stress axis : x y z
#
# Youngs Moduli (GPa) = 48.97618 25.82450 74.49418
#
# Poissons Ratio (x) = 0.23680 0.37641
# Poissons Ratio (y) = 0.44910 0.63741
# Poissons Ratio (z) = 0.24747 0.22097
#
# Static dielectric constant tensor:
#      x y z
#    x 1.708950 0.000000 0.047630 
#    y 0.000000 1.553040 0.000000 
#    z 0.047630 0.000000 1.664780 
# 
# From -- ./inp_files/98791.got.cif
#   From: 2010.05.17/outbox.cif.g08.bks.cpg/sg12_50_cif.got.tgz:98791.got - 2010.06.03 13:09:07.
