data_PCOD9174714
_publ_section_title
;
Structure prediction by ZEFSAII (Michael W. Deem and Ramdas Pophale) SiO2 
 PCOD9174714
Probable space group: C 2/M
;
_chemical_formula_sum "Si O2"
_cell_formula_units_Z 48
_cell_length_a 23.730461
_cell_length_b 8.439278
_cell_length_c 9.933335
_cell_angle_alpha 90.000000
_cell_angle_beta 109.024262
_cell_angle_gamma 90.000000
_cell_volume 1880.672827
_symmetry_space_group_name_H-M "C 2/M"
_symmetry_group_IT_number 12
_symmetry_cell_setting 'monoclinic'
loop_
_space_group_symop_operation_xyz
x,y,z
-x,y,-z
-x,-y,-z
x,-y,z
1/2+x,1/2+y,z
1/2-x,1/2+y,-z
1/2-x,1/2-y,-z
1/2+x,1/2-y,z
loop_
_atom_site_type_symbol
_atom_site_label
_atom_site_fract_x
_atom_site_fract_y
_atom_site_fract_z
Si Si1 0.939627 0.817643 0.867750
Si Si2 0.003904 0.319440 0.679392
Si Si3 0.210382 0.684303 0.777930
Si Si4 0.878687 0.188694 0.088036
Si Si5 0.298858 0.812945 0.645183
Si Si6 0.884021 0.185721 0.506118
O O1 0.963992 0.687341 0.783935
O O2 0.929170 0.000000 0.806840
O O3 0.892961 0.763258 0.945643
O O4 0.000000 0.841393 0.000000
O O5 0.017017 0.500000 0.653120
O O6 0.952806 0.237263 0.546840
O O7 0.064937 0.234707 0.772410
O O8 0.224700 0.500000 0.794319
O O9 0.180838 0.741657 0.892895
O O10 0.267443 0.773472 0.761680
O O11 0.157442 0.716145 0.627541
O O12 0.874321 0.000000 0.084093
O O13 0.250000 0.750000 0.500000
O O14 0.357227 0.722654 0.635330
O O15 0.307595 0.000000 0.638518
O O16 0.876786 0.000000 0.470767
#
# Coordination Sequence:
#
# PCOD9174714 Si02
#       6
#     8   8   8   8   8   8
#     4   8  16  32  52  72  97 131 170 207 244 293
#     4  11  21  33  51  77 105 133 168 209 253 300
#     4  11  21  34  52  77 105 133 168 208 252 299
#     4  10  20  35  53  75 103 136 171 206 249 299
#     4  10  18  32  52  74  99 130 169 208 247 293
#     4  11  21  35  53  74 102 136 171 207 251 299
#
# _framework density 25.522780999999998
#
# number of rings (size 3 to 8) (size 9 to 14) (size 15 to 20)
#    0.000    1.833    0.000    9.500    0.000    4.333 
#    0.000    3.333    0.000    1.000    0.000    0.000 
#    0.000    0.000    0.000    0.000    0.000    0.000 
#
# Total GULP energy -134200.969330 kJ/mol
# GULP energy per Si atom -5591.707055 kJ/mol
# Density = 2.546469 g / cm^3
# Si number density = 25.522781 Si / 1000 Ang^3
#
#
#
# Elastic Constant Matrix: (Units=GPa)
#
#
# Indices 1 2 3 4 5 6 
#
# 1 167.8833 15.8509 4.6007 0.0000 -15.0289 0.0000
# 2 15.8509 119.7996 -17.9395 0.0000 -6.0154 0.0000
# 3 4.6007 -17.9395 55.5971 0.0000 -19.5435 0.0000
# 4 0.0000 0.0000 0.0000 11.9995 0.0000 -11.5373
# 5 -15.0289 -6.0154 -19.5435 0.0000 49.8346 0.0000
# 6 0.0000 0.0000 0.0000 -11.5373 0.0000 31.5429
#
#
#
# Elastic Compliance Matrix: (Units=1/GPa)
#
#
# Indices 1 2 3 4 5 6 
#
# 1 0.006185 -0.000755 -0.000153 0.000000 0.001714 0.000000
# 2 -0.000755 0.009144 0.003852 0.000000 0.002387 0.000000
# 3 -0.000153 0.003852 0.022490 0.000000 0.009239 0.000000
# 4 0.000000 0.000000 0.000000 0.128542 0.000000 0.047016
# 5 0.001714 0.002387 0.009239 0.000000 0.024494 0.000000
# 6 0.000000 0.000000 0.000000 0.047016 0.000000 0.048900
#
#
# Mechanical properties :
#
#
# Convention : Reuss Voigt Hill
#
# Bulk Modulus (GPa) = 22.88004 38.70047 30.79026
# Shear Modulus (GPa) = 20.12584 41.39327 30.75955
#
# Velocity S-wave (km/s) = 2.81115 4.03155 3.47534
# Velocity P-wave (km/s) = 4.41823 6.07184 5.30980
#
# Compressibility (1/GPa) = 0.04370622
#
# Stress axis : x y z
#
# Youngs Moduli (GPa) = 161.66900 109.36335 44.46499
#
# Poissons Ratio (x) = 0.08260 0.00680
# Poissons Ratio (y) = 0.12210 -0.17127
# Poissons Ratio (z) = 0.02473 -0.42125
#
# Static dielectric constant tensor:
#      x y z
#    x 2.223560 0.000000 0.423140 
#    y 0.000000 1.932420 0.000000 
#    z 0.423140 0.000000 3.145710 
# 
# From -- ./inp_files/172450.got.cif
#   From: 2010.05.17/outbox.cif.g08.bks.cpg/sg12_87_cif.got.tgz:172450.got - 2010.06.03 13:09:07.
