data_PCOD9174613
_publ_section_title
;
Structure prediction by ZEFSAII (Michael W. Deem and Ramdas Pophale) SiO2 
 PCOD9174613
Probable space group: C 2/M
;
_chemical_formula_sum "Si O2"
_cell_formula_units_Z 56
_cell_length_a 19.243665
_cell_length_b 23.079570
_cell_length_c 13.884531
_cell_angle_alpha 90.000000
_cell_angle_beta 27.229773
_cell_angle_gamma 90.000000
_cell_volume 2821.595823
_symmetry_space_group_name_H-M "C 2/M"
_symmetry_group_IT_number 12
_symmetry_cell_setting 'monoclinic'
loop_
_space_group_symop_operation_xyz
x,y,z
-x,y,-z
-x,-y,-z
x,-y,z
1/2+x,1/2+y,z
1/2-x,1/2+y,-z
1/2-x,1/2-y,-z
1/2+x,1/2-y,z
loop_
_atom_site_type_symbol
_atom_site_label
_atom_site_fract_x
_atom_site_fract_y
_atom_site_fract_z
Si Si1 0.346833 0.594189 0.142546
Si Si2 0.958182 0.064138 0.810754
Si Si3 0.631474 0.275736 0.958068
Si Si4 0.293184 0.931853 0.488613
Si Si5 0.928276 0.264262 0.497477
Si Si6 0.166047 0.174115 0.129582
Si Si7 0.509202 0.823531 0.777514
O O1 0.378982 0.662177 0.081502
O O2 0.222820 0.581365 0.376618
O O3 0.500000 0.568861 0.000000
O O4 0.338131 0.567436 0.047419
O O5 0.125208 0.077300 0.649331
O O6 0.908547 0.112510 0.798146
O O7 0.961354 0.000000 0.766502
O O8 0.763863 0.245102 0.735163
O O9 0.679685 0.294201 0.007895
O O10 0.494056 0.230508 0.142992
O O11 0.405639 0.883499 0.305874
O O12 0.332631 0.000000 0.427104
O O13 0.000000 0.299440 0.500000
O O14 0.044993 0.212451 0.335789
O O15 0.919792 0.299105 0.409130
O O16 0.330722 0.167386 0.973701
#
# Coordination Sequence:
#
# PCOD9174613 Si02
#       7
#     8   8   8   8   8   8   8
#     4   9  17  32  51  77 102 136 174 205 252 318
#     4   9  19  36  52  69 101 138 172 211 252 304
#     4  10  18  32  50  75 111 137 163 208 262 308
#     4  10  20  34  53  75 104 140 172 211 260 303
#     4  11  17  32  53  72 106 140 164 207 261 314
#     4  10  20  31  52  78  98 135 176 205 254 308
#     4  11  20  31  52  80 105 136 170 208 259 310
#
# _framework density 19.846923
#
# number of rings (size 3 to 8) (size 9 to 14) (size 15 to 20)
#    0.000    2.000    4.286    1.286    0.000    2.286 
#    2.571    2.857    0.000    4.286    0.000    2.000 
#    0.000    0.000    0.000    0.000    0.000    0.000 
#
# Total GULP energy -155992.915743 kJ/mol
# GULP energy per Si atom -5571.175562 kJ/mol
# Density = 1.980175 g / cm^3
# Si number density = 19.846923 Si / 1000 Ang^3
#
#
#
# Elastic Constant Matrix: (Units=GPa)
#
#
# Indices 1 2 3 4 5 6 
#
# 1 24.9242 16.3471 5.1173 0.0107 0.3276 0.0119
# 2 16.3471 145.1197 43.2352 -0.0008 -7.8356 0.0053
# 3 5.1173 43.2352 88.5879 -0.0224 7.6124 -0.0259
# 4 0.0107 -0.0008 -0.0224 -11.4466 0.0125 -38.1086
# 5 0.3276 -7.8356 7.6124 0.0125 13.6292 0.0159
# 6 0.0119 0.0053 -0.0259 -38.1086 0.0159 -3.1381
#
#
#
# Elastic Compliance Matrix: (Units=1/GPa)
#
#
# Indices 1 2 3 4 5 6 
#
# 1 0.043544 -0.005264 0.000424 0.000010 -0.004310 0.000008
# 2 -0.005264 0.009429 -0.005015 0.000006 0.008348 0.000002
# 3 0.000424 -0.005015 0.014664 -0.000015 -0.011084 -0.000008
# 4 0.000010 0.000006 -0.000015 0.002216 0.000041 -0.026906
# 5 -0.004310 0.008348 -0.011084 0.000041 0.084466 0.000021
# 6 0.000008 0.000002 -0.000008 -0.026906 0.000021 0.008082
#
#
# Mechanical properties :
#
#
# Convention : Reuss Voigt Hill
#
# Bulk Modulus (GPa) = 20.86534 43.11455 31.98995
# Shear Modulus (GPa) = 25.24175 12.73770 18.98973
#
# Velocity S-wave (km/s) = 3.57013 2.53612 3.09659
# Velocity P-wave (km/s) = 5.24694 5.50877 5.37945
#
# Compressibility (1/GPa) = 0.04792636
#
# Stress axis : x y z
#
# Youngs Moduli (GPa) = 22.96540 106.05923 68.19570
#
# Poissons Ratio (x) = 0.55831 -0.02893
# Poissons Ratio (y) = 0.12089 0.34200
# Poissons Ratio (z) = -0.00974 0.53188
#
# Static dielectric constant tensor:
#      x y z
#    x 1.746360 0.000000 -0.003390 
#    y 0.000000 1.739810 0.000000 
#    z -0.003390 0.000000 1.732040 
# 
# From -- ./inp_files/294051.got.cif
#   From: 2010.05.17/outbox.cif.g08.bks.cpg/sg12_148_cif.got.tgz:294051.got - 2010.06.03 13:09:07.
