data_PCOD9174251
_publ_section_title
;
Structure prediction by ZEFSAII (Michael W. Deem and Ramdas Pophale) SiO2 
 PCOD9174251
Probable space group: C 2/M
;
_chemical_formula_sum "Si O2"
_cell_formula_units_Z 40
_cell_length_a 9.999877
_cell_length_b 16.592125
_cell_length_c 22.441393
_cell_angle_alpha 90.000000
_cell_angle_beta 34.451117
_cell_angle_gamma 90.000000
_cell_volume 2106.371134
_symmetry_space_group_name_H-M "C 2/M"
_symmetry_group_IT_number 12
_symmetry_cell_setting 'monoclinic'
loop_
_space_group_symop_operation_xyz
x,y,z
-x,y,-z
-x,-y,-z
x,-y,z
1/2+x,1/2+y,z
1/2-x,1/2+y,-z
1/2-x,1/2-y,-z
1/2+x,1/2-y,z
loop_
_atom_site_type_symbol
_atom_site_label
_atom_site_fract_x
_atom_site_fract_y
_atom_site_fract_z
Si Si1 0.138615 0.407133 0.763086
Si Si2 0.211145 0.590993 0.875168
Si Si3 0.109248 0.094252 0.521097
Si Si4 0.509959 0.792681 0.610445
Si Si5 0.515243 0.747562 0.743922
O O1 0.085735 0.500000 0.762291
O O2 0.116145 0.405528 0.842267
O O3 0.414119 0.390220 0.643924
O O4 0.996595 0.333344 0.785382
O O5 0.320829 0.500000 0.841193
O O6 0.372586 0.670742 0.821547
O O7 0.000000 0.595583 0.000000
O O8 0.380492 0.118582 0.428897
O O9 0.000000 0.130064 0.500000
O O10 0.108982 0.000000 0.514503
O O11 0.750000 0.750000 0.500000
O O12 0.450396 0.765404 0.699331
O O13 0.288886 0.778755 0.649682
#
# Coordination Sequence:
#
# PCOD9174251 Si02
#       5
#     8   8   8   8   8
#     4  10  20  37  60  88 121 159 201 241 298 368
#     4  10  23  44  65  85 117 161 205 257 321 369
#     4  10  18  31  53  81 118 160 196 235 294 359
#     4  12  21  34  54  89 127 161 199 242 299 357
#     4  12  22  37  62  91 118 163 203 255 298 363
#
# _framework density 18.990005
#
# number of rings (size 3 to 8) (size 9 to 14) (size 15 to 20)
#    0.000    1.200    6.000    0.600    0.000    1.600 
#    0.000    0.000    0.000    6.600    0.000    0.000 
#    0.000    0.000    0.000    0.000    0.000    0.000 
#
# Total GULP energy -111374.059636 kJ/mol
# GULP energy per Si atom -5568.702982 kJ/mol
# Density = 1.894678 g / cm^3
# Si number density = 18.990005 Si / 1000 Ang^3
#
#
#
# Elastic Constant Matrix: (Units=GPa)
#
#
# Indices 1 2 3 4 5 6 
#
# 1 24.0562 17.9957 5.0732 0.0013 11.2655 -0.0007
# 2 17.9957 160.2027 43.3718 -0.0072 0.6385 0.0017
# 3 5.0732 43.3718 75.5617 0.0000 23.5340 -0.0032
# 4 0.0013 -0.0072 0.0000 36.2428 -0.0019 -3.9150
# 5 11.2655 0.6385 23.5340 -0.0019 24.6324 0.0012
# 6 -0.0007 0.0017 -0.0032 -3.9150 0.0012 29.1518
#
#
#
# Elastic Compliance Matrix: (Units=1/GPa)
#
#
# Indices 1 2 3 4 5 6 
#
# 1 0.069719 -0.012358 0.017431 -0.000007 -0.048219 0.000005
# 2 -0.012358 0.010144 -0.009497 0.000003 0.014463 -0.000002
# 3 0.017431 -0.009497 0.028361 -0.000004 -0.034822 0.000005
# 4 -0.000007 0.000003 -0.000004 0.027998 0.000009 0.003760
# 5 -0.048219 0.014463 -0.034822 0.000009 0.095544 -0.000009
# 6 0.000005 -0.000002 0.000005 0.003760 -0.000009 0.034808
#
#
# Mechanical properties :
#
#
# Convention : Reuss Voigt Hill
#
# Bulk Modulus (GPa) = 10.06301 43.63355 26.84828
# Shear Modulus (GPa) = 16.20489 30.89740 23.55115
#
# Velocity S-wave (km/s) = 2.92436 4.03803 3.52545
# Velocity P-wave (km/s) = 4.08817 6.69088 5.54441
#
# Compressibility (1/GPa) = 0.09937388
#
# Stress axis : x y z
#
# Youngs Moduli (GPa) = 14.34322 98.58125 35.26000
#
# Poissons Ratio (x) = 1.21832 -0.61461
# Poissons Ratio (y) = 0.17726 0.33488
# Poissons Ratio (z) = -0.25001 0.93626
#
# Static dielectric constant tensor:
#      x y z
#    x 1.778350 -0.000010 0.007650 
#    y -0.000010 1.950370 0.000000 
#    z 0.007650 0.000000 1.650560 
# 
# From -- ./inp_files/195304.got.cif
#   From: 2010.05.17/outbox.cif.g08.bks.cpg/sg12_98_cif.got.tgz:195304.got - 2010.06.03 13:09:07.
