data_PCOD9174668
_publ_section_title
;
Structure prediction by ZEFSAII (Michael W. Deem and Ramdas Pophale) SiO2 
 PCOD9174668
Probable space group: C 2/M
;
_chemical_formula_sum "Si O2"
_cell_formula_units_Z 52
_cell_length_a 8.538084
_cell_length_b 25.440835
_cell_length_c 9.155433
_cell_angle_alpha 90.000000
_cell_angle_beta 77.212342
_cell_angle_gamma 90.000000
_cell_volume 1939.380633
_symmetry_space_group_name_H-M "C 2/M"
_symmetry_group_IT_number 12
_symmetry_cell_setting 'monoclinic'
loop_
_space_group_symop_operation_xyz
x,y,z
-x,y,-z
-x,-y,-z
x,-y,z
1/2+x,1/2+y,z
1/2-x,1/2+y,-z
1/2-x,1/2-y,-z
1/2+x,1/2-y,z
loop_
_atom_site_type_symbol
_atom_site_label
_atom_site_fract_x
_atom_site_fract_y
_atom_site_fract_z
Si Si1 0.341798 0.615770 0.932762
Si Si2 0.545031 0.000000 0.318244
Si Si3 0.463085 0.888620 0.680658
Si Si4 0.651428 0.500000 0.078914
Si Si5 0.615922 0.500000 0.633752
Si Si6 0.658025 0.803885 0.817193
Si Si7 0.382095 0.615120 0.348625
Si Si8 0.007903 0.773622 0.651354
O O1 0.269785 0.556990 0.963704
O O2 0.212936 0.663311 0.950140
O O3 0.441851 0.612037 0.759319
O O4 0.500000 0.625048 0.000000
O O5 0.500000 0.000000 0.500000
O O6 0.484510 0.054464 0.270810
O O7 0.738654 0.000000 0.278957
O O8 0.500000 0.886787 0.500000
O O9 0.560829 0.845544 0.743267
O O10 0.270056 0.884092 0.729793
O O11 0.557779 0.500000 0.254350
O O12 0.500000 0.500000 0.000000
O O13 0.640039 0.558995 0.562457
O O14 0.559992 0.751176 0.796789
O O15 0.826244 0.788183 0.715671
O O16 0.385484 0.674555 0.407198
O O17 0.000000 0.741134 0.500000
#
# Coordination Sequence:
#
# PCOD9174668 Si02
#       8
#     8   4   8   4   4   8   8   8
#     4   9  19  36  56  80 106 136 175 219 264 312
#     4   8  16  27  45  71 106 140 168 201 253 309
#     4  10  18  32  51  77 107 139 172 212 257 313
#     4   8  14  29  55  79 102 130 166 217 269 307
#     4   8  14  28  49  74 101 136 172 208 255 312
#     4  11  22  34  53  75 102 138 179 218 262 310
#     4   9  18  33  54  76 105 140 175 213 262 313
#     4  11  21  35  52  77 106 139 177 220 261 309
#
# _framework density 26.812684000000001
#
# number of rings (size 3 to 8) (size 9 to 14) (size 15 to 20)
#    0.000    2.462    0.000    2.769    0.000    0.615 
#    0.000    5.000    0.000    0.000    0.000   10.769 
#    0.000    0.000    0.000    0.000    0.000    0.077 
#
# Total GULP energy -144812.827476 kJ/mol
# GULP energy per Si atom -5569.724134 kJ/mol
# Density = 2.675166 g / cm^3
# Si number density = 26.812684 Si / 1000 Ang^3
#
#
#
# Elastic Constant Matrix: (Units=GPa)
#
#
# Indices 1 2 3 4 5 6 
#
# 1 99.4947 33.8555 24.9315 0.0000 7.3152 0.0000
# 2 33.8555 135.6519 30.3299 0.0000 18.1897 0.0000
# 3 24.9315 30.3299 59.3061 0.0000 15.3901 0.0000
# 4 0.0000 0.0000 0.0000 -420.8379 0.0000 -509.9756
# 5 7.3152 18.1897 15.3901 0.0000 42.5309 0.0000
# 6 0.0000 0.0000 0.0000 -509.9756 0.0000 -593.4549
#
#
#
# Elastic Compliance Matrix: (Units=1/GPa)
#
#
# Indices 1 2 3 4 5 6 
#
# 1 0.011726 -0.002086 -0.003941 0.000000 0.000301 0.000000
# 2 -0.002086 0.008891 -0.003064 0.000000 -0.002335 0.000000
# 3 -0.003941 -0.003064 0.021597 0.000000 -0.005827 0.000000
# 4 0.000000 0.000000 0.000000 0.057468 0.000000 -0.049384
# 5 0.000301 -0.002335 -0.005827 0.000000 0.026568 0.000000
# 6 0.000000 0.000000 0.000000 -0.049384 0.000000 0.040752
#
#
# Mechanical properties :
#
#
# Convention : Reuss Voigt Hill
#
# Bulk Modulus (GPa) = 41.61029 52.52071 47.06550
# Shear Modulus (GPa) = 25.88076 -180.66333 -77.39128
#
# Velocity S-wave (km/s) = 3.11021 -8.21743 -5.37832
# Velocity P-wave (km/s) = 5.33389 8.39072 4.58006
#
# Compressibility (1/GPa) = 0.02403252
#
# Stress axis : x y z
#
# Youngs Moduli (GPa) = 85.28137 112.47946 46.30176
#
# Poissons Ratio (x) = 0.23461 0.18247
# Poissons Ratio (y) = 0.17788 0.14187
# Poissons Ratio (z) = 0.33609 0.34464
#
# Static dielectric constant tensor:
#      x y z
#    x 2.031810 0.000000 -0.024230 
#    y 0.000000 2.232950 0.000000 
#    z -0.024230 0.000000 2.332160 
# 
# From -- ./inp_files/123809.got.cif
#   From: 2010.05.17/outbox.cif.g08.bks.cpg/sg12_62_cif.got.tgz:123809.got - 2010.06.03 13:09:07.
