data_PCOD9174082
_publ_section_title
;
Structure prediction by ZEFSAII (Michael W. Deem and Ramdas Pophale) SiO2 
 PCOD9174082
Probable space group: C 2/M
;
_chemical_formula_sum "Si O2"
_cell_formula_units_Z 48
_cell_length_a 25.526705
_cell_length_b 7.573410
_cell_length_c 15.271665
_cell_angle_alpha 90.000000
_cell_angle_beta 133.771412
_cell_angle_gamma 90.000000
_cell_volume 2131.931575
_symmetry_space_group_name_H-M "C 2/M"
_symmetry_group_IT_number 12
_symmetry_cell_setting 'monoclinic'
loop_
_space_group_symop_operation_xyz
x,y,z
-x,y,-z
-x,-y,-z
x,-y,z
1/2+x,1/2+y,z
1/2-x,1/2+y,-z
1/2-x,1/2-y,-z
1/2+x,1/2-y,z
loop_
_atom_site_type_symbol
_atom_site_label
_atom_site_fract_x
_atom_site_fract_y
_atom_site_fract_z
Si Si1 0.724577 0.287924 0.371429
Si Si2 0.557536 0.795779 0.643123
Si Si3 0.059137 0.215696 0.143806
Si Si4 0.699690 0.784051 0.710605
Si Si5 0.802936 0.211457 0.980353
Si Si6 0.536824 0.294575 0.809916
O O1 0.721799 0.500000 0.361527
O O2 0.750000 0.250000 0.500000
O O3 0.643765 0.225980 0.247325
O O4 0.784347 0.225453 0.369503
O O5 0.500000 0.789942 0.500000
O O6 0.630616 0.718325 0.685757
O O7 0.524845 0.714427 0.692741
O O8 0.572494 0.000000 0.683151
O O9 0.023462 0.275821 0.194515
O O10 0.062802 0.000000 0.141606
O O11 0.000000 0.268449 0.000000
O O12 0.693066 0.000000 0.701195
O O13 0.767851 0.733227 0.848914
O O14 0.883243 0.284790 0.084636
O O15 0.807929 0.000000 0.983549
O O16 0.750000 0.250000 0.000000
O O17 0.541591 0.500000 0.840136
#
# Coordination Sequence:
#
# PCOD9174082 Si02
#       6
#     8   8   8   8   8   8
#     4  10  21  37  58  82 108 142 183 228 272 319
#     4  10  21  35  52  75 104 144 181 209 255 321
#     4   9  18  35  58  82 108 143 186 225 266 322
#     4   9  18  34  54  75 103 138 176 213 256 316
#     4  10  18  31  52  78 105 134 170 212 260 313
#     4  10  20  33  54  83 108 133 172 223 271 312
#
# _framework density 22.514792
#
# number of rings (size 3 to 8) (size 9 to 14) (size 15 to 20)
#    0.000    2.333    1.667    1.000    2.333    4.333 
#    0.000    1.667    0.000    4.000    0.000    0.000 
#    0.000    0.000    0.000    0.000    0.000    0.000 
#
# Total GULP energy -133854.760003 kJ/mol
# GULP energy per Si atom -5577.281667 kJ/mol
# Density = 2.246355 g / cm^3
# Si number density = 22.514792 Si / 1000 Ang^3
#
#
#
# Elastic Constant Matrix: (Units=GPa)
#
#
# Indices 1 2 3 4 5 6 
#
# 1 116.9994 1.9992 33.4844 0.0000 -22.1371 0.0000
# 2 1.9992 43.7556 4.9386 0.0000 6.5290 0.0000
# 3 33.4844 4.9386 82.9234 0.0000 -22.1260 0.0000
# 4 0.0000 0.0000 0.0000 -39.5581 0.0000 12.0735
# 5 -22.1371 6.5290 -22.1260 0.0000 38.8517 0.0000
# 6 0.0000 0.0000 0.0000 12.0735 0.0000 5.7179
#
#
#
# Elastic Compliance Matrix: (Units=1/GPa)
#
#
# Indices 1 2 3 4 5 6 
#
# 1 0.010209 -0.000773 -0.002936 0.000000 0.004275 0.000000
# 2 -0.000773 0.024101 -0.002737 0.000000 -0.006050 0.000000
# 3 -0.002936 -0.002737 0.015429 0.000000 0.007574 0.000000
# 4 0.000000 0.000000 0.000000 -0.015372 0.000000 0.032459
# 5 0.004275 -0.006050 0.007574 0.000000 0.033505 0.000000
# 6 0.000000 0.000000 0.000000 0.032459 0.000000 0.106352
#
#
# Mechanical properties :
#
#
# Convention : Reuss Voigt Hill
#
# Bulk Modulus (GPa) = 27.13940 36.05810 31.59875
# Shear Modulus (GPa) = 25.07550 14.55269 19.81410
#
# Velocity S-wave (km/s) = 3.34089 2.54512 2.96978
# Velocity P-wave (km/s) = 5.19252 4.96859 5.08179
#
# Compressibility (1/GPa) = 0.03684680
#
# Stress axis : x y z
#
# Youngs Moduli (GPa) = 97.94951 41.49175 64.81418
#
# Poissons Ratio (x) = 0.03207 0.19028
# Poissons Ratio (y) = 0.07572 0.17742
# Poissons Ratio (z) = 0.28756 0.11358
#
# Static dielectric constant tensor:
#      x y z
#    x 1.885230 0.000000 -0.003500 
#    y 0.000000 1.967210 0.000000 
#    z -0.003500 0.000000 1.847810 
# 
# From -- ./inp_files/164004.got.cif
#   From: 2010.05.17/outbox.cif.g08.bks.cpg/sg12_83_cif.got.tgz:164004.got - 2010.06.03 13:09:07.
