data_PCOD9174150
_publ_section_title
;
Structure prediction by ZEFSAII (Michael W. Deem and Ramdas Pophale) SiO2 
 PCOD9174150
Probable space group: C 2/M
;
_chemical_formula_sum "Si O2"
_cell_formula_units_Z 56
_cell_length_a 17.414330
_cell_length_b 14.127981
_cell_length_c 22.164420
_cell_angle_alpha 90.000000
_cell_angle_beta 37.434246
_cell_angle_gamma 90.000000
_cell_volume 3314.668205
_symmetry_space_group_name_H-M "C 2/M"
_symmetry_group_IT_number 12
_symmetry_cell_setting 'monoclinic'
loop_
_space_group_symop_operation_xyz
x,y,z
-x,y,-z
-x,-y,-z
x,-y,z
1/2+x,1/2+y,z
1/2-x,1/2+y,-z
1/2-x,1/2-y,-z
1/2+x,1/2-y,z
loop_
_atom_site_type_symbol
_atom_site_label
_atom_site_fract_x
_atom_site_fract_y
_atom_site_fract_z
Si Si1 0.091559 0.707502 0.994511
Si Si2 0.296499 0.885881 0.650471
Si Si3 0.675865 0.608483 0.091723
Si Si4 0.044630 0.385726 0.566870
Si Si5 0.552528 0.739040 0.794219
Si Si6 0.464314 0.111109 0.293622
Si Si7 0.235262 0.106375 0.912124
O O1 0.011172 0.721321 0.105536
O O2 0.211143 0.643299 0.936602
O O3 0.149343 0.810005 0.939986
O O4 0.000000 0.670466 0.000000
O O5 0.405000 0.858295 0.630803
O O6 0.356080 0.862929 0.547554
O O7 0.168835 0.828379 0.737920
O O8 0.277394 0.000000 0.665965
O O9 0.642247 0.500000 0.124444
O O10 0.555338 0.676106 0.170968
O O11 0.723019 0.615080 0.992584
O O12 0.040775 0.500000 0.572008
O O13 0.074827 0.353757 0.615464
O O14 0.587450 0.823731 0.727356
O O15 0.617651 0.116398 0.195682
O O16 0.431412 0.000000 0.306567
O O17 0.194402 0.000000 0.920313
#
# Coordination Sequence:
#
# PCOD9174150 Si02
#       7
#     8   8   8   8   8   8   8
#     4  11  22  33  46  70 100 129 164 203 242 290
#     4   9  18  33  51  77 105 127 152 194 247 298
#     4  10  19  35  50  66  95 132 166 200 240 284
#     4   8  17  33  52  74 103 128 154 194 247 298
#     4  11  20  32  52  74  97 127 168 204 239 283
#     4  10  18  31  53  72  94 130 165 199 239 284
#     4   9  17  32  50  67  93 124 157 201 243 282
#
# _framework density 16.894601999999999
#
# number of rings (size 3 to 8) (size 9 to 14) (size 15 to 20)
#    0.000    2.286    2.857    2.143    2.000    1.714 
#    0.000    0.000    0.000    0.000    0.000    2.000 
#    0.000    0.000    0.000    0.000    0.000    0.000 
#
# Total GULP energy -156138.445123 kJ/mol
# GULP energy per Si atom -5576.373040 kJ/mol
# Density = 1.685615 g / cm^3
# Si number density = 16.894602 Si / 1000 Ang^3
#
#
#
# Elastic Constant Matrix: (Units=GPa)
#
#
# Indices 1 2 3 4 5 6 
#
# 1 50.0070 17.9391 2.1088 0.0000 -4.8094 0.0000
# 2 17.9391 47.3021 9.3424 0.0000 6.0211 0.0000
# 3 2.1088 9.3424 8.7995 -0.0001 -2.9143 0.0000
# 4 0.0000 0.0000 -0.0001 13.8121 0.0000 -9.0135
# 5 -4.8094 6.0211 -2.9143 0.0000 19.1422 0.0000
# 6 0.0000 0.0000 0.0000 -9.0135 0.0000 20.3056
#
#
#
# Elastic Compliance Matrix: (Units=1/GPa)
#
#
# Indices 1 2 3 4 5 6 
#
# 1 0.025669 -0.013895 0.012831 0.000000 0.012773 0.000000
# 2 -0.013895 0.037998 -0.044364 0.000000 -0.022197 0.000000
# 3 0.012831 -0.044364 0.172033 0.000001 0.043369 0.000000
# 4 0.000000 0.000000 0.000001 0.101925 0.000000 0.045244
# 5 0.012773 -0.022197 0.043369 0.000000 0.069035 0.000000
# 6 0.000000 0.000000 0.000000 0.045244 0.000000 0.069331
#
#
# Mechanical properties :
#
#
# Convention : Reuss Voigt Hill
#
# Bulk Modulus (GPa) = 6.90394 18.32100 12.61247
# Shear Modulus (GPa) = 8.12839 15.76653 11.94746
#
# Velocity S-wave (km/s) = 2.19583 3.05819 2.66216
# Velocity P-wave (km/s) = 3.24411 4.83093 4.11474
#
# Compressibility (1/GPa) = 0.14484473
#
# Stress axis : x y z
#
# Youngs Moduli (GPa) = 38.95717 26.31726 5.81283
#
# Poissons Ratio (x) = 0.36568 -0.07459
# Poissons Ratio (y) = 0.54131 0.25788
# Poissons Ratio (z) = -0.49987 1.16754
#
# Static dielectric constant tensor:
#      x y z
#    x 1.565040 0.000000 0.020850 
#    y 0.000000 1.575840 0.000000 
#    z 0.020850 0.000000 1.572200 
# 
# From -- ./inp_files/310795.got.cif
#   From: 2010.05.17/outbox.cif.g08.bks.cpg/sg12_156_cif.got.tgz:310795.got - 2010.06.03 13:09:07.
