data_PCOD9174514
_publ_section_title
;
Structure prediction by ZEFSAII (Michael W. Deem and Ramdas Pophale) SiO2 
 PCOD9174514
Probable space group: C 2/M
;
_chemical_formula_sum "Si O2"
_cell_formula_units_Z 64
_cell_length_a 12.120551
_cell_length_b 31.100512
_cell_length_c 14.645855
_cell_angle_alpha 90.000000
_cell_angle_beta 146.079787
_cell_angle_gamma 90.000000
_cell_volume 3080.834147
_symmetry_space_group_name_H-M "C 2/M"
_symmetry_group_IT_number 12
_symmetry_cell_setting 'monoclinic'
loop_
_space_group_symop_operation_xyz
x,y,z
-x,y,-z
-x,-y,-z
x,-y,z
1/2+x,1/2+y,z
1/2-x,1/2+y,-z
1/2-x,1/2-y,-z
1/2+x,1/2-y,z
loop_
_atom_site_type_symbol
_atom_site_label
_atom_site_fract_x
_atom_site_fract_y
_atom_site_fract_z
Si Si1 0.802203 0.651488 0.230266
Si Si2 0.507783 0.764912 0.608609
Si Si3 0.227867 0.550990 0.261864
Si Si4 0.583593 0.410218 0.425716
Si Si5 0.066351 0.128386 0.906158
Si Si6 0.393702 0.681725 0.620463
Si Si7 0.167716 0.549336 0.909517
Si Si8 0.051831 0.573216 0.432760
O O1 0.817361 0.700734 0.267104
O O2 0.627048 0.628128 0.163620
O O3 0.991948 0.623608 0.386917
O O4 0.746479 0.649747 0.086136
O O5 0.500000 0.749640 0.500000
O O6 0.523027 0.722409 0.678604
O O7 0.314919 0.794098 0.502082
O O8 0.253595 0.500000 0.263554
O O9 0.323805 0.565150 0.424256
O O10 0.352503 0.577498 0.272633
O O11 0.998056 0.558786 0.126754
O O12 0.620790 0.358782 0.459121
O O13 0.716240 0.427710 0.432751
O O14 0.998655 0.156948 0.775406
O O15 0.150617 0.081011 0.951325
O O16 0.224848 0.500000 0.957056
O O17 0.070517 0.555063 0.739678
O O18 0.000000 0.557593 0.500000
#
# Coordination Sequence:
#
# PCOD9174514 Si02
#       8
#     8   8   8   8   8   8   8   8
#     4  10  19  37  61  84 122 176 197 242 311 373
#     4  11  22  39  62  90 127 155 198 257 308 367
#     4   9  19  37  61  86 117 159 205 256 315 366
#     4  10  18  32  59  88 120 156 204 254 308 368
#     4  10  21  38  61  88 122 167 211 239 307 382
#     4  11  23  36  60  96 121 156 206 252 306 360
#     4   9  20  39  61  86 120 167 210 257 311 367
#     4  10  18  31  57  91 124 162 209 256 314 367
#
# _framework density 20.773595
#
# number of rings (size 3 to 8) (size 9 to 14) (size 15 to 20)
#    0.000    2.000    2.500    1.875    1.750    1.250 
#    0.000    6.875    5.500    3.000    0.000    0.000 
#    0.000    0.000    0.000    0.000    0.000    0.000 
#
# Total GULP energy -178278.510692 kJ/mol
# GULP energy per Si atom -5571.203459 kJ/mol
# Density = 2.072631 g / cm^3
# Si number density = 20.773595 Si / 1000 Ang^3
#
#
#
# Elastic Constant Matrix: (Units=GPa)
#
#
# Indices 1 2 3 4 5 6 
#
# 1 117.6849 57.2732 25.8036 0.0000 18.7029 0.0000
# 2 57.2732 119.3618 28.6462 0.0000 22.8399 0.0000
# 3 25.8036 28.6462 62.2561 0.0000 2.7225 0.0000
# 4 0.0000 0.0000 0.0000 17.0003 0.0000 30.6118
# 5 18.7029 22.8399 2.7225 0.0000 19.8620 0.0000
# 6 0.0000 0.0000 0.0000 30.6118 0.0000 28.6742
#
#
#
# Elastic Compliance Matrix: (Units=1/GPa)
#
#
# Indices 1 2 3 4 5 6 
#
# 1 0.012042 -0.003818 -0.002948 0.000000 -0.006544 0.000000
# 2 -0.003818 0.013321 -0.004058 0.000000 -0.011166 0.000000
# 3 -0.002948 -0.004058 0.018940 0.000000 0.004847 0.000000
# 4 0.000000 0.000000 0.000000 -0.063775 0.000000 0.068085
# 5 -0.006544 -0.011166 0.004847 0.000000 0.068685 0.000000
# 6 0.000000 0.000000 0.000000 0.068085 0.000000 -0.037811
#
#
# Mechanical properties :
#
#
# Convention : Reuss Voigt Hill
#
# Bulk Modulus (GPa) = 44.14385 58.08321 51.11353
# Shear Modulus (GPa) = 123.14475 25.61263 74.37869
#
# Velocity S-wave (km/s) = 7.70767 3.51514 5.99017
# Velocity P-wave (km/s) = 10.02532 6.67051 8.51477
#
# Compressibility (1/GPa) = 0.02265321
#
# Stress axis : x y z
#
# Youngs Moduli (GPa) = 83.04331 75.07150 52.79830
#
# Poissons Ratio (x) = 0.28665 0.15565
# Poissons Ratio (y) = 0.31708 0.21428
# Poissons Ratio (z) = 0.24481 0.30467
#
# Static dielectric constant tensor:
#      x y z
#    x 1.823270 0.000000 -0.011540 
#    y 0.000000 1.716590 0.000000 
#    z -0.011540 0.000000 1.799730 
# 
# From -- ./inp_files/209879.got.cif
#   From: 2010.05.17/outbox.cif.g08.bks.cpg/sg12_105_cif.got.tgz:209879.got - 2010.06.03 13:09:07.
