data_PCOD9174530
_publ_section_title
;
Structure prediction by ZEFSAII (Michael W. Deem and Ramdas Pophale) SiO2 
 PCOD9174530
Probable space group: C 2/M
;
_chemical_formula_sum "Si O2"
_cell_formula_units_Z 40
_cell_length_a 26.803001
_cell_length_b 17.775594
_cell_length_c 9.226196
_cell_angle_alpha 90.000000
_cell_angle_beta 149.554616
_cell_angle_gamma 90.000000
_cell_volume 2227.386212
_symmetry_space_group_name_H-M "C 2/M"
_symmetry_group_IT_number 12
_symmetry_cell_setting 'monoclinic'
loop_
_space_group_symop_operation_xyz
x,y,z
-x,y,-z
-x,-y,-z
x,-y,z
1/2+x,1/2+y,z
1/2-x,1/2+y,-z
1/2-x,1/2-y,-z
1/2+x,1/2-y,z
loop_
_atom_site_type_symbol
_atom_site_label
_atom_site_fract_x
_atom_site_fract_y
_atom_site_fract_z
Si Si1 0.894831 0.223102 0.935040
Si Si2 0.898142 0.723611 0.435281
Si Si3 0.892287 0.866716 0.209675
Si Si4 0.215720 0.414534 0.964144
Si Si5 0.716124 0.309243 0.618960
O O1 0.812313 0.284065 0.772518
O O2 0.871496 0.191678 0.717409
O O3 0.882218 0.154781 0.016967
O O4 0.999160 0.263113 0.225028
O O5 0.897717 0.786522 0.308681
O O6 0.870327 0.643352 0.299050
O O7 0.812978 0.746573 0.334785
O O8 0.000000 0.903027 0.500000
O O9 0.802276 0.908844 0.060063
O O10 0.182698 0.500000 0.895726
O O11 0.262299 0.382391 0.230384
#
# Coordination Sequence:
#
# PCOD9174530 Si02
#       5
#     8   8   8   8   8
#     4  10  18  31  60  81 101 133 190 242 264 297
#     4  10  18  34  55  82 107 138 187 227 269 316
#     4   9  17  33  58  79 100 139 197 237 255 309
#     4  11  21  35  53  80 121 150 170 217 286 342
#     4  10  19  34  54  82 105 141 192 231 265 310
#
# _framework density 17.958268
#
# number of rings (size 3 to 8) (size 9 to 14) (size 15 to 20)
#    0.000    2.000    4.000    1.800    0.000    0.400 
#    0.000    3.000    0.000   18.000    0.000    0.000 
#    0.000    0.000    0.000    0.000    0.000    0.000 
#
# Total GULP energy -111474.794748 kJ/mol
# GULP energy per Si atom -5573.739737 kJ/mol
# Density = 1.791739 g / cm^3
# Si number density = 17.958268 Si / 1000 Ang^3
#
#
#
# Elastic Constant Matrix: (Units=GPa)
#
#
# Indices 1 2 3 4 5 6 
#
# 1 54.5426 13.1781 23.3946 0.0000 -9.8143 0.0000
# 2 13.1781 97.9686 32.9558 0.0000 -11.9097 0.0000
# 3 23.3946 32.9558 112.8124 0.0000 -9.4539 0.0000
# 4 0.0000 0.0000 0.0000 10.2761 0.0000 0.6518
# 5 -9.8143 -11.9097 -9.4539 0.0000 41.6873 0.0000
# 6 0.0000 0.0000 0.0000 0.6518 0.0000 7.1306
#
#
#
# Elastic Compliance Matrix: (Units=1/GPa)
#
#
# Indices 1 2 3 4 5 6 
#
# 1 0.020860 -0.001109 -0.003687 0.000000 0.003758 0.000000
# 2 -0.001109 0.011647 -0.002972 0.000000 0.002392 0.000000
# 3 -0.003687 -0.002972 0.010554 0.000000 0.000676 0.000000
# 4 0.000000 0.000000 0.000000 0.097881 0.000000 -0.008947
# 5 0.003758 0.002392 0.000676 0.000000 0.025710 0.000000
# 6 0.000000 0.000000 0.000000 -0.008947 0.000000 0.141059
#
#
# Mechanical properties :
#
#
# Convention : Reuss Voigt Hill
#
# Bulk Modulus (GPa) = 36.33054 44.93119 40.63086
# Shear Modulus (GPa) = 15.04115 24.87179 19.95647
#
# Velocity S-wave (km/s) = 2.89721 3.72557 3.33719
# Velocity P-wave (km/s) = 5.60947 6.60156 6.12563
#
# Compressibility (1/GPa) = 0.02752505
#
# Stress axis : x y z
#
# Youngs Moduli (GPa) = 47.93901 85.85819 94.75293
#
# Poissons Ratio (x) = 0.09520 0.34935
# Poissons Ratio (y) = 0.05315 0.28161
# Poissons Ratio (z) = 0.17675 0.25517
#
# Static dielectric constant tensor:
#      x y z
#    x 1.649110 0.000000 0.014710 
#    y 0.000000 1.582650 0.000000 
#    z 0.014710 0.000000 1.678350 
# 
# From -- ./inp_files/58969.got.cif
#   From: 2010.05.17/outbox.cif.g08.bks.cpg/sg12_30_cif.got.tgz:58969.got - 2010.06.03 13:09:07.
