data_PCOD9174196
_publ_section_title
;
Structure prediction by ZEFSAII (Michael W. Deem and Ramdas Pophale) SiO2 
 PCOD9174196
Probable space group: C 2/M
;
_chemical_formula_sum "Si O2"
_cell_formula_units_Z 56
_cell_length_a 21.148663
_cell_length_b 7.749445
_cell_length_c 22.919242
_cell_angle_alpha 90.000000
_cell_angle_beta 131.366134
_cell_angle_gamma 90.000000
_cell_volume 2819.067784
_symmetry_space_group_name_H-M "C 2/M"
_symmetry_group_IT_number 12
_symmetry_cell_setting 'monoclinic'
loop_
_space_group_symop_operation_xyz
x,y,z
-x,y,-z
-x,-y,-z
x,-y,z
1/2+x,1/2+y,z
1/2-x,1/2+y,-z
1/2-x,1/2-y,-z
1/2+x,1/2-y,z
loop_
_atom_site_type_symbol
_atom_site_label
_atom_site_fract_x
_atom_site_fract_y
_atom_site_fract_z
Si Si1 0.018084 0.207504 0.175919
Si Si2 0.929188 0.707807 0.002361
Si Si3 0.487810 0.700022 0.402837
Si Si4 0.707071 0.290802 0.265439
Si Si5 0.432884 0.288632 0.242816
Si Si6 0.754130 0.706432 0.844629
Si Si7 0.134578 0.698124 0.570114
O O1 0.112587 0.271565 0.220409
O O2 0.958468 0.249269 0.085085
O O3 0.979681 0.271728 0.213270
O O4 0.023743 0.000000 0.183239
O O5 0.927198 0.500000 0.995743
O O6 0.837024 0.774152 0.928161
O O7 0.000000 0.772178 0.000000
O O8 0.461205 0.500000 0.388535
O O9 0.478069 0.761512 0.330827
O O10 0.425193 0.795588 0.408960
O O11 0.580888 0.713154 0.486651
O O12 0.707814 0.500000 0.268126
O O13 0.734891 0.240697 0.217370
O O14 0.776139 0.228882 0.354379
O O15 0.432802 0.500000 0.241150
O O16 0.335971 0.229023 0.187915
O O17 0.752712 0.500000 0.851641
O O18 0.145966 0.500000 0.559452
#
# Coordination Sequence:
#
# PCOD9174196 Si02
#       7
#     8   8   8   8   8   8   8
#     4  10  21  37  55  75 105 140 175 212 258 312
#     4  10  20  34  53  79 107 135 170 217 266 306
#     4  10  18  31  53  78 102 134 175 211 251 304
#     4  10  20  33  52  78 104 136 174 213 256 307
#     4   9  19  35  54  77 104 138 174 214 257 305
#     4  10  19  34  56  76 102 137 175 215 257 306
#     4  10  19  31  49  77 108 133 166 214 263 300
#
# _framework density 19.864722
#
# number of rings (size 3 to 8) (size 9 to 14) (size 15 to 20)
#    0.000    2.143    2.857    1.714    0.000    2.000 
#    0.000    2.857    0.000    0.000    0.000    0.000 
#    0.000    0.000    0.000    0.000    0.000    0.000 
#
# Total GULP energy -156297.537913 kJ/mol
# GULP energy per Si atom -5582.054925 kJ/mol
# Density = 1.981951 g / cm^3
# Si number density = 19.864722 Si / 1000 Ang^3
#
#
#
# Elastic Constant Matrix: (Units=GPa)
#
#
# Indices 1 2 3 4 5 6 
#
# 1 90.3588 -9.4390 47.4060 0.0000 -1.0037 0.0000
# 2 -9.4390 26.6463 -9.3931 0.0000 1.6265 0.0000
# 3 47.4060 -9.3931 147.7731 0.0000 9.1777 0.0000
# 4 0.0000 0.0000 0.0000 19.0842 0.0000 -2.6799
# 5 -1.0037 1.6265 9.1777 0.0000 34.3433 0.0000
# 6 0.0000 0.0000 0.0000 -2.6799 0.0000 10.2938
#
#
#
# Elastic Compliance Matrix: (Units=1/GPa)
#
#
# Indices 1 2 3 4 5 6 
#
# 1 0.013657 0.003252 -0.004261 0.000000 0.001384 0.000000
# 2 0.003252 0.039377 0.001596 0.000000 -0.002197 0.000000
# 3 -0.004261 0.001596 0.008387 0.000000 -0.002441 0.000000
# 4 0.000000 0.000000 0.000000 0.054388 0.000000 0.014159
# 5 0.001384 -0.002197 -0.002441 0.000000 0.029915 0.000000
# 6 0.000000 0.000000 0.000000 0.014159 0.000000 0.100832
#
#
# Mechanical properties :
#
#
# Convention : Reuss Voigt Hill
#
# Bulk Modulus (GPa) = 15.97546 35.76957 25.87252
# Shear Modulus (GPa) = 18.77954 28.49120 23.63537
#
# Velocity S-wave (km/s) = 3.07802 3.79127 3.45311
# Velocity P-wave (km/s) = 4.54883 6.10005 5.38064
#
# Compressibility (1/GPa) = 0.06259602
#
# Stress axis : x y z
#
# Youngs Moduli (GPa) = 73.22104 25.39542 119.23186
#
# Poissons Ratio (x) = -0.08257 0.50799
# Poissons Ratio (y) = -0.23808 -0.19033
# Poissons Ratio (z) = 0.31196 -0.04054
#
# Static dielectric constant tensor:
#      x y z
#    x 1.674380 0.000000 0.030530 
#    y 0.000000 1.736250 0.000000 
#    z 0.030530 0.000000 1.699270 
# 
# From -- ./inp_files/320249.got.cif
#   From: 2010.05.17/outbox.cif.g08.bks.cpg/sg12_161_cif.got.tgz:320249.got - 2010.06.03 13:09:07.
