data_PCOD9174199
_publ_section_title
;
Structure prediction by ZEFSAII (Michael W. Deem and Ramdas Pophale) SiO2 
 PCOD9174199
Probable space group: C 2/M
;
_chemical_formula_sum "Si O2"
_cell_formula_units_Z 64
_cell_length_a 14.948921
_cell_length_b 7.376191
_cell_length_c 25.438762
_cell_angle_alpha 90.000000
_cell_angle_beta 76.390324
_cell_angle_gamma 90.000000
_cell_volume 2726.271241
_symmetry_space_group_name_H-M "C 2/M"
_symmetry_group_IT_number 12
_symmetry_cell_setting 'monoclinic'
loop_
_space_group_symop_operation_xyz
x,y,z
-x,y,-z
-x,-y,-z
x,-y,z
1/2+x,1/2+y,z
1/2-x,1/2+y,-z
1/2-x,1/2-y,-z
1/2+x,1/2-y,z
loop_
_atom_site_type_symbol
_atom_site_label
_atom_site_fract_x
_atom_site_fract_y
_atom_site_fract_z
Si Si1 0.360695 0.719094 0.873597
Si Si2 0.839224 0.212164 0.311547
Si Si3 0.952595 0.222335 0.196584
Si Si4 0.558922 0.721086 0.602206
Si Si5 0.356677 0.281999 0.631602
Si Si6 0.359737 0.715926 0.988950
Si Si7 0.151980 0.784238 0.486594
Si Si8 0.855645 0.212143 0.104063
O O1 0.357678 0.500000 0.875275
O O2 0.440165 0.773888 0.822216
O O3 0.393243 0.781280 0.927520
O O4 0.255844 0.777006 0.877766
O O5 0.897669 0.287027 0.255232
O O6 0.868038 0.285633 0.364806
O O7 0.729924 0.226924 0.321863
O O8 0.862097 0.000000 0.310468
O O9 0.901283 0.284472 0.150552
O O10 0.949600 0.000000 0.197268
O O11 0.562862 0.500000 0.598701
O O12 0.457896 0.773002 0.635492
O O13 0.579697 0.783900 0.540107
O O14 0.354768 0.500000 0.630808
O O15 0.347624 0.213268 0.572690
O O16 0.376638 0.500000 0.987803
O O17 0.250000 0.750000 0.000000
O O18 0.386673 0.788109 0.042760
O O19 0.250000 0.750000 0.500000
O O20 0.136784 0.000000 0.483731
O O21 0.880394 0.000000 0.099049
#
# Coordination Sequence:
#
# PCOD9174199 Si02
#       8
#     8   8   8   8   8   8   8   8
#     4   9  17  31  50  73  98 126 163 203 243 291
#     4  10  20  36  53  70  97 132 168 205 246 289
#     4   9  19  33  50  71  96 129 168 205 242 291
#     4   9  18  33  53  74  99 132 163 193 241 296
#     4  10  20  34  54  78 101 128 165 205 242 288
#     4   8  14  25  45  70  96 124 155 196 243 292
#     4  10  18  31  53  78 104 131 159 196 243 292
#     4   9  17  31  49  71  99 129 160 198 249 297
#
# _framework density 23.475286000000001
#
# number of rings (size 3 to 8) (size 9 to 14) (size 15 to 20)
#    0.000    2.750    1.250    0.375    0.000    3.000 
#    0.000    6.875    0.000    1.500    0.000    8.750 
#    0.000    0.000    0.000    0.000    0.000    0.000 
#
# Total GULP energy -178623.411476 kJ/mol
# GULP energy per Si atom -5581.981609 kJ/mol
# Density = 2.342186 g / cm^3
# Si number density = 23.475286 Si / 1000 Ang^3
#
#
#
# Elastic Constant Matrix: (Units=GPa)
#
#
# Indices 1 2 3 4 5 6 
#
# 1 55.8217 -13.8362 10.5822 0.0000 -17.6788 0.0000
# 2 -13.8362 83.6649 3.7245 0.0000 4.6332 0.0000
# 3 10.5822 3.7245 84.7797 0.0000 -35.2527 0.0000
# 4 0.0000 0.0000 0.0000 -0.3777 0.0000 -5.0417
# 5 -17.6788 4.6332 -35.2527 0.0000 37.1606 0.0000
# 6 0.0000 0.0000 0.0000 -5.0417 0.0000 13.2613
#
#
#
# Elastic Compliance Matrix: (Units=1/GPa)
#
#
# Indices 1 2 3 4 5 6 
#
# 1 0.022086 0.002876 0.002208 0.000000 0.012243 0.000000
# 2 0.002876 0.012599 -0.001646 0.000000 -0.001764 0.000000
# 3 0.002208 -0.001646 0.020006 -0.000001 0.020234 0.000000
# 4 0.000000 0.000000 -0.000001 -0.435836 -0.000001 -0.165697
# 5 0.012243 -0.001764 0.020234 -0.000001 0.052150 0.000000
# 6 0.000000 0.000000 0.000000 -0.165697 0.000000 0.012412
#
#
# Mechanical properties :
#
#
# Convention : Reuss Voigt Hill
#
# Bulk Modulus (GPa) = 16.24263 25.02300 20.63282
# Shear Modulus (GPa) = -16.50505 24.92857 4.21176
#
# Velocity S-wave (km/s) = -2.65445 3.26223 1.34090
# Velocity P-wave (km/s) = 1.56867 4.98718 3.34748
#
# Compressibility (1/GPa) = 0.06156639
#
# Stress axis : x y z
#
# Youngs Moduli (GPa) = 45.27773 79.37092 49.98586
#
# Poissons Ratio (x) = -0.22829 -0.11035
# Poissons Ratio (y) = -0.13023 0.08228
# Poissons Ratio (z) = -0.09996 0.13065
#
# Static dielectric constant tensor:
#      x y z
#    x 1.859210 0.000000 -0.004290 
#    y 0.000000 2.547600 0.000000 
#    z -0.004290 0.000000 1.888510 
# 
# From -- ./inp_files/339318.got.cif
#   From: 2010.05.17/outbox.cif.g08.bks.cpg/sg12_170_cif.got.tgz:339318.got - 2010.06.03 13:09:07.
