data_PCOD9174468
_publ_section_title
;
Structure prediction by ZEFSAII (Michael W. Deem and Ramdas Pophale) SiO2 
 PCOD9174468
Probable space group: C 2/M
;
_chemical_formula_sum "Si O2"
_cell_formula_units_Z 56
_cell_length_a 15.541637
_cell_length_b 17.240780
_cell_length_c 21.032410
_cell_angle_alpha 90.000000
_cell_angle_beta 152.506091
_cell_angle_gamma 90.000000
_cell_volume 2601.714329
_symmetry_space_group_name_H-M "C 2/M"
_symmetry_group_IT_number 12
_symmetry_cell_setting 'monoclinic'
loop_
_space_group_symop_operation_xyz
x,y,z
-x,y,-z
-x,-y,-z
x,-y,z
1/2+x,1/2+y,z
1/2-x,1/2+y,-z
1/2-x,1/2-y,-z
1/2+x,1/2-y,z
loop_
_atom_site_type_symbol
_atom_site_label
_atom_site_fract_x
_atom_site_fract_y
_atom_site_fract_z
Si Si1 0.841129 0.413150 0.687766
Si Si2 0.486787 0.118708 0.063151
Si Si3 0.128865 0.224845 0.482457
Si Si4 0.302537 0.133009 0.378205
Si Si5 0.313031 0.821958 0.126451
Si Si6 0.779038 0.768626 0.799062
Si Si7 0.407597 0.650851 0.143642
O O1 0.782109 0.500000 0.633800
O O2 0.893618 0.409690 0.797572
O O3 0.698032 0.349782 0.566897
O O4 0.031264 0.388121 0.776647
O O5 0.554667 0.208425 0.103301
O O6 0.500000 0.087641 0.000000
O O7 0.269495 0.113524 0.938023
O O8 0.250000 0.250000 0.500000
O O9 0.144811 0.296795 0.540523
O O10 0.911568 0.217500 0.322897
O O11 0.500000 0.088713 0.500000
O O12 0.244835 0.171404 0.273647
O O13 0.103143 0.105751 0.275390
O O14 0.224295 0.813577 0.136944
O O15 0.414581 0.740173 0.173894
O O16 0.161919 0.840396 0.974109
#
# Coordination Sequence:
#
# PCOD9174468 Si02
#       7
#     8   8   8   8   8   8   8
#     4  11  23  40  58  86 131 174 208 250 321 385
#     4  11  22  35  59  91 121 162 208 263 309 376
#     4  11  20  35  56  83 120 158 212 255 304 361
#     4  10  20  31  51  88 124 144 187 257 328 358
#     4  10  18  31  56  86 113 156 200 261 307 353
#     4  11  19  31  54  88 122 147 205 268 302 358
#     4  10  18  32  53  84 123 148 200 261 321 350
#
# _framework density 21.524270000000001
#
# number of rings (size 3 to 8) (size 9 to 14) (size 15 to 20)
#    0.000    1.429    5.714    1.714    0.000    0.286 
#    0.000    1.429    0.000    0.000    0.000   20.000 
#    0.000    0.000    0.000    0.000    0.000    0.143 
#
# Total GULP energy -156223.322776 kJ/mol
# GULP energy per Si atom -5579.404385 kJ/mol
# Density = 2.147528 g / cm^3
# Si number density = 21.524270 Si / 1000 Ang^3
#
#
#
# Elastic Constant Matrix: (Units=GPa)
#
#
# Indices 1 2 3 4 5 6 
#
# 1 135.3582 17.0264 45.1593 0.0061 -4.4318 0.0013
# 2 17.0264 56.4854 11.4423 0.0065 -9.1170 0.0023
# 3 45.1593 11.4423 104.6001 0.0135 22.9190 0.0052
# 4 0.0061 0.0065 0.0135 -11.2077 0.0010 -6.4975
# 5 -4.4318 -9.1170 22.9190 0.0010 46.7002 -0.0005
# 6 0.0013 0.0023 0.0052 -6.4975 -0.0005 -2.0677
#
#
#
# Elastic Compliance Matrix: (Units=1/GPa)
#
#
# Indices 1 2 3 4 5 6 
#
# 1 0.009118 -0.001419 -0.004381 -0.000004 0.002738 0.000006
# 2 -0.001419 0.019455 -0.002598 0.000000 0.004938 0.000014
# 3 -0.004381 -0.002598 0.013376 0.000007 -0.007488 0.000008
# 4 -0.000004 0.000000 0.000007 0.108578 -0.000010 -0.341193
# 5 0.002738 0.004938 -0.007488 -0.000010 0.026312 0.000013
# 6 0.000006 0.000014 0.000008 -0.341193 0.000013 0.588530
#
#
# Mechanical properties :
#
#
# Convention : Reuss Voigt Hill
#
# Bulk Modulus (GPa) = 39.75592 49.29996 44.52794
# Shear Modulus (GPa) = 6.32472 21.53934 13.93203
#
# Velocity S-wave (km/s) = 1.71604 3.16682 2.54691
# Velocity P-wave (km/s) = 4.73675 6.02708 5.42045
#
# Compressibility (1/GPa) = 0.02515349
#
# Stress axis : x y z
#
# Youngs Moduli (GPa) = 109.67776 51.40166 74.75798
#
# Poissons Ratio (x) = 0.07293 0.32753
# Poissons Ratio (y) = 0.15561 0.19419
# Poissons Ratio (z) = 0.48052 0.13352
#
# Static dielectric constant tensor:
#      x y z
#    x 1.839100 0.000000 0.053510 
#    y 0.000000 1.758450 -0.000010 
#    z 0.053510 -0.000010 1.870610 
# 
# From -- ./inp_files/311747.got.cif
#   From: 2010.05.17/outbox.cif.g08.bks.cpg/sg12_156_cif.got.tgz:311747.got - 2010.06.03 13:09:07.
