data_PCOD9174520
_publ_section_title
;
Structure prediction by ZEFSAII (Michael W. Deem and Ramdas Pophale) SiO2 
 PCOD9174520
Probable space group: C 2/M
;
_chemical_formula_sum "Si O2"
_cell_formula_units_Z 64
_cell_length_a 17.323994
_cell_length_b 17.362956
_cell_length_c 12.114946
_cell_angle_alpha 90.000000
_cell_angle_beta 75.497864
_cell_angle_gamma 90.000000
_cell_volume 3528.016242
_symmetry_space_group_name_H-M "C 2/M"
_symmetry_group_IT_number 12
_symmetry_cell_setting 'monoclinic'
loop_
_space_group_symop_operation_xyz
x,y,z
-x,y,-z
-x,-y,-z
x,-y,z
1/2+x,1/2+y,z
1/2-x,1/2+y,-z
1/2-x,1/2-y,-z
1/2+x,1/2-y,z
loop_
_atom_site_type_symbol
_atom_site_label
_atom_site_fract_x
_atom_site_fract_y
_atom_site_fract_z
Si Si1 0.013271 0.587052 0.211940
Si Si2 0.909509 0.203237 0.079895
Si Si3 0.679420 0.409797 0.044996
Si Si4 0.912359 0.586616 0.578278
Si Si5 0.651195 0.837357 0.043672
Si Si6 0.634330 0.286826 0.236597
Si Si7 0.329920 0.762580 0.538951
Si Si8 0.051662 0.254182 0.699699
O O1 0.982071 0.500000 0.208907
O O2 0.072881 0.585269 0.296219
O O3 0.069860 0.615543 0.093135
O O4 0.951197 0.655123 0.262898
O O5 0.912904 0.207292 0.210074
O O6 0.866644 0.130311 0.040508
O O7 0.863587 0.278267 0.050634
O O8 0.000000 0.207154 0.000000
O O9 0.665045 0.500000 0.054614
O O10 0.649610 0.364916 0.164692
O O11 0.772957 0.390664 0.999634
O O12 0.894501 0.500000 0.545944
O O13 0.848465 0.649068 0.565883
O O14 0.000000 0.607925 0.500000
O O15 0.665165 0.781188 0.144329
O O16 0.670218 0.282614 0.345450
O O17 0.540206 0.269880 0.280876
O O18 0.250000 0.750000 0.500000
O O19 0.401053 0.741663 0.429496
#
# Coordination Sequence:
#
# PCOD9174520 Si02
#       8
#     8   8   8   8   8   8   8   8
#     4  10  18  31  58  88 118 153 192 238 294 357
#     4  11  20  38  62  93 115 156 203 254 290 351
#     4  11  24  40  64  90 121 160 199 252 308 353
#     4  10  18  34  59  86 115 151 199 246 290 349
#     4  10  20  36  62  85 125 153 196 238 302 363
#     4  10  20  41  61  85 115 162 205 246 288 363
#     4  12  24  35  60  90 121 160 204 245 300 362
#     4  11  21  37  60  86 121 156 209 244 294 356
#
# _framework density 18.140506999999999
#
# number of rings (size 3 to 8) (size 9 to 14) (size 15 to 20)
#    0.000    1.375    7.500    2.250    3.500    0.250 
#    0.000    2.500    0.000    3.000    0.000    0.000 
#    0.000    0.000    0.000    0.000    0.000    0.000 
#
# Total GULP energy -178628.179919 kJ/mol
# GULP energy per Si atom -5582.130622 kJ/mol
# Density = 1.809922 g / cm^3
# Si number density = 18.140507 Si / 1000 Ang^3
#
#
#
# Elastic Constant Matrix: (Units=GPa)
#
#
# Indices 1 2 3 4 5 6 
#
# 1 46.8389 24.5200 13.1833 0.0000 13.7972 0.0000
# 2 24.5200 108.3908 16.4404 0.0000 14.4590 0.0000
# 3 13.1833 16.4404 72.8817 0.0000 21.7803 0.0000
# 4 0.0000 0.0000 0.0000 13.7018 0.0000 3.6833
# 5 13.7972 14.4590 21.7803 0.0000 26.3314 0.0000
# 6 0.0000 0.0000 0.0000 3.6833 0.0000 17.8171
#
#
#
# Elastic Compliance Matrix: (Units=1/GPa)
#
#
# Indices 1 2 3 4 5 6 
#
# 1 0.027224 -0.004569 -0.000505 0.000000 -0.011337 0.000000
# 2 -0.004569 0.010758 -0.000731 0.000000 -0.002909 0.000000
# 3 -0.000505 -0.000731 0.018302 0.000000 -0.014473 0.000000
# 4 0.000000 0.000000 0.000000 0.077277 0.000000 -0.015975
# 5 -0.011337 -0.002909 -0.014473 0.000000 0.057487 0.000000
# 6 0.000000 0.000000 0.000000 -0.015975 0.000000 0.059428
#
#
# Mechanical properties :
#
#
# Convention : Reuss Voigt Hill
#
# Bulk Modulus (GPa) = 22.38516 37.37763 29.88140
# Shear Modulus (GPa) = 18.05188 23.16792 20.60990
#
# Velocity S-wave (km/s) = 3.15797 3.57758 3.37430
# Velocity P-wave (km/s) = 5.06593 6.14123 5.62931
#
# Compressibility (1/GPa) = 0.04467245
#
# Stress axis : x y z
#
# Youngs Moduli (GPa) = 36.73255 92.95014 54.63803
#
# Poissons Ratio (x) = 0.42473 0.02762
# Poissons Ratio (y) = 0.16785 0.03994
# Poissons Ratio (z) = 0.01857 0.06795
#
# Static dielectric constant tensor:
#      x y z
#    x 1.630620 0.000000 -0.003290 
#    y 0.000000 1.630270 0.000000 
#    z -0.003290 0.000000 1.658090 
# 
# From -- ./inp_files/157804.got.cif
#   From: 2010.05.17/outbox.cif.g08.bks.cpg/sg12_79_cif.got.tgz:157804.got - 2010.06.03 13:09:07.
