data_PCOD9174496
_publ_section_title
;
Structure prediction by ZEFSAII (Michael W. Deem and Ramdas Pophale) SiO2 
 PCOD9174496
Probable space group: C 2/M
;
_chemical_formula_sum "Si O2"
_cell_formula_units_Z 48
_cell_length_a 20.752496
_cell_length_b 13.357432
_cell_length_c 13.759093
_cell_angle_alpha 90.000000
_cell_angle_beta 42.869640
_cell_angle_gamma 90.000000
_cell_volume 2594.803091
_symmetry_space_group_name_H-M "C 2/M"
_symmetry_group_IT_number 12
_symmetry_cell_setting 'monoclinic'
loop_
_space_group_symop_operation_xyz
x,y,z
-x,y,-z
-x,-y,-z
x,-y,z
1/2+x,1/2+y,z
1/2-x,1/2+y,-z
1/2-x,1/2-y,-z
1/2+x,1/2-y,z
loop_
_atom_site_type_symbol
_atom_site_label
_atom_site_fract_x
_atom_site_fract_y
_atom_site_fract_z
Si Si1 0.425740 0.385403 0.453422
Si Si2 0.973562 0.617862 0.708330
Si Si3 0.804250 0.614793 0.047501
Si Si4 0.383246 0.292458 0.699092
Si Si5 0.105809 0.390100 0.843029
Si Si6 0.137064 0.260858 0.626458
O O1 0.398318 0.500000 0.496429
O O2 0.376666 0.318706 0.592168
O O3 0.537292 0.369308 0.348742
O O4 0.400983 0.343353 0.374984
O O5 0.978043 0.500000 0.683381
O O6 0.928037 0.684491 0.672927
O O7 0.075943 0.660910 0.627404
O O8 0.898357 0.634804 0.880169
O O9 0.775493 0.500000 0.056409
O O10 0.714973 0.687840 0.137747
O O11 0.831178 0.618631 0.131067
O O12 0.124931 0.500000 0.774965
O O13 0.115801 0.300111 0.757502
O O14 0.000000 0.392289 0.000000
O O15 0.250000 0.250000 0.500000
#
# Coordination Sequence:
#
# PCOD9174496 Si02
#       6
#     8   8   8   8   8   8
#     4  10  21  37  55  78 110 148 192 240 287 339
#     4  10  21  36  54  83 120 150 186 240 294 344
#     4  10  18  31  57  86 113 149 191 237 285 337
#     4  10  19  34  56  83 110 148 194 237 283 341
#     4  10  19  35  60  87 115 148 188 237 287 341
#     4  11  22  35  55  85 115 150 192 238 289 343
#
# _framework density 18.498512999999999
#
# number of rings (size 3 to 8) (size 9 to 14) (size 15 to 20)
#    0.000    1.833    1.667    4.000    0.000    2.667 
#    0.000    7.500    0.000    3.500    0.000    0.000 
#    0.000    0.000    0.000    0.000    0.000    0.000 
#
# Total GULP energy -133735.243979 kJ/mol
# GULP energy per Si atom -5572.301832 kJ/mol
# Density = 1.845641 g / cm^3
# Si number density = 18.498513 Si / 1000 Ang^3
#
#
#
# Elastic Constant Matrix: (Units=GPa)
#
#
# Indices 1 2 3 4 5 6 
#
# 1 50.7637 41.6652 33.3358 0.0000 -4.2173 0.0000
# 2 41.6652 111.8205 42.7357 0.0000 5.9227 0.0000
# 3 33.3358 42.7357 84.0455 0.0000 -10.3641 0.0000
# 4 0.0000 0.0000 0.0000 19.7531 0.0000 8.2397
# 5 -4.2173 5.9227 -10.3641 0.0000 37.9987 0.0000
# 6 0.0000 0.0000 0.0000 8.2397 0.0000 12.8635
#
#
#
# Elastic Compliance Matrix: (Units=1/GPa)
#
#
# Indices 1 2 3 4 5 6 
#
# 1 0.032813 -0.009368 -0.007888 0.000000 0.002951 0.000000
# 2 -0.009368 0.014212 -0.004048 0.000000 -0.004359 0.000000
# 3 -0.007888 -0.004048 0.017649 0.000000 0.004569 0.000000
# 4 0.000000 0.000000 0.000000 0.069084 0.000000 -0.044252
# 5 0.002951 -0.004359 0.004569 0.000000 0.028570 0.000000
# 6 0.000000 0.000000 0.000000 -0.044252 0.000000 0.106085
#
#
# Mechanical properties :
#
#
# Convention : Reuss Voigt Hill
#
# Bulk Modulus (GPa) = 45.31934 53.56702 49.44318
# Shear Modulus (GPa) = 15.70477 22.71592 19.21034
#
# Velocity S-wave (km/s) = 2.91688 3.50807 3.22604
# Velocity P-wave (km/s) = 5.99135 6.74011 6.37673
#
# Compressibility (1/GPa) = 0.02206563
#
# Stress axis : x y z
#
# Youngs Moduli (GPa) = 30.47575 70.36543 56.66163
#
# Poissons Ratio (x) = 0.65920 0.44692
# Poissons Ratio (y) = 0.28550 0.22937
# Poissons Ratio (z) = 0.24038 0.28484
#
# Static dielectric constant tensor:
#      x y z
#    x 1.666990 0.000000 0.000890 
#    y 0.000000 1.648820 0.000000 
#    z 0.000890 0.000000 1.670140 
# 
# From -- ./inp_files/232788.got.cif
#   From: 2010.05.17/outbox.cif.g08.bks.cpg/sg12_117_cif.got.tgz:232788.got - 2010.06.03 13:09:07.
