data_PCOD9174572
_publ_section_title
;
Structure prediction by ZEFSAII (Michael W. Deem and Ramdas Pophale) SiO2 
 PCOD9174572
Probable space group: C 2/M
;
_chemical_formula_sum "Si O2"
_cell_formula_units_Z 64
_cell_length_a 23.652480
_cell_length_b 22.831720
_cell_length_c 9.832788
_cell_angle_alpha 90.000000
_cell_angle_beta 51.356249
_cell_angle_gamma 90.000000
_cell_volume 4147.318671
_symmetry_space_group_name_H-M "C 2/M"
_symmetry_group_IT_number 12
_symmetry_cell_setting 'monoclinic'
loop_
_space_group_symop_operation_xyz
x,y,z
-x,y,-z
-x,-y,-z
x,-y,z
1/2+x,1/2+y,z
1/2-x,1/2+y,-z
1/2-x,1/2-y,-z
1/2+x,1/2-y,z
loop_
_atom_site_type_symbol
_atom_site_label
_atom_site_fract_x
_atom_site_fract_y
_atom_site_fract_z
Si Si1 0.797002 0.315922 0.769954
Si Si2 0.584962 0.746692 0.896994
Si Si3 0.643092 0.264219 0.098780
Si Si4 0.939498 0.930024 0.396508
Si Si5 0.781859 0.933741 0.131064
Si Si6 0.595144 0.607717 0.245779
Si Si7 0.338728 0.374713 0.315861
Si Si8 0.699754 0.194017 0.549931
O O1 0.848546 0.286927 0.803776
O O2 0.779018 0.384710 0.806061
O O3 0.819737 0.305467 0.580402
O O4 0.720707 0.282842 0.916221
O O5 0.620792 0.684433 0.796971
O O6 0.629928 0.796459 0.748282
O O7 0.500000 0.746512 0.000000
O O8 0.596626 0.753716 0.039650
O O9 0.612480 0.323304 0.212247
O O10 0.912306 0.912995 0.588186
O O11 0.888286 0.903309 0.357112
O O12 0.021328 0.905260 0.274363
O O13 0.942134 0.000000 0.379452
O O14 0.823393 0.914701 0.207132
O O15 0.755656 0.000000 0.180348
O O16 0.840221 0.926345 0.924162
O O17 0.257426 0.358075 0.489229
O O18 0.750000 0.250000 0.500000
#
# Coordination Sequence:
#
# PCOD9174572 Si02
#       8
#     8   8   8   8   8   8   8   8
#     4   9  18  31  50  73  93 129 167 205 248 301
#     4  11  20  33  49  73 103 130 164 206 255 303
#     4  10  18  32  49  70  97 127 172 207 250 289
#     4  11  22  33  45  66  99 139 178 202 231 283
#     4  10  18  33  50  70  99 127 165 209 247 287
#     4  10  20  33  44  64  97 140 170 206 242 279
#     4  10  20  32  49  71  95 131 172 202 245 292
#     4   9  17  32  48  68  95 127 161 203 251 299
#
# _framework density 15.431657
#
# number of rings (size 3 to 8) (size 9 to 14) (size 15 to 20)
#    0.000    2.000    5.000    2.625    3.500    1.000 
#    0.000    1.250    0.000    0.000    0.000    0.000 
#    0.000   22.000    0.000    0.000    0.000    0.000 
#
# Total GULP energy -178294.190557 kJ/mol
# GULP energy per Si atom -5571.693455 kJ/mol
# Density = 1.539653 g / cm^3
# Si number density = 15.431657 Si / 1000 Ang^3
#
#
#
# Elastic Constant Matrix: (Units=GPa)
#
#
# Indices 1 2 3 4 5 6 
#
# 1 110.0773 55.6121 25.6107 0.0000 15.4640 0.0000
# 2 55.6121 76.5950 29.6098 0.0000 10.3327 0.0000
# 3 25.6107 29.6098 28.2073 0.0000 -1.7562 0.0000
# 4 0.0000 0.0000 0.0000 8.6805 0.0000 6.0615
# 5 15.4640 10.3327 -1.7562 0.0000 18.3803 0.0000
# 6 0.0000 0.0000 0.0000 6.0615 0.0000 15.6974
#
#
#
# Elastic Compliance Matrix: (Units=1/GPa)
#
#
# Indices 1 2 3 4 5 6 
#
# 1 0.015914 -0.007387 -0.007313 0.000000 -0.009935 0.000000
# 2 -0.007387 0.030168 -0.025784 0.000000 -0.013208 0.000000
# 3 -0.007313 -0.025784 0.070864 0.000000 0.027418 0.000000
# 4 0.000000 0.000000 0.000000 0.157731 0.000000 -0.060907
# 5 -0.009935 -0.013208 0.027418 0.000000 0.072809 0.000000
# 6 0.000000 0.000000 0.000000 -0.060907 0.000000 0.087224
#
#
# Mechanical properties :
#
#
# Convention : Reuss Voigt Hill
#
# Bulk Modulus (GPa) = 27.79396 48.50498 38.14947
# Shear Modulus (GPa) = 9.47562 15.48811 12.48186
#
# Velocity S-wave (km/s) = 2.48067 3.17149 2.84711
# Velocity P-wave (km/s) = 5.12397 6.70161 5.96517
#
# Compressibility (1/GPa) = 0.03597904
#
# Stress axis : x y z
#
# Youngs Moduli (GPa) = 62.83952 33.14762 14.11146
#
# Poissons Ratio (x) = 0.24486 0.10320
# Poissons Ratio (y) = 0.46419 0.36384
# Poissons Ratio (z) = 0.45955 0.85467
#
# Static dielectric constant tensor:
#      x y z
#    x 1.487450 0.000000 -0.006290 
#    y 0.000000 1.527940 0.000000 
#    z -0.006290 0.000000 1.530220 
# 
# From -- ./inp_files/99652.got.cif
#   From: 2010.05.17/outbox.cif.g08.bks.cpg/sg12_50_cif.got.tgz:99652.got - 2010.06.03 13:09:07.
