data_PCOD9174184
_publ_section_title
;
Structure prediction by ZEFSAII (Michael W. Deem and Ramdas Pophale) SiO2 
 PCOD9174184
Probable space group: C 2/M
;
_chemical_formula_sum "Si O2"
_cell_formula_units_Z 40
_cell_length_a 13.062405
_cell_length_b 22.394236
_cell_length_c 10.014438
_cell_angle_alpha 90.000000
_cell_angle_beta 146.647164
_cell_angle_gamma 90.000000
_cell_volume 1610.591668
_symmetry_space_group_name_H-M "C 2/M"
_symmetry_group_IT_number 12
_symmetry_cell_setting 'monoclinic'
loop_
_space_group_symop_operation_xyz
x,y,z
-x,y,-z
-x,-y,-z
x,-y,z
1/2+x,1/2+y,z
1/2-x,1/2+y,-z
1/2-x,1/2-y,-z
1/2+x,1/2-y,z
loop_
_atom_site_type_symbol
_atom_site_label
_atom_site_fract_x
_atom_site_fract_y
_atom_site_fract_z
Si Si1 0.403246 0.066389 0.717229
Si Si2 0.146368 0.163375 0.502480
Si Si3 0.707912 0.087933 0.695478
Si Si4 0.706526 0.717670 0.270934
Si Si5 0.662202 0.433210 0.883265
O O1 0.314733 0.117311 0.711098
O O2 0.278939 0.070199 0.445078
O O3 0.380934 0.000000 0.747672
O O4 0.380485 0.075836 0.084112
O O5 0.170711 0.223582 0.612425
O O6 0.181121 0.191803 0.393048
O O7 0.963515 0.121694 0.304502
O O8 0.500000 0.066978 0.500000
O O9 0.718534 0.159543 0.722701
O O10 0.841246 0.065930 0.957882
O O11 0.500000 0.733121 0.000000
O O12 0.606655 0.500000 0.776006
#
# Coordination Sequence:
#
# PCOD9174184 Si02
#       5
#     8   8   8   8   8
#     4   9  18  31  49  76 104 130 165 207 254 303
#     4  10  20  33  51  74 101 139 169 203 250 296
#     4   9  17  31  48  76 104 132 161 205 260 306
#     4  10  19  35  49  70 106 134 172 207 242 300
#     4  10  18  31  53  77 103 131 164 207 255 305
#
# _framework density 24.835594
#
# number of rings (size 3 to 8) (size 9 to 14) (size 15 to 20)
#    0.000    2.400    2.000    1.200    0.000    2.400 
#    3.600    7.000    0.000    2.400    0.000    2.800 
#    0.000    0.000    0.000    0.000    0.000    0.000 
#
# Total GULP energy -111730.242332 kJ/mol
# GULP energy per Si atom -5586.512117 kJ/mol
# Density = 2.477907 g / cm^3
# Si number density = 24.835594 Si / 1000 Ang^3
#
#
#
# Elastic Constant Matrix: (Units=GPa)
#
#
# Indices 1 2 3 4 5 6 
#
# 1 54.3176 37.9088 34.4989 0.0000 17.0791 0.0000
# 2 37.9088 265.3442 74.0777 0.0000 30.5280 0.0000
# 3 34.4989 74.0777 119.1004 0.0000 19.0335 0.0000
# 4 0.0000 0.0000 0.0000 39.7349 0.0000 13.4430
# 5 17.0791 30.5280 19.0335 0.0000 43.7921 0.0000
# 6 0.0000 0.0000 0.0000 13.4430 0.0000 -10.0049
#
#
#
# Elastic Compliance Matrix: (Units=1/GPa)
#
#
# Indices 1 2 3 4 5 6 
#
# 1 0.024720 -0.001308 -0.005322 0.000000 -0.006416 0.000000
# 2 -0.001308 0.004815 -0.002323 0.000000 -0.001837 0.000000
# 3 -0.005322 -0.002323 0.011597 0.000000 -0.001346 0.000000
# 4 0.000000 0.000000 0.000000 0.017302 0.000000 0.023247
# 5 -0.006416 -0.001837 -0.001346 0.000000 0.027203 0.000000
# 6 0.000000 0.000000 0.000000 0.023247 0.000000 -0.068715
#
#
# Mechanical properties :
#
#
# Convention : Reuss Voigt Hill
#
# Bulk Modulus (GPa) = 43.04964 81.30366 62.17665
# Shear Modulus (GPa) = 117.45159 34.18956 75.82058
#
# Velocity S-wave (km/s) = 6.88435 3.71433 5.53130
# Velocity P-wave (km/s) = 8.97574 7.15561 8.11686
#
# Compressibility (1/GPa) = 0.02322900
#
# Stress axis : x y z
#
# Youngs Moduli (GPa) = 40.45232 207.67046 86.22556
#
# Poissons Ratio (x) = 0.27160 0.45887
# Poissons Ratio (y) = 0.05290 0.20027
# Poissons Ratio (z) = 0.21528 0.48233
#
# Static dielectric constant tensor:
#      x y z
#    x 2.014490 0.000000 -0.071060 
#    y 0.000000 1.959150 0.000000 
#    z -0.071060 0.000000 1.993350 
# 
# From -- ./inp_files/48491.got.cif
#   From: 2010.05.17/outbox.cif.g08.bks.cpg/sg12_25_cif.got.tgz:48491.got - 2010.06.03 13:09:07.
