data_PCOD9174848
_publ_section_title
;
Structure prediction by ZEFSAII (Michael W. Deem and Ramdas Pophale) SiO2 
 PCOD9174848
Probable space group: C 2/M
;
_chemical_formula_sum "Si O2"
_cell_formula_units_Z 40
_cell_length_a 24.393350
_cell_length_b 17.783528
_cell_length_c 12.060924
_cell_angle_alpha 90.000000
_cell_angle_beta 161.330272
_cell_angle_gamma 90.000000
_cell_volume 1674.837098
_symmetry_space_group_name_H-M "C 2/M"
_symmetry_group_IT_number 12
_symmetry_cell_setting 'monoclinic'
loop_
_space_group_symop_operation_xyz
x,y,z
-x,y,-z
-x,-y,-z
x,-y,z
1/2+x,1/2+y,z
1/2-x,1/2+y,-z
1/2-x,1/2-y,-z
1/2+x,1/2-y,z
loop_
_atom_site_type_symbol
_atom_site_label
_atom_site_fract_x
_atom_site_fract_y
_atom_site_fract_z
Si Si1 0.232791 0.500000 0.518679
Si Si2 0.006445 0.843156 0.330021
Si Si3 0.626011 0.268401 0.149308
Si Si4 0.635576 0.810794 0.662165
Si Si5 0.548121 0.142416 0.253847
Si Si6 0.063498 0.000000 0.319269
O O1 0.114024 0.569066 0.323763
O O2 0.297345 0.500000 0.514852
O O3 0.389479 0.500000 0.909578
O O4 0.131059 0.778810 0.620100
O O5 0.067734 0.925927 0.407923
O O6 0.934219 0.806503 0.079262
O O7 0.826678 0.841125 0.055225
O O8 0.816753 0.295613 0.532147
O O9 0.500000 0.300341 0.000000
O O10 0.624141 0.179347 0.120417
O O11 0.500000 0.820794 0.500000
O O12 0.566634 0.855245 0.421286
#
# Coordination Sequence:
#
# PCOD9174848 Si02
#       6
#     4   8   8   8   8   4
#     4  11  20  36  55  82 116 151 173 222 276 339
#     4  10  21  35  58  84 109 143 189 226 272 330
#     4  10  18  32  53  81 107 142 181 227 264 324
#     4  10  20  37  59  82 109 145 188 235 270 313
#     4  10  21  34  56  81 109 144 190 222 271 326
#     4  11  20  36  55  84 114 148 178 220 275 342
#
# _framework density 23.882919000000001
#
# number of rings (size 3 to 8) (size 9 to 14) (size 15 to 20)
#    0.000    1.800    4.000    2.400    0.000    3.200 
#    0.000    3.000    0.000   21.600    0.000    0.000 
#    0.000    0.000    0.000    0.000    0.000    0.000 
#
# Total GULP energy -111723.319235 kJ/mol
# GULP energy per Si atom -5586.165962 kJ/mol
# Density = 2.382856 g / cm^3
# Si number density = 23.882919 Si / 1000 Ang^3
#
#
#
# Elastic Constant Matrix: (Units=GPa)
#
#
# Indices 1 2 3 4 5 6 
#
# 1 141.0719 44.0174 24.3616 0.0000 36.1913 0.0000
# 2 44.0174 188.1425 40.2252 0.0000 25.9433 0.0000
# 3 24.3616 40.2252 41.1279 0.0000 14.8252 0.0000
# 4 0.0000 0.0000 0.0000 25.9961 0.0000 7.9094
# 5 36.1913 25.9433 14.8252 0.0000 40.3486 0.0000
# 6 0.0000 0.0000 0.0000 7.9094 0.0000 26.4478
#
#
#
# Elastic Compliance Matrix: (Units=1/GPa)
#
#
# Indices 1 2 3 4 5 6 
#
# 1 0.009587 -0.000742 -0.002334 0.000000 -0.007264 0.000000
# 2 -0.000742 0.006951 -0.005749 0.000000 -0.001691 0.000000
# 3 -0.002334 -0.005749 0.033696 0.000000 -0.006590 0.000000
# 4 0.000000 0.000000 0.000000 0.042318 0.000000 -0.012655
# 5 -0.007264 -0.001691 -0.006590 0.000000 0.034809 0.000000
# 6 0.000000 0.000000 0.000000 -0.012655 0.000000 0.041595
#
#
# Mechanical properties :
#
#
# Convention : Reuss Voigt Hill
#
# Bulk Modulus (GPa) = 30.69157 65.28341 47.98749
# Shear Modulus (GPa) = 25.32061 36.00771 30.66416
#
# Velocity S-wave (km/s) = 3.25960 3.88709 3.58709
# Velocity P-wave (km/s) = 5.20052 6.89493 6.10678
#
# Compressibility (1/GPa) = 0.03258224
#
# Stress axis : x y z
#
# Youngs Moduli (GPa) = 104.30953 143.86013 29.67730
#
# Poissons Ratio (x) = 0.10677 0.06928
# Poissons Ratio (y) = 0.07742 0.17063
# Poissons Ratio (z) = 0.24349 0.82710
#
# Static dielectric constant tensor:
#      x y z
#    x 2.000230 0.000000 0.048210 
#    y 0.000000 2.036830 0.000000 
#    z 0.048210 0.000000 2.059060 
# 
# From -- ./inp_files/246931.got.cif
#   From: 2010.05.17/outbox.cif.g08.bks.cpg/sg12_124_cif.got.tgz:246931.got - 2010.06.03 13:09:07.
