data_PCOD9174802
_publ_section_title
;
Structure prediction by ZEFSAII (Michael W. Deem and Ramdas Pophale) SiO2 
 PCOD9174802
Probable space group: C 2/M
;
_chemical_formula_sum "Si O2"
_cell_formula_units_Z 56
_cell_length_a 18.550428
_cell_length_b 13.654068
_cell_length_c 14.531991
_cell_angle_alpha 90.000000
_cell_angle_beta 48.604241
_cell_angle_gamma 90.000000
_cell_volume 2761.181971
_symmetry_space_group_name_H-M "C 2/M"
_symmetry_group_IT_number 12
_symmetry_cell_setting 'monoclinic'
loop_
_space_group_symop_operation_xyz
x,y,z
-x,y,-z
-x,-y,-z
x,-y,z
1/2+x,1/2+y,z
1/2-x,1/2+y,-z
1/2-x,1/2-y,-z
1/2+x,1/2-y,z
loop_
_atom_site_type_symbol
_atom_site_label
_atom_site_fract_x
_atom_site_fract_y
_atom_site_fract_z
Si Si1 0.284609 0.297990 0.181056
Si Si2 0.389614 0.114901 0.560653
Si Si3 0.639533 0.386390 0.056487
Si Si4 0.125732 0.782082 0.560856
Si Si5 0.070443 0.888294 0.310186
Si Si6 0.411762 0.612314 0.224421
Si Si7 0.734405 0.611426 0.318451
O O1 0.181171 0.334464 0.305522
O O2 0.299995 0.317806 0.061181
O O3 0.361981 0.363530 0.170525
O O4 0.297311 0.187272 0.206404
O O5 0.500000 0.125026 0.500000
O O6 0.370621 0.172205 0.481133
O O7 0.367453 0.000000 0.572192
O O8 0.669421 0.500000 0.019073
O O9 0.638561 0.363526 0.165918
O O10 0.526841 0.378888 0.124368
O O11 0.126141 0.811500 0.667031
O O12 0.208117 0.843181 0.438990
O O13 0.021838 0.820886 0.613945
O O14 0.132969 0.888250 0.348681
O O15 0.036353 0.000000 0.322667
O O16 0.389286 0.500000 0.270222
O O17 0.769040 0.500000 0.293514
#
# Coordination Sequence:
#
# PCOD9174802 Si02
#       7
#     8   8   8   8   8   8   8
#     4  11  21  34  54  75 102 139 171 210 259 300
#     4  10  21  35  51  75 107 141 176 207 241 300
#     4   9  18  33  55  80 101 124 162 215 268 307
#     4  10  18  32  53  76 102 134 167 208 262 303
#     4   9  17  31  53  79 102 125 164 218 265 304
#     4  10  20  34  55  82 104 125 167 220 261 302
#     4  10  20  32  48  73 103 135 170 206 250 306
#
# _framework density 20.281168999999998
#
# number of rings (size 3 to 8) (size 9 to 14) (size 15 to 20)
#    0.000    2.143    0.000    6.000    0.000    5.143 
#    0.000    2.143    0.000    6.857    0.000    0.000 
#    0.000    0.000    0.000    0.000    0.000    0.000 
#
# Total GULP energy -156383.828493 kJ/mol
# GULP energy per Si atom -5585.136732 kJ/mol
# Density = 2.023501 g / cm^3
# Si number density = 20.281169 Si / 1000 Ang^3
#
#
#
# Elastic Constant Matrix: (Units=GPa)
#
#
# Indices 1 2 3 4 5 6 
#
# 1 36.9731 -6.8104 -7.1183 0.0000 -3.1904 0.0000
# 2 -6.8104 132.0666 43.9465 0.0000 2.4035 0.0000
# 3 -7.1183 43.9465 87.0235 0.0000 16.8636 0.0000
# 4 0.0000 0.0000 0.0000 25.7339 0.0000 2.1119
# 5 -3.1904 2.4035 16.8636 0.0000 23.6449 0.0000
# 6 0.0000 0.0000 0.0000 2.1119 0.0000 20.4930
#
#
#
# Elastic Compliance Matrix: (Units=1/GPa)
#
#
# Indices 1 2 3 4 5 6 
#
# 1 0.027702 0.000964 0.001246 0.000000 0.002751 0.000000
# 2 0.000964 0.009289 -0.005169 0.000000 0.002872 0.000000
# 3 0.001246 -0.005169 0.016325 0.000000 -0.010950 0.000000
# 4 0.000000 0.000000 0.000000 0.039191 0.000000 -0.004039
# 5 0.002751 0.002872 -0.010950 0.000000 0.050181 0.000000
# 6 0.000000 0.000000 0.000000 -0.004039 0.000000 0.049213
#
#
# Mechanical properties :
#
#
# Convention : Reuss Voigt Hill
#
# Bulk Modulus (GPa) = 21.09786 35.12209 28.10998
# Shear Modulus (GPa) = 23.40624 29.04405 26.22514
#
# Velocity S-wave (km/s) = 3.40087 3.78838 3.59984
# Velocity P-wave (km/s) = 5.08395 6.04077 5.58289
#
# Compressibility (1/GPa) = 0.04739817
#
# Stress axis : x y z
#
# Youngs Moduli (GPa) = 36.09908 107.65021 61.25512
#
# Poissons Ratio (x) = -0.10375 -0.07633
# Poissons Ratio (y) = -0.03479 0.31662
# Poissons Ratio (z) = -0.04498 0.55643
#
# Static dielectric constant tensor:
#      x y z
#    x 1.729310 0.000000 0.004430 
#    y 0.000000 1.735560 0.000000 
#    z 0.004430 0.000000 1.711540 
# 
# From -- ./inp_files/233684.got.cif
#   From: 2010.05.17/outbox.cif.g08.bks.cpg/sg12_117_cif.got.tgz:233684.got - 2010.06.03 13:09:07.
