data_PCOD9174793
_publ_section_title
;
Structure prediction by ZEFSAII (Michael W. Deem and Ramdas Pophale) SiO2 
 PCOD9174793
Probable space group: C 2/M
;
_chemical_formula_sum "Si O2"
_cell_formula_units_Z 48
_cell_length_a 18.407013
_cell_length_b 17.372860
_cell_length_c 11.922012
_cell_angle_alpha 90.000000
_cell_angle_beta 49.632459
_cell_angle_gamma 90.000000
_cell_volume 2904.726321
_symmetry_space_group_name_H-M "C 2/M"
_symmetry_group_IT_number 12
_symmetry_cell_setting 'monoclinic'
loop_
_space_group_symop_operation_xyz
x,y,z
-x,y,-z
-x,-y,-z
x,-y,z
1/2+x,1/2+y,z
1/2-x,1/2+y,-z
1/2-x,1/2-y,-z
1/2+x,1/2-y,z
loop_
_atom_site_type_symbol
_atom_site_label
_atom_site_fract_x
_atom_site_fract_y
_atom_site_fract_z
Si Si1 0.102991 0.283908 0.643883
Si Si2 0.602504 0.912992 0.837355
Si Si3 0.270764 0.816019 0.135337
Si Si4 0.397496 0.587008 0.042363
Si Si5 0.102991 0.783908 0.150135
Si Si6 0.729236 0.683981 0.676866
O O1 0.097879 0.350604 0.742872
O O2 0.165547 0.318308 0.480278
O O3 0.161246 0.213776 0.644193
O O4 0.000000 0.250000 0.716501
O O5 0.682501 0.888145 0.848256
O O6 0.619580 0.000000 0.780344
O O7 0.500000 0.909940 0.000000
O O8 0.165547 0.818308 0.188628
O O9 0.271315 0.750000 0.228685
O O10 0.338754 0.786224 0.966684
O O11 0.380419 0.500000 0.019504
O O12 0.317499 0.611855 0.213258
O O13 0.500000 0.590059 0.000000
O O14 0.402121 0.649396 0.938630
#
# Coordination Sequence:
#
# PCOD9174793 Si02
#       6
#     8   8   8   8   8   8
#     4  10  18  32  53  75 101 135 172 218 259 312
#     4  10  19  32  52  76 104 139 175 216 263 312
#     4   9  19  32  51  77  98 132 175 215 260 307
#     4  10  19  32  52  76 104 139 175 216 263 312
#     4  10  18  32  53  75 101 135 172 218 259 312
#     4   9  19  32  51  77  98 132 175 215 260 307
#
# _framework density 16.524792000000001
#
# number of rings (size 3 to 8) (size 9 to 14) (size 15 to 20)
#    0.000    2.333    3.333    0.000    0.000    2.000 
#    0.000    0.000    0.000    0.000    0.000    9.333 
#    0.000    0.000    0.000    0.000    0.000    0.000 
#
# Total GULP energy -133647.817238 kJ/mol
# GULP energy per Si atom -5568.659052 kJ/mol
# Density = 1.648718 g / cm^3
# Si number density = 16.524792 Si / 1000 Ang^3
#
#
#
# Elastic Constant Matrix: (Units=GPa)
#
#
# Indices 1 2 3 4 5 6 
#
# 1 97.5524 16.6446 23.1713 0.0000 -23.1971 0.0000
# 2 16.6446 71.4732 12.2465 0.0000 -15.1946 0.0000
# 3 23.1713 12.2465 83.0905 0.0000 -26.7649 0.0000
# 4 0.0000 0.0000 0.0000 10.9183 0.0000 -5.1864
# 5 -23.1971 -15.1946 -26.7649 0.0000 21.5077 0.0000
# 6 0.0000 0.0000 0.0000 -5.1864 0.0000 12.4199
#
#
#
# Elastic Compliance Matrix: (Units=1/GPa)
#
#
# Indices 1 2 3 4 5 6 
#
# 1 0.013913 0.000118 0.001608 0.000000 0.017089 0.000000
# 2 0.000118 0.016710 0.002250 0.000000 0.014732 0.000000
# 3 0.001608 0.002250 0.020572 0.000000 0.028924 0.000000
# 4 0.000000 0.000000 0.000000 0.114253 0.000000 0.047711
# 5 0.017089 0.014732 0.028924 0.000000 0.111328 0.000000
# 6 0.000000 0.000000 0.000000 0.047711 0.000000 0.100439
#
#
# Mechanical properties :
#
#
# Convention : Reuss Voigt Hill
#
# Bulk Modulus (GPa) = 16.90776 39.58232 28.24504
# Shear Modulus (GPa) = 12.85412 22.30608 17.58010
#
# Velocity S-wave (km/s) = 2.79206 3.67802 3.26523
# Velocity P-wave (km/s) = 4.54401 6.48401 5.59868
#
# Compressibility (1/GPa) = 0.05914445
#
# Stress axis : x y z
#
# Youngs Moduli (GPa) = 71.87717 59.84356 48.60970
#
# Poissons Ratio (x) = -0.00704 -0.07814
# Poissons Ratio (y) = -0.00845 -0.10936
# Poissons Ratio (z) = -0.11555 -0.13463
#
# Static dielectric constant tensor:
#      x y z
#    x 1.563940 0.000000 -0.008110 
#    y 0.000000 1.544170 0.000000 
#    z -0.008110 0.000000 1.561590 
# 
# From -- ./inp_files/157658.got.cif
#   From: 2010.05.17/outbox.cif.g08.bks.cpg/sg12_79_cif.got.tgz:157658.got - 2010.06.03 13:09:07.
