data_PCOD9174006
_publ_section_title
;
Structure prediction by ZEFSAII (Michael W. Deem and Ramdas Pophale) SiO2 
 PCOD9174006
Probable space group: C 2/M
;
_chemical_formula_sum "Si O2"
_cell_formula_units_Z 56
_cell_length_a 25.945038
_cell_length_b 7.642713
_cell_length_c 17.476505
_cell_angle_alpha 90.000000
_cell_angle_beta 120.615627
_cell_angle_gamma 90.000000
_cell_volume 2982.355312
_symmetry_space_group_name_H-M "C 2/M"
_symmetry_group_IT_number 12
_symmetry_cell_setting 'monoclinic'
loop_
_space_group_symop_operation_xyz
x,y,z
-x,y,-z
-x,-y,-z
x,-y,z
1/2+x,1/2+y,z
1/2-x,1/2+y,-z
1/2-x,1/2-y,-z
1/2+x,1/2-y,z
loop_
_atom_site_type_symbol
_atom_site_label
_atom_site_fract_x
_atom_site_fract_y
_atom_site_fract_z
Si Si1 0.422188 0.285640 0.093480
Si Si2 0.879757 0.786060 0.893954
Si Si3 0.786329 0.701641 0.407423
Si Si4 0.166662 0.707283 0.398753
Si Si5 0.443654 0.711283 0.786149
Si Si6 0.243020 0.292087 0.776588
Si Si7 0.806329 0.792029 0.096916
O O1 0.421607 0.500000 0.093721
O O2 0.487977 0.228807 0.169176
O O3 0.367422 0.224251 0.104939
O O4 0.409312 0.232388 0.996232
O O5 0.915619 0.729352 0.845944
O O6 0.810891 0.725050 0.838088
O O7 0.879629 0.000000 0.893952
O O8 0.806146 0.500000 0.416185
O O9 0.822681 0.776913 0.507111
O O10 0.716919 0.708116 0.382166
O O11 0.787314 0.781025 0.323407
O O12 0.180022 0.500000 0.409326
O O13 0.101458 0.734882 0.314841
O O14 0.444154 0.500000 0.788247
O O15 0.249423 0.500000 0.768503
O O16 0.207204 0.268694 0.827659
O O17 0.811222 0.000000 0.103245
O O18 0.750000 0.750000 0.000000
#
# Coordination Sequence:
#
# PCOD9174006 Si02
#       7
#     8   8   8   8   8   8   8
#     4   9  18  31  49  72  97 129 171 206 234 287
#     4   9  15  27  49  74  97 124 163 201 237 287
#     4   9  18  33  51  72  99 133 167 200 244 299
#     4  10  19  30  48  75 105 129 158 204 252 297
#     4  10  18  31  52  73  97 133 168 199 242 297
#     4  10  18  32  53  74  98 129 167 206 245 292
#     4  11  21  34  51  74 101 132 169 208 248 288
#
# _framework density 18.777106
#
# number of rings (size 3 to 8) (size 9 to 14) (size 15 to 20)
#    0.000    2.286    2.857    1.286    0.000    2.857 
#    0.000    1.429    0.000    1.714    0.000    6.000 
#    0.000    0.000    0.000    0.000    0.000    0.000 
#
# Total GULP energy -156231.209080 kJ/mol
# GULP energy per Si atom -5579.686039 kJ/mol
# Density = 1.873437 g / cm^3
# Si number density = 18.777106 Si / 1000 Ang^3
#
#
#
# Elastic Constant Matrix: (Units=GPa)
#
#
# Indices 1 2 3 4 5 6 
#
# 1 123.0106 -3.3868 89.3850 0.0000 6.9440 0.0000
# 2 -3.3868 33.8182 -4.1905 0.0000 -0.8975 0.0000
# 3 89.3850 -4.1905 175.6241 0.0000 -8.0979 0.0000
# 4 0.0000 0.0000 0.0000 14.0634 0.0000 0.2863
# 5 6.9440 -0.8975 -8.0979 0.0000 29.3768 0.0000
# 6 0.0000 0.0000 0.0000 0.2863 0.0000 16.0394
#
#
#
# Elastic Compliance Matrix: (Units=1/GPa)
#
#
# Indices 1 2 3 4 5 6 
#
# 1 0.013647 0.000340 -0.007177 0.000000 -0.005194 0.000000
# 2 0.000340 0.029702 0.000581 0.000000 0.000987 0.000000
# 3 -0.007177 0.000581 0.009561 0.000000 0.004350 0.000000
# 4 0.000000 0.000000 0.000000 0.071132 0.000000 -0.001270
# 5 -0.005194 0.000987 0.004350 0.000000 0.036497 0.000000
# 6 0.000000 0.000000 0.000000 -0.001270 0.000000 0.062369
#
#
# Mechanical properties :
#
#
# Convention : Reuss Voigt Hill
#
# Bulk Modulus (GPa) = 24.75358 55.11871 39.93614
# Shear Modulus (GPa) = 20.08935 28.60560 24.34747
#
# Velocity S-wave (km/s) = 3.27446 3.90735 3.60482
# Velocity P-wave (km/s) = 5.24477 7.05510 6.21619
#
# Compressibility (1/GPa) = 0.04039820
#
# Stress axis : x y z
#
# Youngs Moduli (GPa) = 73.27487 33.66758 104.58797
#
# Poissons Ratio (x) = -0.01143 0.75065
# Poissons Ratio (y) = -0.02488 -0.06081
# Poissons Ratio (z) = 0.52591 -0.01957
#
# Static dielectric constant tensor:
#      x y z
#    x 1.619780 0.000000 -0.003210 
#    y 0.000000 1.724270 0.000000 
#    z -0.003210 0.000000 1.655220 
# 
# From -- ./inp_files/287875.got.cif
#   From: 2010.05.17/outbox.cif.g08.bks.cpg/sg12_144_cif.got.tgz:287875.got - 2010.06.03 13:09:07.
