data_PCOD9174916
_publ_section_title
;
Structure prediction by ZEFSAII (Michael W. Deem and Ramdas Pophale) SiO2 
 PCOD9174916
Probable space group: C 2/M
;
_chemical_formula_sum "Si O2"
_cell_formula_units_Z 64
_cell_length_a 10.230050
_cell_length_b 14.253829
_cell_length_c 22.896303
_cell_angle_alpha 90.000000
_cell_angle_beta 107.152148
_cell_angle_gamma 90.000000
_cell_volume 3190.191234
_symmetry_space_group_name_H-M "C 2/M"
_symmetry_group_IT_number 12
_symmetry_cell_setting 'monoclinic'
loop_
_space_group_symop_operation_xyz
x,y,z
-x,y,-z
-x,-y,-z
x,-y,z
1/2+x,1/2+y,z
1/2-x,1/2+y,-z
1/2-x,1/2-y,-z
1/2+x,1/2-y,z
loop_
_atom_site_type_symbol
_atom_site_label
_atom_site_fract_x
_atom_site_fract_y
_atom_site_fract_z
Si Si1 0.870551 0.891422 0.648150
Si Si2 0.403930 0.263364 0.542001
Si Si3 0.009728 0.295295 0.868872
Si Si4 0.082305 0.896023 0.906192
Si Si5 0.257316 0.396535 0.192884
Si Si6 0.359524 0.111560 0.014885
Si Si7 0.551562 0.891300 0.635508
Si Si8 0.445332 0.747915 0.259075
O O1 0.911270 0.843762 0.592299
O O2 0.706945 0.888326 0.632531
O O3 0.938419 0.826458 0.706705
O O4 0.914339 0.000000 0.658827
O O5 0.500000 0.285436 0.500000
O O6 0.250000 0.250000 0.500000
O O7 0.456945 0.167526 0.579109
O O8 0.981745 0.192437 0.892653
O O9 0.133811 0.337482 0.922218
O O10 0.040608 0.284088 0.804725
O O11 0.883359 0.365703 0.855355
O O12 0.134993 0.901020 0.846135
O O13 0.030954 0.000000 0.916006
O O14 0.217858 0.873465 0.962047
O O15 0.246574 0.500000 0.218028
O O16 0.307225 0.315091 0.242732
O O17 0.371092 0.000000 0.024314
O O18 0.500000 0.141780 0.000000
O O19 0.551268 0.833974 0.695997
O O20 0.511220 0.000000 0.636503
#
# Coordination Sequence:
#
# PCOD9174916 Si02
#       8
#     8   8   8   8   8   8   8   8
#     4  10  21  40  65  89 121 166 204 245 299 357
#     4  11  22  40  67  99 133 160 203 257 299 353
#     4  11  20  32  56  82 107 145 191 244 298 355
#     4   9  19  34  52  77 105 138 181 231 293 366
#     4  10  19  34  55  80 109 143 187 240 297 354
#     4  10  18  32  54  79 106 139 185 241 305 372
#     4  10  22  40  62  87 124 172 207 238 301 371
#     4  10  22  37  56  85 117 151 200 255 294 346
#
# _framework density 20.061492999999999
#
# number of rings (size 3 to 8) (size 9 to 14) (size 15 to 20)
#    0.000    1.875    2.500    1.875    0.000    2.500 
#    0.000    0.625    0.000    1.875    0.000    0.000 
#    0.000    0.000    0.000    0.000    0.000    0.000 
#
# Total GULP energy -178589.806079 kJ/mol
# GULP energy per Si atom -5580.931440 kJ/mol
# Density = 2.001583 g / cm^3
# Si number density = 20.061493 Si / 1000 Ang^3
#
#
#
# Elastic Constant Matrix: (Units=GPa)
#
#
# Indices 1 2 3 4 5 6 
#
# 1 38.0226 27.7783 20.3318 0.0000 0.4144 0.0000
# 2 27.7783 117.7405 46.0877 0.0000 -3.1007 0.0000
# 3 20.3318 46.0877 113.3405 0.0000 -8.0863 0.0000
# 4 0.0000 0.0000 0.0000 17.7045 0.0000 1.5129
# 5 0.4144 -3.1007 -8.0863 0.0000 9.3059 0.0000
# 6 0.0000 0.0000 0.0000 1.5129 0.0000 16.8577
#
#
#
# Elastic Compliance Matrix: (Units=1/GPa)
#
#
# Indices 1 2 3 4 5 6 
#
# 1 0.033170 -0.006524 -0.003793 0.000000 -0.006947 0.000000
# 2 -0.006524 0.011385 -0.003377 0.000000 0.001150 0.000000
# 3 -0.003793 -0.003377 0.011523 0.000000 0.009056 0.000000
# 4 0.000000 0.000000 0.000000 0.056919 0.000000 -0.005108
# 5 -0.006947 0.001150 0.009056 0.000000 0.116021 0.000000
# 6 0.000000 0.000000 0.000000 -0.005108 0.000000 0.059778
#
#
# Mechanical properties :
#
#
# Convention : Reuss Voigt Hill
#
# Bulk Modulus (GPa) = 34.85596 50.83325 42.84460
# Shear Modulus (GPa) = 15.34928 20.43400 17.89164
#
# Velocity S-wave (km/s) = 2.76907 3.19496 2.98961
# Velocity P-wave (km/s) = 5.25699 6.24533 5.77235
#
# Compressibility (1/GPa) = 0.02868950
#
# Stress axis : x y z
#
# Youngs Moduli (GPa) = 30.14731 87.83788 86.78509
#
# Poissons Ratio (x) = 0.57306 0.32918
# Poissons Ratio (y) = 0.19668 0.29307
# Poissons Ratio (z) = 0.11435 0.29663
#
# Static dielectric constant tensor:
#      x y z
#    x 1.728750 0.000000 -0.003970 
#    y 0.000000 1.737220 0.000000 
#    z -0.003970 0.000000 1.721980 
# 
# From -- ./inp_files/335649.got.cif
#   From: 2010.05.17/outbox.cif.g08.bks.cpg/sg12_168_cif.got.tgz:335649.got - 2010.06.03 13:09:07.
