data_PCOD9174336
_publ_section_title
;
Structure prediction by ZEFSAII (Michael W. Deem and Ramdas Pophale) SiO2 
 PCOD9174336
Probable space group: C 2/M
;
_chemical_formula_sum "Si O2"
_cell_formula_units_Z 64
_cell_length_a 9.245125
_cell_length_b 17.438112
_cell_length_c 22.437808
_cell_angle_alpha 90.000000
_cell_angle_beta 93.541624
_cell_angle_gamma 90.000000
_cell_volume 3610.459372
_symmetry_space_group_name_H-M "C 2/M"
_symmetry_group_IT_number 12
_symmetry_cell_setting 'monoclinic'
loop_
_space_group_symop_operation_xyz
x,y,z
-x,y,-z
-x,-y,-z
x,-y,z
1/2+x,1/2+y,z
1/2-x,1/2+y,-z
1/2-x,1/2-y,-z
1/2+x,1/2-y,z
loop_
_atom_site_type_symbol
_atom_site_label
_atom_site_fract_x
_atom_site_fract_y
_atom_site_fract_z
Si Si1 0.464184 0.242703 0.721020
Si Si2 0.845710 0.910731 0.470348
Si Si3 0.691870 0.702573 0.639300
Si Si4 0.278188 0.808596 0.198178
Si Si5 0.155582 0.311703 0.534078
Si Si6 0.651640 0.859173 0.991083
Si Si7 0.368232 0.411775 0.897414
Si Si8 0.136455 0.207158 0.911271
O O1 0.566766 0.300052 0.685899
O O2 0.348938 0.204546 0.673433
O O3 0.579619 0.187287 0.756637
O O4 0.360379 0.283499 0.766440
O O5 0.816156 0.864040 0.409508
O O6 0.730491 0.891164 0.518961
O O7 0.000000 0.884757 0.500000
O O8 0.850464 0.000000 0.457898
O O9 0.662899 0.781699 0.601583
O O10 0.232421 0.883167 0.159759
O O11 0.317106 0.742369 0.150870
O O12 0.250000 0.250000 0.500000
O O13 0.000000 0.310480 0.500000
O O14 0.768769 0.902361 0.953522
O O15 0.611363 0.781163 0.953266
O O16 0.500000 0.899858 0.000000
O O17 0.730970 0.836431 0.054035
O O18 0.415910 0.500000 0.892497
O O19 0.499487 0.349996 0.904811
#
# Coordination Sequence:
#
# PCOD9174336 Si02
#       8
#     8   8   8   8   8   8   8   8
#     4  10  20  33  59  80 103 138 201 235 274 305
#     4  10  20  34  53  80 117 152 180 218 282 349
#     4  10  18  33  54  83 108 140 184 240 268 318
#     4  10  20  37  58  83 104 147 193 241 269 336
#     4  10  18  31  54  81 111 143 176 224 279 333
#     4  10  20  33  58  88 112 143 183 224 278 337
#     4  11  23  38  57  83 118 148 179 230 291 345
#     4  10  19  35  59  82 111 147 185 227 275 341
#
# _framework density 17.726278000000001
#
# number of rings (size 3 to 8) (size 9 to 14) (size 15 to 20)
#    0.000    1.875    1.250    6.375    1.750    1.500 
#    0.000    1.250    0.000    3.000    0.000    0.000 
#    0.000    0.000    0.000    0.000    0.000    0.000 
#
# Total GULP energy -178411.297530 kJ/mol
# GULP energy per Si atom -5575.353048 kJ/mol
# Density = 1.768593 g / cm^3
# Si number density = 17.726278 Si / 1000 Ang^3
#
#
#
# Elastic Constant Matrix: (Units=GPa)
#
#
# Indices 1 2 3 4 5 6 
#
# 1 127.1080 23.8640 42.2268 0.0000 8.4885 0.0000
# 2 23.8640 65.1114 21.8032 0.0000 7.1734 0.0000
# 3 42.2268 21.8032 88.8575 0.0000 10.1053 0.0000
# 4 0.0000 0.0000 0.0000 5.8780 0.0000 1.2727
# 5 8.4885 7.1734 10.1053 0.0000 41.5771 0.0000
# 6 0.0000 0.0000 0.0000 1.2727 0.0000 15.4411
#
#
#
# Elastic Compliance Matrix: (Units=1/GPa)
#
#
# Indices 1 2 3 4 5 6 
#
# 1 0.009632 -0.002127 -0.003984 0.000000 -0.000631 0.000000
# 2 -0.002127 0.017357 -0.003041 0.000000 -0.001821 0.000000
# 3 -0.003984 -0.003041 0.014132 0.000000 -0.002097 0.000000
# 4 0.000000 0.000000 0.000000 0.173217 0.000000 -0.014277
# 5 -0.000631 -0.001821 -0.002097 0.000000 0.025004 0.000000
# 6 0.000000 0.000000 0.000000 -0.014277 0.000000 0.065939
#
#
# Mechanical properties :
#
#
# Convention : Reuss Voigt Hill
#
# Bulk Modulus (GPa) = 43.82589 50.76277 47.29433
# Shear Modulus (GPa) = 15.09708 25.45809 20.27759
#
# Velocity S-wave (km/s) = 2.92152 3.79381 3.38587
# Velocity P-wave (km/s) = 6.01313 6.92025 6.48257
#
# Compressibility (1/GPa) = 0.02281756
#
# Stress axis : x y z
#
# Youngs Moduli (GPa) = 103.81805 57.61443 70.76238
#
# Poissons Ratio (x) = 0.12253 0.28190
# Poissons Ratio (y) = 0.22079 0.21519
# Poissons Ratio (z) = 0.41359 0.17521
#
# Static dielectric constant tensor:
#      x y z
#    x 1.628590 0.000000 -0.007410 
#    y 0.000000 1.611950 0.000000 
#    z -0.007410 0.000000 1.629850 
# 
# From -- ./inp_files/300783.got.cif
#   From: 2010.05.17/outbox.cif.g08.bks.cpg/sg12_151_cif.got.tgz:300783.got - 2010.06.03 13:09:07.
