data_PCOD9174736
_publ_section_title
;
Structure prediction by ZEFSAII (Michael W. Deem and Ramdas Pophale) SiO2 
 PCOD9174736
Probable space group: C 2/M
;
_chemical_formula_sum "Si O2"
_cell_formula_units_Z 56
_cell_length_a 20.363188
_cell_length_b 7.893416
_cell_length_c 27.157339
_cell_angle_alpha 90.000000
_cell_angle_beta 30.535132
_cell_angle_gamma 90.000000
_cell_volume 2217.780776
_symmetry_space_group_name_H-M "C 2/M"
_symmetry_group_IT_number 12
_symmetry_cell_setting 'monoclinic'
loop_
_space_group_symop_operation_xyz
x,y,z
-x,y,-z
-x,-y,-z
x,-y,z
1/2+x,1/2+y,z
1/2-x,1/2+y,-z
1/2-x,1/2-y,-z
1/2+x,1/2-y,z
loop_
_atom_site_type_symbol
_atom_site_label
_atom_site_fract_x
_atom_site_fract_y
_atom_site_fract_z
Si Si1 0.330609 0.800239 0.877601
Si Si2 0.047532 0.705754 0.660641
Si Si3 0.270089 0.200261 0.373127
Si Si4 0.001849 0.294446 0.578645
Si Si5 0.362500 0.799555 0.071330
Si Si6 0.276155 0.701251 0.227084
Si Si7 0.014576 0.806891 0.841690
O O1 0.434899 0.731880 0.770353
O O2 0.192566 0.737623 0.947181
O O3 0.392652 0.763154 0.890521
O O4 0.326717 0.000000 0.875394
O O5 0.039005 0.500000 0.664362
O O6 0.178629 0.748046 0.605242
O O7 0.034327 0.765015 0.613448
O O8 0.118809 0.237499 0.468859
O O9 0.363988 0.297285 0.275146
O O10 0.294934 0.000000 0.349834
O O11 0.999612 0.500000 0.579057
O O12 0.855649 0.233369 0.663512
O O13 0.267195 0.726601 0.174554
O O14 0.365523 0.000000 0.075191
O O15 0.500000 0.726415 0.000000
O O16 0.282485 0.500000 0.231968
O O17 0.410624 0.777567 0.160529
O O18 0.980473 0.000000 0.875449
#
# Coordination Sequence:
#
# PCOD9174736 Si02
#       7
#     8   8   8   8   8   8   8
#     4  10  19  37  63  89 117 154 196 237 289 351
#     4   8  15  29  50  75 107 144 190 239 282 338
#     4  10  20  32  48  78 114 156 202 243 289 343
#     4  10  18  32  52  76 110 152 197 245 291 339
#     4  11  24  41  64  95 124 148 184 236 291 351
#     4  10  22  40  62  86 116 156 200 243 293 353
#     4  10  21  38  59  85 118 158 201 244 292 343
#
# _framework density 25.250464999999998
#
# number of rings (size 3 to 8) (size 9 to 14) (size 15 to 20)
#    0.000    2.143    1.429    3.000    0.000    3.429 
#    0.000    4.286    0.000    0.000    0.000    0.000 
#    0.000    0.000    0.000    0.000    0.000    0.000 
#
# Total GULP energy -156503.422168 kJ/mol
# GULP energy per Si atom -5589.407935 kJ/mol
# Density = 2.519299 g / cm^3
# Si number density = 25.250465 Si / 1000 Ang^3
#
#
#
# Elastic Constant Matrix: (Units=GPa)
#
#
# Indices 1 2 3 4 5 6 
#
# 1 154.1006 -3.4440 46.8912 0.0049 -19.5882 -0.0084
# 2 -3.4440 41.8449 -2.9920 0.0102 -8.8603 -0.0156
# 3 46.8912 -2.9920 110.8118 0.0006 -28.0368 -0.0044
# 4 0.0049 0.0102 0.0006 15.7004 -0.0014 -1.7012
# 5 -19.5882 -8.8603 -28.0368 -0.0014 52.9826 0.0056
# 6 -0.0084 -0.0156 -0.0044 -1.7012 0.0056 20.6784
#
#
#
# Elastic Compliance Matrix: (Units=1/GPa)
#
#
# Indices 1 2 3 4 5 6 
#
# 1 0.007542 0.000720 -0.002813 -0.000002 0.001420 0.000002
# 2 0.000720 0.025227 0.001745 -0.000014 0.005408 0.000017
# 3 -0.002813 0.001745 0.011629 0.000000 0.005406 0.000001
# 4 -0.000002 -0.000014 0.000000 0.064265 -0.000002 0.005287
# 5 0.001420 0.005408 0.005406 -0.000002 0.023164 -0.000001
# 6 0.000002 0.000017 0.000001 0.005287 -0.000001 0.048795
#
#
# Mechanical properties :
#
#
# Convention : Reuss Voigt Hill
#
# Bulk Modulus (GPa) = 22.88171 43.07420 32.97796
# Shear Modulus (GPa) = 25.52517 35.62575 30.57546
#
# Velocity S-wave (km/s) = 3.18288 3.76026 3.48356
# Velocity P-wave (km/s) = 4.75281 5.99571 5.41007
#
# Compressibility (1/GPa) = 0.04370302
#
# Stress axis : x y z
#
# Youngs Moduli (GPa) = 132.59522 39.64014 85.98953
#
# Poissons Ratio (x) = -0.02856 0.24185
# Poissons Ratio (y) = -0.09552 -0.15002
# Poissons Ratio (z) = 0.37293 -0.06916
#
# Static dielectric constant tensor:
#      x y z
#    x 2.049680 0.000000 -0.018720 
#    y 0.000000 1.895760 0.000000 
#    z -0.018720 0.000000 2.045040 
# 
# From -- ./inp_files/380588.got.cif
#   From: 2010.05.17/outbox.cif.g08.bks.cpg/sg12_191_cif.got.tgz:380588.got - 2010.06.03 13:09:07.
