data_PCOD9174840
_publ_section_title
;
Structure prediction by ZEFSAII (Michael W. Deem and Ramdas Pophale) SiO2 
 PCOD9174840
Probable space group: C 2/M
;
_chemical_formula_sum "Si O2"
_cell_formula_units_Z 64
_cell_length_a 32.045159
_cell_length_b 13.812292
_cell_length_c 7.389002
_cell_angle_alpha 90.000000
_cell_angle_beta 93.376821
_cell_angle_gamma 90.000000
_cell_volume 3264.820147
_symmetry_space_group_name_H-M "C 2/M"
_symmetry_group_IT_number 12
_symmetry_cell_setting 'monoclinic'
loop_
_space_group_symop_operation_xyz
x,y,z
-x,y,-z
-x,-y,-z
x,-y,z
1/2+x,1/2+y,z
1/2-x,1/2+y,-z
1/2-x,1/2-y,-z
1/2+x,1/2-y,z
loop_
_atom_site_type_symbol
_atom_site_label
_atom_site_fract_x
_atom_site_fract_y
_atom_site_fract_z
Si Si1 0.203065 0.261430 0.420264
Si Si2 0.627696 0.613550 0.340781
Si Si3 0.485034 0.892221 0.784530
Si Si4 0.324078 0.111454 0.887566
Si Si5 0.547245 0.393936 0.592134
Si Si6 0.152900 0.385699 0.686116
Si Si7 0.093416 0.704124 0.156662
Si Si8 0.067028 0.692862 0.740119
O O1 0.250000 0.250000 0.500000
O O2 0.170673 0.168951 0.415205
O O3 0.203898 0.309099 0.220213
O O4 0.183947 0.340458 0.551226
O O5 0.635580 0.500000 0.297706
O O6 0.587497 0.612395 0.467110
O O7 0.610984 0.687655 0.182548
O O8 0.448316 0.815829 0.740098
O O9 0.527235 0.872568 0.686438
O O10 0.468735 0.000000 0.753127
O O11 0.500000 0.885285 0.000000
O O12 0.368762 0.130205 0.800373
O O13 0.310930 0.000000 0.861596
O O14 0.330917 0.130694 0.103059
O O15 0.500000 0.388067 0.500000
O O16 0.550036 0.500000 0.680820
O O17 0.552830 0.302751 0.720249
O O18 0.147523 0.500000 0.665252
O O19 0.108473 0.333779 0.643878
O O20 0.080321 0.679410 0.950355
#
# Coordination Sequence:
#
# PCOD9174840 Si02
#       8
#     8   8   8   8   8   8   8   8
#     4  11  23  39  62  86 115 152 191 238 294 354
#     4  10  21  38  55  76 109 146 189 240 287 335
#     4   9  16  27  47  77 111 145 181 225 281 340
#     4   9  19  36  59  87 117 150 187 230 286 348
#     4  10  20  34  53  74 105 150 191 228 276 331
#     4  10  20  37  61  87 116 149 187 234 290 353
#     4   9  18  31  53  80 108 148 186 232 282 341
#     4  10  18  32  53  79 111 145 189 234 283 336
#
# _framework density 19.602916
#
# number of rings (size 3 to 8) (size 9 to 14) (size 15 to 20)
#    0.000    2.250    1.250    1.875    0.000    5.000 
#    0.000    0.000    0.000    6.000    0.000    0.000 
#    0.000    0.000    0.000    0.000    0.000    0.000 
#
# Total GULP energy -178250.477655 kJ/mol
# GULP energy per Si atom -5570.327427 kJ/mol
# Density = 1.955830 g / cm^3
# Si number density = 19.602916 Si / 1000 Ang^3
#
#
#
# Elastic Constant Matrix: (Units=GPa)
#
#
# Indices 1 2 3 4 5 6 
#
# 1 91.9488 31.3690 20.2315 0.0000 23.6647 0.0000
# 2 31.3690 97.9650 9.6804 0.0000 24.8143 0.0000
# 3 20.2315 9.6804 29.9599 0.0000 9.0954 0.0000
# 4 0.0000 0.0000 0.0000 27.6714 0.0000 -1.5438
# 5 23.6647 24.8143 9.0954 0.0000 22.3605 0.0000
# 6 0.0000 0.0000 0.0000 -1.5438 0.0000 16.0464
#
#
#
# Elastic Compliance Matrix: (Units=1/GPa)
#
#
# Indices 1 2 3 4 5 6 
#
# 1 0.016071 -0.001204 -0.006509 0.000000 -0.013024 0.000000
# 2 -0.001204 0.014290 0.000711 0.000000 -0.014874 0.000000
# 3 -0.006509 0.000711 0.040720 0.000000 -0.010463 0.000000
# 4 0.000000 0.000000 0.000000 0.036333 0.000000 0.003496
# 5 -0.013024 -0.014874 -0.010463 0.000000 0.079268 0.000000
# 6 0.000000 0.000000 0.000000 0.003496 0.000000 0.062656
#
#
# Mechanical properties :
#
#
# Convention : Reuss Voigt Hill
#
# Bulk Modulus (GPa) = 17.52006 38.04841 27.78424
# Shear Modulus (GPa) = 17.70736 23.78852 20.74794
#
# Velocity S-wave (km/s) = 3.00876 3.48734 3.25685
# Velocity P-wave (km/s) = 4.58553 5.97219 5.32420
#
# Compressibility (1/GPa) = 0.05707742
#
# Stress axis : x y z
#
# Youngs Moduli (GPa) = 62.22561 69.97683 24.55771
#
# Poissons Ratio (x) = 0.08422 0.15985
# Poissons Ratio (y) = 0.07489 -0.01746
# Poissons Ratio (z) = 0.40504 -0.04975
#
# Static dielectric constant tensor:
#      x y z
#    x 1.741840 0.000000 0.030030 
#    y 0.000000 1.667070 0.000000 
#    z 0.030030 0.000000 1.753890 
# 
# From -- ./inp_files/110476.got.cif
#   From: 2010.05.17/outbox.cif.g08.bks.cpg/sg12_56_cif.got.tgz:110476.got - 2010.06.03 13:09:07.
