data_PCOD9174503
_publ_section_title
;
Structure prediction by ZEFSAII (Michael W. Deem and Ramdas Pophale) SiO2 
 PCOD9174503
Probable space group: C 2/M
;
_chemical_formula_sum "Si O2"
_cell_formula_units_Z 56
_cell_length_a 23.967093
_cell_length_b 7.558462
_cell_length_c 15.441088
_cell_angle_alpha 90.000000
_cell_angle_beta 55.201056
_cell_angle_gamma 90.000000
_cell_volume 2296.964775
_symmetry_space_group_name_H-M "C 2/M"
_symmetry_group_IT_number 12
_symmetry_cell_setting 'monoclinic'
loop_
_space_group_symop_operation_xyz
x,y,z
-x,y,-z
-x,-y,-z
x,-y,z
1/2+x,1/2+y,z
1/2-x,1/2+y,-z
1/2-x,1/2-y,-z
1/2+x,1/2-y,z
loop_
_atom_site_type_symbol
_atom_site_label
_atom_site_fract_x
_atom_site_fract_y
_atom_site_fract_z
Si Si1 0.404415 0.789589 0.893395
Si Si2 0.637669 0.290872 0.246721
Si Si3 0.852715 0.784554 0.450605
Si Si4 0.263650 0.717179 0.684861
Si Si5 0.059267 0.209370 0.782435
Si Si6 0.874595 0.706757 0.110637
Si Si7 0.493169 0.299321 0.404216
O O1 0.352218 0.724700 0.865430
O O2 0.484917 0.748358 0.809281
O O3 0.398862 0.000000 0.899400
O O4 0.387150 0.717216 0.004561
O O5 0.631256 0.500000 0.271448
O O6 0.686959 0.227427 0.278971
O O7 0.562940 0.205916 0.318393
O O8 0.789896 0.724131 0.566296
O O9 0.878204 0.722688 0.333358
O O10 0.919522 0.730004 0.446387
O O11 0.847536 0.000000 0.451449
O O12 0.264062 0.500000 0.681355
O O13 0.190154 0.780966 0.780406
O O14 0.064596 0.280654 0.874718
O O15 0.065868 0.000000 0.781537
O O16 0.859928 0.500000 0.109806
O O17 0.500000 0.314681 0.500000
O O18 0.493058 0.500000 0.366859
#
# Coordination Sequence:
#
# PCOD9174503 Si02
#       7
#     8   8   8   8   8   8   8
#     4  11  23  38  56  79 112 150 183 225 281 328
#     4  10  18  31  57  88 111 138 184 231 267 316
#     4   9  16  28  52  86 114 135 171 226 279 324
#     4   9  18  34  57  83 113 150 184 215 265 336
#     4  11  22  37  61  88 107 134 185 240 280 318
#     4  10  23  41  56  76 111 153 190 222 268 331
#     4   9  13  22  46  81 112 134 166 220 274 315
#
# _framework density 24.379999999999999
#
# number of rings (size 3 to 8) (size 9 to 14) (size 15 to 20)
#    0.000    2.143    2.857    1.286    0.000    4.000 
#    0.000    0.714    0.000    5.571    0.000    0.000 
#    0.000    0.000    0.000    0.000    0.000    0.000 
#
# Total GULP energy -156134.561586 kJ/mol
# GULP energy per Si atom -5576.234342 kJ/mol
# Density = 2.432451 g / cm^3
# Si number density = 24.380000 Si / 1000 Ang^3
#
#
#
# Elastic Constant Matrix: (Units=GPa)
#
#
# Indices 1 2 3 4 5 6 
#
# 1 40.5476 -8.8112 35.3865 0.0003 5.4318 0.0004
# 2 -8.8112 65.1197 1.6432 0.0025 -5.1808 0.0026
# 3 35.3865 1.6432 132.3084 0.0003 22.7652 0.0003
# 4 0.0003 0.0025 0.0003 67.4460 -0.0001 44.7687
# 5 5.4318 -5.1808 22.7652 -0.0001 36.6619 0.0000
# 6 0.0004 0.0026 0.0003 44.7687 0.0000 37.0524
#
#
#
# Elastic Compliance Matrix: (Units=1/GPa)
#
#
# Indices 1 2 3 4 5 6 
#
# 1 0.033664 0.004909 -0.009322 0.000001 0.001494 -0.000001
# 2 0.004909 0.016295 -0.002000 0.000001 0.002817 -0.000002
# 3 -0.009322 -0.002000 0.011070 0.000000 -0.005775 0.000000
# 4 0.000001 0.000001 0.000000 0.074883 0.000000 -0.090478
# 5 0.001494 0.002817 -0.005775 0.000000 0.031039 0.000000
# 6 -0.000001 -0.000002 0.000000 -0.090478 0.000000 0.136308
#
#
# Mechanical properties :
#
#
# Convention : Reuss Voigt Hill
#
# Bulk Modulus (GPa) = 20.74528 32.71253 26.72890
# Shear Modulus (GPa) = 15.05329 42.21587 28.63458
#
# Velocity S-wave (km/s) = 2.48754 4.16574 3.43083
# Velocity P-wave (km/s) = 4.09610 6.04853 5.16540
#
# Compressibility (1/GPa) = 0.04820373
#
# Stress axis : x y z
#
# Youngs Moduli (GPa) = 29.70514 61.36782 90.33584
#
# Poissons Ratio (x) = -0.30126 0.84209
# Poissons Ratio (y) = -0.14583 0.18068
# Poissons Ratio (z) = 0.27690 0.12274
#
# Static dielectric constant tensor:
#      x y z
#    x 1.941440 0.000000 0.021320 
#    y 0.000000 1.922680 0.000000 
#    z 0.021320 0.000000 2.072070 
# 
# From -- ./inp_files/238401.got.cif
#   From: 2010.05.17/outbox.cif.g08.bks.cpg/sg12_120_cif.got.tgz:238401.got - 2010.06.03 13:09:07.
