data_PCOD9174289
_publ_section_title
;
Structure prediction by ZEFSAII (Michael W. Deem and Ramdas Pophale) SiO2 
 PCOD9174289
Probable space group: C 2/M
;
_chemical_formula_sum "Si O2"
_cell_formula_units_Z 56
_cell_length_a 14.989684
_cell_length_b 7.382326
_cell_length_c 22.396241
_cell_angle_alpha 90.000000
_cell_angle_beta 122.750269
_cell_angle_gamma 90.000000
_cell_volume 2084.374058
_symmetry_space_group_name_H-M "C 2/M"
_symmetry_group_IT_number 12
_symmetry_cell_setting 'monoclinic'
loop_
_space_group_symop_operation_xyz
x,y,z
-x,y,-z
-x,-y,-z
x,-y,z
1/2+x,1/2+y,z
1/2-x,1/2+y,-z
1/2-x,1/2-y,-z
1/2+x,1/2-y,z
loop_
_atom_site_type_symbol
_atom_site_label
_atom_site_fract_x
_atom_site_fract_y
_atom_site_fract_z
Si Si1 0.706954 0.780799 0.132203
Si Si2 0.935552 0.708361 0.242992
Si Si3 0.908164 0.217973 0.548096
Si Si4 0.868344 0.715545 0.018881
Si Si5 0.219941 0.208333 0.389328
Si Si6 0.362470 0.786940 0.341934
Si Si7 0.447353 0.778578 0.825234
O O1 0.825520 0.711551 0.166204
O O2 0.633815 0.720953 0.050554
O O3 0.658724 0.723404 0.178401
O O4 0.710416 0.000000 0.132686
O O5 0.962854 0.500000 0.264711
O O6 0.897832 0.795360 0.291431
O O7 0.025169 0.784902 0.231613
O O8 0.872324 0.283486 0.601599
O O9 0.821979 0.288860 0.470565
O O10 0.028811 0.270996 0.581108
O O11 0.900840 0.000000 0.544096
O O12 0.885694 0.500000 0.022503
O O13 0.750000 0.750000 0.000000
O O14 0.957715 0.783186 0.096323
O O15 0.265109 0.292201 0.344677
O O16 0.193403 0.000000 0.368367
O O17 0.340635 0.000000 0.325466
O O18 0.448376 0.000000 0.823360
#
# Coordination Sequence:
#
# PCOD9174289 Si02
#       7
#     8   8   8   8   8   8   8
#     4  10  20  34  54  78 102 134 175 215 260 310
#     4  10  21  37  54  74 103 140 177 213 254 305
#     4  10  20  34  55  82 107 133 171 217 258 298
#     4  10  18  31  54  78 103 133 168 213 263 310
#     4   9  19  36  55  77 108 140 169 207 259 313
#     4  10  21  36  54  75 104 143 177 205 254 315
#     4   9  18  34  54  75 103 137 171 210 260 313
#
# _framework density 26.866578000000001
#
# number of rings (size 3 to 8) (size 9 to 14) (size 15 to 20)
#    0.000    2.286    1.429    1.286    0.000    6.286 
#    0.000    1.429    0.000    1.714    0.000    0.000 
#    0.000    0.000    0.000    0.000    0.000    0.000 
#
# Total GULP energy -156683.846999 kJ/mol
# GULP energy per Si atom -5595.851679 kJ/mol
# Density = 2.680543 g / cm^3
# Si number density = 26.866578 Si / 1000 Ang^3
#
#
#
# Elastic Constant Matrix: (Units=GPa)
#
#
# Indices 1 2 3 4 5 6 
#
# 1 196.3599 7.0552 31.2193 0.0000 -29.6527 0.0000
# 2 7.0552 121.9436 17.6513 0.0000 -3.3967 0.0000
# 3 31.2193 17.6513 86.9938 0.0000 -14.2695 0.0000
# 4 0.0000 0.0000 0.0000 14.7122 0.0000 7.5787
# 5 -29.6527 -3.3967 -14.2695 0.0000 59.7113 0.0000
# 6 0.0000 0.0000 0.0000 7.5787 0.0000 6.9792
#
#
#
# Elastic Compliance Matrix: (Units=1/GPa)
#
#
# Indices 1 2 3 4 5 6 
#
# 1 0.005725 -0.000024 -0.001648 0.000000 0.002448 0.000000
# 2 -0.000024 0.008449 -0.001695 0.000000 0.000063 0.000000
# 3 -0.001648 -0.001695 0.012781 0.000000 0.002140 0.000000
# 4 0.000000 0.000000 0.000000 0.154262 0.000000 -0.167513
# 5 0.002448 0.000063 0.002140 0.000000 0.018478 0.000000
# 6 0.000000 0.000000 0.000000 -0.167513 0.000000 0.325186
#
#
# Mechanical properties :
#
#
# Convention : Reuss Voigt Hill
#
# Bulk Modulus (GPa) = 49.45539 57.46097 53.45818
# Shear Modulus (GPa) = 9.28752 39.57199 24.42976
#
# Velocity S-wave (km/s) = 1.86129 3.84201 3.01873
# Velocity P-wave (km/s) = 4.80281 6.41213 5.66491
#
# Compressibility (1/GPa) = 0.02022024
#
# Stress axis : x y z
#
# Youngs Moduli (GPa) = 174.66433 118.35623 78.23849
#
# Poissons Ratio (x) = 0.00290 0.12895
# Poissons Ratio (y) = 0.00428 0.13263
# Poissons Ratio (z) = 0.28787 0.20063
#
# Static dielectric constant tensor:
#      x y z
#    x 2.066530 0.000000 -0.061040 
#    y 0.000000 1.991950 0.000000 
#    z -0.061040 0.000000 2.152720 
# 
# From -- ./inp_files/338569.got.cif
#   From: 2010.05.17/outbox.cif.g08.bks.cpg/sg12_170_cif.got.tgz:338569.got - 2010.06.03 13:09:07.
