data_PCOD9174140
_publ_section_title
;
Structure prediction by ZEFSAII (Michael W. Deem and Ramdas Pophale) SiO2 
 PCOD9174140
Probable space group: C 2/M
;
_chemical_formula_sum "Si O2"
_cell_formula_units_Z 40
_cell_length_a 19.656529
_cell_length_b 19.879461
_cell_length_c 9.957276
_cell_angle_alpha 90.000000
_cell_angle_beta 39.388912
_cell_angle_gamma 90.000000
_cell_volume 2469.101932
_symmetry_space_group_name_H-M "C 2/M"
_symmetry_group_IT_number 12
_symmetry_cell_setting 'monoclinic'
loop_
_space_group_symop_operation_xyz
x,y,z
-x,y,-z
-x,-y,-z
x,-y,z
1/2+x,1/2+y,z
1/2-x,1/2+y,-z
1/2-x,1/2-y,-z
1/2+x,1/2-y,z
loop_
_atom_site_type_symbol
_atom_site_label
_atom_site_fract_x
_atom_site_fract_y
_atom_site_fract_z
Si Si1 0.428548 0.856002 0.488554
Si Si2 0.240485 0.193570 0.398409
Si Si3 0.103016 0.421970 0.747294
Si Si4 0.508516 0.298272 0.644439
Si Si5 0.216132 0.213982 0.913126
O O1 0.500000 0.884838 0.500000
O O2 0.424220 0.901058 0.363567
O O3 0.481040 0.783403 0.371255
O O4 0.309915 0.836452 0.723104
O O5 0.250000 0.250000 0.500000
O O6 0.304868 0.128296 0.343962
O O7 0.117250 0.177968 0.549035
O O8 0.289571 0.228719 0.191608
O O9 0.134298 0.500000 0.706292
O O10 0.000000 0.412198 0.000000
O O11 0.500000 0.317467 0.500000
O O12 0.399872 0.317802 0.885239
O O13 0.250000 0.250000 0.000000
#
# Coordination Sequence:
#
# PCOD9174140 Si02
#       5
#     8   8   8   8   8
#     4  10  19  34  55  83 115 148 184 234 282 340
#     4  11  21  34  56  86 112 145 189 240 280 332
#     4  11  24  40  57  82 119 157 190 232 286 342
#     4  10  18  31  52  85 112 140 179 229 289 330
#     4  11  18  31  56  86 115 144 180 239 289 333
#
# _framework density 16.200222
#
# number of rings (size 3 to 8) (size 9 to 14) (size 15 to 20)
#    0.000    1.400   10.000    1.200    0.000    0.400 
#    0.000    0.000    0.000    3.000    0.000    0.000 
#    0.000    0.000    0.000    0.000    0.000    0.000 
#
# Total GULP energy -111555.087298 kJ/mol
# GULP energy per Si atom -5577.754365 kJ/mol
# Density = 1.616335 g / cm^3
# Si number density = 16.200222 Si / 1000 Ang^3
#
#
#
# Elastic Constant Matrix: (Units=GPa)
#
#
# Indices 1 2 3 4 5 6 
#
# 1 154.2041 64.0185 66.1816 0.0000 2.7286 0.0000
# 2 64.0185 81.0763 46.3351 0.0000 1.8504 0.0000
# 3 66.1816 46.3351 126.9216 0.0000 -2.6982 0.0000
# 4 0.0000 0.0000 0.0000 14.7868 0.0000 -4.2506
# 5 2.7286 1.8504 -2.6982 0.0000 36.8716 0.0000
# 6 0.0000 0.0000 0.0000 -4.2506 0.0000 16.3688
#
#
#
# Elastic Compliance Matrix: (Units=1/GPa)
#
#
# Indices 1 2 3 4 5 6 
#
# 1 0.010551 -0.006524 -0.003134 0.000000 -0.000683 0.000000
# 2 -0.006524 0.019673 -0.003797 0.000000 -0.000782 0.000000
# 3 -0.003134 -0.003797 0.010925 0.000000 0.001222 0.000000
# 4 0.000000 0.000000 0.000000 0.073083 0.000000 0.018978
# 5 -0.000683 -0.000782 0.001222 0.000000 0.027300 0.000000
# 6 0.000000 0.000000 0.000000 0.018978 0.000000 0.066020
#
#
# Mechanical properties :
#
#
# Convention : Reuss Voigt Hill
#
# Bulk Modulus (GPa) = 70.23039 79.47471 74.85255
# Shear Modulus (GPa) = 20.90217 25.98322 23.44269
#
# Velocity S-wave (km/s) = 3.59589 4.00919 3.80815
# Velocity P-wave (km/s) = 7.79013 8.40213 8.10191
#
# Compressibility (1/GPa) = 0.01423885
#
# Stress axis : x y z
#
# Youngs Moduli (GPa) = 94.78078 50.83042 91.53065
#
# Poissons Ratio (x) = 0.33162 0.28688
# Poissons Ratio (y) = 0.61836 0.34753
# Poissons Ratio (z) = 0.29707 0.19299
#
# Static dielectric constant tensor:
#      x y z
#    x 1.574140 0.000000 -0.002830 
#    y 0.000000 1.507630 0.000000 
#    z -0.002830 0.000000 1.565160 
# 
# From -- ./inp_files/62302.got.cif
#   From: 2010.05.17/outbox.cif.g08.bks.cpg/sg12_32_cif.got.tgz:62302.got - 2010.06.03 13:09:07.
