data_PCOD9174317
_publ_section_title
;
Structure prediction by ZEFSAII (Michael W. Deem and Ramdas Pophale) SiO2 
 PCOD9174317
Probable space group: C 2/M
;
_chemical_formula_sum "Si O2"
_cell_formula_units_Z 56
_cell_length_a 15.461953
_cell_length_b 7.425765
_cell_length_c 23.481043
_cell_angle_alpha 90.000000
_cell_angle_beta 67.035852
_cell_angle_gamma 90.000000
_cell_volume 2482.357166
_symmetry_space_group_name_H-M "C 2/M"
_symmetry_group_IT_number 12
_symmetry_cell_setting 'monoclinic'
loop_
_space_group_symop_operation_xyz
x,y,z
-x,y,-z
-x,-y,-z
x,-y,z
1/2+x,1/2+y,z
1/2-x,1/2+y,-z
1/2-x,1/2-y,-z
1/2+x,1/2-y,z
loop_
_atom_site_type_symbol
_atom_site_label
_atom_site_fract_x
_atom_site_fract_y
_atom_site_fract_z
Si Si1 0.034127 0.707837 0.659717
Si Si2 0.474496 0.718032 0.877968
Si Si3 0.344814 0.714635 0.010790
Si Si4 0.322807 0.279346 0.146216
Si Si5 0.882158 0.709376 0.783543
Si Si6 0.264127 0.215895 0.429182
Si Si7 0.432013 0.281732 0.569344
O O1 0.051327 0.500000 0.672073
O O2 0.966789 0.790790 0.725004
O O3 0.974904 0.712897 0.616786
O O4 0.136471 0.787302 0.619411
O O5 0.471473 0.500000 0.878288
O O6 0.430045 0.779819 0.949308
O O7 0.582855 0.773743 0.845222
O O8 0.411380 0.781901 0.841992
O O9 0.357386 0.500000 0.012745
O O10 0.250000 0.750000 0.000000
O O11 0.334887 0.781772 0.077570
O O12 0.319683 0.500000 0.146506
O O13 0.222833 0.215289 0.195574
O O14 0.875753 0.500000 0.767929
O O15 0.250000 0.250000 0.500000
O O16 0.173003 0.280259 0.418274
O O17 0.266055 0.000000 0.423213
O O18 0.500000 0.229192 0.500000
O O19 0.432225 0.500000 0.572091
#
# Coordination Sequence:
#
# PCOD9174317 Si02
#       7
#     8   8   8   8   8   8   8
#     4  10  22  37  55  80 109 141 178 217 261 319
#     4  10  20  34  55  81 105 137 185 226 260 313
#     4  10  18  31  54  80 105 137 178 224 270 311
#     4   9  18  34  55  76 106 144 177 215 267 320
#     4  10  21  38  55  75 108 146 178 214 267 321
#     4  10  20  35  55  80 108 137 171 214 264 313
#     4  10  20  35  56  81 107 136 172 214 263 314
#
# _framework density 22.559204000000001
#
# number of rings (size 3 to 8) (size 9 to 14) (size 15 to 20)
#    0.000    2.143    2.857    0.429    0.000    4.286 
#    0.000    1.429    0.000    1.714    0.000    0.000 
#    0.000    0.000    0.000    0.000    0.000    0.000 
#
# Total GULP energy -156437.140688 kJ/mol
# GULP energy per Si atom -5587.040739 kJ/mol
# Density = 2.250786 g / cm^3
# Si number density = 22.559204 Si / 1000 Ang^3
#
#
#
# Elastic Constant Matrix: (Units=GPa)
#
#
# Indices 1 2 3 4 5 6 
#
# 1 125.1625 -2.8757 20.4318 0.0000 -51.1623 0.0000
# 2 -2.8757 73.5684 5.3101 0.0000 -9.9880 0.0000
# 3 20.4318 5.3101 99.8447 0.0000 -46.9122 0.0000
# 4 0.0000 0.0000 0.0000 10.3023 0.0000 -1.5644
# 5 -51.1623 -9.9880 -46.9122 0.0000 45.9641 0.0000
# 6 0.0000 0.0000 0.0000 -1.5644 0.0000 40.3776
#
#
#
# Elastic Compliance Matrix: (Units=1/GPa)
#
#
# Indices 1 2 3 4 5 6 
#
# 1 0.022368 0.005354 0.014185 0.000000 0.040539 0.000000
# 2 0.005354 0.015378 0.004720 0.000000 0.014119 0.000000
# 3 0.014185 0.004720 0.028364 0.000000 0.045764 0.000000
# 4 0.000000 0.000000 0.000000 0.097640 -0.000001 0.003783
# 5 0.040539 0.014119 0.045764 -0.000001 0.116656 0.000000
# 6 0.000000 0.000000 0.000000 0.003783 0.000000 0.024913
#
#
# Mechanical properties :
#
#
# Convention : Reuss Voigt Hill
#
# Bulk Modulus (GPa) = 8.72370 38.25643 23.49006
# Shear Modulus (GPa) = 16.94857 37.70944 27.32900
#
# Velocity S-wave (km/s) = 2.74395 4.09293 3.48434
# Velocity P-wave (km/s) = 3.73020 6.27145 5.15973
#
# Compressibility (1/GPa) = 0.11463025
#
# Stress axis : x y z
#
# Youngs Moduli (GPa) = 44.70677 65.02684 35.25568
#
# Poissons Ratio (x) = -0.34817 -0.50011
# Poissons Ratio (y) = -0.23937 -0.16642
# Poissons Ratio (z) = -0.63418 -0.30695
#
# Static dielectric constant tensor:
#      x y z
#    x 1.803790 0.000000 -0.047790 
#    y 0.000000 1.669650 0.000000 
#    z -0.047790 0.000000 1.822280 
# 
# From -- ./inp_files/309455.got.cif
#   From: 2010.05.17/outbox.cif.g08.bks.cpg/sg12_155_cif.got.tgz:309455.got - 2010.06.03 13:09:07.
