data_PCOD9174924
_publ_section_title
;
Structure prediction by ZEFSAII (Michael W. Deem and Ramdas Pophale) SiO2 
 PCOD9174924
Probable space group: C 2/M
;
_chemical_formula_sum "Si O2"
_cell_formula_units_Z 56
_cell_length_a 17.849670
_cell_length_b 12.038730
_cell_length_c 15.600773
_cell_angle_alpha 90.000000
_cell_angle_beta 62.234357
_cell_angle_gamma 90.000000
_cell_volume 2966.414143
_symmetry_space_group_name_H-M "C 2/M"
_symmetry_group_IT_number 12
_symmetry_cell_setting 'monoclinic'
loop_
_space_group_symop_operation_xyz
x,y,z
-x,y,-z
-x,-y,-z
x,-y,z
1/2+x,1/2+y,z
1/2-x,1/2+y,-z
1/2-x,1/2-y,-z
1/2+x,1/2-y,z
loop_
_atom_site_type_symbol
_atom_site_label
_atom_site_fract_x
_atom_site_fract_y
_atom_site_fract_z
Si Si1 0.298667 0.366338 0.005068
Si Si2 0.495470 0.629133 0.856084
Si Si3 0.018981 0.868806 0.337093
Si Si4 0.361901 0.267041 0.494811
Si Si5 0.830266 0.191122 0.179759
Si Si6 0.797610 0.129156 0.701514
Si Si7 0.728662 0.619207 0.606790
O O1 0.276963 0.500000 0.991848
O O2 0.299305 0.361170 0.107898
O O3 0.250000 0.250000 0.000000
O O4 0.397010 0.349338 0.926417
O O5 0.511136 0.500000 0.869812
O O6 0.507499 0.642766 0.747639
O O7 0.567965 0.695671 0.867645
O O8 0.116782 0.836478 0.294744
O O9 0.959120 0.796746 0.429962
O O10 0.011338 0.000000 0.364178
O O11 0.319035 0.343005 0.591164
O O12 0.322143 0.293349 0.423193
O O13 0.327610 0.147344 0.541712
O O14 0.782918 0.307269 0.219315
O O15 0.798464 0.125314 0.280684
O O16 0.785939 0.000000 0.718774
O O17 0.706406 0.500000 0.582512
#
# Coordination Sequence:
#
# PCOD9174924 Si02
#       7
#     8   8   8   8   8   8   8
#     4  11  24  42  65  91 119 150 188 238 295 352
#     4  10  20  36  60  86 111 146 194 241 280 330
#     4  10  18  32  54  79 111 147 190 239 281 328
#     4  10  19  30  51  79 110 150 191 233 278 333
#     4  11  21  36  60  86 113 148 191 239 285 339
#     4  10  21  34  53  84 119 154 190 234 288 340
#     4  10  19  32  51  79 111 145 186 234 281 329
#
# _framework density 18.878011000000001
#
# number of rings (size 3 to 8) (size 9 to 14) (size 15 to 20)
#    0.000    1.714    1.429    4.286    0.000    4.000 
#    0.000    0.714    0.000   12.857    0.000    0.000 
#    0.000    0.000    0.000    0.000    0.000    0.000 
#
# Total GULP energy -155914.554720 kJ/mol
# GULP energy per Si atom -5568.376954 kJ/mol
# Density = 1.883504 g / cm^3
# Si number density = 18.878011 Si / 1000 Ang^3
#
#
#
# Elastic Constant Matrix: (Units=GPa)
#
#
# Indices 1 2 3 4 5 6 
#
# 1 97.8644 45.2609 24.0264 0.0000 -7.4009 0.0000
# 2 45.2609 66.7587 26.1279 0.0000 -15.8430 0.0000
# 3 24.0264 26.1279 77.1304 0.0000 -5.4445 0.0000
# 4 0.0000 0.0000 0.0000 8.3542 0.0000 1.7363
# 5 -7.4009 -15.8430 -5.4445 0.0000 36.0421 0.0000
# 6 0.0000 0.0000 0.0000 1.7363 0.0000 19.6571
#
#
#
# Elastic Compliance Matrix: (Units=1/GPa)
#
#
# Indices 1 2 3 4 5 6 
#
# 1 0.015094 -0.010046 -0.001407 0.000000 -0.001529 0.000000
# 2 -0.010046 0.025765 -0.004998 0.000000 0.008508 0.000000
# 3 -0.001407 -0.004998 0.015082 0.000000 -0.000208 0.000000
# 4 0.000000 0.000000 0.000000 0.121938 0.000000 -0.010771
# 5 -0.001529 0.008508 -0.000208 0.000000 0.031140 0.000000
# 6 0.000000 0.000000 0.000000 -0.010771 0.000000 0.051824
#
#
# Mechanical properties :
#
#
# Convention : Reuss Voigt Hill
#
# Bulk Modulus (GPa) = 43.40313 48.06487 45.73400
# Shear Modulus (GPa) = 16.58796 22.56657 19.57727
#
# Velocity S-wave (km/s) = 2.96749 3.46119 3.22381
# Velocity P-wave (km/s) = 5.89768 6.44121 6.17543
#
# Compressibility (1/GPa) = 0.02303981
#
# Stress axis : x y z
#
# Youngs Moduli (GPa) = 66.25182 38.81205 66.30530
#
# Poissons Ratio (x) = 0.38989 0.09328
# Poissons Ratio (y) = 0.66554 0.33140
# Poissons Ratio (z) = 0.09320 0.19399
#
# Static dielectric constant tensor:
#      x y z
#    x 1.729760 0.000000 0.004860 
#    y 0.000000 1.700490 0.000000 
#    z 0.004860 0.000000 1.684300 
# 
# From -- ./inp_files/223715.got.cif
#   From: 2010.05.17/outbox.cif.g08.bks.cpg/sg12_112_cif.got.tgz:223715.got - 2010.06.03 13:09:07.
