data_PCOD9174921
_publ_section_title
;
Structure prediction by ZEFSAII (Michael W. Deem and Ramdas Pophale) SiO2 
 PCOD9174921
Probable space group: C 2/M
;
_chemical_formula_sum "Si O2"
_cell_formula_units_Z 56
_cell_length_a 19.336004
_cell_length_b 7.662409
_cell_length_c 17.063244
_cell_angle_alpha 90.000000
_cell_angle_beta 121.405087
_cell_angle_gamma 90.000000
_cell_volume 2157.741884
_symmetry_space_group_name_H-M "C 2/M"
_symmetry_group_IT_number 12
_symmetry_cell_setting 'monoclinic'
loop_
_space_group_symop_operation_xyz
x,y,z
-x,y,-z
-x,-y,-z
x,-y,z
1/2+x,1/2+y,z
1/2-x,1/2+y,-z
1/2-x,1/2-y,-z
1/2+x,1/2-y,z
loop_
_atom_site_type_symbol
_atom_site_label
_atom_site_fract_x
_atom_site_fract_y
_atom_site_fract_z
Si Si1 0.842953 0.800572 0.570900
Si Si2 0.864440 0.296710 0.412246
Si Si3 0.179345 0.695257 0.275935
Si Si4 0.986550 0.288155 0.808877
Si Si5 0.746193 0.790132 0.905760
Si Si6 0.919858 0.206579 0.989952
Si Si7 0.416243 0.785721 0.278263
O O1 0.750000 0.750000 0.500000
O O2 0.881427 0.780692 0.507917
O O3 0.855616 0.684995 0.654936
O O4 0.848175 0.000000 0.599724
O O5 0.882378 0.500000 0.431339
O O6 0.767877 0.280458 0.332831
O O7 0.913157 0.226442 0.366354
O O8 0.191679 0.500000 0.254073
O O9 0.095839 0.781029 0.196783
O O10 0.984975 0.500000 0.810932
O O11 0.061913 0.230449 0.906949
O O12 0.011080 0.228477 0.735393
O O13 0.667300 0.729217 0.812773
O O14 0.745396 0.000000 0.897738
O O15 0.750000 0.750000 0.000000
O O16 0.830610 0.722974 0.919300
O O17 0.918566 0.000000 0.973162
O O18 0.000000 0.289434 0.000000
O O19 0.418048 0.000000 0.281025
#
# Coordination Sequence:
#
# PCOD9174921 Si02
#       7
#     8   8   8   8   8   8   8
#     4  10  18  32  54  79 109 140 172 215 261 311
#     4  10  19  33  57  82 105 138 176 218 262 310
#     4  10  20  34  54  80 108 138 175 218 264 313
#     4  10  21  38  56  76 106 142 178 220 263 311
#     4  10  19  35  56  77 103 140 179 218 259 310
#     4  10  22  36  54  80 109 139 176 221 267 315
#     4   9  19  35  55  77 104 139 180 217 258 311
#
# _framework density 25.953057000000001
#
# number of rings (size 3 to 8) (size 9 to 14) (size 15 to 20)
#    0.000    2.143    1.429    3.857    2.000    1.429 
#    0.000    3.571    0.000    4.286    0.000    0.000 
#    0.000    0.000    0.000    0.000    0.000    0.000 
#
# Total GULP energy -156341.656106 kJ/mol
# GULP energy per Si atom -5583.630575 kJ/mol
# Density = 2.589399 g / cm^3
# Si number density = 25.953057 Si / 1000 Ang^3
#
#
#
# Elastic Constant Matrix: (Units=GPa)
#
#
# Indices 1 2 3 4 5 6 
#
# 1 139.2614 -4.4437 4.5424 0.0000 -18.0118 0.0000
# 2 -4.4437 98.2086 4.4845 0.0000 -5.3266 0.0000
# 3 4.5424 4.4845 31.2200 0.0000 -23.4172 0.0000
# 4 0.0000 0.0000 0.0000 29.4430 0.0000 -5.4492
# 5 -18.0118 -5.3266 -23.4172 0.0000 51.0095 0.0000
# 6 0.0000 0.0000 0.0000 -5.4492 0.0000 9.5673
#
#
#
# Elastic Compliance Matrix: (Units=1/GPa)
#
#
# Indices 1 2 3 4 5 6 
#
# 1 0.007584 0.000463 0.001334 0.000000 0.003339 0.000000
# 2 0.000463 0.010290 -0.000941 0.000000 0.000806 0.000000
# 3 0.001334 -0.000941 0.049189 0.000000 0.022955 0.000000
# 4 0.000000 0.000000 0.000000 0.037966 0.000000 0.021624
# 5 0.003339 0.000806 0.022955 0.000000 0.031405 0.000000
# 6 0.000000 0.000000 0.000000 0.021624 0.000000 0.116838
#
#
# Mechanical properties :
#
#
# Convention : Reuss Voigt Hill
#
# Bulk Modulus (GPa) = 14.53971 30.87295 22.70633
# Shear Modulus (GPa) = 18.21595 35.61108 26.91351
#
# Velocity S-wave (km/s) = 2.65218 3.70825 3.22375
# Velocity P-wave (km/s) = 3.87211 5.50058 4.75655
#
# Compressibility (1/GPa) = 0.06877714
#
# Stress axis : x y z
#
# Youngs Moduli (GPa) = 131.85929 97.18119 20.32961
#
# Poissons Ratio (x) = -0.04502 -0.02713
# Poissons Ratio (y) = -0.06109 0.01913
# Poissons Ratio (z) = -0.17596 0.09143
#
# Static dielectric constant tensor:
#      x y z
#    x 2.017270 0.000000 -0.085830 
#    y 0.000000 1.947190 0.000000 
#    z -0.085830 0.000000 2.187350 
# 
# From -- ./inp_files/281669.got.cif
#   From: 2010.05.17/outbox.cif.g08.bks.cpg/sg12_141_cif.got.tgz:281669.got - 2010.06.03 13:09:07.
