data_PCOD9174431
_publ_section_title
;
Structure prediction by ZEFSAII (Michael W. Deem and Ramdas Pophale) SiO2 
 PCOD9174431
Probable space group: C 2/M
;
_chemical_formula_sum "Si O2"
_cell_formula_units_Z 48
_cell_length_a 21.253093
_cell_length_b 13.869262
_cell_length_c 11.632156
_cell_angle_alpha 90.000000
_cell_angle_beta 131.847449
_cell_angle_gamma 90.000000
_cell_volume 2554.156712
_symmetry_space_group_name_H-M "C 2/M"
_symmetry_group_IT_number 12
_symmetry_cell_setting 'monoclinic'
loop_
_space_group_symop_operation_xyz
x,y,z
-x,y,-z
-x,-y,-z
x,-y,z
1/2+x,1/2+y,z
1/2-x,1/2+y,-z
1/2-x,1/2-y,-z
1/2+x,1/2-y,z
loop_
_atom_site_type_symbol
_atom_site_label
_atom_site_fract_x
_atom_site_fract_y
_atom_site_fract_z
Si Si1 0.773814 0.389522 0.093861
Si Si2 0.759268 0.191933 0.191924
Si Si3 0.425704 0.612313 0.497758
Si Si4 0.976668 0.389827 0.338638
Si Si5 0.589053 0.206954 0.088188
Si Si6 0.528883 0.721997 0.234153
O O1 0.753834 0.500000 0.100543
O O2 0.750905 0.305895 0.155658
O O3 0.875472 0.381973 0.202322
O O4 0.733029 0.360623 0.921933
O O5 0.841809 0.171110 0.366036
O O6 0.673377 0.157611 0.148755
O O7 0.500000 0.639899 0.500000
O O8 0.407662 0.500000 0.459002
O O9 0.455889 0.633979 0.663391
O O10 0.001204 0.500000 0.341134
O O11 0.000000 0.372303 0.500000
O O12 0.019806 0.313658 0.307339
O O13 0.599473 0.260281 0.222630
O O14 0.500000 0.148520 0.000000
O O15 0.556060 0.278371 0.946908
#
# Coordination Sequence:
#
# PCOD9174431 Si02
#       6
#     8   8   8   8   8   8
#     4  10  20  32  53  84 114 147 190 235 286 340
#     4  11  20  37  58  82 118 152 188 241 281 339
#     4  11  24  38  59  88 116 151 192 237 290 344
#     4  10  18  31  55  85 112 144 186 238 295 340
#     4   8  20  37  61  84 107 156 197 227 290 334
#     4   9  18  39  56  79 117 149 190 235 282 338
#
# _framework density 18.792895000000001
#
# number of rings (size 3 to 8) (size 9 to 14) (size 15 to 20)
#    1.000    1.000    1.667    3.000    2.333    0.667 
#    0.000    5.833    0.000    2.000    0.000    0.000 
#    0.000    0.000    0.000    0.000    0.000    0.000 
#
# Total GULP energy -133641.217086 kJ/mol
# GULP energy per Si atom -5568.384045 kJ/mol
# Density = 1.875012 g / cm^3
# Si number density = 18.792895 Si / 1000 Ang^3
#
#
#
# Elastic Constant Matrix: (Units=GPa)
#
#
# Indices 1 2 3 4 5 6 
#
# 1 73.9811 15.7473 25.2328 0.0000 2.0411 0.0000
# 2 15.7473 78.0965 6.3693 0.0000 1.1163 0.0000
# 3 25.2328 6.3693 76.5429 0.0000 -9.1243 0.0000
# 4 0.0000 0.0000 0.0000 13.7942 0.0000 3.2078
# 5 2.0411 1.1163 -9.1243 0.0000 28.6039 0.0000
# 6 0.0000 0.0000 0.0000 3.2078 0.0000 0.2095
#
#
#
# Elastic Compliance Matrix: (Units=1/GPa)
#
#
# Indices 1 2 3 4 5 6 
#
# 1 0.016013 -0.002751 -0.005378 0.000000 -0.002751 0.000000
# 2 -0.002751 0.013386 -0.000256 0.000000 -0.000408 0.000000
# 3 -0.005378 -0.000256 0.015495 0.000000 0.005336 0.000000
# 4 0.000000 0.000000 0.000000 -0.028309 0.000000 0.433479
# 5 -0.002751 -0.000408 0.005336 0.000000 0.036875 0.000000
# 6 0.000000 0.000000 0.000000 0.433479 0.000000 -1.864073
#
#
# Mechanical properties :
#
#
# Convention : Reuss Voigt Hill
#
# Bulk Modulus (GPa) = 35.55548 35.92438 35.73993
# Shear Modulus (GPa) = -2.80195 20.60625 8.90215
#
# Velocity S-wave (km/s) = -1.22237 3.31492 2.17882
# Velocity P-wave (km/s) = 4.11928 5.81456 5.03873
#
# Compressibility (1/GPa) = 0.02812506
#
# Stress axis : x y z
#
# Youngs Moduli (GPa) = 62.45111 74.70475 64.53818
#
# Poissons Ratio (x) = 0.20550 0.34706
# Poissons Ratio (y) = 0.17179 0.01650
# Poissons Ratio (z) = 0.33584 0.01910
#
# Static dielectric constant tensor:
#      x y z
#    x 1.668700 0.000000 -0.004230 
#    y 0.000000 1.654950 0.000000 
#    z -0.004230 0.000000 1.656270 
# 
# From -- ./inp_files/166885.got.cif
#   From: 2010.05.17/outbox.cif.g08.bks.cpg/sg12_84_cif.got.tgz:166885.got - 2010.06.03 13:09:07.
