data_PCOD9174818
_publ_section_title
;
Structure prediction by ZEFSAII (Michael W. Deem and Ramdas Pophale) SiO2 
 PCOD9174818
Probable space group: C 2/M
;
_chemical_formula_sum "Si O2"
_cell_formula_units_Z 64
_cell_length_a 20.212319
_cell_length_b 10.623569
_cell_length_c 16.952338
_cell_angle_alpha 90.000000
_cell_angle_beta 99.842062
_cell_angle_gamma 90.000000
_cell_volume 3586.551222
_symmetry_space_group_name_H-M "C 2/M"
_symmetry_group_IT_number 12
_symmetry_cell_setting 'monoclinic'
loop_
_space_group_symop_operation_xyz
x,y,z
-x,y,-z
-x,-y,-z
x,-y,z
1/2+x,1/2+y,z
1/2-x,1/2+y,-z
1/2-x,1/2-y,-z
1/2+x,1/2-y,z
loop_
_atom_site_type_symbol
_atom_site_label
_atom_site_fract_x
_atom_site_fract_y
_atom_site_fract_z
Si Si1 0.323466 0.135449 0.001918
Si Si2 0.427021 0.642426 0.024179
Si Si3 0.857216 0.852961 0.784688
Si Si4 0.616816 0.348608 0.718071
Si Si5 0.314931 0.646852 0.428566
Si Si6 0.733500 0.745951 0.858466
Si Si7 0.503366 0.353052 0.798013
Si Si8 0.300518 0.643621 0.601007
O O1 0.373278 0.251232 0.994337
O O2 0.295741 0.152901 0.085178
O O3 0.357132 0.000000 0.001216
O O4 0.262625 0.144704 0.926916
O O5 0.404116 0.500000 0.000004
O O6 0.443546 0.649205 0.120142
O O7 0.500000 0.659892 0.000000
O O8 0.796819 0.789060 0.819272
O O9 0.844201 0.844628 0.688312
O O10 0.932172 0.798877 0.811559
O O11 0.855731 0.000000 0.807528
O O12 0.616245 0.500000 0.728057
O O13 0.632976 0.323420 0.630154
O O14 0.676068 0.297102 0.786259
O O15 0.544528 0.299455 0.732849
O O16 0.293485 0.500000 0.412115
O O17 0.337808 0.655614 0.524386
O O18 0.255058 0.747235 0.407854
O O19 0.487654 0.500000 0.777868
O O20 0.271760 0.500000 0.596410
#
# Coordination Sequence:
#
# PCOD9174818 Si02
#       8
#     8   8   8   8   8   8   8   8
#     4  11  24  36  52  79 110 137 174 231 281 315
#     4  10  20  36  57  76 100 141 186 221 264 326
#     4  10  19  33  53  79 107 137 176 221 262 308
#     4  10  18  32  53  77 103 138 178 216 257 313
#     4   9  17  30  51  79 109 139 171 209 261 318
#     4  11  21  35  53  75 105 143 178 218 266 327
#     4   9  18  32  51  74 101 136 178 219 260 310
#     4   9  17  30  50  80 111 136 168 215 263 309
#
# _framework density 17.844441
#
# number of rings (size 3 to 8) (size 9 to 14) (size 15 to 20)
#    0.000    2.125    2.500    1.500    0.000    3.750 
#    0.000    0.625    0.000    4.500    0.000    0.000 
#    0.000    4.000    0.000    0.000    0.000    0.000 
#
# Total GULP energy -178195.125432 kJ/mol
# GULP energy per Si atom -5568.597670 kJ/mol
# Density = 1.780383 g / cm^3
# Si number density = 17.844441 Si / 1000 Ang^3
#
#
#
# Elastic Constant Matrix: (Units=GPa)
#
#
# Indices 1 2 3 4 5 6 
#
# 1 83.2115 23.5355 15.5911 0.0000 -20.8758 0.0000
# 2 23.5355 63.7061 9.9888 0.0000 -2.0815 0.0000
# 3 15.5911 9.9888 80.5532 0.0000 -17.4181 0.0000
# 4 0.0000 0.0000 0.0000 -8.8504 0.0000 7.7858
# 5 -20.8758 -2.0815 -17.4181 0.0000 29.6204 0.0000
# 6 0.0000 0.0000 0.0000 7.7858 0.0000 16.7556
#
#
#
# Elastic Compliance Matrix: (Units=1/GPa)
#
#
# Indices 1 2 3 4 5 6 
#
# 1 0.016438 -0.005698 -0.000065 0.000000 0.011147 0.000000
# 2 -0.005698 0.017984 -0.001973 0.000000 -0.003913 0.000000
# 3 -0.000065 -0.001973 0.014472 0.000000 0.008326 0.000000
# 4 0.000000 0.000000 0.000000 -0.080204 0.000000 0.037268
# 5 0.011147 -0.003913 0.008326 0.000000 0.046237 0.000000
# 6 0.000000 0.000000 0.000000 0.037268 0.000000 0.042364
#
#
# Mechanical properties :
#
#
# Convention : Reuss Voigt Hill
#
# Bulk Modulus (GPa) = 29.92156 36.18909 33.05532
# Shear Modulus (GPa) = 59.59253 19.39551 39.49402
#
# Velocity S-wave (km/s) = 5.78516 3.30043 4.70961
# Velocity P-wave (km/s) = 7.83763 5.90323 6.93818
#
# Compressibility (1/GPa) = 0.03342072
#
# Stress axis : x y z
#
# Youngs Moduli (GPa) = 60.83528 55.60548 69.10077
#
# Poissons Ratio (x) = 0.31686 0.00447
# Poissons Ratio (y) = 0.34667 0.13635
# Poissons Ratio (z) = 0.00394 0.10972
#
# Static dielectric constant tensor:
#      x y z
#    x 1.630140 0.000000 -0.027500 
#    y 0.000000 1.619180 0.000000 
#    z -0.027500 0.000000 1.646620 
# 
# From -- ./inp_files/276602.got.cif
#   From: 2010.05.17/outbox.cif.g08.bks.cpg/sg12_139_cif.got.tgz:276602.got - 2010.06.03 13:09:07.
