data_PCOD9174388
_publ_section_title
;
Structure prediction by ZEFSAII (Michael W. Deem and Ramdas Pophale) SiO2 
 PCOD9174388
Probable space group: C 2/M
;
_chemical_formula_sum "Si O2"
_cell_formula_units_Z 64
_cell_length_a 21.146013
_cell_length_b 7.744272
_cell_length_c 26.078255
_cell_angle_alpha 90.000000
_cell_angle_beta 49.703797
_cell_angle_gamma 90.000000
_cell_volume 3257.224849
_symmetry_space_group_name_H-M "C 2/M"
_symmetry_group_IT_number 12
_symmetry_cell_setting 'monoclinic'
loop_
_space_group_symop_operation_xyz
x,y,z
-x,y,-z
-x,-y,-z
x,-y,z
1/2+x,1/2+y,z
1/2-x,1/2+y,-z
1/2-x,1/2-y,-z
1/2+x,1/2-y,z
loop_
_atom_site_type_symbol
_atom_site_label
_atom_site_fract_x
_atom_site_fract_y
_atom_site_fract_z
Si Si1 0.024459 0.712485 0.860897
Si Si2 0.442876 0.200679 0.268397
Si Si3 0.417509 0.200969 0.007438
Si Si4 0.318151 0.790731 0.152739
Si Si5 0.320131 0.298157 0.504618
Si Si6 0.743717 0.699295 0.648322
Si Si7 0.334913 0.794936 0.700922
Si Si8 0.513467 0.209725 0.642199
O O1 0.023749 0.500000 0.861576
O O2 0.023619 0.773884 0.802888
O O3 0.110882 0.762394 0.843383
O O4 0.949222 0.773334 0.936761
O O5 0.343190 0.209799 0.317682
O O6 0.471516 0.275509 0.307673
O O7 0.467834 0.000000 0.255695
O O8 0.346657 0.274417 0.081676
O O9 0.396418 0.000000 0.009293
O O10 0.500000 0.202768 0.000000
O O11 0.229393 0.733129 0.219220
O O12 0.319860 0.000000 0.150449
O O13 0.313285 0.500000 0.518659
O O14 0.250000 0.250000 0.500000
O O15 0.300564 0.205787 0.568236
O O16 0.409031 0.258665 0.433694
O O17 0.722344 0.500000 0.670659
O O18 0.791409 0.775106 0.672334
O O19 0.425931 0.726994 0.666089
O O20 0.344571 0.000000 0.687586
O O21 0.512041 0.000000 0.644918
#
# Coordination Sequence:
#
# PCOD9174388 Si02
#       8
#     8   8   8   8   8   8   8   8
#     4   8  13  23  44  76 104 127 168 225 271 306
#     4  10  18  31  55  80 101 132 178 226 264 307
#     4   7  11  20  38  69 104 131 162 215 272 310
#     4   9  15  26  48  74 101 135 175 220 265 312
#     4  12  24  39  60  84 108 135 170 214 264 313
#     4  11  22  36  56  79 106 140 176 214 262 313
#     4  10  22  37  52  75 110 147 176 212 264 319
#     4  10  22  39  56  77 107 142 178 213 261 317
#
# _framework density 19.648629
#
# number of rings (size 3 to 8) (size 9 to 14) (size 15 to 20)
#    0.000    2.375    2.500    3.000    0.000    1.500 
#    0.000    2.500    0.000    4.875    0.000    0.000 
#    0.000    0.000    0.000    0.000    0.000    0.000 
#
# Total GULP energy -178469.345334 kJ/mol
# GULP energy per Si atom -5577.167042 kJ/mol
# Density = 1.960391 g / cm^3
# Si number density = 19.648629 Si / 1000 Ang^3
#
#
#
# Elastic Constant Matrix: (Units=GPa)
#
#
# Indices 1 2 3 4 5 6 
#
# 1 80.6169 -1.5501 41.9947 0.0002 -5.3740 -0.0025
# 2 -1.5501 33.8756 -16.8761 0.0085 1.8059 -0.0299
# 3 41.9947 -16.8761 136.0881 0.0006 9.0302 0.0000
# 4 0.0002 0.0085 0.0006 3.4915 -0.0008 9.2458
# 5 -5.3740 1.8059 9.0302 -0.0008 27.8813 0.0010
# 6 -0.0025 -0.0299 0.0000 9.2458 0.0010 -6.2822
#
#
#
# Elastic Compliance Matrix: (Units=1/GPa)
#
#
# Indices 1 2 3 4 5 6 
#
# 1 0.015488 -0.002231 -0.005379 -0.000001 0.004872 0.000003
# 2 -0.002231 0.032099 0.004942 0.000066 -0.004110 -0.000055
# 3 -0.005379 0.004942 0.009924 0.000009 -0.004571 -0.000009
# 4 -0.000001 0.000066 0.000009 0.058483 -0.000009 0.086072
# 5 0.004872 -0.004110 -0.004571 -0.000009 0.038552 0.000011
# 6 0.000003 -0.000055 -0.000009 0.086072 0.000011 -0.032503
#
#
# Mechanical properties :
#
#
# Convention : Reuss Voigt Hill
#
# Bulk Modulus (GPa) = 19.16672 33.07975 26.12323
# Shear Modulus (GPa) = 34.53690 20.15223 27.34456
#
# Velocity S-wave (km/s) = 4.19707 3.20602 3.73457
# Velocity P-wave (km/s) = 5.76742 5.52964 5.64978
#
# Compressibility (1/GPa) = 0.05217378
#
# Stress axis : x y z
#
# Youngs Moduli (GPa) = 64.56411 31.15407 100.76248
#
# Poissons Ratio (x) = 0.06950 0.54205
# Poissons Ratio (y) = 0.14404 -0.49793
# Poissons Ratio (z) = 0.34732 -0.15395
#
# Static dielectric constant tensor:
#      x y z
#    x 1.665460 0.000000 0.021570 
#    y 0.000000 1.735820 0.000000 
#    z 0.021570 0.000000 1.707110 
# 
# From -- ./inp_files/365167.got.cif
#   From: 2010.05.17/outbox.cif.g08.bks.cpg/sg12_183_cif.got.tgz:365167.got - 2010.06.03 13:09:07.
