data_PCOD9174205
_publ_section_title
;
Structure prediction by ZEFSAII (Michael W. Deem and Ramdas Pophale) SiO2 
 PCOD9174205
Probable space group: C 2/M
;
_chemical_formula_sum "Si O2"
_cell_formula_units_Z 64
_cell_length_a 25.287652
_cell_length_b 18.126448
_cell_length_c 19.711963
_cell_angle_alpha 90.000000
_cell_angle_beta 157.879341
_cell_angle_gamma 90.000000
_cell_volume 3402.384043
_symmetry_space_group_name_H-M "C 2/M"
_symmetry_group_IT_number 12
_symmetry_cell_setting 'monoclinic'
loop_
_space_group_symop_operation_xyz
x,y,z
-x,y,-z
-x,-y,-z
x,-y,z
1/2+x,1/2+y,z
1/2-x,1/2+y,-z
1/2-x,1/2-y,-z
1/2+x,1/2-y,z
loop_
_atom_site_type_symbol
_atom_site_label
_atom_site_fract_x
_atom_site_fract_y
_atom_site_fract_z
Si Si1 0.439916 0.201017 0.675204
Si Si2 0.597016 0.694675 0.058836
Si Si3 0.829656 0.181995 0.000326
Si Si4 0.158657 0.415610 0.895082
Si Si5 0.919039 0.213995 0.343214
Si Si6 0.274769 0.918413 0.865116
Si Si7 0.300609 0.283334 0.395509
Si Si8 0.058869 0.344094 0.173947
O O1 0.526096 0.139564 0.735605
O O2 0.318638 0.234926 0.485217
O O3 0.396677 0.163404 0.694664
O O4 0.546680 0.267179 0.822480
O O5 0.632971 0.654760 0.031316
O O6 0.730226 0.730430 0.255465
O O7 0.500000 0.655848 0.000000
O O8 0.508513 0.766195 0.929068
O O9 0.778820 0.119281 0.990872
O O10 0.698867 0.237736 0.833060
O O11 0.126556 0.500000 0.838326
O O12 0.204461 0.415250 0.028489
O O13 0.838300 0.145311 0.281711
O O14 0.000000 0.255414 0.500000
O O15 0.043322 0.192805 0.439790
O O16 0.229283 0.000000 0.791130
O O17 0.427761 0.899600 0.015960
O O18 0.193963 0.349763 0.286365
#
# Coordination Sequence:
#
# PCOD9174205 Si02
#       8
#     8   8   8   8   8   8   8   8
#     4  10  18  31  53  78 106 135 183 230 271 322
#     4   9  18  32  51  75 105 138 176 228 276 324
#     4  11  18  34  53  78 112 141 182 228 280 322
#     4  10  19  31  52  79 110 144 177 218 276 333
#     4  12  20  32  53  82 107 142 183 238 270 312
#     4  10  20  36  54  75 112 153 180 215 280 339
#     4  11  19  28  53  80 105 129 180 237 270 310
#     4   9  18  34  49  76 104 140 177 221 274 330
#
# _framework density 18.810338999999999
#
# number of rings (size 3 to 8) (size 9 to 14) (size 15 to 20)
#    0.000    1.750    6.250    1.500    0.000    0.250 
#    0.000    0.625    0.000   11.625    0.000   10.500 
#    0.000    0.000    0.000    0.000    0.000    0.000 
#
# Total GULP energy -178368.289758 kJ/mol
# GULP energy per Si atom -5574.009055 kJ/mol
# Density = 1.876753 g / cm^3
# Si number density = 18.810339 Si / 1000 Ang^3
#
#
#
# Elastic Constant Matrix: (Units=GPa)
#
#
# Indices 1 2 3 4 5 6 
#
# 1 89.6564 9.8831 16.5864 -0.0002 16.2053 0.0000
# 2 9.8831 39.8561 1.2317 -0.0002 -2.1302 0.0000
# 3 16.5864 1.2317 69.0895 -0.0001 -2.6769 0.0000
# 4 -0.0002 -0.0002 -0.0001 9.2021 0.0000 2.0256
# 5 16.2053 -2.1302 -2.6769 0.0000 35.0896 0.0001
# 6 0.0000 0.0000 0.0000 2.0256 0.0001 9.1451
#
#
#
# Elastic Compliance Matrix: (Units=1/GPa)
#
#
# Indices 1 2 3 4 5 6 
#
# 1 0.013380 -0.003568 -0.003406 0.000000 -0.006656 0.000000
# 2 -0.003568 0.026134 0.000518 0.000000 0.003274 0.000000
# 3 -0.003406 0.000518 0.015390 0.000000 0.002779 0.000000
# 4 0.000000 0.000000 0.000000 0.114241 0.000000 -0.025304
# 5 -0.006656 0.003274 0.002779 0.000000 0.031983 0.000000
# 6 0.000000 0.000000 0.000000 -0.025304 0.000000 0.114953
#
#
# Mechanical properties :
#
#
# Convention : Reuss Voigt Hill
#
# Bulk Modulus (GPa) = 23.81514 28.22271 26.01892
# Shear Modulus (GPa) = 14.57754 22.08074 18.32914
#
# Velocity S-wave (km/s) = 2.78686 3.42988 3.12495
# Velocity P-wave (km/s) = 4.80037 5.54273 5.18486
#
# Compressibility (1/GPa) = 0.04199010
#
# Stress axis : x y z
#
# Youngs Moduli (GPa) = 74.73689 38.26415 64.97641
#
# Poissons Ratio (x) = 0.13654 0.22134
# Poissons Ratio (y) = 0.26669 -0.03363
# Poissons Ratio (z) = 0.25459 -0.01981
#
# Static dielectric constant tensor:
#      x y z
#    x 1.769900 0.000000 0.019310 
#    y 0.000000 1.616940 0.000000 
#    z 0.019310 0.000000 1.669570 
# 
# From -- ./inp_files/328661.got.cif
#   From: 2010.05.17/outbox.cif.g08.bks.cpg/sg12_165_cif.got.tgz:328661.got - 2010.06.03 13:09:07.
