data_PCOD9174721
_publ_section_title
;
Structure prediction by ZEFSAII (Michael W. Deem and Ramdas Pophale) SiO2 
 PCOD9174721
Probable space group: C 2/M
;
_chemical_formula_sum "Si O2"
_cell_formula_units_Z 40
_cell_length_a 24.942603
_cell_length_b 8.532829
_cell_length_c 22.193517
_cell_angle_alpha 90.000000
_cell_angle_beta 149.871433
_cell_angle_gamma 90.000000
_cell_volume 2370.906945
_symmetry_space_group_name_H-M "C 2/M"
_symmetry_group_IT_number 12
_symmetry_cell_setting 'monoclinic'
loop_
_space_group_symop_operation_xyz
x,y,z
-x,y,-z
-x,-y,-z
x,-y,z
1/2+x,1/2+y,z
1/2-x,1/2+y,-z
1/2-x,1/2-y,-z
1/2+x,1/2-y,z
loop_
_atom_site_type_symbol
_atom_site_label
_atom_site_fract_x
_atom_site_fract_y
_atom_site_fract_z
Si Si1 0.918207 0.688572 0.161437
Si Si2 0.739401 0.311157 0.084523
Si Si3 0.585471 0.314146 0.503147
Si Si4 0.354020 0.187482 0.313672
Si Si5 0.853459 0.688625 0.566203
O O1 0.916236 0.500000 0.158706
O O2 0.836978 0.740943 0.135619
O O3 0.037763 0.738536 0.293634
O O4 0.867973 0.749555 0.050567
O O5 0.737997 0.500000 0.082154
O O6 0.767643 0.262480 0.179805
O O7 0.568870 0.500000 0.485395
O O8 0.470587 0.230574 0.400098
O O9 0.651944 0.268703 0.627359
O O10 0.638405 0.255174 0.493356
O O11 0.349168 0.000000 0.316604
O O12 0.852163 0.500000 0.562357
O O13 0.750000 0.750000 0.500000
#
# Coordination Sequence:
#
# PCOD9174721 Si02
#       5
#     8   8   8   8   8
#     4   9  18  32  49  73 104 135 169 209 255 306
#     4   9  17  30  50  76 104 135 167 206 258 310
#     4  11  21  32  49  77 105 136 176 214 256 309
#     4  10  18  32  52  75 107 140 167 212 264 308
#     4  11  22  38  55  75 104 140 177 214 257 304
#
# _framework density 16.871181
#
# number of rings (size 3 to 8) (size 9 to 14) (size 15 to 20)
#    0.000    2.000    2.000    4.200    0.000    3.200 
#    0.000    0.000    0.000    1.200    0.000    8.400 
#    0.000    0.000    0.000    0.000    0.000    0.000 
#
# Total GULP energy -111585.475487 kJ/mol
# GULP energy per Si atom -5579.273774 kJ/mol
# Density = 1.683278 g / cm^3
# Si number density = 16.871181 Si / 1000 Ang^3
#
#
#
# Elastic Constant Matrix: (Units=GPa)
#
#
# Indices 1 2 3 4 5 6 
#
# 1 93.7580 8.4616 64.2588 0.0000 -12.1901 0.0000
# 2 8.4616 23.1087 13.0078 0.0000 -0.5076 0.0000
# 3 64.2588 13.0078 131.3848 0.0000 -23.2192 0.0000
# 4 0.0000 0.0000 0.0000 27.3948 0.0000 -3.1331
# 5 -12.1901 -0.5076 -23.2192 0.0000 28.7020 0.0000
# 6 0.0000 0.0000 0.0000 -3.1331 0.0000 25.4086
#
#
#
# Elastic Compliance Matrix: (Units=1/GPa)
#
#
# Indices 1 2 3 4 5 6 
#
# 1 0.016107 -0.001604 -0.007602 0.000000 0.000663 0.000000
# 2 -0.001604 0.046263 -0.004401 0.000000 -0.003423 0.000000
# 3 -0.007602 -0.004401 0.013046 0.000000 0.007247 0.000000
# 4 0.000000 0.000000 0.000000 0.037025 0.000000 0.004565
# 5 0.000663 -0.003423 0.007247 0.000000 0.040925 0.000000
# 6 0.000000 0.000000 0.000000 0.004565 0.000000 0.039920
#
#
# Mechanical properties :
#
#
# Convention : Reuss Voigt Hill
#
# Bulk Modulus (GPa) = 20.74588 46.63420 33.69004
# Shear Modulus (GPa) = 21.13580 27.13596 24.13588
#
# Velocity S-wave (km/s) = 3.54330 4.01486 3.78643
# Velocity P-wave (km/s) = 5.39104 7.01381 6.25527
#
# Compressibility (1/GPa) = 0.04820234
#
# Stress axis : x y z
#
# Youngs Moduli (GPa) = 62.08628 21.61548 76.65444
#
# Poissons Ratio (x) = 0.03468 0.58270
# Poissons Ratio (y) = 0.09960 0.33733
# Poissons Ratio (z) = 0.47196 0.09512
#
# Static dielectric constant tensor:
#      x y z
#    x 1.546240 0.000000 -0.025540 
#    y 0.000000 1.571080 0.000000 
#    z -0.025540 0.000000 1.583400 
# 
# From -- ./inp_files/171865.got.cif
#   From: 2010.05.17/outbox.cif.g08.bks.cpg/sg12_86_cif.got.tgz:171865.got - 2010.06.03 13:09:07.
