data_PCOD9174414
_publ_section_title
;
Structure prediction by ZEFSAII (Michael W. Deem and Ramdas Pophale) SiO2 
 PCOD9174414
Probable space group: C 2/M
;
_chemical_formula_sum "Si O2"
_cell_formula_units_Z 32
_cell_length_a 7.896651
_cell_length_b 22.323483
_cell_length_c 13.885437
_cell_angle_alpha 90.000000
_cell_angle_beta 153.080038
_cell_angle_gamma 90.000000
_cell_volume 1108.200868
_symmetry_space_group_name_H-M "C 2/M"
_symmetry_group_IT_number 12
_symmetry_cell_setting 'monoclinic'
loop_
_space_group_symop_operation_xyz
x,y,z
-x,y,-z
-x,-y,-z
x,-y,z
1/2+x,1/2+y,z
1/2-x,1/2+y,-z
1/2-x,1/2-y,-z
1/2+x,1/2-y,z
loop_
_atom_site_type_symbol
_atom_site_label
_atom_site_fract_x
_atom_site_fract_y
_atom_site_fract_z
Si Si1 0.388956 0.321700 0.753232
Si Si2 0.954026 0.308784 0.733806
Si Si3 0.051869 0.433509 0.786788
Si Si4 0.112389 0.065266 0.360310
O O1 0.572723 0.257520 0.825410
O O2 0.564219 0.378621 0.786090
O O3 0.000000 0.317246 0.500000
O O4 0.217757 0.322841 0.774764
O O5 0.500000 0.305301 0.500000
O O6 0.002832 0.370692 0.818237
O O7 0.963939 0.500000 0.779939
O O8 0.774437 0.427292 0.552238
O O9 0.500000 0.436412 0.000000
O O10 0.500000 0.059977 0.500000
O O11 0.930756 0.000000 0.254941
#
# Coordination Sequence:
#
# PCOD9174414 Si02
#       4
#     8   8   8   8
#     4  10  18  31  55  83 112 141 185 235 277 317
#     4  11  21  34  58  84 115 149 188 235 279 329
#     4  10  21  37  56  83 118 151 183 230 288 337
#     4   9  16  30  56  82 104 142 194 225 265 335
#
# _framework density 28.875632
#
# number of rings (size 3 to 8) (size 9 to 14) (size 15 to 20)
#    0.000    2.000    5.000    3.000    0.000    0.500 
#    0.000    1.250    0.000    1.500    0.000    5.250 
#    0.000    1.000    0.000    0.000    0.000    0.000 
#
# Total GULP energy -89101.840263 kJ/mol
# GULP energy per Si atom -5568.865016 kJ/mol
# Density = 2.880991 g / cm^3
# Si number density = 28.875632 Si / 1000 Ang^3
#
#
#
# Elastic Constant Matrix: (Units=GPa)
#
#
# Indices 1 2 3 4 5 6 
#
# 1 190.4451 70.5963 56.5951 0.0011 -1.9993 0.0006
# 2 70.5963 417.2007 51.5244 0.0000 1.0092 -0.0001
# 3 56.5951 51.5244 137.3398 0.0005 -13.4537 0.0000
# 4 0.0011 0.0000 0.0005 -388.9388 0.0011 -55.9732
# 5 -1.9993 1.0092 -13.4537 0.0011 45.4741 0.0005
# 6 0.0006 -0.0001 0.0000 -55.9732 0.0005 -3.4194
#
#
#
# Elastic Compliance Matrix: (Units=1/GPa)
#
#
# Indices 1 2 3 4 5 6 
#
# 1 0.006218 -0.000765 -0.002314 0.000000 -0.000394 -0.000001
# 2 -0.000765 0.002613 -0.000694 0.000000 -0.000297 0.000000
# 3 -0.002314 -0.000694 0.008740 0.000000 0.002499 0.000000
# 4 0.000000 0.000000 0.000000 0.001896 0.000000 -0.031044
# 5 -0.000394 -0.000297 0.002499 0.000000 0.022719 -0.000001
# 6 -0.000001 0.000000 0.000000 -0.031044 -0.000001 0.215712
#
#
# Mechanical properties :
#
#
# Convention : Reuss Voigt Hill
#
# Bulk Modulus (GPa) = 99.75591 122.49078 111.12335
# Shear Modulus (GPa) = 18.60214 -31.62551 -6.51169
#
# Velocity S-wave (km/s) = 2.54089 -3.31302 -1.50332
# Velocity P-wave (km/s) = 6.57495 5.27991 5.96269
#
# Compressibility (1/GPa) = 0.01002447
#
# Stress axis : x y z
#
# Youngs Moduli (GPa) = 160.82163 382.72062 114.41861
#
# Poissons Ratio (x) = 0.29296 0.26474
# Poissons Ratio (y) = 0.12311 0.07939
# Poissons Ratio (z) = 0.37211 0.26557
#
# Static dielectric constant tensor:
#      x y z
#    x 2.461340 0.000000 -0.035290 
#    y 0.000000 2.374120 0.000000 
#    z -0.035290 0.000000 2.392950 
# 
# From -- ./inp_files/199028.got.cif
#   From: 2010.05.17/outbox.cif.g08.bks.cpg/sg12_100_cif.got.tgz:199028.got - 2010.06.03 13:09:07.
