data_PCOD9174524
_publ_section_title
;
Structure prediction by ZEFSAII (Michael W. Deem and Ramdas Pophale) SiO2 
 PCOD9174524
Probable space group: C 2/M
;
_chemical_formula_sum "Si O2"
_cell_formula_units_Z 56
_cell_length_a 19.709844
_cell_length_b 29.204706
_cell_length_c 9.780708
_cell_angle_alpha 90.000000
_cell_angle_beta 29.783905
_cell_angle_gamma 90.000000
_cell_volume 2796.577528
_symmetry_space_group_name_H-M "C 2/M"
_symmetry_group_IT_number 12
_symmetry_cell_setting 'monoclinic'
loop_
_space_group_symop_operation_xyz
x,y,z
-x,y,-z
-x,-y,-z
x,-y,z
1/2+x,1/2+y,z
1/2-x,1/2+y,-z
1/2-x,1/2-y,-z
1/2+x,1/2-y,z
loop_
_atom_site_type_symbol
_atom_site_label
_atom_site_fract_x
_atom_site_fract_y
_atom_site_fract_z
Si Si1 0.663841 0.119171 0.722660
Si Si2 0.149922 0.866806 0.188753
Si Si3 0.284675 0.138482 0.673019
Si Si4 0.242342 0.947520 0.223042
Si Si5 0.448820 0.767508 0.434414
Si Si6 0.709218 0.199029 0.856052
Si Si7 0.456983 0.048128 0.418531
O O1 0.733102 0.133866 0.458691
O O2 0.753885 0.079987 0.640481
O O3 0.668645 0.162917 0.812819
O O4 0.500000 0.106852 0.000000
O O5 0.178621 0.915695 0.214098
O O6 0.257122 0.831190 0.067806
O O7 0.000000 0.852854 0.500000
O O8 0.167682 0.864865 0.994182
O O9 0.372582 0.184017 0.547425
O O10 0.372867 0.093289 0.546437
O O11 0.190064 0.000000 0.318412
O O12 0.402916 0.949874 0.908360
O O13 0.500000 0.762946 0.500000
O O14 0.342229 0.727910 0.587495
O O15 0.583693 0.767741 0.106559
O O16 0.500000 0.046749 0.500000
O O17 0.384520 0.000000 0.510864
#
# Coordination Sequence:
#
# PCOD9174524 Si02
#       7
#     8   8   8   8   8   8   8
#     4  11  22  41  60  93 135 166 206 253 316 383
#     4  11  24  42  65  90 125 164 216 266 317 371
#     4  12  22  38  63  91 127 163 204 260 317 363
#     4  10  21  38  63  94 129 167 206 258 312 376
#     4  12  23  39  68  96 124 162 213 270 319 375
#     4  11  25  42  64  93 128 167 210 261 318 383
#     4  10  18  31  58  95 125 151 199 258 312 365
#
# _framework density 20.024477000000001
#
# number of rings (size 3 to 8) (size 9 to 14) (size 15 to 20)
#    0.000    1.000    5.714    2.143    2.000    1.714 
#    0.000    2.857    0.000    0.857    0.000    0.000 
#    0.000    0.000    0.000    0.000    0.000    0.000 
#
# Total GULP energy -156255.682628 kJ/mol
# GULP energy per Si atom -5580.560094 kJ/mol
# Density = 1.997890 g / cm^3
# Si number density = 20.024477 Si / 1000 Ang^3
#
#
#
# Elastic Constant Matrix: (Units=GPa)
#
#
# Indices 1 2 3 4 5 6 
#
# 1 48.1962 8.8558 34.9482 0.0000 23.5989 0.0000
# 2 8.8558 71.9315 -4.5593 0.0000 -7.8784 0.0000
# 3 34.9482 -4.5593 92.4436 -0.0001 19.2565 0.0000
# 4 0.0000 0.0000 -0.0001 21.3842 0.0001 -5.7704
# 5 23.5989 -7.8784 19.2565 0.0001 30.2668 0.0000
# 6 0.0000 0.0000 0.0000 -5.7704 0.0000 11.7020
#
#
#
# Elastic Compliance Matrix: (Units=1/GPa)
#
#
# Indices 1 2 3 4 5 6 
#
# 1 0.046147 -0.009831 -0.011416 0.000000 -0.031277 0.000000
# 2 -0.009831 0.016405 0.002351 0.000000 0.010439 0.000000
# 3 -0.011416 0.002351 0.015294 0.000000 -0.000218 0.000000
# 4 0.000000 0.000000 0.000000 0.053941 0.000000 0.026599
# 5 -0.031277 0.010439 -0.000218 0.000000 0.060282 0.000000
# 6 0.000000 0.000000 0.000000 0.026599 0.000000 0.098571
#
#
# Mechanical properties :
#
#
# Convention : Reuss Voigt Hill
#
# Bulk Modulus (GPa) = 24.96514 32.34007 28.65260
# Shear Modulus (GPa) = 14.62920 24.22571 19.42745
#
# Velocity S-wave (km/s) = 2.70583 3.48200 3.11816
# Velocity P-wave (km/s) = 4.71767 5.68780 5.22530
#
# Compressibility (1/GPa) = 0.04005586
#
# Stress axis : x y z
#
# Youngs Moduli (GPa) = 21.66995 60.95784 65.38339
#
# Poissons Ratio (x) = 0.59925 0.74639
# Poissons Ratio (y) = 0.21303 -0.15371
# Poissons Ratio (z) = 0.24737 -0.14331
#
# Static dielectric constant tensor:
#      x y z
#    x 1.720790 0.000000 0.023170 
#    y 0.000000 1.746490 0.000000 
#    z 0.023170 0.000000 1.718200 
# 
# From -- ./inp_files/91547.got.cif
#   From: 2010.05.17/outbox.cif.g08.bks.cpg/sg12_46_cif.got.tgz:91547.got - 2010.06.03 13:09:07.
