data_PCOD9174056
_publ_section_title
;
Structure prediction by ZEFSAII (Michael W. Deem and Ramdas Pophale) SiO2 
 PCOD9174056
Probable space group: C 2/M
;
_chemical_formula_sum "Si O2"
_cell_formula_units_Z 64
_cell_length_a 25.537791
_cell_length_b 7.680955
_cell_length_c 20.695846
_cell_angle_alpha 90.000000
_cell_angle_beta 126.329249
_cell_angle_gamma 90.000000
_cell_volume 3270.507770
_symmetry_space_group_name_H-M "C 2/M"
_symmetry_group_IT_number 12
_symmetry_cell_setting 'monoclinic'
loop_
_space_group_symop_operation_xyz
x,y,z
-x,y,-z
-x,-y,-z
x,-y,z
1/2+x,1/2+y,z
1/2-x,1/2+y,-z
1/2-x,1/2-y,-z
1/2+x,1/2-y,z
loop_
_atom_site_type_symbol
_atom_site_label
_atom_site_fract_x
_atom_site_fract_y
_atom_site_fract_z
Si Si1 0.324075 0.211773 0.285498
Si Si2 0.195784 0.291484 0.872561
Si Si3 0.338819 0.709805 0.512835
Si Si4 0.069511 0.204939 0.531042
Si Si5 0.659632 0.708710 0.985606
Si Si6 0.180526 0.203716 0.218305
Si Si7 0.305706 0.793482 0.629202
Si Si8 0.072983 0.786307 0.039014
O O1 0.330880 0.267999 0.215897
O O2 0.379702 0.278067 0.373368
O O3 0.252818 0.273733 0.257022
O O4 0.325956 0.000000 0.290026
O O5 0.200603 0.500000 0.871788
O O6 0.154760 0.250313 0.906419
O O7 0.269500 0.224717 0.938753
O O8 0.336983 0.500000 0.506565
O O9 0.394719 0.777586 0.506431
O O10 0.344687 0.754337 0.592369
O O11 0.267927 0.774839 0.436965
O O12 0.000000 0.281402 0.500000
O O13 0.059019 0.000000 0.510088
O O14 0.661731 0.500000 0.992690
O O15 0.603135 0.769003 0.992240
O O16 0.166880 0.221085 0.284132
O O17 0.123910 0.273571 0.131078
O O18 0.184952 0.000000 0.204898
O O19 0.301752 0.000000 0.633953
O O20 0.071469 0.000000 0.038523
O O21 0.000000 0.727467 0.000000
#
# Coordination Sequence:
#
# PCOD9174056 Si02
#       8
#     8   8   8   8   8   8   8   8
#     4  10  19  32  52  76 103 134 171 210 250 301
#     4   9  17  30  48  73 102 130 163 207 252 292
#     4   9  18  33  51  74 102 132 165 205 254 302
#     4  10  21  37  55  76 104 134 166 209 257 302
#     4   9  16  29  49  74 100 128 167 208 248 294
#     4  10  18  31  52  77 103 133 170 213 254 295
#     4  10  19  31  51  78 103 130 167 212 254 297
#     4   9  17  31  52  76 102 133 170 210 250 296
#
# _framework density 19.568826999999999
#
# number of rings (size 3 to 8) (size 9 to 14) (size 15 to 20)
#    0.000    2.500    2.500    0.375    0.000    1.750 
#    0.000    1.875    0.000    7.500    0.000    0.000 
#    0.000    0.000    0.000    0.000    0.000    0.000 
#
# Total GULP energy -178500.636972 kJ/mol
# GULP energy per Si atom -5578.144905 kJ/mol
# Density = 1.952429 g / cm^3
# Si number density = 19.568827 Si / 1000 Ang^3
#
#
#
# Elastic Constant Matrix: (Units=GPa)
#
#
# Indices 1 2 3 4 5 6 
#
# 1 176.7070 -1.9476 83.5037 0.0000 -8.9174 0.0000
# 2 -1.9476 28.9262 -12.6698 0.0001 6.6817 -0.0001
# 3 83.5037 -12.6698 95.0324 0.0000 -7.4922 0.0000
# 4 0.0000 0.0001 0.0000 15.7365 0.0000 -9.3552
# 5 -8.9174 6.6817 -7.4922 0.0000 30.2713 0.0000
# 6 0.0000 -0.0001 0.0000 -9.3552 0.0000 9.3911
#
#
#
# Elastic Compliance Matrix: (Units=1/GPa)
#
#
# Indices 1 2 3 4 5 6 
#
# 1 0.010040 -0.003698 -0.009197 0.000000 0.001498 0.000000
# 2 -0.003698 0.039605 0.007909 0.000000 -0.007874 0.000000
# 3 -0.009197 0.007909 0.019691 0.000000 0.000419 0.000000
# 4 0.000000 0.000000 0.000000 0.155835 0.000000 0.155241
# 5 0.001498 -0.007874 0.000419 0.000000 0.035317 0.000000
# 6 0.000000 0.000000 0.000000 0.155241 0.000000 0.261132
#
#
# Mechanical properties :
#
#
# Convention : Reuss Voigt Hill
#
# Bulk Modulus (GPa) = 16.84536 48.71538 32.78037
# Shear Modulus (GPa) = 9.06813 26.53173 17.79993
#
# Velocity S-wave (km/s) = 2.15500 3.68614 3.01924
# Velocity P-wave (km/s) = 3.84954 6.56241 5.37979
#
# Compressibility (1/GPa) = 0.05936355
#
# Stress axis : x y z
#
# Youngs Moduli (GPa) = 99.60186 25.24954 50.78356
#
# Poissons Ratio (x) = 0.09338 0.46705
# Poissons Ratio (y) = 0.36835 -0.40165
# Poissons Ratio (z) = 0.91604 -0.19970
#
# Static dielectric constant tensor:
#      x y z
#    x 1.699580 0.000000 -0.011550 
#    y 0.000000 2.384160 0.000000 
#    z -0.011550 0.000000 1.661150 
# 
# From -- ./inp_files/324305.got.cif
#   From: 2010.05.17/outbox.cif.g08.bks.cpg/sg12_163_cif.got.tgz:324305.got - 2010.06.03 13:09:07.
