data_PCOD9174536
_publ_section_title
;
Structure prediction by ZEFSAII (Michael W. Deem and Ramdas Pophale) SiO2 
 PCOD9174536
Probable space group: C 2/M
;
_chemical_formula_sum "Si O2"
_cell_formula_units_Z 48
_cell_length_a 13.908354
_cell_length_b 18.399803
_cell_length_c 12.695024
_cell_angle_alpha 90.000000
_cell_angle_beta 111.191222
_cell_angle_gamma 90.000000
_cell_volume 3029.109748
_symmetry_space_group_name_H-M "C 2/M"
_symmetry_group_IT_number 12
_symmetry_cell_setting 'monoclinic'
loop_
_space_group_symop_operation_xyz
x,y,z
-x,y,-z
-x,-y,-z
x,-y,z
1/2+x,1/2+y,z
1/2-x,1/2+y,-z
1/2-x,1/2-y,-z
1/2+x,1/2-y,z
loop_
_atom_site_type_symbol
_atom_site_label
_atom_site_fract_x
_atom_site_fract_y
_atom_site_fract_z
Si Si1 0.718466 0.853468 0.224323
Si Si2 0.923439 0.084944 0.373641
Si Si3 0.134065 0.500000 0.930509
Si Si4 0.601574 0.000000 0.172458
Si Si5 0.713719 0.375178 0.990697
Si Si6 0.507152 0.580327 0.171579
Si Si7 0.396486 0.720118 0.895330
O O1 0.825702 0.861508 0.329066
O O2 0.654272 0.925302 0.228379
O O3 0.749127 0.857802 0.112573
O O4 0.649006 0.781562 0.198862
O O5 0.982438 0.089400 0.285384
O O6 0.000000 0.099250 0.500000
O O7 0.887860 0.000000 0.367022
O O8 0.017991 0.500000 0.844273
O O9 0.118933 0.500000 0.052057
O O10 0.201114 0.429347 0.929070
O O11 0.603557 0.414810 0.930789
O O12 0.687728 0.306521 0.052767
O O13 0.551810 0.500000 0.171184
O O14 0.572269 0.647394 0.154816
O O15 0.500000 0.745045 0.000000
#
# Coordination Sequence:
#
# PCOD9174536 Si02
#       7
#     8   8   4   4   8   8   8
#     4  10  18  32  44  68  97 121 153 191 230 270
#     4   9  17  33  56  72  85 113 154 200 245 277
#     4   9  16  26  43  62  85 129 165 177 214 260
#     4   9  18  28  43  60  91 123 152 191 221 262
#     4   9  17  28  45  64  94 132 157 184 218 270
#     4   9  17  31  47  69  95 119 156 198 229 268
#     4  10  21  28  43  69 101 131 154 180 221 277
#
# _framework density 15.84624
#
# number of rings (size 3 to 8) (size 9 to 14) (size 15 to 20)
#    0.000    2.667    1.667    0.500    5.833    1.000 
#    0.000    0.833    0.000    0.000    0.000    0.000 
#    0.000    2.000    0.000    0.000    0.000    0.000 
#
# Total GULP energy -133647.247146 kJ/mol
# GULP energy per Si atom -5568.635298 kJ/mol
# Density = 1.581017 g / cm^3
# Si number density = 15.846240 Si / 1000 Ang^3
#
#
#
# Elastic Constant Matrix: (Units=GPa)
#
#
# Indices 1 2 3 4 5 6 
#
# 1 78.6464 51.8512 25.3008 0.0000 15.3760 0.0000
# 2 51.8512 106.0182 36.6592 0.0000 16.8390 0.0000
# 3 25.3008 36.6592 63.7837 0.0000 16.5438 0.0000
# 4 0.0000 0.0000 0.0000 14.0771 0.0000 3.2964
# 5 15.3760 16.8390 16.5438 0.0000 13.8478 0.0000
# 6 0.0000 0.0000 0.0000 3.2964 0.0000 20.3485
#
#
#
# Elastic Compliance Matrix: (Units=1/GPa)
#
#
# Indices 1 2 3 4 5 6 
#
# 1 0.020527 -0.007905 -0.000261 0.000000 -0.012867 0.000000
# 2 -0.007905 0.015651 -0.004637 0.000000 -0.004714 0.000000
# 3 -0.000261 -0.004637 0.024501 0.000000 -0.023342 0.000000
# 4 0.000000 0.000000 0.000000 0.073838 0.000000 -0.011962
# 5 -0.012867 -0.004714 -0.023342 0.000000 0.120120 0.000000
# 6 0.000000 0.000000 0.000000 -0.011962 0.000000 0.051081
#
#
# Mechanical properties :
#
#
# Convention : Reuss Voigt Hill
#
# Bulk Modulus (GPa) = 28.51285 52.89673 40.70479
# Shear Modulus (GPa) = 14.57663 18.63050 16.60356
#
# Velocity S-wave (km/s) = 3.03624 3.43257 3.24047
# Velocity P-wave (km/s) = 5.50674 7.01169 6.30428
#
# Compressibility (1/GPa) = 0.03507191
#
# Stress axis : x y z
#
# Youngs Moduli (GPa) = 48.71727 63.89541 40.81467
#
# Poissons Ratio (x) = 0.50510 0.01067
# Poissons Ratio (y) = 0.38511 0.18924
# Poissons Ratio (z) = 0.01274 0.29626
#
# Static dielectric constant tensor:
#      x y z
#    x 1.552470 0.000000 -0.003290 
#    y 0.000000 1.565700 0.000000 
#    z -0.003290 0.000000 1.509440 
# 
# From -- ./inp_files/144984.got.cif
#   From: 2010.05.17/outbox.cif.g08.bks.cpg/sg12_73_cif.got.tgz:144984.got - 2010.06.03 13:09:07.
