data_PCOD9174768
_publ_section_title
;
Structure prediction by ZEFSAII (Michael W. Deem and Ramdas Pophale) SiO2 
 PCOD9174768
Probable space group: C 2/M
;
_chemical_formula_sum "Si O2"
_cell_formula_units_Z 44
_cell_length_a 20.345362
_cell_length_b 10.311584
_cell_length_c 14.169072
_cell_angle_alpha 90.000000
_cell_angle_beta 57.981041
_cell_angle_gamma 90.000000
_cell_volume 2520.361664
_symmetry_space_group_name_H-M "C 2/M"
_symmetry_group_IT_number 12
_symmetry_cell_setting 'monoclinic'
loop_
_space_group_symop_operation_xyz
x,y,z
-x,y,-z
-x,-y,-z
x,-y,z
1/2+x,1/2+y,z
1/2-x,1/2+y,-z
1/2-x,1/2-y,-z
1/2+x,1/2-y,z
loop_
_atom_site_type_symbol
_atom_site_label
_atom_site_fract_x
_atom_site_fract_y
_atom_site_fract_z
Si Si1 0.726769 0.651888 0.728748
Si Si2 0.583771 0.350295 0.714310
Si Si3 0.158687 0.145921 0.454184
Si Si4 0.035618 0.352390 0.268511
Si Si5 0.500000 0.253315 0.500000
Si Si6 0.719463 0.150330 0.100165
O O1 0.745196 0.500000 0.694651
O O2 0.639012 0.673911 0.761270
O O3 0.783388 0.746124 0.628242
O O4 0.740573 0.673044 0.828896
O O5 0.556496 0.500000 0.736603
O O6 0.638589 0.337290 0.579861
O O7 0.514276 0.250645 0.752334
O O8 0.076440 0.163302 0.463681
O O9 0.188541 0.000000 0.416618
O O10 0.015233 0.500000 0.258837
O O11 0.016293 0.329134 0.393634
O O12 0.127150 0.334091 0.184529
O O13 0.733866 0.000000 0.062147
O O14 0.750000 0.250000 0.000000
#
# Coordination Sequence:
#
# PCOD9174768 Si02
#       6
#     8   8   8   8   4   8
#     4  10  20  37  56  77 110 147 186 226 271 329
#     4   9  20  35  53  80 115 149 178 219 274 333
#     4  10  19  30  49  81 116 147 182 220 268 327
#     4  10  20  35  57  83 111 143 185 228 273 327
#     4  10  18  32  52  82 116 148 178 220 278 330
#     4  10  22  40  59  82 106 142 190 234 273 321
#
# _framework density 17.457811
#
# number of rings (size 3 to 8) (size 9 to 14) (size 15 to 20)
#    0.000    2.182    1.818    1.091    0.000    5.818 
#    0.000    0.909    0.000    5.455    0.000    0.000 
#    0.000    0.000    0.000    0.000    0.000    0.000 
#
# Total GULP energy -122749.791017 kJ/mol
# GULP energy per Si atom -5579.535955 kJ/mol
# Density = 1.741808 g / cm^3
# Si number density = 17.457811 Si / 1000 Ang^3
#
#
#
# Elastic Constant Matrix: (Units=GPa)
#
#
# Indices 1 2 3 4 5 6 
#
# 1 128.6970 83.4194 42.9235 0.0000 15.9619 0.0000
# 2 83.4194 119.8590 59.8226 0.0000 7.3234 0.0000
# 3 42.9235 59.8226 45.2539 0.0000 0.3579 0.0000
# 4 0.0000 0.0000 0.0000 30.6363 0.0000 -7.0508
# 5 15.9619 7.3234 0.3579 0.0000 11.8830 0.0000
# 6 0.0000 0.0000 0.0000 -7.0508 0.0000 22.9618
#
#
#
# Elastic Compliance Matrix: (Units=1/GPa)
#
#
# Indices 1 2 3 4 5 6 
#
# 1 0.016960 -0.008137 -0.005191 0.000000 -0.017610 0.000000
# 2 -0.008137 0.031058 -0.033281 0.000000 -0.007208 0.000000
# 3 -0.005191 -0.033281 0.070815 0.000000 0.025350 0.000000
# 4 0.000000 0.000000 0.000000 0.035123 0.000000 0.010785
# 5 -0.017610 -0.007208 0.025350 0.000000 0.111488 0.000000
# 6 0.000000 0.000000 0.000000 0.010785 0.000000 0.046862
#
#
# Mechanical properties :
#
#
# Convention : Reuss Voigt Hill
#
# Bulk Modulus (GPa) = 39.03850 74.01568 56.52709
# Shear Modulus (GPa) = 12.07548 20.27250 16.17399
#
# Velocity S-wave (km/s) = 2.63286 3.41138 3.04709
# Velocity P-wave (km/s) = 5.62608 7.61614 6.69546
#
# Compressibility (1/GPa) = 0.02561574
#
# Stress axis : x y z
#
# Youngs Moduli (GPa) = 58.96274 32.19824 14.12120
#
# Poissons Ratio (x) = 0.26200 0.07330
# Poissons Ratio (y) = 0.47979 0.46997
# Poissons Ratio (z) = 0.30605 1.07159
#
# Static dielectric constant tensor:
#      x y z
#    x 1.599270 0.000000 0.013710 
#    y 0.000000 1.590890 0.000000 
#    z 0.013710 0.000000 1.560960 
# 
# From -- ./inp_files/229749.got.cif
#   From: 2010.05.17/outbox.cif.g08.bks.cpg/sg12_115_cif.got.tgz:229749.got - 2010.06.03 13:09:07.
