data_PCOD9174305
_publ_section_title
;
Structure prediction by ZEFSAII (Michael W. Deem and Ramdas Pophale) SiO2 
 PCOD9174305
Probable space group: C 2/M
;
_chemical_formula_sum "Si O2"
_cell_formula_units_Z 56
_cell_length_a 30.917932
_cell_length_b 15.893025
_cell_length_c 8.630106
_cell_angle_alpha 90.000000
_cell_angle_beta 132.383786
_cell_angle_gamma 90.000000
_cell_volume 3132.344794
_symmetry_space_group_name_H-M "C 2/M"
_symmetry_group_IT_number 12
_symmetry_cell_setting 'monoclinic'
loop_
_space_group_symop_operation_xyz
x,y,z
-x,y,-z
-x,-y,-z
x,-y,z
1/2+x,1/2+y,z
1/2-x,1/2+y,-z
1/2-x,1/2-y,-z
1/2+x,1/2-y,z
loop_
_atom_site_type_symbol
_atom_site_label
_atom_site_fract_x
_atom_site_fract_y
_atom_site_fract_z
Si Si1 0.846177 0.095264 0.233214
Si Si2 0.152372 0.738954 0.139171
Si Si3 0.932426 0.761008 0.350232
Si Si4 0.202615 0.093138 0.238640
Si Si5 0.265475 0.171254 0.925563
Si Si6 0.619069 0.095047 0.643779
Si Si7 0.342210 0.906515 0.613438
O O1 0.895479 0.167138 0.350590
O O2 0.793922 0.118358 0.224500
O O3 0.867398 0.000000 0.307941
O O4 0.816816 0.098494 0.989409
O O5 0.171898 0.829468 0.249610
O O6 0.207227 0.705949 0.167272
O O7 0.138703 0.668684 0.230935
O O8 0.098916 0.752676 0.892285
O O9 0.923242 0.669886 0.406015
O O10 0.000000 0.783034 0.500000
O O11 0.272404 0.101240 0.417797
O O12 0.186184 0.000000 0.255068
O O13 0.250000 0.250000 0.000000
O O14 0.317675 0.117404 0.128579
O O15 0.627643 0.097856 0.480391
O O16 0.602021 0.000000 0.647749
O O17 0.352862 0.000000 0.706475
#
# Coordination Sequence:
#
# PCOD9174305 Si02
#       7
#     8   8   8   8   8   8   8
#     4  10  18  31  54  79 106 135 169 207 255 310
#     4  10  20  31  52  76 107 135 168 214 251 295
#     4  10  22  38  54  73  99 136 184 222 255 295
#     4   9  16  28  47  74 105 136 161 190 247 317
#     4  11  16  30  51  81 109 137 162 205 258 313
#     4  10  19  33  55  76 104 140 166 204 263 320
#     4  10  19  31  49  78 108 134 164 200 257 321
#
# _framework density 17.877980000000001
#
# number of rings (size 3 to 8) (size 9 to 14) (size 15 to 20)
#    0.000    2.000    5.714    0.857    0.000    3.429 
#    0.000    0.714    0.000    1.714    0.000    0.000 
#    0.000    5.714    0.000    0.000    0.000    0.000 
#
# Total GULP energy -156194.607948 kJ/mol
# GULP energy per Si atom -5578.378855 kJ/mol
# Density = 1.783729 g / cm^3
# Si number density = 17.877980 Si / 1000 Ang^3
#
#
#
# Elastic Constant Matrix: (Units=GPa)
#
#
# Indices 1 2 3 4 5 6 
#
# 1 38.4421 17.4852 17.7141 0.0000 16.5004 0.0000
# 2 17.4852 114.1458 22.8122 0.0000 -1.4711 0.0000
# 3 17.7141 22.8122 27.5632 0.0000 8.8908 0.0000
# 4 0.0000 0.0000 0.0000 15.9467 0.0000 -6.3575
# 5 16.5004 -1.4711 8.8908 0.0000 19.4183 0.0000
# 6 0.0000 0.0000 0.0000 -6.3575 0.0000 15.5306
#
#
#
# Elastic Compliance Matrix: (Units=1/GPa)
#
#
# Indices 1 2 3 4 5 6 
#
# 1 0.052042 -0.004930 -0.017577 0.000000 -0.036548 0.000000
# 2 -0.004930 0.011510 -0.009375 0.000000 0.009354 0.000000
# 3 -0.017577 -0.009375 0.059540 0.000000 -0.013035 0.000000
# 4 0.000000 0.000000 0.000000 0.074939 0.000000 0.030677
# 5 -0.036548 0.009354 -0.013035 0.000000 0.089231 0.000000
# 6 0.000000 0.000000 0.000000 0.030677 0.000000 0.076947
#
#
# Mechanical properties :
#
#
# Convention : Reuss Voigt Hill
#
# Bulk Modulus (GPa) = 16.85519 32.90822 24.88171
# Shear Modulus (GPa) = 11.16698 18.32177 14.74437
#
# Velocity S-wave (km/s) = 2.50196 3.20476 2.87491
# Velocity P-wave (km/s) = 4.21838 5.66931 4.99679
#
# Compressibility (1/GPa) = 0.05932890
#
# Stress axis : x y z
#
# Youngs Moduli (GPa) = 19.21509 86.88044 16.79543
#
# Poissons Ratio (x) = 0.42835 0.29521
# Poissons Ratio (y) = 0.09474 0.15745
# Poissons Ratio (z) = 0.33774 0.81448
#
# Static dielectric constant tensor:
#      x y z
#    x 1.588520 0.000000 -0.018590 
#    y 0.000000 1.662210 0.000000 
#    z -0.018590 0.000000 1.602000 
# 
# From -- ./inp_files/111554.got.cif
#   From: 2010.05.17/outbox.cif.g08.bks.cpg/sg12_56_cif.got.tgz:111554.got - 2010.06.03 13:09:07.
