data_PCOD9174893
_publ_section_title
;
Structure prediction by ZEFSAII (Michael W. Deem and Ramdas Pophale) SiO2 
 PCOD9174893
Probable space group: C 2/M
;
_chemical_formula_sum "Si O2"
_cell_formula_units_Z 48
_cell_length_a 20.946228
_cell_length_b 8.416488
_cell_length_c 27.917287
_cell_angle_alpha 90.000000
_cell_angle_beta 32.803568
_cell_angle_gamma 90.000000
_cell_volume 2666.351045
_symmetry_space_group_name_H-M "C 2/M"
_symmetry_group_IT_number 12
_symmetry_cell_setting 'monoclinic'
loop_
_space_group_symop_operation_xyz
x,y,z
-x,y,-z
-x,-y,-z
x,-y,z
1/2+x,1/2+y,z
1/2-x,1/2+y,-z
1/2-x,1/2-y,-z
1/2+x,1/2-y,z
loop_
_atom_site_type_symbol
_atom_site_label
_atom_site_fract_x
_atom_site_fract_y
_atom_site_fract_z
Si Si1 0.227010 0.809458 0.567827
Si Si2 0.503503 0.192125 0.052755
Si Si3 0.649709 0.309867 0.766757
Si Si4 0.997842 0.806960 0.232638
Si Si5 0.368106 0.309566 0.570063
Si Si6 0.254126 0.807729 0.051776
O O1 0.250000 0.750000 0.500000
O O2 0.098486 0.754075 0.667943
O O3 0.320325 0.752930 0.549100
O O4 0.227784 0.000000 0.567507
O O5 0.396545 0.250698 0.153183
O O6 0.501788 0.000000 0.054565
O O7 0.500000 0.244302 0.000000
O O8 0.626506 0.247725 0.998441
O O9 0.654855 0.500000 0.763238
O O10 0.553909 0.259472 0.786659
O O11 0.774008 0.245028 0.669412
O O12 0.132138 0.753817 0.153389
O O13 0.998364 0.000000 0.233184
O O14 0.500000 0.254993 0.500000
O O15 0.368159 0.500000 0.568100
O O16 0.255229 0.000000 0.051419
O O17 0.250000 0.750000 0.000000
#
# Coordination Sequence:
#
# PCOD9174893 Si02
#       6
#     8   8   8   8   8   8
#     4  10  20  36  57  82 115 148 182 228 278 330
#     4  10  21  35  51  77 112 146 179 220 271 324
#     4  10  19  34  57  80 107 141 180 226 272 328
#     4   8  16  31  52  77 102 136 178 218 266 313
#     4  10  21  38  60  84 109 142 185 230 278 336
#     4  10  18  32  54  77 103 136 178 225 262 313
#
# _framework density 18.002130999999999
#
# number of rings (size 3 to 8) (size 9 to 14) (size 15 to 20)
#    0.000    2.333    1.667    2.500    0.000    1.667 
#    3.000    0.833    0.000    0.000    0.000    0.000 
#    0.000    0.000    0.000    0.000    0.000    0.000 
#
# Total GULP energy -133862.700166 kJ/mol
# GULP energy per Si atom -5577.612507 kJ/mol
# Density = 1.796116 g / cm^3
# Si number density = 18.002131 Si / 1000 Ang^3
#
#
#
# Elastic Constant Matrix: (Units=GPa)
#
#
# Indices 1 2 3 4 5 6 
#
# 1 125.1356 25.4692 101.7955 0.0004 5.6648 -0.0014
# 2 25.4692 28.9780 26.5236 0.0035 1.1602 0.0012
# 3 101.7955 26.5236 167.8039 0.0002 5.7798 0.0002
# 4 0.0004 0.0035 0.0002 24.9653 -0.0002 4.9006
# 5 5.6648 1.1602 5.7798 -0.0002 38.3165 0.0006
# 6 -0.0014 0.0012 0.0002 4.9006 0.0006 23.8814
#
#
#
# Elastic Compliance Matrix: (Units=1/GPa)
#
#
# Indices 1 2 3 4 5 6 
#
# 1 0.016744 -0.006327 -0.009126 0.000000 -0.000907 0.000001
# 2 -0.006327 0.042739 -0.002920 -0.000006 0.000082 -0.000001
# 3 -0.009126 -0.002920 0.011970 0.000001 -0.000368 -0.000001
# 4 0.000000 -0.000006 0.000001 0.041737 0.000000 -0.008565
# 5 -0.000907 0.000082 -0.000368 0.000000 0.026286 -0.000001
# 6 0.000001 -0.000001 -0.000001 -0.008565 -0.000001 0.043631
#
#
# Mechanical properties :
#
#
# Convention : Reuss Voigt Hill
#
# Bulk Modulus (GPa) = 28.81302 69.94379 49.37841
# Shear Modulus (GPa) = 21.60547 28.64126 25.12337
#
# Velocity S-wave (km/s) = 3.46809 3.99305 3.73980
# Velocity P-wave (km/s) = 5.66365 7.75865 6.79241
#
# Compressibility (1/GPa) = 0.03470653
#
# Stress axis : x y z
#
# Youngs Moduli (GPa) = 59.72193 23.39760 83.54298
#
# Poissons Ratio (x) = 0.14804 0.76244
# Poissons Ratio (y) = 0.37787 0.24395
# Poissons Ratio (z) = 0.54504 0.06832
#
# Static dielectric constant tensor:
#      x y z
#    x 1.597310 0.000000 -0.015860 
#    y 0.000000 1.619690 0.000000 
#    z -0.015860 0.000000 1.626720 
# 
# From -- ./inp_files/345384.got.cif
#   From: 2010.05.17/outbox.cif.g08.bks.cpg/sg12_173_cif.got.tgz:345384.got - 2010.06.03 13:09:07.
