data_PCOD9174771
_publ_section_title
;
Structure prediction by ZEFSAII (Michael W. Deem and Ramdas Pophale) SiO2 
 PCOD9174771
Probable space group: C 2/M
;
_chemical_formula_sum "Si O2"
_cell_formula_units_Z 56
_cell_length_a 9.959256
_cell_length_b 18.941553
_cell_length_c 15.324323
_cell_angle_alpha 90.000000
_cell_angle_beta 60.976891
_cell_angle_gamma 90.000000
_cell_volume 2527.818540
_symmetry_space_group_name_H-M "C 2/M"
_symmetry_group_IT_number 12
_symmetry_cell_setting 'monoclinic'
loop_
_space_group_symop_operation_xyz
x,y,z
-x,y,-z
-x,-y,-z
x,-y,z
1/2+x,1/2+y,z
1/2-x,1/2+y,-z
1/2-x,1/2-y,-z
1/2+x,1/2-y,z
loop_
_atom_site_type_symbol
_atom_site_label
_atom_site_fract_x
_atom_site_fract_y
_atom_site_fract_z
Si Si1 0.958066 0.583428 0.358671
Si Si2 0.884543 0.915405 0.461617
Si Si3 0.291600 0.584681 0.306573
Si Si4 0.072171 0.693741 0.785608
Si Si5 0.371637 0.117370 0.983941
Si Si6 0.836249 0.131680 0.096123
Si Si7 0.314006 0.714269 0.831320
O O1 0.969778 0.500000 0.333229
O O2 0.792595 0.594183 0.454251
O O3 0.959782 0.632710 0.273270
O O4 0.108721 0.602021 0.367897
O O5 0.886937 0.889378 0.360616
O O6 0.000000 0.887079 0.500000
O O7 0.913844 0.000000 0.448893
O O8 0.301587 0.500000 0.306943
O O9 0.340132 0.606779 0.194245
O O10 0.248857 0.697881 0.756117
O O11 0.983866 0.675247 0.903511
O O12 0.990971 0.764792 0.780004
O O13 0.279492 0.087659 0.930152
O O14 0.500000 0.076533 0.000000
O O15 0.241997 0.153583 0.085324
O O16 0.773099 0.212260 0.116098
O O17 0.000000 0.129525 0.000000
#
# Coordination Sequence:
#
# PCOD9174771 Si02
#       7
#     8   8   8   8   8   8   8
#     4  10  19  36  61  86 113 146 187 238 297 352
#     4   9  19  38  62  87 111 140 191 250 294 343
#     4  10  20  36  58  84 114 151 193 235 289 352
#     4  10  18  32  52  85 110 146 189 242 283 333
#     4   9  17  31  50  73 108 145 192 241 275 315
#     4  11  19  32  52  82 114 152 193 235 281 337
#     4  10  18  32  53  78 112 152 203 238 275 324
#
# _framework density 22.153489
#
# number of rings (size 3 to 8) (size 9 to 14) (size 15 to 20)
#    0.000    2.143    2.857    4.286    0.000    2.000 
#    7.714    0.000    0.000    8.571    0.000    0.000 
#    0.000    0.000    0.000    0.000    0.000    0.000 
#
# Total GULP energy -156094.934043 kJ/mol
# GULP energy per Si atom -5574.819073 kJ/mol
# Density = 2.210307 g / cm^3
# Si number density = 22.153489 Si / 1000 Ang^3
#
#
#
# Elastic Constant Matrix: (Units=GPa)
#
#
# Indices 1 2 3 4 5 6 
#
# 1 150.9608 23.2192 65.0951 0.0000 50.2774 0.0000
# 2 23.2192 39.8853 28.4258 0.0000 11.0381 0.0000
# 3 65.0951 28.4258 99.3198 0.0000 37.2218 0.0000
# 4 0.0000 0.0000 0.0000 23.4187 0.0000 7.3686
# 5 50.2774 11.0381 37.2218 0.0000 30.8777 0.0000
# 6 0.0000 0.0000 0.0000 7.3686 0.0000 12.9055
#
#
#
# Elastic Compliance Matrix: (Units=1/GPa)
#
#
# Indices 1 2 3 4 5 6 
#
# 1 0.014658 -0.001847 -0.000695 0.000000 -0.022369 0.000000
# 2 -0.001847 0.031738 -0.008661 0.000000 0.002103 0.000000
# 3 -0.000695 -0.008661 0.020828 0.000000 -0.020879 0.000000
# 4 0.000000 0.000000 0.000000 0.052052 0.000000 -0.029720
# 5 -0.022369 0.002103 -0.020879 0.000000 0.093226 0.000000
# 6 0.000000 0.000000 0.000000 -0.029720 0.000000 0.094455
#
#
# Mechanical properties :
#
#
# Convention : Reuss Voigt Hill
#
# Bulk Modulus (GPa) = 22.31284 58.18291 40.24787
# Shear Modulus (GPa) = 14.52209 25.00209 19.76209
#
# Velocity S-wave (km/s) = 2.56309 3.36309 2.98997
# Velocity P-wave (km/s) = 4.34201 6.43436 5.48881
#
# Compressibility (1/GPa) = 0.04481725
#
# Stress axis : x y z
#
# Youngs Moduli (GPa) = 68.22141 31.50812 48.01320
#
# Poissons Ratio (x) = 0.05820 0.03338
# Poissons Ratio (y) = 0.12602 0.41583
# Poissons Ratio (z) = 0.04742 0.27289
#
# Static dielectric constant tensor:
#      x y z
#    x 1.947210 0.000000 0.023540 
#    y 0.000000 1.815250 0.000000 
#    z 0.023540 0.000000 1.831050 
# 
# From -- ./inp_files/198352.got.cif
#   From: 2010.05.17/outbox.cif.g08.bks.cpg/sg12_100_cif.got.tgz:198352.got - 2010.06.03 13:09:07.
