data_PCOD9174963
_publ_section_title
;
Structure prediction by ZEFSAII (Michael W. Deem and Ramdas Pophale) SiO2 
 PCOD9174963
Probable space group: C 2/M
;
_chemical_formula_sum "Si O2"
_cell_formula_units_Z 44
_cell_length_a 12.799772
_cell_length_b 15.390653
_cell_length_c 22.270548
_cell_angle_alpha 90.000000
_cell_angle_beta 155.940720
_cell_angle_gamma 90.000000
_cell_volume 1788.592079
_symmetry_space_group_name_H-M "C 2/M"
_symmetry_group_IT_number 12
_symmetry_cell_setting 'monoclinic'
loop_
_space_group_symop_operation_xyz
x,y,z
-x,y,-z
-x,-y,-z
x,-y,z
1/2+x,1/2+y,z
1/2-x,1/2+y,-z
1/2-x,1/2-y,-z
1/2+x,1/2-y,z
loop_
_atom_site_type_symbol
_atom_site_label
_atom_site_fract_x
_atom_site_fract_y
_atom_site_fract_z
Si Si1 0.751345 0.401027 0.602919
Si Si2 0.456112 0.326854 0.847378
Si Si3 0.500000 0.248783 0.000000
Si Si4 0.414143 0.103555 0.560069
Si Si5 0.354918 0.599194 0.219668
Si Si6 0.012651 0.373023 0.859689
O O1 0.500000 0.357961 0.500000
O O2 0.673055 0.500000 0.544447
O O3 0.854111 0.360835 0.595769
O O4 0.952313 0.407196 0.762148
O O5 0.500467 0.230770 0.845693
O O6 0.183848 0.358686 0.681391
O O7 0.453679 0.307698 0.917929
O O8 0.698966 0.389925 0.966792
O O9 0.732339 0.178841 0.118965
O O10 0.154687 0.116844 0.386941
O O11 0.453571 0.000000 0.584331
O O12 0.321749 0.500000 0.179568
O O13 0.201156 0.601910 0.203245
#
# Coordination Sequence:
#
# PCOD9174963 Si02
#       6
#     8   8   4   8   8   8
#     4  10  18  32  54  83 111 139 179 228 275 325
#     4  10  22  38  53  83 114 146 185 223 280 332
#     4  10  21  36  57  80 112 146 184 228 267 330
#     4  10  21  37  59  84 112 144 185 233 279 329
#     4  10  20  37  59  83 107 144 189 229 272 322
#     4  10  20  35  56  78 115 147 180 229 274 332
#
# _framework density 24.600355
#
# number of rings (size 3 to 8) (size 9 to 14) (size 15 to 20)
#    0.000    2.000    1.818    1.909    0.000    4.364 
#    3.273    2.273    0.000    0.000    0.000   24.182 
#    0.000    0.000    0.000    0.000    0.000    0.000 
#
# Total GULP energy -122990.971549 kJ/mol
# GULP energy per Si atom -5590.498707 kJ/mol
# Density = 2.454436 g / cm^3
# Si number density = 24.600355 Si / 1000 Ang^3
#
#
#
# Elastic Constant Matrix: (Units=GPa)
#
#
# Indices 1 2 3 4 5 6 
#
# 1 52.7164 6.4288 13.9793 0.0010 -3.4940 -0.0015
# 2 6.4288 56.2136 38.6845 0.0015 7.0181 -0.0008
# 3 13.9793 38.6845 170.6414 0.0182 41.4378 0.0035
# 4 0.0010 0.0015 0.0182 35.5356 -0.0049 0.0915
# 5 -3.4940 7.0181 41.4378 -0.0049 32.1752 -0.0004
# 6 -0.0015 -0.0008 0.0035 0.0915 -0.0004 37.3483
#
#
#
# Elastic Compliance Matrix: (Units=1/GPa)
#
#
# Indices 1 2 3 4 5 6 
#
# 1 0.020288 -0.001083 -0.002923 0.000002 0.006204 0.000001
# 2 -0.001083 0.021249 -0.005201 0.000002 0.001946 0.000001
# 3 -0.002923 -0.005201 0.010302 -0.000007 -0.012451 -0.000001
# 4 0.000002 0.000002 -0.000007 0.028141 0.000013 -0.000069
# 5 0.006204 0.001946 -0.012451 0.000013 0.047365 0.000002
# 6 0.000001 0.000001 -0.000001 -0.000069 0.000002 0.026775
#
#
# Mechanical properties :
#
#
# Convention : Reuss Voigt Hill
#
# Bulk Modulus (GPa) = 29.91748 44.19516 37.05632
# Shear Modulus (GPa) = 27.22177 35.71041 31.46609
#
# Velocity S-wave (km/s) = 3.33011 3.81415 3.58032
# Velocity P-wave (km/s) = 5.19365 6.11565 5.67341
#
# Compressibility (1/GPa) = 0.03342527
#
# Stress axis : x y z
#
# Youngs Moduli (GPa) = 49.29066 47.06010 97.06525
#
# Poissons Ratio (x) = 0.05098 0.28372
# Poissons Ratio (y) = 0.05339 0.50484
# Poissons Ratio (z) = 0.14407 0.24476
#
# Static dielectric constant tensor:
#      x y z
#    x 2.043790 0.000000 0.039480 
#    y 0.000000 1.926750 0.000000 
#    z 0.039480 0.000000 1.989820 
# 
# From -- ./inp_files/361829.got.cif
#   From: 2010.05.17/outbox.cif.g08.bks.cpg/sg12_181_cif.got.tgz:361829.got - 2010.06.03 13:09:07.
