data_PCOD9174062
_publ_section_title
;
Structure prediction by ZEFSAII (Michael W. Deem and Ramdas Pophale) SiO2 
 PCOD9174062
Probable space group: C 2/M
;
_chemical_formula_sum "Si O2"
_cell_formula_units_Z 64
_cell_length_a 15.962882
_cell_length_b 7.983631
_cell_length_c 19.377154
_cell_angle_alpha 90.000000
_cell_angle_beta 89.725358
_cell_angle_gamma 90.000000
_cell_volume 2469.430231
_symmetry_space_group_name_H-M "C 2/M"
_symmetry_group_IT_number 12
_symmetry_cell_setting 'monoclinic'
loop_
_space_group_symop_operation_xyz
x,y,z
-x,y,-z
-x,-y,-z
x,-y,z
1/2+x,1/2+y,z
1/2-x,1/2+y,-z
1/2-x,1/2-y,-z
1/2+x,1/2-y,z
loop_
_atom_site_type_symbol
_atom_site_label
_atom_site_fract_x
_atom_site_fract_y
_atom_site_fract_z
Si Si1 0.583473 0.201372 0.173353
Si Si2 0.313209 0.805813 0.211863
Si Si3 0.568138 0.692460 0.421819
Si Si4 0.330302 0.195818 0.453576
Si Si5 0.474078 0.301792 0.294412
Si Si6 0.330612 0.798312 0.955731
Si Si7 0.583328 0.203345 0.912829
Si Si8 0.223298 0.312896 0.339707
O O1 0.556282 0.281222 0.245329
O O2 0.657735 0.263702 0.122678
O O3 0.503510 0.238353 0.124029
O O4 0.588999 0.000000 0.183786
O O5 0.153945 0.801324 0.375883
O O6 0.342964 0.732814 0.138427
O O7 0.244917 0.716649 0.259984
O O8 0.290697 0.000000 0.205800
O O9 0.546010 0.500000 0.432024
O O10 0.592555 0.766341 0.495847
O O11 0.499097 0.766295 0.369843
O O12 0.250000 0.250000 0.500000
O O13 0.309719 0.291232 0.382819
O O14 0.327554 0.000000 0.439185
O O15 0.454372 0.500000 0.297349
O O16 0.399743 0.206367 0.256113
O O17 0.402972 0.741945 0.009089
O O18 0.334693 0.000000 0.950369
O O19 0.250000 0.750000 0.000000
O O20 0.590145 0.000000 0.912863
O O21 0.191628 0.500000 0.350479
#
# Coordination Sequence:
#
# PCOD9174062 Si02
#       8
#     8   8   8   8   8   8   8   8
#     4   9  18  34  56  76  97 134 180 217 252 306
#     4  10  20  36  57  79 105 138 177 219 264 315
#     4  10  20  35  54  77 106 140 178 217 262 314
#     4  10  18  31  52  77 105 137 176 218 261 311
#     4  10  21  36  55  79 108 140 174 217 265 314
#     4  10  20  34  52  77 107 135 168 212 263 311
#     4   8  16  33  56  75  95 132 177 214 250 303
#     4  11  21  34  54  79 108 140 176 218 263 312
#
# _framework density 25.916907999999999
#
# number of rings (size 3 to 8) (size 9 to 14) (size 15 to 20)
#    0.000    2.250    0.000    6.000    0.000    5.000 
#    0.000    7.500    0.000    7.500    0.000    0.000 
#    0.000    0.000    0.000    0.000    0.000    0.000 
#
# Total GULP energy -178984.347043 kJ/mol
# GULP energy per Si atom -5593.260845 kJ/mol
# Density = 2.585792 g / cm^3
# Si number density = 25.916908 Si / 1000 Ang^3
#
#
#
# Elastic Constant Matrix: (Units=GPa)
#
#
# Indices 1 2 3 4 5 6 
#
# 1 76.4895 -10.0044 3.4378 0.0000 3.9579 0.0000
# 2 -10.0044 75.4663 7.9647 0.0000 4.4921 0.0000
# 3 3.4378 7.9647 175.7517 0.0000 10.1219 0.0000
# 4 0.0000 0.0000 0.0000 23.1493 0.0000 -1.5070
# 5 3.9579 4.4921 10.1219 0.0000 48.3042 0.0000
# 6 0.0000 0.0000 0.0000 -1.5070 0.0000 19.6514
#
#
#
# Elastic Compliance Matrix: (Units=1/GPa)
#
#
# Indices 1 2 3 4 5 6 
#
# 1 0.013394 0.001877 -0.000277 0.000000 -0.001214 0.000000
# 2 0.001877 0.013638 -0.000580 0.000000 -0.001301 0.000000
# 3 -0.000277 -0.000580 0.005787 0.000000 -0.001136 0.000000
# 4 0.000000 0.000000 0.000000 0.043415 0.000000 0.003329
# 5 -0.001214 -0.001301 -0.001136 0.000000 0.021161 0.000000
# 6 0.000000 0.000000 0.000000 0.003329 0.000000 0.051142
#
#
# Mechanical properties :
#
#
# Convention : Reuss Voigt Hill
#
# Bulk Modulus (GPa) = 28.68603 36.72264 32.70434
# Shear Modulus (GPa) = 31.62209 39.97492 35.79850
#
# Velocity S-wave (km/s) = 3.49683 3.93163 3.72059
# Velocity P-wave (km/s) = 5.23414 5.90004 5.57704
#
# Compressibility (1/GPa) = 0.03486018
#
# Stress axis : x y z
#
# Youngs Moduli (GPa) = 74.65754 73.32231 172.80206
#
# Poissons Ratio (x) = -0.13764 0.04789
# Poissons Ratio (y) = -0.14015 0.10020
# Poissons Ratio (z) = 0.02069 0.04252
#
# Static dielectric constant tensor:
#      x y z
#    x 2.107510 0.000000 0.082720 
#    y 0.000000 1.901810 0.000000 
#    z 0.082720 0.000000 1.952960 
# 
# From -- ./inp_files/345546.got.cif
#   From: 2010.05.17/outbox.cif.g08.bks.cpg/sg12_173_cif.got.tgz:345546.got - 2010.06.03 13:09:07.
