data_PCOD9174230
_publ_section_title
;
Structure prediction by ZEFSAII (Michael W. Deem and Ramdas Pophale) SiO2 
 PCOD9174230
Probable space group: C 2/M
;
_chemical_formula_sum "Si O2"
_cell_formula_units_Z 64
_cell_length_a 17.898380
_cell_length_b 20.782061
_cell_length_c 10.993411
_cell_angle_alpha 90.000000
_cell_angle_beta 116.841811
_cell_angle_gamma 90.000000
_cell_volume 3648.585710
_symmetry_space_group_name_H-M "C 2/M"
_symmetry_group_IT_number 12
_symmetry_cell_setting 'monoclinic'
loop_
_space_group_symop_operation_xyz
x,y,z
-x,y,-z
-x,-y,-z
x,-y,z
1/2+x,1/2+y,z
1/2-x,1/2+y,-z
1/2-x,1/2-y,-z
1/2+x,1/2-y,z
loop_
_atom_site_type_symbol
_atom_site_label
_atom_site_fract_x
_atom_site_fract_y
_atom_site_fract_z
Si Si1 0.465831 0.682545 0.168560
Si Si2 0.446110 0.930765 0.335157
Si Si3 0.362332 0.691956 0.858382
Si Si4 0.244874 0.429055 0.722553
Si Si5 0.514337 0.800152 0.364586
Si Si6 0.805368 0.294913 0.629011
Si Si7 0.978604 0.075716 0.621832
Si Si8 0.220519 0.073379 0.531375
O O1 0.552709 0.681371 0.156623
O O2 0.472264 0.739208 0.270928
O O3 0.467296 0.616184 0.243598
O O4 0.392111 0.695892 0.019381
O O5 0.500000 0.931736 0.500000
O O6 0.348513 0.924767 0.294691
O O7 0.474212 0.866742 0.289403
O O8 0.460989 0.000000 0.285373
O O9 0.301971 0.630648 0.801178
O O10 0.322145 0.754555 0.764665
O O11 0.280124 0.500000 0.781895
O O12 0.238919 0.427945 0.572375
O O13 0.500000 0.795869 0.500000
O O14 0.609422 0.802694 0.386555
O O15 0.750000 0.250000 0.500000
O O16 0.762276 0.364034 0.623136
O O17 0.878620 0.085835 0.561982
O O18 0.000000 0.095063 0.500000
O O19 0.994763 0.000000 0.647636
O O20 0.228735 0.000000 0.589428
#
# Coordination Sequence:
#
# PCOD9174230 Si02
#       8
#     8   8   8   8   8   8   8   8
#     4  10  20  36  52  77 108 143 183 220 264 321
#     4   9  18  31  51  78 106 133 166 217 274 322
#     4  10  21  34  53  78 109 141 181 225 268 315
#     4  10  18  32  53  79 108 135 173 222 270 323
#     4  10  20  33  55  78 107 139 174 215 274 323
#     4  11  20  33  54  80 106 140 177 229 271 315
#     4  10  20  35  55  78 108 143 178 218 269 330
#     4  10  18  31  53  80 105 136 180 224 268 318
#
# _framework density 17.541043999999999
#
# number of rings (size 3 to 8) (size 9 to 14) (size 15 to 20)
#    0.000    2.000    2.500    2.625    0.000    2.000 
#    0.000    1.875    0.000    0.750    0.000    3.500 
#    0.000    0.000    0.000    0.000    0.000    0.000 
#
# Total GULP energy -178290.587137 kJ/mol
# GULP energy per Si atom -5571.580848 kJ/mol
# Density = 1.750112 g / cm^3
# Si number density = 17.541044 Si / 1000 Ang^3
#
#
#
# Elastic Constant Matrix: (Units=GPa)
#
#
# Indices 1 2 3 4 5 6 
#
# 1 41.8932 42.9752 19.7024 0.0000 3.4964 0.0000
# 2 42.9752 139.8353 66.3896 0.0000 9.8311 0.0000
# 3 19.7024 66.3896 91.9949 0.0000 2.1705 0.0000
# 4 0.0000 0.0000 0.0000 18.2127 0.0000 3.1257
# 5 3.4964 9.8311 2.1705 0.0000 18.5020 0.0000
# 6 0.0000 0.0000 0.0000 3.1257 0.0000 31.2634
#
#
#
# Elastic Compliance Matrix: (Units=1/GPa)
#
#
# Indices 1 2 3 4 5 6 
#
# 1 0.034884 -0.010834 0.000368 0.000000 -0.000879 0.000000
# 2 -0.010834 0.014700 -0.008175 0.000000 -0.004804 0.000000
# 3 0.000368 -0.008175 0.016636 0.000000 0.002323 0.000000
# 4 0.000000 0.000000 0.000000 0.055865 0.000000 -0.005585
# 5 -0.000879 -0.004804 0.002323 0.000000 0.056495 0.000000
# 6 0.000000 0.000000 0.000000 -0.005585 0.000000 0.032545
#
#
# Mechanical properties :
#
#
# Convention : Reuss Voigt Hill
#
# Bulk Modulus (GPa) = 34.55557 59.09530 46.82544
# Shear Modulus (GPa) = 19.37600 23.23937 21.30768
#
# Velocity S-wave (km/s) = 3.32717 3.64381 3.48908
# Velocity P-wave (km/s) = 5.87390 7.17398 6.55624
#
# Compressibility (1/GPa) = 0.02893889
#
# Stress axis : x y z
#
# Youngs Moduli (GPa) = 28.66638 68.02900 60.11096
#
# Poissons Ratio (x) = 0.73701 -0.02212
# Poissons Ratio (y) = 0.31056 0.49138
# Poissons Ratio (z) = -0.01055 0.55611
#
# Static dielectric constant tensor:
#      x y z
#    x 1.619330 0.000000 0.013340 
#    y 0.000000 1.641610 0.000000 
#    z 0.013340 0.000000 1.582920 
# 
# From -- ./inp_files/159266.got.cif
#   From: 2010.05.17/outbox.cif.g08.bks.cpg/sg12_80_cif.got.tgz:159266.got - 2010.06.03 13:09:07.
