data_PCOD9174084
_publ_section_title
;
Structure prediction by ZEFSAII (Michael W. Deem and Ramdas Pophale) SiO2 
 PCOD9174084
Probable space group: C 2/M
;
_chemical_formula_sum "Si O2"
_cell_formula_units_Z 64
_cell_length_a 18.123102
_cell_length_b 18.915154
_cell_length_c 16.596574
_cell_angle_alpha 90.000000
_cell_angle_beta 141.550129
_cell_angle_gamma 90.000000
_cell_volume 3537.792130
_symmetry_space_group_name_H-M "C 2/M"
_symmetry_group_IT_number 12
_symmetry_cell_setting 'monoclinic'
loop_
_space_group_symop_operation_xyz
x,y,z
-x,y,-z
-x,-y,-z
x,-y,z
1/2+x,1/2+y,z
1/2-x,1/2+y,-z
1/2-x,1/2-y,-z
1/2+x,1/2-y,z
loop_
_atom_site_type_symbol
_atom_site_label
_atom_site_fract_x
_atom_site_fract_y
_atom_site_fract_z
Si Si1 0.194258 0.422310 0.897871
Si Si2 0.629891 0.579476 0.606282
Si Si3 0.235271 0.414924 0.433959
Si Si4 0.509803 0.182580 0.253685
Si Si5 0.088690 0.712317 0.007787
Si Si6 0.954553 0.153584 0.710273
Si Si7 0.063879 0.875759 0.975401
Si Si8 0.702214 0.612885 0.841885
O O1 0.142198 0.500000 0.836221
O O2 0.317143 0.413422 0.954238
O O3 0.105203 0.356710 0.806222
O O4 0.228878 0.420166 0.022900
O O5 0.500000 0.615284 0.500000
O O6 0.606319 0.500000 0.554772
O O7 0.720634 0.608229 0.617981
O O8 0.684829 0.575387 0.741735
O O9 0.218094 0.500000 0.423095
O O10 0.116729 0.372329 0.352268
O O11 0.340984 0.388422 0.581846
O O12 0.471951 0.194595 0.128786
O O13 0.548949 0.262053 0.311152
O O14 0.100202 0.795834 0.029174
O O15 0.219316 0.680343 0.114982
O O16 0.000000 0.683390 0.000000
O O17 0.071999 0.128143 0.764127
O O18 0.978375 0.135183 0.824647
O O19 0.000000 0.906755 0.000000
#
# Coordination Sequence:
#
# PCOD9174084 Si02
#       8
#     8   8   8   8   8   8   8   8
#     4  10  20  33  53  78 106 138 172 214 262 309
#     4  10  19  31  47  72 108 140 167 202 245 297
#     4  11  22  35  53  76 106 142 177 211 252 305
#     4  10  20  35  52  75 106 141 176 209 254 313
#     4   9  17  31  52  77 105 134 167 209 257 306
#     4  10  20  34  55  78 103 135 174 216 261 304
#     4   9  19  35  55  79 100 125 166 222 272 311
#     4  10  18  31  52  78 106 136 171 209 250 303
#
# _framework density 18.090378999999999
#
# number of rings (size 3 to 8) (size 9 to 14) (size 15 to 20)
#    0.000    2.125    1.250    2.625    0.000    5.250 
#    0.000    0.000    0.000    6.750    0.000    1.750 
#    0.000    0.000    0.000    0.000    0.000    0.000 
#
# Total GULP energy -178164.062559 kJ/mol
# GULP energy per Si atom -5567.626955 kJ/mol
# Density = 1.804920 g / cm^3
# Si number density = 18.090379 Si / 1000 Ang^3
#
#
#
# Elastic Constant Matrix: (Units=GPa)
#
#
# Indices 1 2 3 4 5 6 
#
# 1 79.2755 5.2535 16.4953 0.0000 -8.4836 0.0000
# 2 5.2535 64.1056 11.4920 0.0000 2.0849 0.0000
# 3 16.4953 11.4920 44.3355 -0.0001 7.5553 -0.0001
# 4 0.0000 0.0000 -0.0001 17.3927 0.0000 -5.1436
# 5 -8.4836 2.0849 7.5553 0.0000 26.4520 0.0000
# 6 0.0000 0.0000 -0.0001 -5.1436 0.0000 -15.2862
#
#
#
# Elastic Compliance Matrix: (Units=1/GPa)
#
#
# Indices 1 2 3 4 5 6 
#
# 1 0.014695 -0.000249 -0.006527 0.000000 0.006597 0.000000
# 2 -0.000249 0.016364 -0.004116 0.000000 -0.000194 0.000000
# 3 -0.006527 -0.004116 0.027700 0.000000 -0.009681 0.000000
# 4 0.000000 0.000000 0.000000 0.052292 0.000000 -0.017595
# 5 0.006597 -0.000194 -0.009681 0.000000 0.042700 0.000000
# 6 0.000000 0.000000 0.000000 -0.017595 0.000000 -0.059498
#
#
# Mechanical properties :
#
#
# Convention : Reuss Voigt Hill
#
# Bulk Modulus (GPa) = 27.04494 28.24424 27.64459
# Shear Modulus (GPa) = 38.95242 16.01008 27.48125
#
# Velocity S-wave (km/s) = 4.64531 2.97813 3.90180
# Velocity P-wave (km/s) = 6.61469 5.24142 5.96769
#
# Compressibility (1/GPa) = 0.03697549
#
# Stress axis : x y z
#
# Youngs Moduli (GPa) = 68.05142 61.11047 36.10068
#
# Poissons Ratio (x) = 0.01520 0.23563
# Poissons Ratio (y) = 0.01693 0.14859
# Poissons Ratio (z) = 0.44417 0.25153
#
# Static dielectric constant tensor:
#      x y z
#    x 1.643000 0.000000 -0.003260 
#    y 0.000000 1.653490 0.000000 
#    z -0.003260 0.000000 1.607700 
# 
# From -- ./inp_files/169467.got.cif
#   From: 2010.05.17/outbox.cif.g08.bks.cpg/sg12_85_cif.got.tgz:169467.got - 2010.06.03 13:09:07.
