data_PCOD9174384
_publ_section_title
;
Structure prediction by ZEFSAII (Michael W. Deem and Ramdas Pophale) SiO2 
 PCOD9174384
Probable space group: C 2/M
;
_chemical_formula_sum "Si O2"
_cell_formula_units_Z 56
_cell_length_a 9.102402
_cell_length_b 18.398729
_cell_length_c 29.795568
_cell_angle_alpha 90.000000
_cell_angle_beta 41.969543
_cell_angle_gamma 90.000000
_cell_volume 3336.951276
_symmetry_space_group_name_H-M "C 2/M"
_symmetry_group_IT_number 12
_symmetry_cell_setting 'monoclinic'
loop_
_space_group_symop_operation_xyz
x,y,z
-x,y,-z
-x,-y,-z
x,-y,z
1/2+x,1/2+y,z
1/2-x,1/2+y,-z
1/2-x,1/2-y,-z
1/2+x,1/2-y,z
loop_
_atom_site_type_symbol
_atom_site_label
_atom_site_fract_x
_atom_site_fract_y
_atom_site_fract_z
Si Si1 0.761358 0.414755 0.432299
Si Si2 0.791585 0.700633 0.151938
Si Si3 0.560733 0.689983 0.037988
Si Si4 0.576921 0.082527 0.033813
Si Si5 0.039271 0.302957 0.543489
Si Si6 0.649011 0.196284 0.663424
Si Si7 0.831086 0.259544 0.243140
O O1 0.500000 0.406107 0.500000
O O2 0.813785 0.500000 0.420662
O O3 0.899405 0.370824 0.438635
O O4 0.803475 0.376033 0.375204
O O5 0.852532 0.700978 0.190409
O O6 0.530096 0.702046 0.203882
O O7 0.871648 0.777911 0.112458
O O8 0.919658 0.636322 0.097692
O O9 0.500000 0.689863 0.000000
O O10 0.750000 0.750000 0.000000
O O11 0.676228 0.614231 0.022414
O O12 0.567398 0.000000 0.052513
O O13 0.500000 0.084936 0.000000
O O14 0.250000 0.250000 0.500000
O O15 0.000000 0.321551 0.500000
O O16 0.827725 0.257460 0.608451
O O17 0.406882 0.222642 0.704737
O O18 0.658301 0.190536 0.715086
#
# Coordination Sequence:
#
# PCOD9174384 Si02
#       7
#     8   8   8   8   8   8   8
#     4  11  23  38  58  88 119 144 179 239 299 335
#     4  10  18  34  51  80 108 138 180 237 261 318
#     4  10  18  31  55  79 105 135 172 226 284 322
#     4  10  20  34  54  79 109 143 177 224 287 337
#     4  12  19  34  63  88 111 146 186 235 286 332
#     4  11  19  36  56  83 107 149 189 230 262 340
#     4  10  21  31  57  79 103 143 200 217 262 316
#
# _framework density 16.781786
#
# number of rings (size 3 to 8) (size 9 to 14) (size 15 to 20)
#    0.000    1.429    4.286    4.286    0.000    0.571 
#    0.000    1.429    0.000    3.429    0.000    0.000 
#    0.000    0.000    0.000    0.000    0.000    0.000 
#
# Total GULP energy -156125.911240 kJ/mol
# GULP energy per Si atom -5575.925401 kJ/mol
# Density = 1.674359 g / cm^3
# Si number density = 16.781786 Si / 1000 Ang^3
#
#
#
# Elastic Constant Matrix: (Units=GPa)
#
#
# Indices 1 2 3 4 5 6 
#
# 1 130.8283 53.7491 47.6499 0.0017 11.9425 0.0000
# 2 53.7491 120.9680 53.4882 0.0004 7.4387 0.0017
# 3 47.6499 53.4882 95.0924 0.0089 5.2497 0.0029
# 4 0.0017 0.0004 0.0089 15.3492 -0.0005 4.1368
# 5 11.9425 7.4387 5.2497 -0.0005 41.4610 -0.0009
# 6 0.0000 0.0017 0.0029 4.1368 -0.0009 22.4778
#
#
#
# Elastic Compliance Matrix: (Units=1/GPa)
#
#
# Indices 1 2 3 4 5 6 
#
# 1 0.010266 -0.002945 -0.003377 0.000001 -0.002001 0.000000
# 2 -0.002945 0.011908 -0.005187 0.000003 -0.000631 -0.000001
# 3 -0.003377 -0.005187 0.015127 -0.000008 -0.000012 0.000000
# 4 0.000001 0.000003 -0.000008 0.068550 0.000001 -0.012616
# 5 -0.002001 -0.000631 -0.000012 0.000001 0.024810 0.000001
# 6 0.000000 -0.000001 0.000000 -0.012616 0.000001 0.046810
#
#
# Mechanical properties :
#
#
# Convention : Reuss Voigt Hill
#
# Bulk Modulus (GPa) = 70.02105 72.96257 71.49181
# Shear Modulus (GPa) = 24.36038 28.65770 26.50904
#
# Velocity S-wave (km/s) = 3.81412 4.13688 3.97877
# Velocity P-wave (km/s) = 7.82379 8.14800 7.98754
#
# Compressibility (1/GPa) = 0.01428142
#
# Stress axis : x y z
#
# Youngs Moduli (GPa) = 97.40583 83.97890 66.10773
#
# Poissons Ratio (x) = 0.24734 0.22326
# Poissons Ratio (y) = 0.28688 0.34292
# Poissons Ratio (z) = 0.32896 0.43562
#
# Static dielectric constant tensor:
#      x y z
#    x 1.570700 0.000000 -0.003870 
#    y 0.000000 1.550920 0.000000 
#    z -0.003870 0.000000 1.598730 
# 
# From -- ./inp_files/300434.got.cif
#   From: 2010.05.17/outbox.cif.g08.bks.cpg/sg12_151_cif.got.tgz:300434.got - 2010.06.03 13:09:07.
