data_PCOD9174395
_publ_section_title
;
Structure prediction by ZEFSAII (Michael W. Deem and Ramdas Pophale) SiO2 
 PCOD9174395
Probable space group: C 2/M
;
_chemical_formula_sum "Si O2"
_cell_formula_units_Z 64
_cell_length_a 11.624536
_cell_length_b 17.842332
_cell_length_c 19.723896
_cell_angle_alpha 90.000000
_cell_angle_beta 63.399979
_cell_angle_gamma 90.000000
_cell_volume 3657.904021
_symmetry_space_group_name_H-M "C 2/M"
_symmetry_group_IT_number 12
_symmetry_cell_setting 'monoclinic'
loop_
_space_group_symop_operation_xyz
x,y,z
-x,y,-z
-x,-y,-z
x,-y,z
1/2+x,1/2+y,z
1/2-x,1/2+y,-z
1/2-x,1/2-y,-z
1/2+x,1/2-y,z
loop_
_atom_site_type_symbol
_atom_site_label
_atom_site_fract_x
_atom_site_fract_y
_atom_site_fract_z
Si Si1 0.686625 0.804974 0.701875
Si Si2 0.800770 0.414712 0.624408
Si Si3 0.845503 0.265561 0.538954
Si Si4 0.154497 0.234439 0.961046
Si Si5 0.800770 0.914712 0.124408
Si Si6 0.422691 0.641028 0.231396
Si Si7 0.922691 0.358972 0.731396
Si Si8 0.186625 0.804974 0.201875
O O1 0.784512 0.779888 0.618008
O O2 0.625956 0.727090 0.747470
O O3 0.573591 0.854802 0.701534
O O4 0.750000 0.842879 0.750000
O O5 0.824544 0.500000 0.598901
O O6 0.830133 0.353675 0.559943
O O7 0.654885 0.403585 0.690379
O O8 0.882864 0.391483 0.669369
O O9 0.750000 0.250000 0.500000
O O10 0.000000 0.249621 0.500000
O O11 0.169867 0.146325 0.940057
O O12 0.215488 0.279888 0.881992
O O13 0.250000 0.250000 0.000000
O O14 0.000000 0.250379 0.000000
O O15 0.882864 0.891483 0.169369
O O16 0.654885 0.903585 0.190379
O O17 0.824544 0.000000 0.098901
O O18 0.573591 0.645198 0.201534
O O19 0.874044 0.272910 0.752530
#
# Coordination Sequence:
#
# PCOD9174395 Si02
#       8
#     8   8   8   8   8   8   8   8
#     4  10  18  31  55  80 112 140 184 236 281 321
#     4  10  19  34  56  81 112 147 183 234 286 334
#     4  11  23  36  55  87 117 148 188 235 285 334
#     4  11  23  36  55  87 117 148 188 235 285 334
#     4  10  19  34  56  81 112 147 183 234 286 334
#     4   9  16  30  54  84 107 135 185 234 277 324
#     4   9  16  30  54  84 107 135 185 234 277 324
#     4  10  18  31  55  80 112 140 184 236 281 321
#
# _framework density 17.496358000000001
#
# number of rings (size 3 to 8) (size 9 to 14) (size 15 to 20)
#    0.000    2.000    5.000    3.000    7.000    0.500 
#    0.000    0.000    0.000    3.750    0.000    0.000 
#    0.000    0.000    0.000    0.000    0.000    0.000 
#
# Total GULP energy -178269.304368 kJ/mol
# GULP energy per Si atom -5570.915761 kJ/mol
# Density = 1.745654 g / cm^3
# Si number density = 17.496358 Si / 1000 Ang^3
#
#
#
# Elastic Constant Matrix: (Units=GPa)
#
#
# Indices 1 2 3 4 5 6 
#
# 1 141.9300 49.1599 76.6981 0.0000 -20.0556 0.0000
# 2 49.1599 63.4888 28.0054 0.0000 -3.1902 0.0000
# 3 76.6981 28.0054 75.9490 0.0000 2.1023 0.0000
# 4 0.0000 0.0000 0.0000 4.0858 0.0000 1.0087
# 5 -20.0556 -3.1902 2.1023 0.0000 22.3317 0.0000
# 6 0.0000 0.0000 0.0000 1.0087 0.0000 13.6476
#
#
#
# Elastic Compliance Matrix: (Units=1/GPa)
#
#
# Indices 1 2 3 4 5 6 
#
# 1 0.027080 -0.008740 -0.024828 0.000000 0.025409 0.000000
# 2 -0.008740 0.021884 0.000890 0.000000 -0.004807 0.000000
# 3 -0.024828 0.000890 0.038626 0.000000 -0.025806 0.000000
# 4 0.000000 0.000000 0.000000 0.249299 0.000000 -0.018426
# 5 0.025409 -0.004807 -0.025806 0.000000 0.069341 0.000000
# 6 0.000000 0.000000 0.000000 -0.018426 0.000000 0.074635
#
#
# Mechanical properties :
#
#
# Convention : Reuss Voigt Hill
#
# Bulk Modulus (GPa) = 44.97651 65.45497 55.21574
# Shear Modulus (GPa) = 9.03126 16.51331 12.77229
#
# Velocity S-wave (km/s) = 2.27442 3.07549 2.70478
# Velocity P-wave (km/s) = 5.71484 7.07837 6.43283
#
# Compressibility (1/GPa) = 0.02223383
#
# Stress axis : x y z
#
# Youngs Moduli (GPa) = 36.92737 45.69487 25.88947
#
# Poissons Ratio (x) = 0.39937 0.64278
# Poissons Ratio (y) = 0.32274 -0.02303
# Poissons Ratio (z) = 0.91683 -0.04065
#
# Static dielectric constant tensor:
#      x y z
#    x 1.669640 0.000000 -0.007530 
#    y 0.000000 1.584040 0.000000 
#    z -0.007530 0.000000 1.615090 
# 
# From -- ./inp_files/305972.got.cif
#   From: 2010.05.17/outbox.cif.g08.bks.cpg/sg12_153_cif.got.tgz:305972.got - 2010.06.03 13:09:07.
