data_PCOD9174400
_publ_section_title
;
Structure prediction by ZEFSAII (Michael W. Deem and Ramdas Pophale) SiO2 
 PCOD9174400
Probable space group: C 2/M
;
_chemical_formula_sum "Si O2"
_cell_formula_units_Z 56
_cell_length_a 15.017467
_cell_length_b 7.878923
_cell_length_c 19.712438
_cell_angle_alpha 90.000000
_cell_angle_beta 100.349598
_cell_angle_gamma 90.000000
_cell_volume 2294.456085
_symmetry_space_group_name_H-M "C 2/M"
_symmetry_group_IT_number 12
_symmetry_cell_setting 'monoclinic'
loop_
_space_group_symop_operation_xyz
x,y,z
-x,y,-z
-x,-y,-z
x,-y,z
1/2+x,1/2+y,z
1/2-x,1/2+y,-z
1/2-x,1/2-y,-z
1/2+x,1/2-y,z
loop_
_atom_site_type_symbol
_atom_site_label
_atom_site_fract_x
_atom_site_fract_y
_atom_site_fract_z
Si Si1 0.133745 0.302492 0.553271
Si Si2 0.430892 0.292998 0.126023
Si Si3 0.845961 0.795665 0.980166
Si Si4 0.872720 0.203851 0.830222
Si Si5 0.183725 0.796098 0.767675
Si Si6 0.481609 0.304490 0.343724
Si Si7 0.172603 0.300824 0.405526
O O1 0.108243 0.500000 0.546626
O O2 0.057282 0.208988 0.585332
O O3 0.148499 0.238843 0.478643
O O4 0.232947 0.284939 0.601445
O O5 0.430342 0.500000 0.125404
O O6 0.525582 0.238796 0.172083
O O7 0.347248 0.239908 0.161283
O O8 0.418231 0.237623 0.046779
O O9 0.855977 0.731349 0.905078
O O10 0.853671 0.000000 0.977088
O O11 0.750000 0.750000 0.000000
O O12 0.788033 0.251365 0.772332
O O13 0.874283 0.000000 0.831699
O O14 0.102746 0.728752 0.709685
O O15 0.179851 0.000000 0.762230
O O16 0.492932 0.500000 0.325250
O O17 0.580503 0.224702 0.351649
O O18 0.193000 0.500000 0.411675
#
# Coordination Sequence:
#
# PCOD9174400 Si02
#       7
#     8   8   8   8   8   8   8
#     4  10  21  38  61  88 117 150 188 233 287 341
#     4   9  18  35  56  76 106 144 178 221 276 332
#     4  10  18  31  55  81 107 138 176 225 280 333
#     4  10  20  34  56  83 105 137 187 231 274 332
#     4  10  22  39  55  76 109 149 185 224 277 328
#     4  11  23  37  56  83 116 155 198 236 280 339
#     4  10  21  38  61  89 118 148 186 234 288 342
#
# _framework density 24.406656000000002
#
# number of rings (size 3 to 8) (size 9 to 14) (size 15 to 20)
#    0.000    2.000    1.429    2.143    0.000    7.429 
#    0.000    2.857    0.000    1.714    0.000    0.000 
#    0.000    0.000    0.000    0.000    0.000    0.000 
#
# Total GULP energy -156500.810390 kJ/mol
# GULP energy per Si atom -5589.314657 kJ/mol
# Density = 2.435110 g / cm^3
# Si number density = 24.406656 Si / 1000 Ang^3
#
#
#
# Elastic Constant Matrix: (Units=GPa)
#
#
# Indices 1 2 3 4 5 6 
#
# 1 120.8964 -1.5427 26.5931 0.0000 37.2913 0.0000
# 2 -1.5427 28.1954 -1.6932 0.0000 3.6660 0.0000
# 3 26.5931 -1.6932 81.4962 0.0000 33.6514 0.0000
# 4 0.0000 0.0000 0.0000 15.9842 0.0000 10.1580
# 5 37.2913 3.6660 33.6514 0.0000 46.8136 0.0000
# 6 0.0000 0.0000 0.0000 10.1580 0.0000 19.3287
#
#
#
# Elastic Compliance Matrix: (Units=1/GPa)
#
#
# Indices 1 2 3 4 5 6 
#
# 1 0.011054 0.001795 0.000177 0.000000 -0.009073 0.000000
# 2 0.001795 0.036548 0.002767 0.000000 -0.006281 0.000000
# 3 0.000177 0.002767 0.017660 0.000000 -0.013052 0.000000
# 4 0.000000 0.000000 0.000000 0.093934 0.000000 -0.049366
# 5 -0.009073 -0.006281 -0.013052 0.000000 0.038463 0.000000
# 6 0.000000 0.000000 0.000000 -0.049366 0.000000 0.077681
#
#
# Mechanical properties :
#
#
# Convention : Reuss Voigt Hill
#
# Bulk Modulus (GPa) = 13.37969 30.81139 22.09554
# Shear Modulus (GPa) = 17.19542 30.24069 23.71805
#
# Velocity S-wave (km/s) = 2.65719 3.52381 3.12073
# Velocity P-wave (km/s) = 3.86110 5.40443 4.69660
#
# Compressibility (1/GPa) = 0.07474013
#
# Stress axis : x y z
#
# Youngs Moduli (GPa) = 90.46245 27.36141 56.62594
#
# Poissons Ratio (x) = -0.04912 -0.01001
# Poissons Ratio (y) = -0.16240 -0.15670
# Poissons Ratio (z) = -0.01599 -0.07571
#
# Static dielectric constant tensor:
#      x y z
#    x 1.899960 0.000000 0.009870 
#    y 0.000000 1.881830 0.000000 
#    z 0.009870 0.000000 2.045480 
# 
# From -- ./inp_files/337900.got.cif
#   From: 2010.05.17/outbox.cif.g08.bks.cpg/sg12_169_cif.got.tgz:337900.got - 2010.06.03 13:09:07.
