data_PCOD9174345
_publ_section_title
;
Structure prediction by ZEFSAII (Michael W. Deem and Ramdas Pophale) SiO2 
 PCOD9174345
Probable space group: C 2/M
;
_chemical_formula_sum "Si O2"
_cell_formula_units_Z 64
_cell_length_a 25.041603
_cell_length_b 8.891256
_cell_length_c 31.827067
_cell_angle_alpha 90.000000
_cell_angle_beta 151.468211
_cell_angle_gamma 90.000000
_cell_volume 3384.762915
_symmetry_space_group_name_H-M "C 2/M"
_symmetry_group_IT_number 12
_symmetry_cell_setting 'monoclinic'
loop_
_space_group_symop_operation_xyz
x,y,z
-x,y,-z
-x,-y,-z
x,-y,z
1/2+x,1/2+y,z
1/2-x,1/2+y,-z
1/2-x,1/2-y,-z
1/2+x,1/2-y,z
loop_
_atom_site_type_symbol
_atom_site_label
_atom_site_fract_x
_atom_site_fract_y
_atom_site_fract_z
Si Si1 0.130160 0.336037 0.581194
Si Si2 0.265060 0.674632 0.273527
Si Si3 0.882273 0.680131 0.194652
Si Si4 0.328849 0.174044 0.489602
Si Si5 0.189297 0.181103 0.998398
Si Si6 0.433398 0.680093 0.820158
Si Si7 0.441775 0.319411 0.324387
Si Si8 0.404190 0.682290 0.702528
O O1 0.178668 0.500000 0.628206
O O2 0.178060 0.203269 0.642047
O O3 0.146312 0.324120 0.543047
O O4 0.000000 0.340633 0.500000
O O5 0.245731 0.500000 0.251970
O O6 0.147284 0.756869 0.199433
O O7 0.355777 0.730451 0.301981
O O8 0.892044 0.500000 0.204586
O O9 0.765162 0.716973 0.091176
O O10 0.895813 0.754887 0.249216
O O11 0.982471 0.744245 0.235325
O O12 0.431062 0.262047 0.581054
O O13 0.200142 0.229816 0.399468
O O14 0.330818 0.000000 0.505464
O O15 0.188180 0.000000 0.992848
O O16 0.250000 0.250000 0.000000
O O17 0.061286 0.233798 0.912688
O O18 0.435281 0.500000 0.824094
O O19 0.391623 0.718546 0.743622
O O20 0.443866 0.500000 0.325510
O O21 0.410085 0.500000 0.703963
#
# Coordination Sequence:
#
# PCOD9174345 Si02
#       8
#     8   8   8   8   8   8   8   8
#     4  10  18  31  54  82 113 152 196 239 289 345
#     4  11  23  36  55  86 121 155 198 248 294 341
#     4  11  24  41  62  88 116 152 198 243 290 351
#     4  10  20  35  57  86 117 154 200 240 284 345
#     4  10  21  38  64  95 121 147 188 239 296 353
#     4  10  20  37  61  91 123 154 188 235 296 358
#     4  11  25  42  58  80 116 164 205 241 291 344
#     4  10  20  36  60  89 121 155 189 236 295 349
#
# _framework density 18.908266999999999
#
# number of rings (size 3 to 8) (size 9 to 14) (size 15 to 20)
#    0.000    1.625    3.750    1.125    0.000    4.750 
#    0.000    0.625    0.000    3.750    0.000    0.000 
#    0.000    0.000    0.000    0.000    0.000    0.000 
#
# Total GULP energy -178512.295527 kJ/mol
# GULP energy per Si atom -5578.509235 kJ/mol
# Density = 1.886523 g / cm^3
# Si number density = 18.908267 Si / 1000 Ang^3
#
#
#
# Elastic Constant Matrix: (Units=GPa)
#
#
# Indices 1 2 3 4 5 6 
#
# 1 45.6157 22.3712 37.9588 0.0000 4.2257 -0.0001
# 2 22.3712 30.9436 41.2509 0.0000 0.4921 -0.0001
# 3 37.9588 41.2509 154.0971 0.0000 13.5908 0.0000
# 4 0.0000 0.0000 0.0000 16.8826 0.0000 6.0297
# 5 4.2257 0.4921 13.5908 0.0000 32.4051 -0.0001
# 6 -0.0001 -0.0001 0.0000 6.0297 -0.0001 27.4260
#
#
#
# Elastic Compliance Matrix: (Units=1/GPa)
#
#
# Indices 1 2 3 4 5 6 
#
# 1 0.035066 -0.022021 -0.002460 0.000000 -0.003207 0.000000
# 2 -0.022021 0.064892 -0.012578 0.000000 0.007161 0.000000
# 3 -0.002460 -0.012578 0.010818 0.000000 -0.004025 0.000000
# 4 0.000000 0.000000 0.000000 0.064280 0.000000 -0.014132
# 5 -0.003207 0.007161 -0.004025 0.000000 0.032857 0.000000
# 6 0.000000 0.000000 0.000000 -0.014132 0.000000 0.039569
#
#
# Mechanical properties :
#
#
# Convention : Reuss Voigt Hill
#
# Bulk Modulus (GPa) = 27.28039 48.20201 37.74120
# Shear Modulus (GPa) = 14.97817 23.94776 19.46297
#
# Velocity S-wave (km/s) = 2.81757 3.56269 3.21181
# Velocity P-wave (km/s) = 5.00440 6.51702 5.81014
#
# Compressibility (1/GPa) = 0.03665637
#
# Stress axis : x y z
#
# Youngs Moduli (GPa) = 28.51737 15.41032 92.44250
#
# Poissons Ratio (x) = 0.33935 0.22742
# Poissons Ratio (y) = 0.62799 1.16276
# Poissons Ratio (z) = 0.07016 0.19383
#
# Static dielectric constant tensor:
#      x y z
#    x 1.665110 0.000000 0.031280 
#    y 0.000000 1.657400 0.000000 
#    z 0.031280 0.000000 1.684190 
# 
# From -- ./inp_files/382437.got.cif
#   From: 2010.05.17/outbox.cif.g08.bks.cpg/sg12_192_cif.got.tgz:382437.got - 2010.06.03 13:09:07.
