data_PCOD9174464
_publ_section_title
;
Structure prediction by ZEFSAII (Michael W. Deem and Ramdas Pophale) SiO2 
 PCOD9174464
Probable space group: C 2/M
;
_chemical_formula_sum "Si O2"
_cell_formula_units_Z 40
_cell_length_a 14.918493
_cell_length_b 22.098899
_cell_length_c 8.004392
_cell_angle_alpha 90.000000
_cell_angle_beta 140.808380
_cell_angle_gamma 90.000000
_cell_volume 1667.566880
_symmetry_space_group_name_H-M "C 2/M"
_symmetry_group_IT_number 12
_symmetry_cell_setting 'monoclinic'
loop_
_space_group_symop_operation_xyz
x,y,z
-x,y,-z
-x,-y,-z
x,-y,z
1/2+x,1/2+y,z
1/2-x,1/2+y,-z
1/2-x,1/2-y,-z
1/2+x,1/2-y,z
loop_
_atom_site_type_symbol
_atom_site_label
_atom_site_fract_x
_atom_site_fract_y
_atom_site_fract_z
Si Si1 0.425391 0.122785 0.209628
Si Si2 0.182523 0.571603 0.425852
Si Si3 0.601566 0.431489 0.509499
Si Si4 0.854188 0.883933 0.989453
Si Si5 0.416228 0.742639 0.204282
O O1 0.500000 0.118643 0.500000
O O2 0.516397 0.080234 0.220919
O O3 0.453821 0.191300 0.187946
O O4 0.262287 0.109628 0.026517
O O5 0.212792 0.500000 0.476241
O O6 0.255292 0.595219 0.360408
O O7 0.265312 0.605077 0.694637
O O8 0.500000 0.400605 0.500000
O O9 0.631632 0.500000 0.609969
O O10 0.484190 0.430125 0.192202
O O11 0.923630 0.817147 0.102951
O O12 0.500000 0.735718 0.500000
O O13 0.250000 0.750000 0.000000
#
# Coordination Sequence:
#
# PCOD9174464 Si02
#       5
#     8   8   8   8   8
#     4   8  17  32  53  82 114 149 192 243 299 356
#     4  10  20  35  56  84 116 150 199 258 309 366
#     4  10  21  36  53  76 109 151 199 251 308 367
#     4  10  18  31  56  84 112 149 189 242 306 366
#     4   9  17  32  55  86 125 166 206 249 301 367
#
# _framework density 23.987044000000001
#
# number of rings (size 3 to 8) (size 9 to 14) (size 15 to 20)
#    0.000    2.600    0.000    3.000    0.000    6.000 
#    0.000    2.000    0.000   10.800    0.000    0.000 
#    0.000    0.000    0.000    0.000    0.000    0.000 
#
# Total GULP energy -111525.532557 kJ/mol
# GULP energy per Si atom -5576.276628 kJ/mol
# Density = 2.393245 g / cm^3
# Si number density = 23.987044 Si / 1000 Ang^3
#
#
#
# Elastic Constant Matrix: (Units=GPa)
#
#
# Indices 1 2 3 4 5 6 
#
# 1 169.1962 21.5190 19.4789 0.0000 13.7997 0.0000
# 2 21.5190 93.6819 -3.9888 0.0000 2.1332 0.0000
# 3 19.4789 -3.9888 104.1583 0.0000 24.2005 0.0000
# 4 0.0000 0.0000 0.0000 30.2475 0.0000 10.3861
# 5 13.7997 2.1332 24.2005 0.0000 35.7563 0.0000
# 6 0.0000 0.0000 0.0000 10.3861 0.0000 4.2589
#
#
#
# Elastic Compliance Matrix: (Units=1/GPa)
#
#
# Indices 1 2 3 4 5 6 
#
# 1 0.006336 -0.001449 -0.000822 0.000000 -0.001803 0.000000
# 2 -0.001449 0.011059 0.000852 0.000000 -0.000677 0.000000
# 3 -0.000822 0.000852 0.011540 0.000000 -0.007544 0.000000
# 4 0.000000 0.000000 0.000000 0.203269 0.000000 -0.495702
# 5 -0.001803 -0.000677 -0.007544 0.000000 0.033809 0.000000
# 6 0.000000 0.000000 0.000000 -0.495702 0.000000 1.443643
#
#
# Mechanical properties :
#
#
# Convention : Reuss Voigt Hill
#
# Bulk Modulus (GPa) = 38.31868 49.00606 43.66237
# Shear Modulus (GPa) = 2.90496 36.05438 19.47967
#
# Velocity S-wave (km/s) = 1.10167 3.88116 2.85281
# Velocity P-wave (km/s) = 4.19853 6.36860 5.39383
#
# Compressibility (1/GPa) = 0.02609693
#
# Stress axis : x y z
#
# Youngs Moduli (GPa) = 157.82175 90.42379 86.65611
#
# Poissons Ratio (x) = 0.13106 0.07120
# Poissons Ratio (y) = 0.22874 -0.07382
# Poissons Ratio (z) = 0.12966 -0.07703
#
# Static dielectric constant tensor:
#      x y z
#    x 1.972680 0.000000 -0.059220 
#    y 0.000000 1.965300 0.000000 
#    z -0.059220 0.000000 1.980730 
# 
# From -- ./inp_files/52874.got.cif
#   From: 2010.05.17/outbox.cif.g08.bks.cpg/sg12_27_cif.got.tgz:52874.got - 2010.06.03 13:09:07.
