data_PCOD9174004
_publ_section_title
;
Structure prediction by ZEFSAII (Michael W. Deem and Ramdas Pophale) SiO2 
 PCOD9174004
Probable space group: C 2/M
;
_chemical_formula_sum "Si O2"
_cell_formula_units_Z 56
_cell_length_a 19.854574
_cell_length_b 7.726829
_cell_length_c 26.802866
_cell_angle_alpha 90.000000
_cell_angle_beta 140.370423
_cell_angle_gamma 90.000000
_cell_volume 2622.662281
_symmetry_space_group_name_H-M "C 2/M"
_symmetry_group_IT_number 12
_symmetry_cell_setting 'monoclinic'
loop_
_space_group_symop_operation_xyz
x,y,z
-x,y,-z
-x,-y,-z
x,-y,z
1/2+x,1/2+y,z
1/2-x,1/2+y,-z
1/2-x,1/2-y,-z
1/2+x,1/2-y,z
loop_
_atom_site_type_symbol
_atom_site_label
_atom_site_fract_x
_atom_site_fract_y
_atom_site_fract_z
Si Si1 0.585092 0.207726 0.180140
Si Si2 0.328909 0.804145 0.502200
Si Si3 0.464189 0.787064 0.424816
Si Si4 0.863464 0.292255 0.086655
Si Si5 0.154291 0.290732 0.330294
Si Si6 0.794126 0.293354 0.253055
Si Si7 0.926378 0.711435 0.233301
O O1 0.463665 0.269782 0.110829
O O2 0.629855 0.262864 0.259859
O O3 0.669988 0.258532 0.187160
O O4 0.582776 0.000000 0.179010
O O5 0.250000 0.750000 0.500000
O O6 0.442361 0.722153 0.558328
O O7 0.260618 0.787820 0.412857
O O8 0.354627 0.000000 0.528713
O O9 0.500000 0.729710 0.500000
O O10 0.354954 0.729605 0.337602
O O11 0.462595 0.000000 0.425816
O O12 0.871344 0.500000 0.093124
O O13 0.880204 0.231906 0.153287
O O14 0.750000 0.250000 0.000000
O O15 0.163505 0.500000 0.337484
O O16 0.050577 0.240730 0.303536
O O17 0.806470 0.500000 0.259208
O O18 0.855766 0.227569 0.239296
O O19 0.925352 0.500000 0.233232
#
# Coordination Sequence:
#
# PCOD9174004 Si02
#       7
#     8   8   8   8   8   8   8
#     4   9  19  34  52  75 103 131 156 195 253 301
#     4  11  21  32  48  70  97 128 166 214 260 298
#     4   9  18  31  47  69  97 130 168 209 248 284
#     4   9  18  35  57  78 101 129 163 201 243 295
#     4   9  17  33  53  69  92 129 170 207 246 296
#     4  10  18  31  52  73  96 131 173 207 237 288
#     4   8  16  32  53  74  98 133 170 203 244 294
#
# _framework density 21.352349
#
# number of rings (size 3 to 8) (size 9 to 14) (size 15 to 20)
#    0.000    2.714    0.000    3.857    0.000    4.571 
#    0.000    7.143    0.000    8.143    0.000    0.000 
#    0.000    0.000    0.000    0.000    0.000    0.000 
#
# Total GULP energy -156185.247669 kJ/mol
# GULP energy per Si atom -5578.044560 kJ/mol
# Density = 2.130375 g / cm^3
# Si number density = 21.352349 Si / 1000 Ang^3
#
#
#
# Elastic Constant Matrix: (Units=GPa)
#
#
# Indices 1 2 3 4 5 6 
#
# 1 125.8093 3.2452 33.9494 0.0001 30.4501 0.0002
# 2 3.2452 23.3723 -8.1997 0.0001 -2.3892 0.0003
# 3 33.9494 -8.1997 85.6222 0.0000 26.5118 0.0000
# 4 0.0001 0.0001 0.0000 17.5026 0.0000 1.6165
# 5 30.4501 -2.3892 26.5118 0.0000 30.1708 0.0000
# 6 0.0002 0.0003 0.0000 1.6165 0.0000 16.4692
#
#
#
# Elastic Compliance Matrix: (Units=1/GPa)
#
#
# Indices 1 2 3 4 5 6 
#
# 1 0.010816 -0.003046 -0.001546 0.000000 -0.009799 0.000000
# 2 -0.003046 0.045133 0.004769 0.000000 0.002458 -0.000001
# 3 -0.001546 0.004769 0.016690 0.000000 -0.012728 0.000000
# 4 0.000000 0.000000 0.000000 0.057657 0.000000 -0.005659
# 5 -0.009799 0.002458 -0.012728 0.000000 0.054412 0.000000
# 6 0.000000 -0.000001 0.000000 -0.005659 0.000000 0.061275
#
#
# Mechanical properties :
#
#
# Convention : Reuss Voigt Hill
#
# Bulk Modulus (GPa) = 13.70005 32.53261 23.11633
# Shear Modulus (GPa) = 18.52124 26.54911 22.53518
#
# Velocity S-wave (km/s) = 2.94838 3.52999 3.25221
# Velocity P-wave (km/s) = 4.24508 5.64655 4.99521
#
# Compressibility (1/GPa) = 0.07299246
#
# Stress axis : x y z
#
# Youngs Moduli (GPa) = 92.45617 22.15679 59.91627
#
# Poissons Ratio (x) = 0.06749 0.09265
# Poissons Ratio (y) = 0.28161 -0.28574
# Poissons Ratio (z) = 0.14296 -0.10567
#
# Static dielectric constant tensor:
#      x y z
#    x 1.854110 0.000000 0.021250 
#    y 0.000000 1.830800 0.000000 
#    z 0.021250 0.000000 1.769700 
# 
# From -- ./inp_files/280367.got.cif
#   From: 2010.05.17/outbox.cif.g08.bks.cpg/sg12_141_cif.got.tgz:280367.got - 2010.06.03 13:09:07.
