data_PCOD9174935
_publ_section_title
;
Structure prediction by ZEFSAII (Michael W. Deem and Ramdas Pophale) SiO2 
 PCOD9174935
Probable space group: C 2/M
;
_chemical_formula_sum "Si O2"
_cell_formula_units_Z 40
_cell_length_a 9.182825
_cell_length_b 27.938462
_cell_length_c 12.706829
_cell_angle_alpha 90.000000
_cell_angle_beta 31.481101
_cell_angle_gamma 90.000000
_cell_volume 1702.422057
_symmetry_space_group_name_H-M "C 2/M"
_symmetry_group_IT_number 12
_symmetry_cell_setting 'monoclinic'
loop_
_space_group_symop_operation_xyz
x,y,z
-x,y,-z
-x,-y,-z
x,-y,z
1/2+x,1/2+y,z
1/2-x,1/2+y,-z
1/2-x,1/2-y,-z
1/2+x,1/2-y,z
loop_
_atom_site_type_symbol
_atom_site_label
_atom_site_fract_x
_atom_site_fract_y
_atom_site_fract_z
Si Si1 0.917615 0.412429 0.939633
Si Si2 0.164617 0.551343 0.229087
Si Si3 0.448734 0.729917 0.285046
Si Si4 0.125681 0.860875 0.806156
Si Si5 0.283800 0.187685 0.256772
O O1 0.968162 0.443117 0.804103
O O2 0.104171 0.365227 0.817666
O O3 0.602238 0.391714 0.120112
O O4 0.000000 0.435516 0.000000
O O5 0.085514 0.500000 0.325232
O O6 0.131834 0.600960 0.312914
O O7 0.500000 0.549721 0.000000
O O8 0.250000 0.750000 0.500000
O O9 0.321202 0.687615 0.290958
O O10 0.492624 0.776567 0.187341
O O11 0.700452 0.707378 0.194527
O O12 0.000000 0.847836 0.000000
O O13 0.000000 0.187424 0.500000
#
# Coordination Sequence:
#
# PCOD9174935 Si02
#       5
#     8   8   8   8   8
#     4  10  18  32  54  80 112 143 185 235 284 324
#     4   8  17  33  55  84 113 139 180 237 289 334
#     4  10  21  36  51  75 111 152 191 224 276 335
#     4   9  19  33  55  81 112 146 186 234 284 328
#     4  10  22  35  50  75 113 151 190 225 276 336
#
# _framework density 23.495936
#
# number of rings (size 3 to 8) (size 9 to 14) (size 15 to 20)
#    0.000    3.000    2.000    0.000    5.600    2.000 
#    0.000    0.000    0.000    0.600    0.000    9.800 
#    0.000    0.000    0.000    0.000    0.000    0.200 
#
# Total GULP energy -111655.519701 kJ/mol
# GULP energy per Si atom -5582.775985 kJ/mol
# Density = 2.344246 g / cm^3
# Si number density = 23.495936 Si / 1000 Ang^3
#
#
#
# Elastic Constant Matrix: (Units=GPa)
#
#
# Indices 1 2 3 4 5 6 
#
# 1 156.7089 36.9668 32.6744 0.0000 29.8649 0.0000
# 2 36.9668 122.3597 26.6008 0.0000 26.1527 0.0000
# 3 32.6744 26.6008 62.5505 0.0000 26.6140 0.0000
# 4 0.0000 0.0000 0.0000 -4.8587 0.0000 2.4424
# 5 29.8649 26.1527 26.6140 0.0000 39.8772 0.0000
# 6 0.0000 0.0000 0.0000 2.4424 0.0000 12.3713
#
#
#
# Elastic Compliance Matrix: (Units=1/GPa)
#
#
# Indices 1 2 3 4 5 6 
#
# 1 0.007776 -0.001112 -0.001985 0.000000 -0.003769 0.000000
# 2 -0.001112 0.009836 -0.001692 0.000000 -0.004488 0.000000
# 3 -0.001985 -0.001692 0.023238 0.000000 -0.012912 0.000000
# 4 0.000000 0.000000 0.000000 -0.187234 0.000000 0.036965
# 5 -0.003769 -0.004488 -0.012912 0.000000 0.039461 0.000000
# 6 0.000000 0.000000 0.000000 0.036965 0.000000 0.073534
#
#
# Mechanical properties :
#
#
# Convention : Reuss Voigt Hill
#
# Bulk Modulus (GPa) = 31.97911 59.34477 45.66194
# Shear Modulus (GPa) = -373.49054 25.83644 -173.82705
#
# Velocity S-wave (km/s) = -12.62160 3.31964 -8.61060
# Velocity P-wave (km/s) = 14.09845 6.32500 8.90956
#
# Compressibility (1/GPa) = 0.03127041
#
# Stress axis : x y z
#
# Youngs Moduli (GPa) = 128.60368 101.66934 43.03361
#
# Poissons Ratio (x) = 0.11306 0.08543
# Poissons Ratio (y) = 0.14301 0.07282
# Poissons Ratio (z) = 0.25530 0.17205
#
# Static dielectric constant tensor:
#      x y z
#    x 1.912180 0.000000 0.016340 
#    y 0.000000 1.887840 0.000000 
#    z 0.016340 0.000000 2.047930 
# 
# From -- ./inp_files/125023.got.cif
#   From: 2010.05.17/outbox.cif.g08.bks.cpg/sg12_63_cif.got.tgz:125023.got - 2010.06.03 13:09:07.
