data_PCOD9174259
_publ_section_title
;
Structure prediction by ZEFSAII (Michael W. Deem and Ramdas Pophale) SiO2 
 PCOD9174259
Probable space group: C 2/M
;
_chemical_formula_sum "Si O2"
_cell_formula_units_Z 50
_cell_length_a 14.871098
_cell_length_b 7.650764
_cell_length_c 17.987153
_cell_angle_alpha 90.000000
_cell_angle_beta 107.675480
_cell_angle_gamma 90.000000
_cell_volume 1949.881178
_symmetry_space_group_name_H-M "C 2/M"
_symmetry_group_IT_number 12
_symmetry_cell_setting 'monoclinic'
loop_
_space_group_symop_operation_xyz
x,y,z
-x,y,-z
-x,-y,-z
x,-y,z
1/2+x,1/2+y,z
1/2-x,1/2+y,-z
1/2-x,1/2-y,-z
1/2+x,1/2-y,z
loop_
_atom_site_type_symbol
_atom_site_label
_atom_site_fract_x
_atom_site_fract_y
_atom_site_fract_z
Si Si1 0.405303 0.289143 0.136625
Si Si2 0.247566 0.300794 0.358514
Si Si3 0.000000 0.500000 0.500000
Si Si4 0.090289 0.801437 0.425056
Si Si5 0.108216 0.706122 0.027492
Si Si6 0.402714 0.290251 0.296909
Si Si7 0.624802 0.703023 0.190314
O O1 0.401890 0.500000 0.137004
O O2 0.357108 0.234803 0.047748
O O3 0.372294 0.223485 0.208706
O O4 0.515856 0.235474 0.161359
O O5 0.264364 0.500000 0.386807
O O6 0.190529 0.210722 0.409539
O O7 0.343266 0.216950 0.350638
O O8 0.184673 0.300519 0.267229
O O9 0.066814 0.654405 0.478267
O O10 0.012422 0.764674 0.340590
O O11 0.074490 0.000000 0.447445
O O12 0.104612 0.500000 0.039360
O O13 0.157851 0.781295 0.112888
O O14 0.000000 0.778359 0.000000
O O15 0.387094 0.500000 0.293030
O O16 0.625051 0.500000 0.212448
#
# Coordination Sequence:
#
# PCOD9174259 Si02
#       7
#     8   8   2   8   8   8   8
#     4   9  16  31  53  79 113 163 213 263 321 381
#     4  11  21  38  65  98 131 168 217 267 318 379
#     4  12  26  48  76 110 128 172 214 252 324 386
#     4  11  23  47  74 100 137 173 209 261 314 386
#     4   9  17  28  44  75 116 156 209 269 327 373
#     4   9  20  39  66  94 130 171 214 262 322 380
#     4  10  18  31  53  82 116 166 216 266 322 379
#
# _framework density 25.642588
#
# number of rings (size 3 to 8) (size 9 to 14) (size 15 to 20)
#    0.000    2.080    2.400    1.680    0.000    2.560 
#    4.320    1.600    0.000    0.000    0.000    0.000 
#    0.000    0.000    0.000    0.000    0.000    0.000 
#
# Total GULP energy -139598.336545 kJ/mol
# GULP energy per Si atom -5583.933462 kJ/mol
# Density = 2.558422 g / cm^3
# Si number density = 25.642588 Si / 1000 Ang^3
#
#
#
# Elastic Constant Matrix: (Units=GPa)
#
#
# Indices 1 2 3 4 5 6 
#
# 1 102.1305 8.6813 43.0338 0.0000 -31.1635 0.0000
# 2 8.6813 96.9294 15.9836 0.0000 -19.0630 0.0000
# 3 43.0338 15.9836 147.1782 0.0000 -15.4048 0.0000
# 4 0.0000 0.0000 0.0000 15.9961 0.0000 -13.4740
# 5 -31.1635 -19.0630 -15.4048 0.0000 48.2405 0.0000
# 6 0.0000 0.0000 0.0000 -13.4740 0.0000 4.3884
#
#
#
# Elastic Compliance Matrix: (Units=1/GPa)
#
#
# Indices 1 2 3 4 5 6 
#
# 1 0.013530 0.000905 -0.003209 0.000000 0.008073 0.000000
# 2 0.000905 0.011334 -0.000999 0.000000 0.004744 0.000000
# 3 -0.003209 -0.000999 0.007845 0.000000 0.000037 0.000000
# 4 0.000000 0.000000 0.000000 -0.039411 0.000000 -0.121005
# 5 0.008073 0.004744 0.000037 0.000000 0.027832 0.000000
# 6 0.000000 0.000000 0.000000 -0.121005 0.000000 -0.143654
#
#
# Mechanical properties :
#
#
# Convention : Reuss Voigt Hill
#
# Bulk Modulus (GPa) = 38.31012 53.51505 45.91259
# Shear Modulus (GPa) = -46.63433 32.29430 -7.17001
#
# Velocity S-wave (km/s) = -4.26916 3.55265 -1.67398
# Velocity P-wave (km/s) = 3.05427 6.14356 3.76927
#
# Compressibility (1/GPa) = 0.02610276
#
# Stress axis : x y z
#
# Youngs Moduli (GPa) = 73.90857 88.23391 127.46530
#
# Poissons Ratio (x) = -0.07987 0.40909
# Poissons Ratio (y) = -0.06690 0.12733
# Poissons Ratio (z) = 0.23720 0.08814
#
# Static dielectric constant tensor:
#      x y z
#    x 2.062540 0.000000 0.005340 
#    y 0.000000 1.915720 0.000000 
#    z 0.005340 0.000000 2.039610 
# 
# From -- ./inp_files/275746.got.cif
#   From: 2010.05.17/outbox.cif.g08.bks.cpg/sg12_138_cif.got.tgz:275746.got - 2010.06.03 13:09:07.
