data_PCOD9174756
_publ_section_title
;
Structure prediction by ZEFSAII (Michael W. Deem and Ramdas Pophale) SiO2 
 PCOD9174756
Probable space group: C 2/M
;
_chemical_formula_sum "Si O2"
_cell_formula_units_Z 52
_cell_length_a 17.514346
_cell_length_b 20.143786
_cell_length_c 8.571350
_cell_angle_alpha 90.000000
_cell_angle_beta 79.959454
_cell_angle_gamma 90.000000
_cell_volume 2977.703210
_symmetry_space_group_name_H-M "C 2/M"
_symmetry_group_IT_number 12
_symmetry_cell_setting 'monoclinic'
loop_
_space_group_symop_operation_xyz
x,y,z
-x,y,-z
-x,-y,-z
x,-y,z
1/2+x,1/2+y,z
1/2-x,1/2+y,-z
1/2-x,1/2-y,-z
1/2+x,1/2-y,z
loop_
_atom_site_type_symbol
_atom_site_label
_atom_site_fract_x
_atom_site_fract_y
_atom_site_fract_z
Si Si1 0.120058 0.925303 0.126343
Si Si2 0.000000 0.759036 0.000000
Si Si3 0.015184 0.152732 0.674327
Si Si4 0.225534 0.572808 0.719547
Si Si5 0.320897 0.423005 0.370326
Si Si6 0.339131 0.805534 0.100269
Si Si7 0.713342 0.335698 0.881595
O O1 0.201780 0.927707 0.186996
O O2 0.051061 0.902137 0.263312
O O3 0.104355 0.000000 0.070299
O O4 0.137645 0.867255 0.995336
O O5 0.008814 0.798888 0.829750
O O6 0.075696 0.712950 0.984817
O O7 0.099697 0.118599 0.644551
O O8 0.000000 0.177937 0.500000
O O9 0.188131 0.500000 0.739431
O O10 0.268816 0.581786 0.541489
O O11 0.169503 0.633076 0.780709
O O12 0.339611 0.500000 0.335263
O O13 0.270575 0.391022 0.250901
O O14 0.306238 0.736262 0.180958
O O15 0.283157 0.823458 0.975518
#
# Coordination Sequence:
#
# PCOD9174756 Si02
#       7
#     8   4   8   8   8   8   8
#     4  10  18  32  52  79 119 158 192 228 277 345
#     4  12  24  44  56  88 122 152 206 254 292 350
#     4  12  22  35  57  89 129 168 195 230 285 359
#     4   9  20  36  56  81 110 148 194 243 290 346
#     4  11  21  35  56  89 124 154 193 237 290 358
#     4  10  21  39  60  77 115 152 196 250 295 344
#     4  10  20  35  56  83 111 158 198 242 290 343
#
# _framework density 17.463124000000001
#
# number of rings (size 3 to 8) (size 9 to 14) (size 15 to 20)
#    0.000    1.538    4.615    0.923    0.000    1.846 
#    2.769    2.692    0.000    0.000    0.000    2.154 
#    0.000    0.000    0.000    0.000    0.000    0.000 
#
# Total GULP energy -144777.799743 kJ/mol
# GULP energy per Si atom -5568.376913 kJ/mol
# Density = 1.742338 g / cm^3
# Si number density = 17.463124 Si / 1000 Ang^3
#
#
#
# Elastic Constant Matrix: (Units=GPa)
#
#
# Indices 1 2 3 4 5 6 
#
# 1 58.3451 41.6884 21.4876 0.0000 -8.6731 0.0000
# 2 41.6884 117.3512 72.5061 0.0000 -16.8824 0.0000
# 3 21.4876 72.5061 88.6171 0.0000 2.1527 0.0000
# 4 0.0000 0.0000 0.0000 28.6737 0.0000 -10.5309
# 5 -8.6731 -16.8824 2.1527 0.0000 17.9316 0.0000
# 6 0.0000 0.0000 0.0000 -10.5309 0.0000 19.7307
#
#
#
# Elastic Compliance Matrix: (Units=1/GPa)
#
#
# Indices 1 2 3 4 5 6 
#
# 1 0.023287 -0.008762 0.001454 0.000000 0.002839 0.000000
# 2 -0.008762 0.029213 -0.022408 0.000000 0.025956 0.000000
# 3 0.001454 -0.022408 0.029848 0.000000 -0.023977 0.000000
# 4 0.000000 0.000000 0.000000 0.043378 0.000000 0.023152
# 5 0.002839 0.025956 -0.023977 0.000000 0.084456 0.000000
# 6 0.000000 0.000000 0.000000 0.023152 0.000000 0.063040
#
#
# Mechanical properties :
#
#
# Convention : Reuss Voigt Hill
#
# Bulk Modulus (GPa) = 43.63839 59.51974 51.57907
# Shear Modulus (GPa) = 14.69317 21.84263 18.26790
#
# Velocity S-wave (km/s) = 2.90381 3.54048 3.23783
# Velocity P-wave (km/s) = 6.02378 7.13235 6.60138
#
# Compressibility (1/GPa) = 0.02291560
#
# Stress axis : x y z
#
# Youngs Moduli (GPa) = 42.94269 34.23115 33.50256
#
# Poissons Ratio (x) = 0.29995 -0.04871
# Poissons Ratio (y) = 0.37628 0.75072
# Poissons Ratio (z) = -0.06243 0.76705
#
# Static dielectric constant tensor:
#      x y z
#    x 1.588580 0.000000 0.028390 
#    y 0.000000 1.620200 0.000000 
#    z 0.028390 0.000000 1.643500 
# 
# From -- ./inp_files/75157.got.cif
#   From: 2010.05.17/outbox.cif.g08.bks.cpg/sg12_38_cif.got.tgz:75157.got - 2010.06.03 13:09:07.
