data_PCOD9174505
_publ_section_title
;
Structure prediction by ZEFSAII (Michael W. Deem and Ramdas Pophale) SiO2 
 PCOD9174505
Probable space group: C 2/M
;
_chemical_formula_sum "Si O2"
_cell_formula_units_Z 40
_cell_length_a 14.405630
_cell_length_b 22.839544
_cell_length_c 9.517466
_cell_angle_alpha 90.000000
_cell_angle_beta 46.478455
_cell_angle_gamma 90.000000
_cell_volume 2270.639527
_symmetry_space_group_name_H-M "C 2/M"
_symmetry_group_IT_number 12
_symmetry_cell_setting 'monoclinic'
loop_
_space_group_symop_operation_xyz
x,y,z
-x,y,-z
-x,-y,-z
x,-y,z
1/2+x,1/2+y,z
1/2-x,1/2+y,-z
1/2-x,1/2-y,-z
1/2+x,1/2-y,z
loop_
_atom_site_type_symbol
_atom_site_label
_atom_site_fract_x
_atom_site_fract_y
_atom_site_fract_z
Si Si1 0.369111 0.931671 0.047753
Si Si2 0.804406 0.734884 0.791515
Si Si3 0.992560 0.630998 0.658690
Si Si4 0.733591 0.314153 0.585874
Si Si5 0.366206 0.641401 0.581559
O O1 0.253641 0.897432 0.243088
O O2 0.337103 0.000000 0.067316
O O3 0.500000 0.926496 0.000000
O O4 0.408146 0.903394 0.858615
O O5 0.920968 0.691830 0.701950
O O6 0.714958 0.700348 0.770971
O O7 0.846280 0.795007 0.674442
O O8 0.750000 0.750000 0.000000
O O9 0.000000 0.599388 0.500000
O O10 0.134241 0.648927 0.561046
O O11 0.750000 0.250000 0.500000
O O12 0.636006 0.347686 0.584584
O O13 0.500000 0.617418 0.500000
#
# Coordination Sequence:
#
# PCOD9174505 Si02
#       5
#     8   8   8   8   8
#     4  11  23  39  60  83 108 153 209 248 284 336
#     4  10  18  31  57  88 116 151 188 232 294 365
#     4  10  19  35  58  83 115 147 192 241 292 350
#     4   9  18  32  51  80 118 150 176 226 287 346
#     4  11  21  37  56  83 121 153 188 236 295 359
#
# _framework density 17.616182999999999
#
# number of rings (size 3 to 8) (size 9 to 14) (size 15 to 20)
#    0.000    1.800    4.000    3.000    0.000    0.800 
#    0.000    3.000    0.000    0.000    0.000    5.600 
#    0.000    0.000    0.000    0.000    0.000    0.000 
#
# Total GULP energy -111401.617661 kJ/mol
# GULP energy per Si atom -5570.080883 kJ/mol
# Density = 1.757609 g / cm^3
# Si number density = 17.616183 Si / 1000 Ang^3
#
#
#
# Elastic Constant Matrix: (Units=GPa)
#
#
# Indices 1 2 3 4 5 6 
#
# 1 109.3545 28.8131 39.9336 0.0000 8.5227 0.0000
# 2 28.8131 81.4002 29.2432 0.0000 0.0200 0.0000
# 3 39.9336 29.2432 101.5291 0.0000 24.2866 0.0000
# 4 0.0000 0.0000 0.0000 2.0838 0.0000 -6.3583
# 5 8.5227 0.0200 24.2866 0.0000 24.9804 0.0000
# 6 0.0000 0.0000 0.0000 -6.3583 0.0000 17.1920
#
#
#
# Elastic Compliance Matrix: (Units=1/GPa)
#
#
# Indices 1 2 3 4 5 6 
#
# 1 0.011171 -0.002686 -0.003530 0.000000 -0.000377 0.000000
# 2 -0.002686 0.014842 -0.004476 0.000000 0.005256 0.000000
# 3 -0.003530 -0.004476 0.015947 0.000000 -0.014296 0.000000
# 4 0.000000 0.000000 0.000000 -3.734111 0.000000 -1.381024
# 5 -0.000377 0.005256 -0.014296 0.000000 0.054055 0.000000
# 6 0.000000 0.000000 0.000000 -1.381024 0.000000 -0.452592
#
#
# Mechanical properties :
#
#
# Convention : Reuss Voigt Hill
#
# Bulk Modulus (GPa) = 48.59921 54.25152 51.42537
# Shear Modulus (GPa) = -1.23079 21.80415 10.28668
#
# Velocity S-wave (km/s) = -0.83677 3.52196 2.41909
# Velocity P-wave (km/s) = 5.16857 6.88493 6.08754
#
# Compressibility (1/GPa) = 0.02057647
#
# Stress axis : x y z
#
# Youngs Moduli (GPa) = 89.52023 67.37464 62.70918
#
# Poissons Ratio (x) = 0.18096 0.22135
# Poissons Ratio (y) = 0.24044 0.28068
# Poissons Ratio (z) = 0.31599 0.30156
#
# Static dielectric constant tensor:
#      x y z
#    x 1.653500 0.000000 0.016880 
#    y 0.000000 1.579440 0.000000 
#    z 0.016880 0.000000 1.708590 
# 
# From -- ./inp_files/52349.got.cif
#   From: 2010.05.17/outbox.cif.g08.bks.cpg/sg12_27_cif.got.tgz:52349.got - 2010.06.03 13:09:07.
