data_PCOD9174387
_publ_section_title
;
Structure prediction by ZEFSAII (Michael W. Deem and Ramdas Pophale) SiO2 
 PCOD9174387
Probable space group: C 2/M
;
_chemical_formula_sum "Si O2"
_cell_formula_units_Z 64
_cell_length_a 21.961686
_cell_length_b 14.272464
_cell_length_c 11.304215
_cell_angle_alpha 90.000000
_cell_angle_beta 74.203458
_cell_angle_gamma 90.000000
_cell_volume 3409.462619
_symmetry_space_group_name_H-M "C 2/M"
_symmetry_group_IT_number 12
_symmetry_cell_setting 'monoclinic'
loop_
_space_group_symop_operation_xyz
x,y,z
-x,y,-z
-x,-y,-z
x,-y,z
1/2+x,1/2+y,z
1/2-x,1/2+y,-z
1/2-x,1/2-y,-z
1/2+x,1/2-y,z
loop_
_atom_site_type_symbol
_atom_site_label
_atom_site_fract_x
_atom_site_fract_y
_atom_site_fract_z
Si Si1 0.668506 0.898303 0.077780
Si Si2 0.934923 0.891910 0.474790
Si Si3 0.758627 0.394085 0.714581
Si Si4 0.484358 0.607644 0.184941
Si Si5 0.309856 0.892785 0.202538
Si Si6 0.634204 0.305202 0.855452
Si Si7 0.381354 0.705892 0.872161
Si Si8 0.315370 0.697314 0.654425
O O1 0.715722 0.892702 0.163466
O O2 0.616552 0.818294 0.119798
O O3 0.637902 0.000000 0.095688
O O4 0.703161 0.889546 0.932900
O O5 0.948110 0.891586 0.329228
O O6 0.872192 0.836387 0.542218
O O7 0.000000 0.855600 0.500000
O O8 0.926993 0.000000 0.520329
O O9 0.768710 0.500000 0.663277
O O10 0.684741 0.367369 0.757280
O O11 0.794933 0.304889 0.639688
O O12 0.493940 0.500000 0.144366
O O13 0.437105 0.660841 0.122851
O O14 0.551343 0.656717 0.168230
O O15 0.356580 0.803173 0.188727
O O16 0.247768 0.865751 0.310230
O O17 0.330384 0.000000 0.217677
O O18 0.650446 0.319095 0.985668
O O19 0.342139 0.687240 0.774420
#
# Coordination Sequence:
#
# PCOD9174387 Si02
#       8
#     8   8   8   8   8   8   8   8
#     4   8  15  29  49  74 103 133 165 204 247 290
#     4  10  20  36  54  73  97 127 166 208 248 289
#     4   9  17  30  49  74 105 136 165 199 244 299
#     4  11  23  36  50  70 101 137 168 200 243 299
#     4   9  17  30  50  76 103 130 165 208 249 290
#     4  10  20  33  49  74 107 138 163 194 246 305
#     4  10  19  31  50  77 105 131 165 206 247 294
#     4  10  18  31  55  79  99 127 167 213 252 283
#
# _framework density 18.771287000000001
#
# number of rings (size 3 to 8) (size 9 to 14) (size 15 to 20)
#    0.000    2.375    1.250    1.875    0.000    5.000 
#    0.000    3.125    0.000    6.375    0.000    0.000 
#    0.000    0.000    0.000    0.000    0.000    0.000 
#
# Total GULP energy -178285.701706 kJ/mol
# GULP energy per Si atom -5571.428178 kJ/mol
# Density = 1.872856 g / cm^3
# Si number density = 18.771287 Si / 1000 Ang^3
#
#
#
# Elastic Constant Matrix: (Units=GPa)
#
#
# Indices 1 2 3 4 5 6 
#
# 1 58.6968 50.7917 -0.2036 0.0000 -20.7736 0.0000
# 2 50.7917 131.9187 21.5077 0.0000 -28.2001 0.0000
# 3 -0.2036 21.5077 36.5729 0.0000 -17.5606 0.0000
# 4 0.0000 0.0000 0.0000 17.5316 0.0000 -4.3000
# 5 -20.7736 -28.2001 -17.5606 0.0000 28.8276 0.0000
# 6 0.0000 0.0000 0.0000 -4.3000 0.0000 17.5241
#
#
#
# Elastic Compliance Matrix: (Units=1/GPa)
#
#
# Indices 1 2 3 4 5 6 
#
# 1 0.036946 -0.011633 0.020305 0.000000 0.027614 0.000000
# 2 -0.011633 0.013314 -0.008008 0.000000 -0.000236 0.000000
# 3 0.020305 -0.008008 0.050076 0.000000 0.037303 0.000000
# 4 0.000000 0.000000 0.000000 0.060693 0.000000 0.014893
# 5 0.027614 -0.000236 0.037303 0.000000 0.077080 0.000000
# 6 0.000000 0.000000 0.000000 0.014893 0.000000 0.060719
#
#
# Mechanical properties :
#
#
# Convention : Reuss Voigt Hill
#
# Bulk Modulus (GPa) = 9.83616 41.26443 25.55029
# Shear Modulus (GPa) = 15.08808 23.11616 19.10212
#
# Velocity S-wave (km/s) = 2.83819 3.51303 3.19348
# Velocity P-wave (km/s) = 3.99897 6.20368 5.21907
#
# Compressibility (1/GPa) = 0.10166572
#
# Stress axis : x y z
#
# Youngs Moduli (GPa) = 27.06655 75.10679 19.96954
#
# Poissons Ratio (x) = 0.87369 -0.40549
# Poissons Ratio (y) = 0.31486 0.15992
# Poissons Ratio (z) = -0.54960 0.60147
#
# Static dielectric constant tensor:
#      x y z
#    x 1.636420 0.000000 0.036470 
#    y 0.000000 1.671960 0.000000 
#    z 0.036470 0.000000 1.686380 
# 
# From -- ./inp_files/167238.got.cif
#   From: 2010.05.17/outbox.cif.g08.bks.cpg/sg12_84_cif.got.tgz:167238.got - 2010.06.03 13:09:07.
