data_PCOD9174786
_publ_section_title
;
Structure prediction by ZEFSAII (Michael W. Deem and Ramdas Pophale) SiO2 
 PCOD9174786
Probable space group: C 2/M
;
_chemical_formula_sum "Si O2"
_cell_formula_units_Z 64
_cell_length_a 21.193583
_cell_length_b 7.394024
_cell_length_c 20.557560
_cell_angle_alpha 90.000000
_cell_angle_beta 111.447432
_cell_angle_gamma 90.000000
_cell_volume 2998.413022
_symmetry_space_group_name_H-M "C 2/M"
_symmetry_group_IT_number 12
_symmetry_cell_setting 'monoclinic'
loop_
_space_group_symop_operation_xyz
x,y,z
-x,y,-z
-x,-y,-z
x,-y,z
1/2+x,1/2+y,z
1/2-x,1/2+y,-z
1/2-x,1/2-y,-z
1/2+x,1/2-y,z
loop_
_atom_site_type_symbol
_atom_site_label
_atom_site_fract_x
_atom_site_fract_y
_atom_site_fract_z
Si Si1 0.779660 0.209109 0.791590
Si Si2 0.631014 0.777905 0.699049
Si Si3 0.539137 0.717636 0.917682
Si Si4 0.526713 0.789341 0.768131
Si Si5 0.078047 0.720894 0.537612
Si Si6 0.671914 0.215536 0.454949
Si Si7 0.373108 0.780023 0.704184
Si Si8 0.896638 0.221069 0.925481
O O1 0.705808 0.285407 0.747882
O O2 0.824899 0.215564 0.743605
O O3 0.827817 0.286717 0.866246
O O4 0.768025 0.000000 0.805104
O O5 0.575884 0.716214 0.731198
O O6 0.609394 0.722553 0.618445
O O7 0.632107 0.000000 0.698976
O O8 0.538574 0.500000 0.917986
O O9 0.556621 0.775879 0.851778
O O10 0.462835 0.776901 0.908605
O O11 0.588264 0.776152 0.994751
O O12 0.450402 0.715408 0.741748
O O13 0.518413 0.000000 0.748509
O O14 0.078590 0.500000 0.537636
O O15 0.123615 0.783669 0.494339
O O16 0.000000 0.776308 0.500000
O O17 0.750000 0.250000 0.500000
O O18 0.652952 0.281212 0.376059
O O19 0.661680 0.000000 0.449167
O O20 0.371688 0.000000 0.706495
O O21 0.896108 0.000000 0.923789
#
# Coordination Sequence:
#
# PCOD9174786 Si02
#       8
#     8   8   8   8   8   8   8   8
#     4  10  18  32  53  74  95 126 167 203 235 281
#     4   9  18  30  47  70  96 125 160 200 238 279
#     4   9  16  30  50  72  96 125 164 201 234 277
#     4  10  19  32  48  72 102 129 156 195 245 290
#     4   9  16  29  49  70  92 125 166 199 229 279
#     4  10  20  33  50  73  98 125 159 201 246 287
#     4  10  20  32  48  72 102 128 153 196 251 294
#     4   8  15  28  49  73  96 123 160 203 237 273
#
# _framework density 21.344625000000001
#
# number of rings (size 3 to 8) (size 9 to 14) (size 15 to 20)
#    0.000    2.625    1.250    2.250    0.000    4.500 
#    0.000    3.125    0.000    1.125    0.000    0.000 
#    0.000    0.000    0.000    0.000    0.000    0.000 
#
# Total GULP energy -178711.137346 kJ/mol
# GULP energy per Si atom -5584.723042 kJ/mol
# Density = 2.129604 g / cm^3
# Si number density = 21.344625 Si / 1000 Ang^3
#
#
#
# Elastic Constant Matrix: (Units=GPa)
#
#
# Indices 1 2 3 4 5 6 
#
# 1 90.2053 -11.1598 29.4634 0.0000 19.2666 0.0000
# 2 -11.1598 70.1625 -13.0568 0.0000 6.1672 0.0000
# 3 29.4634 -13.0568 128.6324 0.0000 21.3315 0.0000
# 4 0.0000 0.0000 0.0000 10.6978 0.0000 -9.7028
# 5 19.2666 6.1672 21.3315 0.0000 31.9150 0.0000
# 6 0.0000 0.0000 0.0000 -9.7028 0.0000 11.6948
#
#
#
# Elastic Compliance Matrix: (Units=1/GPa)
#
#
# Indices 1 2 3 4 5 6 
#
# 1 0.013540 0.002527 -0.001584 0.000000 -0.007603 0.000000
# 2 0.002527 0.015534 0.001967 0.000000 -0.005842 0.000000
# 3 -0.001584 0.001967 0.009268 0.000000 -0.005619 0.000000
# 4 0.000000 0.000000 0.000000 0.377683 0.000000 0.313351
# 5 -0.007603 -0.005842 -0.005619 0.000000 0.040808 0.000000
# 6 0.000000 0.000000 0.000000 0.313351 0.000000 0.345485
#
#
# Mechanical properties :
#
#
# Convention : Reuss Voigt Hill
#
# Bulk Modulus (GPa) = 22.64383 33.27709 27.96046
# Shear Modulus (GPa) = 6.16357 29.77841 17.97099
#
# Velocity S-wave (km/s) = 1.70115 3.73919 2.90478
# Velocity P-wave (km/s) = 3.80661 5.85374 4.93744
#
# Compressibility (1/GPa) = 0.04416215
#
# Stress axis : x y z
#
# Youngs Moduli (GPa) = 73.85635 64.37459 107.89504
#
# Poissons Ratio (x) = -0.16269 0.17089
# Poissons Ratio (y) = -0.18665 -0.21220
# Poissons Ratio (z) = 0.11698 -0.12661
#
# Static dielectric constant tensor:
#      x y z
#    x 1.719180 0.000000 0.011780 
#    y 0.000000 1.820440 0.000000 
#    z 0.011780 0.000000 1.755980 
# 
# From -- ./inp_files/320027.got.cif
#   From: 2010.05.17/outbox.cif.g08.bks.cpg/sg12_161_cif.got.tgz:320027.got - 2010.06.03 13:09:07.
