data_PCOD9174090
_publ_section_title
;
Structure prediction by ZEFSAII (Michael W. Deem and Ramdas Pophale) SiO2 
 PCOD9174090
Probable space group: C 2/M
;
_chemical_formula_sum "Si O2"
_cell_formula_units_Z 64
_cell_length_a 24.192633
_cell_length_b 20.710221
_cell_length_c 10.126416
_cell_angle_alpha 90.000000
_cell_angle_beta 49.656833
_cell_angle_gamma 90.000000
_cell_volume 3867.066581
_symmetry_space_group_name_H-M "C 2/M"
_symmetry_group_IT_number 12
_symmetry_cell_setting 'monoclinic'
loop_
_space_group_symop_operation_xyz
x,y,z
-x,y,-z
-x,-y,-z
x,-y,z
1/2+x,1/2+y,z
1/2-x,1/2+y,-z
1/2-x,1/2-y,-z
1/2+x,1/2-y,z
loop_
_atom_site_type_symbol
_atom_site_label
_atom_site_fract_x
_atom_site_fract_y
_atom_site_fract_z
Si Si1 0.708923 0.198497 0.156041
Si Si2 0.952260 0.115298 0.201006
Si Si3 0.300500 0.573082 0.333873
Si Si4 0.800863 0.070843 0.023034
Si Si5 0.049362 0.887859 0.295375
Si Si6 0.205171 0.699037 0.479290
Si Si7 0.958762 0.271424 0.198766
Si Si8 0.555474 0.236344 0.294094
O O1 0.710277 0.213928 0.312532
O O2 0.627184 0.200191 0.228999
O O3 0.750000 0.250000 0.000000
O O4 0.746986 0.129447 0.078608
O O5 0.872055 0.087753 0.308057
O O6 0.947549 0.193431 0.217396
O O7 0.997447 0.092091 0.256152
O O8 0.000000 0.098948 0.000000
O O9 0.274778 0.500000 0.398156
O O10 0.241483 0.629007 0.444870
O O11 0.322170 0.577203 0.145100
O O12 0.874438 0.076158 0.825755
O O13 0.767690 0.000000 0.056386
O O14 0.071180 0.812251 0.243607
O O15 0.000000 0.894229 0.500000
O O16 0.250000 0.750000 0.500000
O O17 0.121151 0.700319 0.653157
O O18 0.013555 0.289132 0.231522
O O19 0.000000 0.288050 0.000000
O O20 0.500000 0.235078 0.500000
#
# Coordination Sequence:
#
# PCOD9174090 Si02
#       8
#     8   8   8   8   8   8   8   8
#     4  11  22  35  60  84 109 148 187 229 277 327
#     4  10  18  31  52  78 107 145 187 212 254 327
#     4  10  21  36  56  79 109 149 186 222 267 325
#     4  10  21  37  54  78 112 149 184 223 270 323
#     4  10  20  31  51  77 111 145 178 217 266 327
#     4  11  22  36  57  86 113 142 185 235 277 323
#     4  10  21  33  55  83 111 141 177 234 279 321
#     4  10  19  35  53  81 111 141 185 227 274 323
#
# _framework density 16.550013
#
# number of rings (size 3 to 8) (size 9 to 14) (size 15 to 20)
#    0.000    1.750    5.000    0.000    1.750    1.000 
#    0.000    0.000    0.000    1.500    0.000    0.000 
#    0.000    0.000    0.000    0.000    0.000    0.000 
#
# Total GULP energy -178450.361631 kJ/mol
# GULP energy per Si atom -5576.573801 kJ/mol
# Density = 1.651234 g / cm^3
# Si number density = 16.550013 Si / 1000 Ang^3
#
#
#
# Elastic Constant Matrix: (Units=GPa)
#
#
# Indices 1 2 3 4 5 6 
#
# 1 132.1193 56.9421 45.6721 0.0000 -2.3226 0.0000
# 2 56.9421 90.3309 40.3747 0.0000 -6.9015 0.0000
# 3 45.6721 40.3747 69.4091 0.0000 -5.9682 0.0000
# 4 0.0000 0.0000 0.0000 11.2979 0.0000 -3.6909
# 5 -2.3226 -6.9015 -5.9682 0.0000 29.5940 0.0000
# 6 0.0000 0.0000 0.0000 -3.6909 0.0000 15.6027
#
#
#
# Elastic Compliance Matrix: (Units=1/GPa)
#
#
# Indices 1 2 3 4 5 6 
#
# 1 0.011374 -0.005232 -0.004548 0.000000 -0.001245 0.000000
# 2 -0.005232 0.017458 -0.006510 0.000000 0.002348 0.000000
# 3 -0.004548 -0.006510 0.021397 0.000000 0.002440 0.000000
# 4 0.000000 0.000000 0.000000 0.095925 0.000000 0.022692
# 5 -0.001245 0.002348 0.002440 0.000000 0.034733 0.000000
# 6 0.000000 0.000000 0.000000 0.022692 0.000000 0.069460
#
#
# Mechanical properties :
#
#
# Convention : Reuss Voigt Hill
#
# Bulk Modulus (GPa) = 56.66404 64.20413 60.43409
# Shear Modulus (GPa) = 17.31241 21.22360 19.26801
#
# Velocity S-wave (km/s) = 3.23780 3.58493 3.41578
# Velocity P-wave (km/s) = 6.94912 7.48424 7.22164
#
# Compressibility (1/GPa) = 0.01764788
#
# Stress axis : x y z
#
# Youngs Moduli (GPa) = 87.91762 57.28010 46.73628
#
# Poissons Ratio (x) = 0.29971 0.21255
# Poissons Ratio (y) = 0.46002 0.30427
# Poissons Ratio (z) = 0.39983 0.37291
#
# Static dielectric constant tensor:
#      x y z
#    x 1.534390 0.000000 0.009760 
#    y 0.000000 1.571180 0.000000 
#    z 0.009760 0.000000 1.561850 
# 
# From -- ./inp_files/89595.got.cif
#   From: 2010.05.17/outbox.cif.g08.bks.cpg/sg12_45_cif.got.tgz:89595.got - 2010.06.03 13:09:07.
