data_PCOD9174434
_publ_section_title
;
Structure prediction by ZEFSAII (Michael W. Deem and Ramdas Pophale) SiO2 
 PCOD9174434
Probable space group: C 2/M
;
_chemical_formula_sum "Si O2"
_cell_formula_units_Z 40
_cell_length_a 8.261503
_cell_length_b 28.514016
_cell_length_c 13.302123
_cell_angle_alpha 90.000000
_cell_angle_beta 146.995396
_cell_angle_gamma 90.000000
_cell_volume 1706.871829
_symmetry_space_group_name_H-M "C 2/M"
_symmetry_group_IT_number 12
_symmetry_cell_setting 'monoclinic'
loop_
_space_group_symop_operation_xyz
x,y,z
-x,y,-z
-x,-y,-z
x,-y,z
1/2+x,1/2+y,z
1/2-x,1/2+y,-z
1/2-x,1/2-y,-z
1/2+x,1/2-y,z
loop_
_atom_site_type_symbol
_atom_site_label
_atom_site_fract_x
_atom_site_fract_y
_atom_site_fract_z
Si Si1 0.351454 0.699424 0.678927
Si Si2 0.182767 0.389046 0.275833
Si Si3 0.860935 0.287544 0.816591
Si Si4 0.039607 0.908130 0.274837
Si Si5 0.591344 0.055107 0.697595
O O1 0.505238 0.711080 0.652646
O O2 0.442198 0.740297 0.802433
O O3 0.450822 0.646360 0.752092
O O4 0.000000 0.698222 0.500000
O O5 0.500000 0.387508 0.500000
O O6 0.071593 0.335740 0.205177
O O7 0.265248 0.410910 0.209745
O O8 0.950775 0.418782 0.219084
O O9 0.000000 0.289496 0.000000
O O10 0.107351 0.936775 0.208907
O O11 0.322961 0.922416 0.491662
O O12 0.539290 0.000000 0.681263
#
# Coordination Sequence:
#
# PCOD9174434 Si02
#       5
#     8   8   8   8   8
#     4  11  21  37  60  84 117 161 198 241 294 352
#     4   9  20  35  55  84 116 155 199 242 292 354
#     4  11  24  38  56  87 124 161 198 242 295 353
#     4   9  18  32  51  84 118 146 187 242 299 343
#     4  10  18  31  55  85 118 148 189 253 305 341
#
# _framework density 23.434683
#
# number of rings (size 3 to 8) (size 9 to 14) (size 15 to 20)
#    0.000    2.000    2.000    3.000    2.800    4.400 
#    0.000    0.000    0.000    0.600    0.000    5.600 
#    0.000    0.000    0.000    0.000    0.000    0.000 
#
# Total GULP energy -111712.903111 kJ/mol
# GULP energy per Si atom -5585.645156 kJ/mol
# Density = 2.338134 g / cm^3
# Si number density = 23.434683 Si / 1000 Ang^3
#
#
#
# Elastic Constant Matrix: (Units=GPa)
#
#
# Indices 1 2 3 4 5 6 
#
# 1 164.0438 88.5525 19.5592 0.0000 -20.0465 0.0000
# 2 88.5525 160.3720 9.3215 0.0000 -18.0945 0.0000
# 3 19.5592 9.3215 69.9070 0.0000 -7.1505 0.0000
# 4 0.0000 0.0000 0.0000 -11.0546 0.0000 -9.7475
# 5 -20.0465 -18.0945 -7.1505 0.0000 -2.8209 0.0000
# 6 0.0000 0.0000 0.0000 -9.7475 0.0000 54.4174
#
#
#
# Elastic Compliance Matrix: (Units=1/GPa)
#
#
# Indices 1 2 3 4 5 6 
#
# 1 0.007908 -0.005657 -0.002775 0.000000 -0.012872 0.000000
# 2 -0.005657 0.008183 -0.000607 0.000000 -0.010743 0.000000
# 3 -0.002775 -0.000607 0.013958 0.000000 -0.011769 0.000000
# 4 0.000000 0.000000 0.000000 -0.078122 0.000000 -0.013993
# 5 -0.012872 -0.010743 -0.011769 0.000000 -0.164277 0.000000
# 6 0.000000 0.000000 0.000000 -0.013993 0.000000 0.015870
#
#
# Mechanical properties :
#
#
# Convention : Reuss Voigt Hill
#
# Bulk Modulus (GPa) = 83.54350 69.90988 76.72669
# Shear Modulus (GPa) = -28.66774 26.56770 -1.05002
#
# Velocity S-wave (km/s) = -3.50137 3.37069 -0.67010
# Velocity P-wave (km/s) = 4.40236 6.71158 5.67565
#
# Compressibility (1/GPa) = 0.01196981
#
# Stress axis : x y z
#
# Youngs Moduli (GPa) = 126.45896 122.21166 71.64242
#
# Poissons Ratio (x) = 0.69141 0.19879
# Poissons Ratio (y) = 0.71544 0.04349
# Poissons Ratio (z) = 0.35090 0.07419
#
# Static dielectric constant tensor:
#      x y z
#    x 1.936050 0.000000 0.026680 
#    y 0.000000 1.816160 0.000000 
#    z 0.026680 0.000000 1.988190 
# 
# From -- ./inp_files/199515.got.cif
#   From: 2010.05.17/outbox.cif.g08.bks.cpg/sg12_100_cif.got.tgz:199515.got - 2010.06.03 13:09:07.
