data_PCOD9174825
_publ_section_title
;
Structure prediction by ZEFSAII (Michael W. Deem and Ramdas Pophale) SiO2 
 PCOD9174825
Probable space group: C 2/M
;
_chemical_formula_sum "Si O2"
_cell_formula_units_Z 64
_cell_length_a 29.539790
_cell_length_b 7.991203
_cell_length_c 14.578671
_cell_angle_alpha 90.000000
_cell_angle_beta 119.433903
_cell_angle_gamma 90.000000
_cell_volume 2997.211239
_symmetry_space_group_name_H-M "C 2/M"
_symmetry_group_IT_number 12
_symmetry_cell_setting 'monoclinic'
loop_
_space_group_symop_operation_xyz
x,y,z
-x,y,-z
-x,-y,-z
x,-y,z
1/2+x,1/2+y,z
1/2-x,1/2+y,-z
1/2-x,1/2-y,-z
1/2+x,1/2-y,z
loop_
_atom_site_type_symbol
_atom_site_label
_atom_site_fract_x
_atom_site_fract_y
_atom_site_fract_z
Si Si1 0.296158 0.802335 0.612955
Si Si2 0.382917 0.196448 0.971436
Si Si3 0.091232 0.194506 0.346639
Si Si4 0.042009 0.697522 0.115165
Si Si5 0.795231 0.798203 0.116501
Si Si6 0.410376 0.302788 0.186521
Si Si7 0.492475 0.705733 0.597955
Si Si8 0.275593 0.205227 0.797413
O O1 0.250000 0.750000 0.500000
O O2 0.353017 0.764268 0.628410
O O3 0.284383 0.732061 0.703143
O O4 0.294042 0.000000 0.621224
O O5 0.405493 0.210812 0.892010
O O6 0.324567 0.262225 0.907545
O O7 0.382766 0.000000 0.993483
O O8 0.416749 0.280144 0.083879
O O9 0.051939 0.216781 0.221493
O O10 0.060489 0.263455 0.404502
O O11 0.100348 0.000000 0.372325
O O12 0.030627 0.500000 0.120134
O O13 0.000000 0.761862 0.000000
O O14 0.852843 0.732549 0.151293
O O15 0.775809 0.746444 0.198567
O O16 0.797713 0.000000 0.117105
O O17 0.750000 0.750000 0.000000
O O18 0.408668 0.500000 0.204782
O O19 0.458186 0.235219 0.292881
O O20 0.500000 0.754938 0.500000
O O21 0.491462 0.500000 0.599431
O O22 0.277571 0.000000 0.798352
#
# Coordination Sequence:
#
# PCOD9174825 Si02
#       8
#     8   8   8   8   8   8   8   8
#     4  11  23  42  64  88 119 154 197 242 287 349
#     4  10  18  32  53  77 110 151 184 220 281 348
#     4  11  22  37  61  89 116 151 194 244 301 348
#     4  10  20  34  54  81 114 156 197 234 288 353
#     4  10  19  32  52  79 111 148 186 229 282 339
#     4  10  20  33  54  85 112 142 189 245 288 326
#     4   9  20  39  60  82 112 151 198 244 288 347
#     4   9  18  34  55  77 109 151 187 223 276 343
#
# _framework density 21.353180999999999
#
# number of rings (size 3 to 8) (size 9 to 14) (size 15 to 20)
#    0.000    2.000    2.500    1.500    0.000    1.750 
#    0.000    5.625    0.000    4.875    0.000    0.000 
#    0.000    0.000    0.000    0.000    0.000    0.000 
#
# Total GULP energy -178560.582862 kJ/mol
# GULP energy per Si atom -5580.018214 kJ/mol
# Density = 2.130458 g / cm^3
# Si number density = 21.353181 Si / 1000 Ang^3
#
#
#
# Elastic Constant Matrix: (Units=GPa)
#
#
# Indices 1 2 3 4 5 6 
#
# 1 119.2933 12.9101 60.6886 0.0000 -16.6093 0.0000
# 2 12.9101 12.9116 -3.5895 0.0000 -2.1948 0.0000
# 3 60.6886 -3.5895 115.9399 0.0000 -15.5404 0.0000
# 4 0.0000 0.0000 0.0000 20.9432 0.0000 3.7112
# 5 -16.6093 -2.1948 -15.5404 0.0000 30.9862 0.0000
# 6 0.0000 0.0000 0.0000 3.7112 0.0000 15.5775
#
#
#
# Elastic Compliance Matrix: (Units=1/GPa)
#
#
# Indices 1 2 3 4 5 6 
#
# 1 0.014406 -0.016071 -0.007671 0.000000 0.002736 0.000000
# 2 -0.016071 0.097594 0.012014 0.000000 0.004323 0.000000
# 3 -0.007671 0.012014 0.013482 0.000000 0.003500 0.000000
# 4 0.000000 0.000000 0.000000 0.049853 0.000000 -0.011877
# 5 0.002736 0.004323 0.003500 0.000000 0.035801 0.000000
# 6 0.000000 0.000000 0.000000 -0.011877 0.000000 0.067025
#
#
# Mechanical properties :
#
#
# Convention : Reuss Voigt Hill
#
# Bulk Modulus (GPa) = 9.80177 43.12925 26.46551
# Shear Modulus (GPa) = 14.89755 25.37709 20.13732
#
# Velocity S-wave (km/s) = 2.64422 3.45112 3.07426
# Velocity P-wave (km/s) = 3.73132 6.01018 5.00225
#
# Compressibility (1/GPa) = 0.10202240
#
# Stress axis : x y z
#
# Youngs Moduli (GPa) = 69.41728 10.24657 74.17351
#
# Poissons Ratio (x) = 0.16468 0.56902
# Poissons Ratio (y) = 1.11564 -0.89109
# Poissons Ratio (z) = 0.53253 -0.12310
#
# Static dielectric constant tensor:
#      x y z
#    x 1.830100 0.000000 -0.002360 
#    y 0.000000 1.778270 0.000000 
#    z -0.002360 0.000000 1.736930 
# 
# From -- ./inp_files/249150.got.cif
#   From: 2010.05.17/outbox.cif.g08.bks.cpg/sg12_125_cif.got.tgz:249150.got - 2010.06.03 13:09:07.
