data_PCOD9174183
_publ_section_title
;
Structure prediction by ZEFSAII (Michael W. Deem and Ramdas Pophale) SiO2 
 PCOD9174183
Probable space group: C 2/M
;
_chemical_formula_sum "Si O2"
_cell_formula_units_Z 64
_cell_length_a 14.284036
_cell_length_b 14.204369
_cell_length_c 19.425542
_cell_angle_alpha 90.000000
_cell_angle_beta 120.849093
_cell_angle_gamma 90.000000
_cell_volume 3383.739115
_symmetry_space_group_name_H-M "C 2/M"
_symmetry_group_IT_number 12
_symmetry_cell_setting 'monoclinic'
loop_
_space_group_symop_operation_xyz
x,y,z
-x,y,-z
-x,-y,-z
x,-y,z
1/2+x,1/2+y,z
1/2-x,1/2+y,-z
1/2-x,1/2-y,-z
1/2+x,1/2-y,z
loop_
_atom_site_type_symbol
_atom_site_label
_atom_site_fract_x
_atom_site_fract_y
_atom_site_fract_z
Si Si1 0.637333 0.387277 0.326630
Si Si2 0.680330 0.734044 0.582300
Si Si3 0.535910 0.609733 0.848617
Si Si4 0.415295 0.765371 0.030918
Si Si5 0.014526 0.228805 0.392414
Si Si6 0.565826 0.107406 0.169442
Si Si7 0.734263 0.889284 0.114124
Si Si8 0.887749 0.608392 0.651851
O O1 0.652068 0.500000 0.332969
O O2 0.748016 0.327659 0.376895
O O3 0.574025 0.359104 0.231979
O O4 0.559637 0.353196 0.359915
O O5 0.599807 0.742180 0.487272
O O6 0.603456 0.712356 0.618719
O O7 0.768481 0.653885 0.597441
O O8 0.522855 0.500000 0.859266
O O9 0.575803 0.663360 0.931701
O O10 0.636205 0.620147 0.833028
O O11 0.464708 0.829589 0.109749
O O12 0.500000 0.769481 0.000000
O O13 0.309408 0.815404 0.959304
O O14 0.025413 0.325232 0.353370
O O15 0.669556 0.130551 0.160178
O O16 0.592028 0.114182 0.259004
O O17 0.537185 0.000000 0.141958
O O18 0.711671 0.000000 0.086908
O O19 0.892383 0.500000 0.631530
#
# Coordination Sequence:
#
# PCOD9174183 Si02
#       8
#     8   8   8   8   8   8   8   8
#     4  10  21  38  60  81 110 151 187 223 275 335
#     4  10  22  38  56  82 114 144 183 229 276 328
#     4  10  21  35  51  75 107 142 181 221 260 315
#     4  10  18  31  53  77 102 142 181 213 268 320
#     4  10  22  38  56  83 113 144 182 232 276 325
#     4   9  18  32  52  79 107 133 170 225 275 317
#     4   9  18  32  52  78 106 135 175 223 270 319
#     4  10  20  35  57  82 112 146 181 228 281 326
#
# _framework density 18.913986999999999
#
# number of rings (size 3 to 8) (size 9 to 14) (size 15 to 20)
#    0.000    2.250    0.000    3.750    1.750    4.750 
#    0.000    2.500    0.000    0.000    0.000    0.000 
#    0.000    0.000    0.000    0.000    0.000    0.000 
#
# Total GULP energy -178396.359601 kJ/mol
# GULP energy per Si atom -5574.886238 kJ/mol
# Density = 1.887094 g / cm^3
# Si number density = 18.913987 Si / 1000 Ang^3
#
#
#
# Elastic Constant Matrix: (Units=GPa)
#
#
# Indices 1 2 3 4 5 6 
#
# 1 20.5313 -16.2514 -3.6775 0.0000 3.3083 0.0000
# 2 -16.2514 35.9568 5.7386 0.0000 4.1516 0.0000
# 3 -3.6775 5.7386 49.2075 0.0000 5.1110 0.0000
# 4 0.0000 0.0000 0.0000 256.7278 0.0000 -140.8042
# 5 3.3083 4.1516 5.1110 0.0000 20.0670 0.0000
# 6 0.0000 0.0000 0.0000 -140.8042 0.0000 93.4774
#
#
#
# Elastic Compliance Matrix: (Units=1/GPa)
#
#
# Indices 1 2 3 4 5 6 
#
# 1 0.085429 0.040677 0.004086 0.000000 -0.023540 0.000000
# 2 0.040677 0.048236 -0.000875 0.000000 -0.016463 0.000000
# 3 0.004086 -0.000875 0.021345 0.000000 -0.005929 0.000000
# 4 0.000000 0.000000 0.000000 0.022404 0.000000 0.033746
# 5 -0.023540 -0.016463 -0.005929 0.000000 0.058630 0.000000
# 6 0.000000 0.000000 0.000000 0.033746 0.000000 0.061530
#
#
# Mechanical properties :
#
#
# Convention : Reuss Voigt Hill
#
# Bulk Modulus (GPa) = 4.11886 8.59055 6.35471
# Shear Modulus (GPa) = 17.19825 82.04683 49.62254
#
# Velocity S-wave (km/s) = 3.01871 6.59341 5.12766
# Velocity P-wave (km/s) = 3.78584 7.90670 6.19873
#
# Compressibility (1/GPa) = 0.24278537
#
# Stress axis : x y z
#
# Youngs Moduli (GPa) = 11.70568 20.73121 46.84851
#
# Poissons Ratio (x) = -0.84328 -0.19141
# Poissons Ratio (y) = -0.47615 0.04101
# Poissons Ratio (z) = -0.04783 0.01815
#
# Static dielectric constant tensor:
#      x y z
#    x 1.657740 0.000000 0.001220 
#    y 0.000000 1.689390 0.000000 
#    z 0.001220 0.000000 1.661240 
# 
# From -- ./inp_files/270305.got.cif
#   From: 2010.05.17/outbox.cif.g08.bks.cpg/sg12_136_cif.got.tgz:270305.got - 2010.06.03 13:09:07.
