data_PCOD9174197
_publ_section_title
;
Structure prediction by ZEFSAII (Michael W. Deem and Ramdas Pophale) SiO2 
 PCOD9174197
Probable space group: C 2/M
;
_chemical_formula_sum "Si O2"
_cell_formula_units_Z 56
_cell_length_a 19.887898
_cell_length_b 8.733068
_cell_length_c 22.309895
_cell_angle_alpha 90.000000
_cell_angle_beta 55.323875
_cell_angle_gamma 90.000000
_cell_volume 3186.591686
_symmetry_space_group_name_H-M "C 2/M"
_symmetry_group_IT_number 12
_symmetry_cell_setting 'monoclinic'
loop_
_space_group_symop_operation_xyz
x,y,z
-x,y,-z
-x,-y,-z
x,-y,z
1/2+x,1/2+y,z
1/2-x,1/2+y,-z
1/2-x,1/2-y,-z
1/2+x,1/2-y,z
loop_
_atom_site_type_symbol
_atom_site_label
_atom_site_fract_x
_atom_site_fract_y
_atom_site_fract_z
Si Si1 0.874421 0.816020 0.446808
Si Si2 0.542177 0.317256 0.311502
Si Si3 0.193022 0.683815 0.080188
Si Si4 0.215430 0.684635 0.205398
Si Si5 0.489677 0.183248 0.803314
Si Si6 0.156511 0.182839 0.761745
Si Si7 0.265241 0.182064 0.395457
O O1 0.824679 0.781917 0.532587
O O2 0.827456 0.731301 0.416710
O O3 0.969997 0.777067 0.394517
O O4 0.866822 0.000000 0.440526
O O5 0.550369 0.500000 0.305888
O O6 0.630869 0.245006 0.276335
O O7 0.511977 0.259116 0.261662
O O8 0.199038 0.500000 0.075745
O O9 0.217959 0.735290 0.134731
O O10 0.097058 0.723752 0.122363
O O11 0.250000 0.750000 0.000000
O O12 0.211622 0.500000 0.207384
O O13 0.293012 0.731779 0.205239
O O14 0.568449 0.239947 0.798854
O O15 0.492477 0.000000 0.794213
O O16 0.209644 0.230489 0.676971
O O17 0.146361 0.000000 0.767694
O O18 0.271636 0.000000 0.382163
#
# Coordination Sequence:
#
# PCOD9174197 Si02
#       7
#     8   8   8   8   8   8   8
#     4   9  18  31  47  73 104 135 178 224 266 312
#     4  10  18  31  53  78 102 134 180 224 260 310
#     4   9  19  37  59  82 106 133 168 209 255 309
#     4   9  21  38  54  75 108 142 173 214 262 312
#     4  10  20  34  54  80 108 138 173 214 258 308
#     4  11  21  35  53  76 106 141 180 220 261 310
#     4  10  19  30  48  73 104 140 174 221 274 311
#
# _framework density 17.573634999999999
#
# number of rings (size 3 to 8) (size 9 to 14) (size 15 to 20)
#    0.000    2.286    1.429    2.571    0.000    5.143 
#    0.000    1.429    0.000    8.571    0.000    0.000 
#    0.000    0.000    0.000    0.000    0.000    0.000 
#
# Total GULP energy -156177.565462 kJ/mol
# GULP energy per Si atom -5577.770195 kJ/mol
# Density = 1.753364 g / cm^3
# Si number density = 17.573635 Si / 1000 Ang^3
#
#
#
# Elastic Constant Matrix: (Units=GPa)
#
#
# Indices 1 2 3 4 5 6 
#
# 1 114.2847 19.0577 46.7183 0.0000 -12.2961 0.0005
# 2 19.0577 15.1326 17.3346 0.0000 -2.6452 0.0007
# 3 46.7183 17.3346 111.5850 0.0000 -18.3245 0.0001
# 4 0.0000 0.0000 0.0000 28.0640 0.0000 -4.2157
# 5 -12.2961 -2.6452 -18.3245 0.0000 17.8217 0.0000
# 6 0.0005 0.0007 0.0001 -4.2157 0.0000 24.9572
#
#
#
# Elastic Compliance Matrix: (Units=1/GPa)
#
#
# Indices 1 2 3 4 5 6 
#
# 1 0.012200 -0.011637 -0.002649 0.000000 0.003967 0.000000
# 2 -0.011637 0.091506 -0.010144 0.000000 -0.004878 -0.000002
# 3 -0.002649 -0.010144 0.013354 0.000000 0.010398 0.000000
# 4 0.000000 0.000000 0.000000 0.036561 0.000000 0.006176
# 5 0.003967 -0.004878 0.010398 0.000000 0.068815 0.000000
# 6 0.000000 -0.000002 0.000000 0.006176 0.000000 0.041112
#
#
# Mechanical properties :
#
#
# Convention : Reuss Voigt Hill
#
# Bulk Modulus (GPa) = 14.66270 45.24705 29.95487
# Shear Modulus (GPa) = 14.91906 24.69468 19.80687
#
# Velocity S-wave (km/s) = 2.91683 3.75268 3.36084
# Velocity P-wave (km/s) = 4.43909 6.67681 5.66945
#
# Compressibility (1/GPa) = 0.06820028
#
# Stress axis : x y z
#
# Youngs Moduli (GPa) = 81.96568 10.92824 74.88309
#
# Poissons Ratio (x) = 0.12717 0.19834
# Poissons Ratio (y) = 0.95385 0.75962
# Poissons Ratio (z) = 0.21710 0.11086
#
# Static dielectric constant tensor:
#      x y z
#    x 1.594290 0.000000 -0.016840 
#    y 0.000000 1.594230 0.000000 
#    z -0.016840 0.000000 1.597420 
# 
# From -- ./inp_files/345483.got.cif
#   From: 2010.05.17/outbox.cif.g08.bks.cpg/sg12_173_cif.got.tgz:345483.got - 2010.06.03 13:09:07.
