data_PCOD9174584
_publ_section_title
;
Structure prediction by ZEFSAII (Michael W. Deem and Ramdas Pophale) SiO2 
 PCOD9174584
Probable space group: C 2/M
;
_chemical_formula_sum "Si O2"
_cell_formula_units_Z 36
_cell_length_a 18.755181
_cell_length_b 22.684323
_cell_length_c 14.534190
_cell_angle_alpha 90.000000
_cell_angle_beta 158.671134
_cell_angle_gamma 90.000000
_cell_volume 2249.084572
_symmetry_space_group_name_H-M "C 2/M"
_symmetry_group_IT_number 12
_symmetry_cell_setting 'monoclinic'
loop_
_space_group_symop_operation_xyz
x,y,z
-x,y,-z
-x,-y,-z
x,-y,z
1/2+x,1/2+y,z
1/2-x,1/2+y,-z
1/2-x,1/2-y,-z
1/2+x,1/2-y,z
loop_
_atom_site_type_symbol
_atom_site_label
_atom_site_fract_x
_atom_site_fract_y
_atom_site_fract_z
Si Si1 0.240364 0.124053 0.143865
Si Si2 0.500000 0.765931 0.500000
Si Si3 0.596190 0.930541 0.474589
Si Si4 0.708918 0.227802 0.300991
Si Si5 0.295129 0.346378 0.580976
O O1 0.339327 0.189056 0.263947
O O2 0.272647 0.096937 0.284581
O O3 0.374750 0.084726 0.238874
O O4 0.015960 0.129379 0.848278
O O5 0.384627 0.729525 0.438192
O O6 0.654298 0.896089 0.452854
O O7 0.626522 0.000000 0.505495
O O8 0.713626 0.290524 0.359968
O O9 0.738097 0.178042 0.412862
O O10 0.500000 0.222516 0.000000
#
# Coordination Sequence:
#
# PCOD9174584 Si02
#       5
#     8   4   8   8   8
#     4  10  18  32  49  80 109 137 166 203 259 321
#     4  10  18  32  51  70 111 138 164 206 254 302
#     4  10  20  34  53  79 109 137 169 215 260 308
#     4  11  21  35  51  78 108 140 173 213 256 308
#     4  11  21  32  55  78 105 140 176 209 257 312
#
# _framework density 16.006512000000001
#
# number of rings (size 3 to 8) (size 9 to 14) (size 15 to 20)
#    0.000    1.778    6.667    2.000    0.000    5.333 
#    0.000    0.000    0.000    0.667    0.000    2.333 
#    0.000    0.000    0.000    0.000    0.000    0.000 
#
# Total GULP energy -100436.694965 kJ/mol
# GULP energy per Si atom -5579.816387 kJ/mol
# Density = 1.597008 g / cm^3
# Si number density = 16.006512 Si / 1000 Ang^3
#
#
#
# Elastic Constant Matrix: (Units=GPa)
#
#
# Indices 1 2 3 4 5 6 
#
# 1 127.4588 70.3171 52.1423 0.0000 6.9949 0.0000
# 2 70.3171 82.8929 26.1203 0.0000 4.4477 0.0000
# 3 52.1423 26.1203 33.9860 0.0001 4.1263 -0.0001
# 4 0.0000 0.0000 0.0001 6.4082 0.0000 4.1780
# 5 6.9949 4.4477 4.1263 0.0000 10.9057 0.0000
# 6 0.0000 0.0000 -0.0001 4.1780 0.0000 15.7703
#
#
#
# Elastic Compliance Matrix: (Units=1/GPa)
#
#
# Indices 1 2 3 4 5 6 
#
# 1 0.030395 -0.014630 -0.035370 0.000000 -0.000145 0.000000
# 2 -0.014630 0.023001 0.004997 0.000000 -0.001888 0.000000
# 3 -0.035370 0.004997 0.081066 -0.000001 -0.010024 0.000001
# 4 0.000000 0.000000 -0.000001 0.188633 0.000000 -0.049974
# 5 -0.000145 -0.001888 -0.010024 0.000000 0.096351 0.000000
# 6 0.000000 0.000000 0.000001 -0.049974 0.000000 0.076650
#
#
# Mechanical properties :
#
#
# Convention : Reuss Voigt Hill
#
# Bulk Modulus (GPa) = 22.49427 60.16634 41.33031
# Shear Modulus (GPa) = 8.32058 13.00071 10.66064
#
# Velocity S-wave (km/s) = 2.28244 2.85303 2.58353
# Velocity P-wave (km/s) = 4.58582 6.96587 5.89716
#
# Compressibility (1/GPa) = 0.04445576
#
# Stress axis : x y z
#
# Youngs Moduli (GPa) = 32.90065 43.47686 12.33557
#
# Poissons Ratio (x) = 0.63607 0.43631
# Poissons Ratio (y) = 0.48134 -0.06165
# Poissons Ratio (z) = 1.16371 -0.21728
#
# Static dielectric constant tensor:
#      x y z
#    x 1.546870 0.000000 0.016290 
#    y 0.000000 1.520100 0.000000 
#    z 0.016290 0.000000 1.527570 
# 
# From -- ./inp_files/148509.got.cif
#   From: 2010.05.17/outbox.cif.g08.bks.cpg/sg12_75_cif.got.tgz:148509.got - 2010.06.03 13:09:07.
