data_PCOD9174838
_publ_section_title
;
Structure prediction by ZEFSAII (Michael W. Deem and Ramdas Pophale) SiO2 
 PCOD9174838
Probable space group: C 2/M
;
_chemical_formula_sum "Si O2"
_cell_formula_units_Z 56
_cell_length_a 11.911682
_cell_length_b 31.216436
_cell_length_c 8.975629
_cell_angle_alpha 90.000000
_cell_angle_beta 76.461852
_cell_angle_gamma 90.000000
_cell_volume 3244.765347
_symmetry_space_group_name_H-M "C 2/M"
_symmetry_group_IT_number 12
_symmetry_cell_setting 'monoclinic'
loop_
_space_group_symop_operation_xyz
x,y,z
-x,y,-z
-x,-y,-z
x,-y,z
1/2+x,1/2+y,z
1/2-x,1/2+y,-z
1/2-x,1/2-y,-z
1/2+x,1/2-y,z
loop_
_atom_site_type_symbol
_atom_site_label
_atom_site_fract_x
_atom_site_fract_y
_atom_site_fract_z
Si Si1 0.571599 0.903903 0.338373
Si Si2 0.127619 0.450803 0.031415
Si Si3 0.063506 0.664712 0.820353
Si Si4 0.746986 0.833935 0.256111
Si Si5 0.272110 0.630762 0.910506
Si Si6 0.055757 0.737343 0.320844
Si Si7 0.491285 0.677603 0.826658
O O1 0.500000 0.920546 0.500000
O O2 0.615694 0.939321 0.209747
O O3 0.489491 0.872122 0.267860
O O4 0.675616 0.872332 0.355240
O O5 0.160703 0.500000 0.997477
O O6 0.217568 0.416529 0.936983
O O7 0.000000 0.444388 0.000000
O O8 0.196345 0.656286 0.813811
O O9 0.031339 0.709101 0.753169
O O10 0.000000 0.662346 0.000000
O O11 0.672897 0.790589 0.292850
O O12 0.878018 0.829203 0.267934
O O13 0.750457 0.847739 0.080106
O O14 0.407282 0.636729 0.838784
O O15 0.000000 0.741559 0.500000
O O16 0.067354 0.783011 0.239807
O O17 0.500000 0.688110 0.000000
#
# Coordination Sequence:
#
# PCOD9174838 Si02
#       7
#     8   8   8   8   8   8   8
#     4  10  18  32  53  79 108 141 166 207 267 308
#     4  10  18  33  57  86 110 128 167 218 264 315
#     4  11  16  32  55  74  98 141 178 212 260 306
#     4   9  19  35  51  72 101 139 180 218 251 307
#     4  10  18  34  55  78 100 137 173 217 264 309
#     4  11  23  35  48  75 105 141 180 224 265 298
#     4  10  23  35  52  71 100 143 183 220 255 307
#
# _framework density 17.258568
#
# number of rings (size 3 to 8) (size 9 to 14) (size 15 to 20)
#    0.000    1.857    5.714    2.143    2.000    2.000 
#    2.571    0.000    0.000   10.714    0.000    0.000 
#    0.000    2.857    0.000    0.000    0.000    0.000 
#
# Total GULP energy -156157.470071 kJ/mol
# GULP energy per Si atom -5577.052503 kJ/mol
# Density = 1.721929 g / cm^3
# Si number density = 17.258568 Si / 1000 Ang^3
#
#
#
# Elastic Constant Matrix: (Units=GPa)
#
#
# Indices 1 2 3 4 5 6 
#
# 1 108.9332 50.2419 23.5089 0.0000 -24.1306 0.0000
# 2 50.2419 99.5262 22.1791 0.0000 -8.6806 0.0000
# 3 23.5089 22.1791 47.5057 0.0000 -3.0519 0.0000
# 4 0.0000 0.0000 0.0000 6.7904 0.0000 -0.5204
# 5 -24.1306 -8.6806 -3.0519 0.0000 16.3806 0.0000
# 6 0.0000 0.0000 0.0000 -0.5204 0.0000 15.0572
#
#
#
# Elastic Compliance Matrix: (Units=1/GPa)
#
#
# Indices 1 2 3 4 5 6 
#
# 1 0.017918 -0.006074 -0.004597 0.000000 0.022320 0.000000
# 2 -0.006074 0.013698 -0.003540 0.000000 -0.002348 0.000000
# 3 -0.004597 -0.003540 0.024718 0.000000 -0.004043 0.000000
# 4 0.000000 0.000000 0.000000 0.147658 0.000000 0.005104
# 5 0.022320 -0.002348 -0.004043 0.000000 0.091929 0.000000
# 6 0.000000 0.000000 0.000000 0.005104 0.000000 0.066590
#
#
# Mechanical properties :
#
#
# Convention : Reuss Voigt Hill
#
# Bulk Modulus (GPa) = 35.82813 49.75832 42.79323
# Shear Modulus (GPa) = 12.49259 18.31466 15.40362
#
# Velocity S-wave (km/s) = 2.69336 3.26113 2.99075
# Velocity P-wave (km/s) = 5.52059 6.56305 6.06426
#
# Compressibility (1/GPa) = 0.02791103
#
# Stress axis : x y z
#
# Youngs Moduli (GPa) = 55.81102 73.00402 40.45593
#
# Poissons Ratio (x) = 0.44341 0.18599
# Poissons Ratio (y) = 0.33899 0.14323
# Poissons Ratio (z) = 0.25658 0.25845
#
# Static dielectric constant tensor:
#      x y z
#    x 1.614280 0.000000 -0.006640 
#    y 0.000000 1.574050 0.000000 
#    z -0.006640 0.000000 1.595230 
# 
# From -- ./inp_files/54164.got.cif
#   From: 2010.05.17/outbox.cif.g08.bks.cpg/sg12_28_cif.got.tgz:54164.got - 2010.06.03 13:09:07.
