data_PCOD9174550
_publ_section_title
;
Structure prediction by ZEFSAII (Michael W. Deem and Ramdas Pophale) SiO2 
 PCOD9174550
Probable space group: C 2/M
;
_chemical_formula_sum "Si O2"
_cell_formula_units_Z 56
_cell_length_a 23.468314
_cell_length_b 22.456672
_cell_length_c 5.612719
_cell_angle_alpha 90.000000
_cell_angle_beta 79.144348
_cell_angle_gamma 90.000000
_cell_volume 2905.082108
_symmetry_space_group_name_H-M "C 2/M"
_symmetry_group_IT_number 12
_symmetry_cell_setting 'monoclinic'
loop_
_space_group_symop_operation_xyz
x,y,z
-x,y,-z
-x,-y,-z
x,-y,z
1/2+x,1/2+y,z
1/2-x,1/2+y,-z
1/2-x,1/2-y,-z
1/2+x,1/2-y,z
loop_
_atom_site_type_symbol
_atom_site_label
_atom_site_fract_x
_atom_site_fract_y
_atom_site_fract_z
Si Si1 0.931402 0.265622 0.051816
Si Si2 0.260951 0.300436 0.187640
Si Si3 0.060998 0.429593 0.696901
Si Si4 0.928711 0.384227 0.810105
Si Si5 0.367050 0.659788 0.877670
Si Si6 0.154801 0.738769 0.493912
Si Si7 0.032088 0.071482 0.227005
O O1 0.915948 0.314591 0.863536
O O2 0.905610 0.201037 0.021650
O O3 0.901148 0.285032 0.321892
O O4 0.000000 0.262812 0.000000
O O5 0.196946 0.310603 0.341500
O O6 0.301963 0.268762 0.347775
O O7 0.250000 0.250000 0.000000
O O8 0.302612 0.349377 0.035318
O O9 0.048848 0.500000 0.697369
O O10 0.091206 0.410761 0.425691
O O11 0.998653 0.395804 0.751995
O O12 0.090928 0.415136 0.926660
O O13 0.361023 0.705355 0.661333
O O14 0.404792 0.601634 0.809349
O O15 0.000000 0.089893 0.500000
O O16 0.035956 0.000000 0.225469
O O17 0.000000 0.087630 0.000000
#
# Coordination Sequence:
#
# PCOD9174550 Si02
#       7
#     8   8   8   8   8   8   8
#     4  11  22  31  44  78 119 152 183 227 288 358
#     4   8  16  35  52  78 104 139 186 232 281 350
#     4  10  18  32  48  63  88 133 181 224 257 299
#     4  10  19  30  45  67 100 130 176 222 263 320
#     4  10  21  32  58  79 112 155 197 237 298 356
#     4   9  19  32  52  75 114 146 182 233 290 353
#     4  10  23  41  58  84 125 165 208 253 297 361
#
# _framework density 19.276564
#
# number of rings (size 3 to 8) (size 9 to 14) (size 15 to 20)
#    0.000    2.286    1.429    2.571    8.000    0.000 
#    0.000    0.000    0.000    0.000    0.000    3.000 
#    0.000    0.000    0.000    0.000    0.000    0.000 
#
# Total GULP energy -155890.380935 kJ/mol
# GULP energy per Si atom -5567.513605 kJ/mol
# Density = 1.923269 g / cm^3
# Si number density = 19.276564 Si / 1000 Ang^3
#
#
#
# Elastic Constant Matrix: (Units=GPa)
#
#
# Indices 1 2 3 4 5 6 
#
# 1 93.3087 9.0167 50.2633 0.0000 -21.3035 0.0000
# 2 9.0167 31.4806 14.0343 0.0000 -2.9381 0.0000
# 3 50.2633 14.0343 145.4951 0.0000 -8.0489 0.0000
# 4 0.0000 0.0000 0.0000 18.4945 0.0000 -1.6359
# 5 -21.3035 -2.9381 -8.0489 0.0000 40.0186 0.0000
# 6 0.0000 0.0000 0.0000 -1.6359 0.0000 16.0682
#
#
#
# Elastic Compliance Matrix: (Units=1/GPa)
#
#
# Indices 1 2 3 4 5 6 
#
# 1 0.014938 -0.001571 -0.004627 0.000000 0.006906 0.000000
# 2 -0.001571 0.033489 -0.002627 0.000000 0.001094 0.000000
# 3 -0.004627 -0.002627 0.008675 0.000000 -0.000911 0.000000
# 4 0.000000 0.000000 0.000000 0.054561 0.000000 0.005555
# 5 0.006906 0.001094 -0.000911 0.000000 0.028562 0.000000
# 6 0.000000 0.000000 0.000000 0.005555 0.000000 0.062800
#
#
# Mechanical properties :
#
#
# Convention : Reuss Voigt Hill
#
# Bulk Modulus (GPa) = 25.34788 46.32368 35.83578
# Shear Modulus (GPa) = 21.38344 28.04762 24.71553
#
# Velocity S-wave (km/s) = 3.33422 3.81860 3.58460
# Velocity P-wave (km/s) = 5.29159 6.59739 5.98023
#
# Compressibility (1/GPa) = 0.03945103
#
# Stress axis : x y z
#
# Youngs Moduli (GPa) = 66.94261 29.86072 115.28021
#
# Poissons Ratio (x) = 0.04692 0.53340
# Poissons Ratio (y) = 0.10519 0.30284
# Poissons Ratio (z) = 0.30974 0.07844
#
# Static dielectric constant tensor:
#      x y z
#    x 1.711500 0.000000 0.026090 
#    y 0.000000 1.663010 0.000000 
#    z 0.026090 0.000000 1.823550 
# 
# From -- ./inp_files/21845.got.cif
#   From: 2010.05.17/outbox.cif.g08.bks.cpg/sg12_11_cif.got.tgz:21845.got - 2010.06.03 13:09:07.
