data_PCOD9174747
_publ_section_title
;
Structure prediction by ZEFSAII (Michael W. Deem and Ramdas Pophale) SiO2 
 PCOD9174747
Probable space group: C 2/M
;
_chemical_formula_sum "Si O2"
_cell_formula_units_Z 36
_cell_length_a 9.681909
_cell_length_b 21.848958
_cell_length_c 8.135426
_cell_angle_alpha 90.000000
_cell_angle_beta 123.932380
_cell_angle_gamma 90.000000
_cell_volume 1427.879370
_symmetry_space_group_name_H-M "C 2/M"
_symmetry_group_IT_number 12
_symmetry_cell_setting 'monoclinic'
loop_
_space_group_symop_operation_xyz
x,y,z
-x,y,-z
-x,-y,-z
x,-y,z
1/2+x,1/2+y,z
1/2-x,1/2+y,-z
1/2-x,1/2-y,-z
1/2+x,1/2-y,z
loop_
_atom_site_type_symbol
_atom_site_label
_atom_site_fract_x
_atom_site_fract_y
_atom_site_fract_z
Si Si1 0.636365 0.622679 0.947795
Si Si2 0.836261 0.500000 0.502112
Si Si3 0.886775 0.249777 0.264128
Si Si4 0.468900 0.072565 0.160730
Si Si5 0.000000 0.741362 0.000000
Si Si6 0.523121 0.500000 0.710944
O O1 0.619387 0.679839 0.811343
O O2 0.608797 0.562135 0.821506
O O3 0.500000 0.627087 0.000000
O O4 0.817976 0.607558 0.144376
O O5 0.654393 0.500000 0.311997
O O6 0.000000 0.500000 0.500000
O O7 0.861681 0.562069 0.626040
O O8 0.969926 0.284377 0.163498
O O9 0.000000 0.255024 0.500000
O O10 0.691795 0.267162 0.156042
O O11 0.422094 0.000000 0.110265
O O12 0.500000 0.097830 0.000000
O O13 0.500000 0.500000 0.500000
#
# Coordination Sequence:
#
# PCOD9174747 Si02
#       6
#     8   4   8   8   4   4
#     4  12  23  39  60  94 133 178 220 272 336 399
#     4  10  18  32  52  78 112 168 220 260 307 377
#     4  11  24  46  76 107 135 175 231 278 350 424
#     4   9  19  36  54  73 117 172 211 256 310 374
#     4  10  24  50  78 100 140 174 216 300 358 396
#     4  12  22  36  58  88 130 178 222 278 321 380
#
# _framework density 25.212212000000001
#
# number of rings (size 3 to 8) (size 9 to 14) (size 15 to 20)
#    0.667    0.667    2.222    4.333    1.556    0.000 
#    0.000    0.000    0.000    0.000    0.000    0.000 
#    0.000    0.000    0.000    0.000    0.000    0.000 
#
# Total GULP energy -100344.729621 kJ/mol
# GULP energy per Si atom -5574.707201 kJ/mol
# Density = 2.515483 g / cm^3
# Si number density = 25.212212 Si / 1000 Ang^3
#
#
#
# Elastic Constant Matrix: (Units=GPa)
#
#
# Indices 1 2 3 4 5 6 
#
# 1 152.1631 21.1180 31.4083 0.0000 6.8226 0.0000
# 2 21.1180 110.8148 16.3671 0.0000 -3.5494 0.0000
# 3 31.4083 16.3671 145.0997 0.0000 -5.0691 0.0000
# 4 0.0000 0.0000 0.0000 21.7502 0.0000 3.8080
# 5 6.8226 -3.5494 -5.0691 0.0000 42.3850 0.0000
# 6 0.0000 0.0000 0.0000 3.8080 0.0000 43.0528
#
#
#
# Elastic Compliance Matrix: (Units=1/GPa)
#
#
# Indices 1 2 3 4 5 6 
#
# 1 0.007100 -0.001184 -0.001453 0.000000 -0.001416 0.000000
# 2 -0.001184 0.009392 -0.000772 0.000000 0.000885 0.000000
# 3 -0.001453 -0.000772 0.007330 0.000000 0.001046 0.000000
# 4 0.000000 0.000000 0.000000 0.046700 0.000000 -0.004131
# 5 -0.001416 0.000885 0.001046 0.000000 0.024020 0.000000
# 6 0.000000 0.000000 0.000000 -0.004131 0.000000 0.023593
#
#
# Mechanical properties :
#
#
# Convention : Reuss Voigt Hill
#
# Bulk Modulus (GPa) = 58.80949 60.65160 59.73054
# Shear Modulus (GPa) = 38.27911 44.04989 41.16450
#
# Velocity S-wave (km/s) = 3.90073 4.18444 4.04508
# Velocity P-wave (km/s) = 6.60788 6.88874 6.74977
#
# Compressibility (1/GPa) = 0.01700406
#
# Stress axis : x y z
#
# Youngs Moduli (GPa) = 140.85476 106.47298 136.42734
#
# Poissons Ratio (x) = 0.12604 0.19819
# Poissons Ratio (y) = 0.16674 0.10536
# Poissons Ratio (z) = 0.20462 0.08223
#
# Static dielectric constant tensor:
#      x y z
#    x 2.038790 0.000000 -0.024750 
#    y 0.000000 2.147160 0.000000 
#    z -0.024750 0.000000 2.052570 
# 
# From -- ./inp_files/42015.got.cif
#   From: 2010.05.17/outbox.cif.g08.bks.cpg/sg12_22_cif.got.tgz:42015.got - 2010.06.03 13:09:07.
