data_PCOD9174463
_publ_section_title
;
Structure prediction by ZEFSAII (Michael W. Deem and Ramdas Pophale) SiO2 
 PCOD9174463
Probable space group: C 2/M
;
_chemical_formula_sum "Si O2"
_cell_formula_units_Z 44
_cell_length_a 26.654374
_cell_length_b 14.467730
_cell_length_c 7.269748
_cell_angle_alpha 90.000000
_cell_angle_beta 121.454631
_cell_angle_gamma 90.000000
_cell_volume 2391.468007
_symmetry_space_group_name_H-M "C 2/M"
_symmetry_group_IT_number 12
_symmetry_cell_setting 'monoclinic'
loop_
_space_group_symop_operation_xyz
x,y,z
-x,y,-z
-x,-y,-z
x,-y,z
1/2+x,1/2+y,z
1/2-x,1/2+y,-z
1/2-x,1/2-y,-z
1/2+x,1/2-y,z
loop_
_atom_site_type_symbol
_atom_site_label
_atom_site_fract_x
_atom_site_fract_y
_atom_site_fract_z
Si Si1 0.138318 0.317556 0.141421
Si Si2 0.515255 0.106651 0.809757
Si Si3 0.176872 0.500000 0.678391
Si Si4 0.894951 0.687656 0.506622
Si Si5 0.281275 0.500000 0.134219
Si Si6 0.282918 0.000000 0.640943
Si Si7 0.186822 0.797851 0.919961
O O1 0.119077 0.287517 0.308333
O O2 0.180151 0.407247 0.241755
O O3 0.080101 0.351424 0.922324
O O4 0.169572 0.236422 0.089694
O O5 0.464140 0.167564 0.621205
O O6 0.514340 0.000000 0.745043
O O7 0.500000 0.104027 0.000000
O O8 0.136592 0.589327 0.586251
O O9 0.221301 0.500000 0.588645
O O10 0.213915 0.500000 0.933712
O O11 0.862794 0.757934 0.310991
O O12 0.274864 0.500000 0.343037
O O13 0.308173 0.406440 0.106040
O O14 0.250000 0.750000 0.000000
#
# Coordination Sequence:
#
# PCOD9174463 Si02
#       7
#     8   8   4   8   4   4   8
#     4  10  20  35  56  85 116 144 174 216 275 336
#     4   9  16  31  57  87 117 142 169 217 279 336
#     4  10  18  31  56  84 111 142 175 214 268 330
#     4  10  20  35  56  85 116 144 174 216 275 336
#     4  12  24  40  50  74 112 146 190 236 258 306
#     4  10  18  31  56  84 111 142 175 214 268 330
#     4  12  24  37  55  77 109 149 190 227 267 318
#
# _framework density 18.398741999999999
#
# number of rings (size 3 to 8) (size 9 to 14) (size 15 to 20)
#    0.000    1.636    5.455    0.000    0.000    2.909 
#    0.000    0.909    0.000    2.182    0.000    3.818 
#    0.000    0.000    0.000    0.000    0.000    0.000 
#
# Total GULP energy -122896.083516 kJ/mol
# GULP energy per Si atom -5586.185614 kJ/mol
# Density = 1.835687 g / cm^3
# Si number density = 18.398742 Si / 1000 Ang^3
#
#
#
# Elastic Constant Matrix: (Units=GPa)
#
#
# Indices 1 2 3 4 5 6 
#
# 1 57.6987 17.2777 -5.7334 0.0000 -9.5802 0.0000
# 2 17.2777 90.9633 2.1325 0.0000 -3.2494 0.0000
# 3 -5.7334 2.1325 59.1052 0.0000 0.2397 0.0000
# 4 0.0000 0.0000 0.0000 22.7838 0.0000 9.6577
# 5 -9.5802 -3.2494 0.2397 0.0000 24.5383 0.0000
# 6 0.0000 0.0000 0.0000 9.6577 0.0000 72.9574
#
#
#
# Elastic Compliance Matrix: (Units=1/GPa)
#
#
# Indices 1 2 3 4 5 6 
#
# 1 0.019797 -0.003549 0.002019 0.000000 0.007239 0.000000
# 2 -0.003549 0.011692 -0.000767 0.000000 0.000170 0.000000
# 3 0.002019 -0.000767 0.017140 0.000000 0.000519 0.000000
# 4 0.000000 0.000000 0.000000 0.046500 0.000000 -0.006155
# 5 0.007239 0.000170 0.000519 0.000000 0.043596 0.000000
# 6 0.000000 0.000000 0.000000 -0.006155 0.000000 0.014521
#
#
# Mechanical properties :
#
#
# Convention : Reuss Voigt Hill
#
# Bulk Modulus (GPa) = 22.70900 26.12452 24.41676
# Shear Modulus (GPa) = 28.98241 36.99526 32.98884
#
# Velocity S-wave (km/s) = 3.97323 4.48900 4.23897
# Velocity P-wave (km/s) = 5.78085 6.41078 6.10395
#
# Compressibility (1/GPa) = 0.04403540
#
# Stress axis : x y z
#
# Youngs Moduli (GPa) = 50.51325 85.53155 58.34168
#
# Poissons Ratio (x) = 0.30355 -0.11779
# Poissons Ratio (y) = 0.17927 0.04474
# Poissons Ratio (z) = -0.10199 0.06558
#
# Static dielectric constant tensor:
#      x y z
#    x 1.669880 0.000000 -0.034770 
#    y 0.000000 1.592130 0.000000 
#    z -0.034770 0.000000 1.652970 
# 
# From -- ./inp_files/84210.got.cif
#   From: 2010.05.17/outbox.cif.g08.bks.cpg/sg12_43_cif.got.tgz:84210.got - 2010.06.03 13:09:07.
