data_PCOD9174030
_publ_section_title
;
Structure prediction by ZEFSAII (Michael W. Deem and Ramdas Pophale) SiO2 
 PCOD9174030
Probable space group: C 2/M
;
_chemical_formula_sum "Si O2"
_cell_formula_units_Z 64
_cell_length_a 29.761945
_cell_length_b 7.725213
_cell_length_c 14.683815
_cell_angle_alpha 90.000000
_cell_angle_beta 94.196921
_cell_angle_gamma 90.000000
_cell_volume 3367.010830
_symmetry_space_group_name_H-M "C 2/M"
_symmetry_group_IT_number 12
_symmetry_cell_setting 'monoclinic'
loop_
_space_group_symop_operation_xyz
x,y,z
-x,y,-z
-x,-y,-z
x,-y,z
1/2+x,1/2+y,z
1/2-x,1/2+y,-z
1/2-x,1/2-y,-z
1/2+x,1/2-y,z
loop_
_atom_site_type_symbol
_atom_site_label
_atom_site_fract_x
_atom_site_fract_y
_atom_site_fract_z
Si Si1 0.429853 0.712641 0.725338
Si Si2 0.526947 0.292937 0.804831
Si Si3 0.452910 0.298247 0.528771
Si Si4 0.260952 0.708595 0.896887
Si Si5 0.099530 0.294986 0.956542
Si Si6 0.858148 0.798229 0.852337
Si Si7 0.596474 0.203069 0.655613
Si Si8 0.167703 0.711708 0.807053
O O1 0.428180 0.500000 0.726648
O O2 0.475610 0.764031 0.784582
O O3 0.435098 0.772147 0.621837
O O4 0.385872 0.776598 0.771875
O O5 0.528024 0.500000 0.799105
O O6 0.551919 0.240043 0.901206
O O7 0.556889 0.225053 0.724784
O O8 0.500000 0.219227 0.500000
O O9 0.462696 0.500000 0.549888
O O10 0.418195 0.287494 0.440658
O O11 0.262047 0.500000 0.891340
O O12 0.309595 0.777417 0.872892
O O13 0.218660 0.769113 0.830191
O O14 0.250000 0.750000 0.000000
O O15 0.104793 0.500000 0.968393
O O16 0.137313 0.234457 0.889199
O O17 0.109644 0.211829 0.054675
O O18 0.850006 0.000000 0.830609
O O19 0.641290 0.269753 0.712994
O O20 0.601968 0.000000 0.638610
O O21 0.166770 0.500000 0.806104
#
# Coordination Sequence:
#
# PCOD9174030 Si02
#       8
#     8   8   8   8   8   8   8   8
#     4   9  19  34  50  71 100 130 166 213 251 289
#     4  10  18  32  51  70  98 136 173 202 240 294
#     4  10  18  33  54  73  95 130 169 206 251 293
#     4  10  18  31  52  75  97 127 166 204 247 295
#     4  10  19  32  48  70 104 135 164 204 248 291
#     4  10  20  33  51  74  97 130 173 208 245 298
#     4  10  19  31  49  76 104 127 159 205 254 299
#     4   8  16  30  47  69 100 129 153 193 248 290
#
# _framework density 19.007957999999999
#
# number of rings (size 3 to 8) (size 9 to 14) (size 15 to 20)
#    0.000    2.375    2.500    1.875    0.000    0.750 
#    0.000    5.000    0.000    0.750    0.000    0.000 
#    0.000    0.000    0.000    0.000    0.000    0.500 
#
# Total GULP energy -178514.896108 kJ/mol
# GULP energy per Si atom -5578.590503 kJ/mol
# Density = 1.896470 g / cm^3
# Si number density = 19.007958 Si / 1000 Ang^3
#
#
#
# Elastic Constant Matrix: (Units=GPa)
#
#
# Indices 1 2 3 4 5 6 
#
# 1 142.8805 2.1491 85.3324 0.0000 -2.6372 0.0000
# 2 2.1491 29.9165 -3.6905 0.0000 -3.5603 0.0000
# 3 85.3324 -3.6905 107.3787 0.0000 -7.7034 0.0000
# 4 0.0000 0.0000 0.0000 7.6708 0.0000 0.6982
# 5 -2.6372 -3.5603 -7.7034 0.0000 24.0736 0.0000
# 6 0.0000 0.0000 0.0000 0.6982 0.0000 9.0106
#
#
#
# Elastic Compliance Matrix: (Units=1/GPa)
#
#
# Indices 1 2 3 4 5 6 
#
# 1 0.013613 -0.002636 -0.011084 0.000000 -0.002446 0.000000
# 2 -0.002636 0.034795 0.003725 0.000000 0.006049 0.000000
# 3 -0.011084 0.003725 0.018629 0.000000 0.005298 0.000000
# 4 0.000000 0.000000 0.000000 0.131290 0.000000 -0.010174
# 5 -0.002446 0.006049 0.005298 0.000000 0.043861 0.000000
# 6 0.000000 0.000000 0.000000 -0.010174 0.000000 0.111768
#
#
# Mechanical properties :
#
#
# Convention : Reuss Voigt Hill
#
# Bulk Modulus (GPa) = 21.25564 49.75085 35.50325
# Shear Modulus (GPa) = 12.83264 21.24332 17.03798
#
# Velocity S-wave (km/s) = 2.60112 3.34668 2.99718
# Velocity P-wave (km/s) = 4.49754 6.41593 5.54040
#
# Compressibility (1/GPa) = 0.04704633
#
# Stress axis : x y z
#
# Youngs Moduli (GPa) = 73.45786 28.73968 53.67834
#
# Poissons Ratio (x) = 0.07577 0.59499
# Poissons Ratio (y) = 0.19366 -0.19995
# Poissons Ratio (z) = 0.81423 -0.10705
#
# Static dielectric constant tensor:
#      x y z
#    x 1.682000 0.000000 0.008480 
#    y 0.000000 1.705420 0.000000 
#    z 0.008480 0.000000 1.650080 
# 
# From -- ./inp_files/248468.got.cif
#   From: 2010.05.17/outbox.cif.g08.bks.cpg/sg12_125_cif.got.tgz:248468.got - 2010.06.03 13:09:07.
