data_PCOD9174568
_publ_section_title
;
Structure prediction by ZEFSAII (Michael W. Deem and Ramdas Pophale) SiO2 
 PCOD9174568
Probable space group: C 2/M
;
_chemical_formula_sum "Si O2"
_cell_formula_units_Z 64
_cell_length_a 16.061860
_cell_length_b 14.238333
_cell_length_c 23.441991
_cell_angle_alpha 90.000000
_cell_angle_beta 38.507629
_cell_angle_gamma 90.000000
_cell_volume 3337.887785
_symmetry_space_group_name_H-M "C 2/M"
_symmetry_group_IT_number 12
_symmetry_cell_setting 'monoclinic'
loop_
_space_group_symop_operation_xyz
x,y,z
-x,y,-z
-x,-y,-z
x,-y,z
1/2+x,1/2+y,z
1/2-x,1/2+y,-z
1/2-x,1/2-y,-z
1/2+x,1/2-y,z
loop_
_atom_site_type_symbol
_atom_site_label
_atom_site_fract_x
_atom_site_fract_y
_atom_site_fract_z
Si Si1 0.509167 0.386585 0.402269
Si Si2 0.787403 0.113201 0.612831
Si Si3 0.110863 0.857391 0.105440
Si Si4 0.408442 0.311499 0.758890
Si Si5 0.110183 0.313168 0.890388
Si Si6 0.099919 0.637685 0.081126
Si Si7 0.519086 0.894235 0.247974
Si Si8 0.573433 0.400659 0.899042
O O1 0.510419 0.500000 0.398409
O O2 0.641757 0.354934 0.366523
O O3 0.383447 0.358219 0.509028
O O4 0.508188 0.345790 0.339773
O O5 0.633730 0.136129 0.684457
O O6 0.792860 0.000000 0.611912
O O7 0.052070 0.854312 0.200699
O O8 0.111312 0.749139 0.085101
O O9 0.028274 0.904877 0.099499
O O10 0.264544 0.890935 0.023079
O O11 0.255827 0.345277 0.830860
O O12 0.417189 0.197568 0.757059
O O13 0.133258 0.203516 0.861163
O O14 0.037020 0.373148 0.880531
O O15 0.000000 0.313249 0.000000
O O16 0.092288 0.597150 0.148041
O O17 0.518195 0.000000 0.274642
O O18 0.652908 0.500000 0.855817
O O19 0.500000 0.399196 0.000000
#
# Coordination Sequence:
#
# PCOD9174568 Si02
#       8
#     8   8   8   8   8   8   8   8
#     4   9  18  34  59  82 102 133 174 219 271 326
#     4   8  16  35  57  79 106 134 170 222 270 316
#     4   9  18  31  45  68 100 133 175 218 260 294
#     4  11  21  32  53  81 108 142 176 217 272 320
#     4  10  18  32  49  67  99 140 175 212 262 309
#     4   9  17  31  48  64  95 141 173 209 255 303
#     4  10  21  33  50  77 108 138 175 220 265 315
#     4   9  19  31  47  68  92 134 184 222 252 300
#
# _framework density 19.173801000000001
#
# number of rings (size 3 to 8) (size 9 to 14) (size 15 to 20)
#    0.000    2.625    1.250    1.500    5.250    2.000 
#    0.000    0.000    0.000    0.750    0.000    1.750 
#    0.000    0.000    0.000    0.000    0.000    0.000 
#
# Total GULP energy -178153.195602 kJ/mol
# GULP energy per Si atom -5567.287363 kJ/mol
# Density = 1.913016 g / cm^3
# Si number density = 19.173801 Si / 1000 Ang^3
#
#
#
# Elastic Constant Matrix: (Units=GPa)
#
#
# Indices 1 2 3 4 5 6 
#
# 1 85.9305 6.6714 29.1032 0.0000 16.7212 0.0000
# 2 6.6714 49.3619 3.6037 0.0000 12.1244 0.0000
# 3 29.1032 3.6037 62.0164 -0.0001 13.0574 0.0001
# 4 0.0000 0.0000 -0.0001 -38.3097 0.0000 -38.0164
# 5 16.7212 12.1244 13.0574 0.0000 33.3759 0.0000
# 6 0.0000 0.0000 0.0001 -38.0164 0.0000 -32.6327
#
#
#
# Elastic Compliance Matrix: (Units=1/GPa)
#
#
# Indices 1 2 3 4 5 6 
#
# 1 0.014581 -0.000340 -0.005787 0.000000 -0.004917 0.000000
# 2 -0.000340 0.022262 0.000581 0.000000 -0.008144 0.000000
# 3 -0.005787 0.000581 0.019878 0.000001 -0.005088 -0.000001
# 4 0.000000 0.000000 0.000001 0.167262 0.000000 -0.194857
# 5 -0.004917 -0.008144 -0.005088 0.000000 0.037374 0.000001
# 6 0.000000 0.000000 -0.000001 -0.194857 0.000001 0.196360
#
#
# Mechanical properties :
#
#
# Convention : Reuss Voigt Hill
#
# Bulk Modulus (GPa) = 21.91664 30.67393 26.29529
# Shear Modulus (GPa) = 10.33013 3.01542 6.67277
#
# Velocity S-wave (km/s) = 2.32364 1.25542 1.86754
# Velocity P-wave (km/s) = 4.31908 4.25841 4.28885
#
# Compressibility (1/GPa) = 0.04562742
#
# Stress axis : x y z
#
# Youngs Moduli (GPa) = 68.58420 44.91864 50.30615
#
# Poissons Ratio (x) = 0.01529 0.29114
# Poissons Ratio (y) = 0.02334 -0.02922
# Poissons Ratio (z) = 0.39692 -0.02609
#
# Static dielectric constant tensor:
#      x y z
#    x 1.723620 0.000000 -0.022190 
#    y 0.000000 1.745900 0.000000 
#    z -0.022190 0.000000 1.664090 
# 
# From -- ./inp_files/340159.got.cif
#   From: 2010.05.17/outbox.cif.g08.bks.cpg/sg12_171_cif.got.tgz:340159.got - 2010.06.03 13:09:07.
