data_PCOD9174418
_publ_section_title
;
Structure prediction by ZEFSAII (Michael W. Deem and Ramdas Pophale) SiO2 
 PCOD9174418
Probable space group: C 2/M
;
_chemical_formula_sum "Si O2"
_cell_formula_units_Z 64
_cell_length_a 15.855364
_cell_length_b 8.399299
_cell_length_c 25.393055
_cell_angle_alpha 90.000000
_cell_angle_beta 73.080983
_cell_angle_gamma 90.000000
_cell_volume 3235.323580
_symmetry_space_group_name_H-M "C 2/M"
_symmetry_group_IT_number 12
_symmetry_cell_setting 'monoclinic'
loop_
_space_group_symop_operation_xyz
x,y,z
-x,y,-z
-x,-y,-z
x,-y,z
1/2+x,1/2+y,z
1/2-x,1/2+y,-z
1/2-x,1/2-y,-z
1/2+x,1/2-y,z
loop_
_atom_site_type_symbol
_atom_site_label
_atom_site_fract_x
_atom_site_fract_y
_atom_site_fract_z
Si Si1 0.207445 0.312313 0.393793
Si Si2 0.462395 0.807476 0.879378
Si Si3 0.896392 0.686862 0.376254
Si Si4 0.409491 0.690802 0.681627
Si Si5 0.839557 0.192035 0.808005
Si Si6 0.351559 0.805535 0.118790
Si Si7 0.094620 0.811996 0.508761
Si Si8 0.846275 0.307726 0.999346
O O1 0.202729 0.500000 0.403859
O O2 0.308496 0.261439 0.367286
O O3 0.145532 0.265858 0.356178
O O4 0.168772 0.225107 0.452299
O O5 0.408024 0.744999 0.839991
O O6 0.563894 0.755772 0.863017
O O7 0.415248 0.755580 0.942341
O O8 0.460084 0.000000 0.878613
O O9 0.897903 0.500000 0.365219
O O10 0.891744 0.718311 0.439828
O O11 0.988077 0.762787 0.340800
O O12 0.401936 0.500000 0.678561
O O13 0.369653 0.744179 0.744722
O O14 0.742082 0.249368 0.841898
O O15 0.837323 0.000000 0.807997
O O16 0.363923 0.754761 0.055833
O O17 0.350171 0.000000 0.118854
O O18 0.000000 0.771234 0.500000
O O19 0.093778 0.000000 0.521338
O O20 0.847450 0.500000 0.999574
O O21 0.750000 0.250000 0.000000
#
# Coordination Sequence:
#
# PCOD9174418 Si02
#       8
#     8   8   8   8   8   8   8   8
#     4  12  25  42  66  95 128 164 204 250 307 367
#     4  10  20  34  57  87 115 150 197 243 287 352
#     4  12  25  42  66  94 126 164 206 252 308 365
#     4  11  24  43  63  88 121 160 211 259 307 362
#     4  10  22  40  61  83 114 155 194 244 300 353
#     4   9  18  35  57  82 115 154 191 233 292 355
#     4  11  22  39  66  96 131 166 200 248 303 361
#     4  10  18  31  55  83 115 151 191 237 292 352
#
# _framework density 19.781638000000001
#
# number of rings (size 3 to 8) (size 9 to 14) (size 15 to 20)
#    0.000    1.375    2.500    3.750    0.000    4.000 
#    0.000    2.500    0.000    1.500    0.000    0.000 
#    0.000    0.000    0.000    0.000    0.000    0.000 
#
# Total GULP energy -178909.751817 kJ/mol
# GULP energy per Si atom -5590.929744 kJ/mol
# Density = 1.973661 g / cm^3
# Si number density = 19.781638 Si / 1000 Ang^3
#
#
#
# Elastic Constant Matrix: (Units=GPa)
#
#
# Indices 1 2 3 4 5 6 
#
# 1 117.3709 -2.7448 17.0151 0.0000 -8.0250 0.0000
# 2 -2.7448 13.5595 -11.3610 0.0000 -0.7783 0.0000
# 3 17.0151 -11.3610 87.8103 0.0000 0.0350 0.0000
# 4 0.0000 0.0000 0.0000 18.8691 0.0000 4.6169
# 5 -8.0250 -0.7783 0.0350 0.0000 -3.2403 0.0000
# 6 0.0000 0.0000 0.0000 4.6169 0.0000 32.5458
#
#
#
# Elastic Compliance Matrix: (Units=1/GPa)
#
#
# Indices 1 2 3 4 5 6 
#
# 1 0.007472 -0.000837 -0.001549 0.000000 -0.018322 0.000000
# 2 -0.000837 0.081564 0.010722 0.000000 -0.017403 0.000000
# 3 -0.001549 0.010722 0.013075 0.000000 0.001402 0.000000
# 4 0.000000 0.000000 0.000000 0.054902 0.000000 -0.007788
# 5 -0.018322 -0.017403 0.001402 0.000000 -0.259045 0.000000
# 6 0.000000 0.000000 0.000000 -0.007788 0.000000 0.031831
#
#
# Mechanical properties :
#
#
# Convention : Reuss Voigt Hill
#
# Bulk Modulus (GPa) = 8.41867 24.95104 16.68485
# Shear Modulus (GPa) = -105.75525 24.02370 -40.86577
#
# Velocity S-wave (km/s) = -7.31966 3.48867 -4.55009
# Velocity P-wave (km/s) = 8.19582 5.37293 4.37625
#
# Compressibility (1/GPa) = 0.11878365
#
# Stress axis : x y z
#
# Youngs Moduli (GPa) = 133.82856 12.26032 76.48202
#
# Poissons Ratio (x) = 0.01026 0.11846
# Poissons Ratio (y) = 0.11199 -0.82003
# Poissons Ratio (z) = 0.20728 -0.13145
#
# Static dielectric constant tensor:
#      x y z
#    x 1.677880 0.000000 -0.014390 
#    y 0.000000 1.685760 0.000000 
#    z -0.014390 0.000000 1.678340 
# 
# From -- ./inp_files/359713.got.cif
#   From: 2010.05.17/outbox.cif.g08.bks.cpg/sg12_180_cif.got.tgz:359713.got - 2010.06.03 13:09:07.
