data_PCOD9174042
_publ_section_title
;
Structure prediction by ZEFSAII (Michael W. Deem and Ramdas Pophale) SiO2 
 PCOD9174042
Probable space group: C 2/M
;
_chemical_formula_sum "Si O2"
_cell_formula_units_Z 52
_cell_length_a 15.704054
_cell_length_b 13.358434
_cell_length_c 11.307988
_cell_angle_alpha 90.000000
_cell_angle_beta 87.474774
_cell_angle_gamma 90.000000
_cell_volume 2369.903861
_symmetry_space_group_name_H-M "C 2/M"
_symmetry_group_IT_number 12
_symmetry_cell_setting 'monoclinic'
loop_
_space_group_symop_operation_xyz
x,y,z
-x,y,-z
-x,-y,-z
x,-y,z
1/2+x,1/2+y,z
1/2-x,1/2+y,-z
1/2-x,1/2-y,-z
1/2+x,1/2-y,z
loop_
_atom_site_type_symbol
_atom_site_label
_atom_site_fract_x
_atom_site_fract_y
_atom_site_fract_z
Si Si1 0.220344 0.819723 0.220216
Si Si2 0.116311 0.384545 0.916629
Si Si3 0.684158 0.115437 0.555252
Si Si4 0.526798 0.614241 0.237932
Si Si5 0.675283 0.111513 0.286822
Si Si6 0.000000 0.778851 0.000000
Si Si7 0.518999 0.823389 0.679159
O O1 0.285908 0.866285 0.123545
O O2 0.259363 0.831200 0.349736
O O3 0.128881 0.872254 0.224659
O O4 0.210123 0.700738 0.205205
O O5 0.101868 0.500000 0.953082
O O6 0.065368 0.360119 0.797438
O O7 0.078826 0.299292 0.005014
O O8 0.711890 0.122031 0.417912
O O9 0.585905 0.148160 0.574485
O O10 0.686990 0.000000 0.590345
O O11 0.504652 0.500000 0.268181
O O12 0.491916 0.650099 0.112989
O O13 0.493416 0.703477 0.323155
O O14 0.573787 0.127302 0.309781
O O15 0.692434 0.000000 0.241365
#
# Coordination Sequence:
#
# PCOD9174042 Si02
#       7
#     8   8   8   8   8   4   8
#     4  10  20  34  52  74 103 136 168 200 248 306
#     4  10  19  35  56  77 102 129 163 206 253 300
#     4  10  18  31  52  76 103 136 173 211 247 282
#     4  10  20  36  54  72 101 135 166 203 252 306
#     4  10  19  31  50  77 107 136 169 209 247 285
#     4  10  22  36  56  80  96 122 166 214 254 300
#     4   9  18  31  52  77 102 135 173 207 245 290
#
# _framework density 21.941818000000001
#
# number of rings (size 3 to 8) (size 9 to 14) (size 15 to 20)
#    0.000    2.154    0.000    5.077    0.000    1.846 
#    0.000    8.462    0.000    9.231    0.000    0.000 
#    0.000    0.000    0.000    0.000    0.000    0.000 
#
# Total GULP energy -145228.199943 kJ/mol
# GULP energy per Si atom -5585.699998 kJ/mol
# Density = 2.189188 g / cm^3
# Si number density = 21.941818 Si / 1000 Ang^3
#
#
#
# Elastic Constant Matrix: (Units=GPa)
#
#
# Indices 1 2 3 4 5 6 
#
# 1 41.5653 18.1117 -2.7279 0.0000 7.9695 0.0000
# 2 18.1117 171.4299 -1.0997 0.0000 -0.6131 0.0000
# 3 -2.7279 -1.0997 20.5384 0.0000 7.3865 0.0000
# 4 0.0000 0.0000 0.0000 4.4372 0.0000 8.5402
# 5 7.9695 -0.6131 7.3865 0.0000 15.5753 0.0000
# 6 0.0000 0.0000 0.0000 8.5402 0.0000 12.7418
#
#
#
# Elastic Compliance Matrix: (Units=1/GPa)
#
#
# Indices 1 2 3 4 5 6 
#
# 1 0.030224 -0.003195 0.011393 0.000000 -0.020994 0.000000
# 2 -0.003195 0.006173 -0.000927 0.000000 0.002318 0.000000
# 3 0.011393 -0.000927 0.063009 0.000000 -0.035748 0.000000
# 4 0.000000 0.000000 0.000000 -0.777115 0.000000 0.520860
# 5 -0.020994 0.002318 -0.035748 0.000000 0.091991 0.000000
# 6 0.000000 0.000000 0.000000 0.520860 0.000000 -0.270623
#
#
# Mechanical properties :
#
#
# Convention : Reuss Voigt Hill
#
# Bulk Modulus (GPa) = 8.77591 29.12241 18.94916
# Shear Modulus (GPa) = -6.00312 21.16750 7.58219
#
# Velocity S-wave (km/s) = -1.65586 3.10935 1.86094
# Velocity P-wave (km/s) = 0.59371 5.11782 3.64312
#
# Compressibility (1/GPa) = 0.11394825
#
# Stress axis : x y z
#
# Youngs Moduli (GPa) = 33.08656 161.99056 15.87065
#
# Poissons Ratio (x) = 0.51758 -0.18082
# Poissons Ratio (y) = 0.10572 0.01472
# Poissons Ratio (z) = -0.37697 0.15023
#
# Static dielectric constant tensor:
#      x y z
#    x 1.802280 0.000000 0.020490 
#    y 0.000000 1.783580 0.000000 
#    z 0.020490 0.000000 1.862510 
# 
# From -- ./inp_files/213422.got.cif
#   From: 2010.05.17/outbox.cif.g08.bks.cpg/sg12_107_cif.got.tgz:213422.got - 2010.06.03 13:09:07.
