data_PCOD9174837
_publ_section_title
;
Structure prediction by ZEFSAII (Michael W. Deem and Ramdas Pophale) SiO2 
 PCOD9174837
Probable space group: C 2/M
;
_chemical_formula_sum "Si O2"
_cell_formula_units_Z 48
_cell_length_a 8.440133
_cell_length_b 28.128288
_cell_length_c 14.175856
_cell_angle_alpha 90.000000
_cell_angle_beta 133.911100
_cell_angle_gamma 90.000000
_cell_volume 2424.519569
_symmetry_space_group_name_H-M "C 2/M"
_symmetry_group_IT_number 12
_symmetry_cell_setting 'monoclinic'
loop_
_space_group_symop_operation_xyz
x,y,z
-x,y,-z
-x,-y,-z
x,-y,z
1/2+x,1/2+y,z
1/2-x,1/2+y,-z
1/2-x,1/2-y,-z
1/2+x,1/2-y,z
loop_
_atom_site_type_symbol
_atom_site_label
_atom_site_fract_x
_atom_site_fract_y
_atom_site_fract_z
Si Si1 0.671047 0.593138 0.357411
Si Si2 0.012821 0.443737 0.655366
Si Si3 0.731223 0.201601 0.640394
Si Si4 0.309636 0.606930 0.340775
Si Si5 0.356562 0.770126 0.195337
Si Si6 0.444247 0.818006 0.881546
O O1 0.838751 0.569792 0.501217
O O2 0.697088 0.650519 0.370210
O O3 0.433265 0.582051 0.303428
O O4 0.755824 0.576005 0.290221
O O5 0.027331 0.500000 0.671985
O O6 0.896055 0.420471 0.697897
O O7 0.500000 0.215681 0.500000
O O8 0.687304 0.196588 0.733714
O O9 0.909362 0.242943 0.699617
O O10 0.500000 0.613854 0.500000
O O11 0.209891 0.654787 0.255944
O O12 0.353345 0.799053 0.097062
O O13 0.186477 0.727406 0.133582
O O14 0.500000 0.846422 0.000000
#
# Coordination Sequence:
#
# PCOD9174837 Si02
#       6
#     8   8   8   8   8   8
#     4  10  18  32  53  78 119 144 181 226 287 333
#     4  10  20  34  56  83 113 147 179 228 292 352
#     4  11  19  33  51  81 116 153 186 234 283 330
#     4  10  22  36  58  85 117 143 187 237 288 342
#     4  10  23  33  52  77 110 153 203 230 273 329
#     4  11  22  39  56  78 112 154 195 237 281 328
#
# _framework density 19.797737000000001
#
# number of rings (size 3 to 8) (size 9 to 14) (size 15 to 20)
#    0.000    1.667    3.333    3.000    2.333    6.333 
#    0.000    0.000    0.000    0.500    0.000    1.167 
#    0.000    0.000    0.000    0.000    0.000    0.000 
#
# Total GULP energy -133775.378070 kJ/mol
# GULP energy per Si atom -5573.974086 kJ/mol
# Density = 1.975268 g / cm^3
# Si number density = 19.797737 Si / 1000 Ang^3
#
#
#
# Elastic Constant Matrix: (Units=GPa)
#
#
# Indices 1 2 3 4 5 6 
#
# 1 151.1008 27.4034 22.2385 0.0000 -32.5027 0.0000
# 2 27.4034 64.4660 21.5701 0.0000 -6.1410 0.0000
# 3 22.2385 21.5701 43.4317 0.0000 -12.9549 0.0000
# 4 0.0000 0.0000 0.0000 5.1167 0.0000 -0.5058
# 5 -32.5027 -6.1410 -12.9549 0.0000 18.5141 0.0000
# 6 0.0000 0.0000 0.0000 -0.5058 0.0000 25.3120
#
#
#
# Elastic Compliance Matrix: (Units=1/GPa)
#
#
# Indices 1 2 3 4 5 6 
#
# 1 0.011270 -0.003539 0.001944 0.000000 0.019971 0.000000
# 2 -0.003539 0.019717 -0.009962 0.000000 -0.006643 0.000000
# 3 0.001944 -0.009962 0.034133 0.000000 0.023993 0.000000
# 4 0.000000 0.000000 0.000000 0.195825 0.000000 0.003913
# 5 0.019971 -0.006643 0.023993 0.000000 0.103658 0.000000
# 6 0.000000 0.000000 0.000000 0.003913 0.000000 0.039585
#
#
# Mechanical properties :
#
#
# Convention : Reuss Voigt Hill
#
# Bulk Modulus (GPa) = 23.80556 44.60250 34.20403
# Shear Modulus (GPa) = 11.33011 22.30768 16.81889
#
# Velocity S-wave (km/s) = 2.39486 3.36039 2.91784
# Velocity P-wave (km/s) = 4.43820 6.13468 5.35406
#
# Compressibility (1/GPa) = 0.04200700
#
# Stress axis : x y z
#
# Youngs Moduli (GPa) = 88.73418 50.71872 29.29695
#
# Poissons Ratio (x) = 0.17947 -0.05695
# Poissons Ratio (y) = 0.31399 0.29185
# Poissons Ratio (z) = -0.17250 0.50524
#
# Static dielectric constant tensor:
#      x y z
#    x 1.793840 0.000000 -0.046070 
#    y 0.000000 1.675090 0.000000 
#    z -0.046070 0.000000 1.765290 
# 
# From -- ./inp_files/123102.got.cif
#   From: 2010.05.17/outbox.cif.g08.bks.cpg/sg12_62_cif.got.tgz:123102.got - 2010.06.03 13:09:07.
