data_PCOD9174054
_publ_section_title
;
Structure prediction by ZEFSAII (Michael W. Deem and Ramdas Pophale) SiO2 
 PCOD9174054
Probable space group: C 2/M
;
_chemical_formula_sum "Si O2"
_cell_formula_units_Z 56
_cell_length_a 24.767875
_cell_length_b 7.519766
_cell_length_c 15.335756
_cell_angle_alpha 90.000000
_cell_angle_beta 63.430107
_cell_angle_gamma 90.000000
_cell_volume 2554.611748
_symmetry_space_group_name_H-M "C 2/M"
_symmetry_group_IT_number 12
_symmetry_cell_setting 'monoclinic'
loop_
_space_group_symop_operation_xyz
x,y,z
-x,y,-z
-x,-y,-z
x,-y,z
1/2+x,1/2+y,z
1/2-x,1/2+y,-z
1/2-x,1/2-y,-z
1/2+x,1/2-y,z
loop_
_atom_site_type_symbol
_atom_site_label
_atom_site_fract_x
_atom_site_fract_y
_atom_site_fract_z
Si Si1 0.156993 0.283781 0.562777
Si Si2 0.969848 0.282621 0.283783
Si Si3 0.104092 0.281870 0.187823
Si Si4 0.727500 0.797809 0.176279
Si Si5 0.644371 0.794993 0.970170
Si Si6 0.745077 0.204272 0.649861
Si Si7 0.554899 0.784555 0.895322
O O1 0.160744 0.500000 0.557296
O O2 0.087430 0.229461 0.616954
O O3 0.196158 0.214133 0.454299
O O4 0.191013 0.227267 0.627472
O O5 0.969906 0.500000 0.283568
O O6 0.956742 0.221768 0.194035
O O7 0.036848 0.224671 0.262134
O O8 0.103000 0.500000 0.190132
O O9 0.161106 0.223977 0.204312
O O10 0.118553 0.220381 0.078698
O O11 0.783805 0.710348 0.087064
O O12 0.741553 0.794410 0.268566
O O13 0.727642 0.000000 0.144359
O O14 0.614598 0.721065 0.903191
O O15 0.624812 0.000000 0.986320
O O16 0.730293 0.000000 0.682173
O O17 0.557369 0.000000 0.884962
O O18 0.500000 0.741826 0.000000
#
# Coordination Sequence:
#
# PCOD9174054 Si02
#       7
#     8   8   8   8   8   8   8
#     4   9  18  33  57  84 104 124 158 209 264 308
#     4   9  15  27  48  77 106 130 163 209 256 297
#     4   9  18  31  48  73 104 137 173 212 248 294
#     4  11  22  34  49  72 103 139 176 210 250 295
#     4  10  18  31  52  77 102 133 174 214 256 299
#     4  10  20  36  56  79 103 129 165 207 255 308
#     4   9  14  23  45  77 105 127 159 206 251 291
#
# _framework density 21.921140000000001
#
# number of rings (size 3 to 8) (size 9 to 14) (size 15 to 20)
#    0.000    2.429    1.429    2.143    0.000    2.857 
#    0.000    1.429    0.000    7.286    0.000    0.000 
#    0.000    0.000    0.000    0.000    0.000    0.000 
#
# Total GULP energy -156326.979423 kJ/mol
# GULP energy per Si atom -5583.106408 kJ/mol
# Density = 2.187125 g / cm^3
# Si number density = 21.921140 Si / 1000 Ang^3
#
#
#
# Elastic Constant Matrix: (Units=GPa)
#
#
# Indices 1 2 3 4 5 6 
#
# 1 125.8458 -2.1276 30.8794 0.0000 -36.5376 0.0000
# 2 -2.1276 50.0670 -8.8988 0.0001 2.5984 -0.0002
# 3 30.8794 -8.8988 43.4385 0.0000 -22.8154 0.0000
# 4 0.0000 0.0001 0.0000 1.5716 0.0000 -8.6102
# 5 -36.5376 2.5984 -22.8154 0.0000 33.4695 0.0000
# 6 0.0000 -0.0002 0.0000 -8.6102 0.0000 9.6396
#
#
#
# Elastic Compliance Matrix: (Units=1/GPa)
#
#
# Indices 1 2 3 4 5 6 
#
# 1 0.011824 -0.000550 -0.002673 0.000000 0.011128 0.000000
# 2 -0.000550 0.020840 0.005444 0.000000 0.001493 0.000000
# 3 -0.002673 0.005444 0.037825 0.000000 0.022443 0.000000
# 4 0.000000 0.000000 0.000000 -0.163425 0.000000 -0.145972
# 5 0.011128 0.001493 0.022443 0.000000 0.057209 0.000000
# 6 0.000000 0.000000 0.000000 -0.145972 0.000000 -0.026644
#
#
# Mechanical properties :
#
#
# Convention : Reuss Voigt Hill
#
# Bulk Modulus (GPa) = 13.34561 28.78415 21.06488
# Shear Modulus (GPa) = -119.51241 22.23604 -48.63819
#
# Velocity S-wave (km/s) = -7.39173 3.18837 -4.71550
# Velocity P-wave (km/s) = 8.17000 5.16851 4.47412
#
# Compressibility (1/GPa) = 0.07493102
#
# Stress axis : x y z
#
# Youngs Moduli (GPa) = 84.57566 47.98444 26.43777
#
# Poissons Ratio (x) = 0.02640 0.07067
# Poissons Ratio (y) = 0.04653 -0.14394
# Poissons Ratio (z) = 0.22608 -0.26125
#
# Static dielectric constant tensor:
#      x y z
#    x 1.824340 0.000000 -0.009290 
#    y 0.000000 1.866850 0.000000 
#    z -0.009290 0.000000 1.757140 
# 
# From -- ./inp_files/238276.got.cif
#   From: 2010.05.17/outbox.cif.g08.bks.cpg/sg12_120_cif.got.tgz:238276.got - 2010.06.03 13:09:07.
