data_PCOD9174879
_publ_section_title
;
Structure prediction by ZEFSAII (Michael W. Deem and Ramdas Pophale) SiO2 
 PCOD9174879
Probable space group: C 2/M
;
_chemical_formula_sum "Si O2"
_cell_formula_units_Z 64
_cell_length_a 15.147131
_cell_length_b 7.457614
_cell_length_c 30.870466
_cell_angle_alpha 90.000000
_cell_angle_beta 60.767832
_cell_angle_gamma 90.000000
_cell_volume 3043.074493
_symmetry_space_group_name_H-M "C 2/M"
_symmetry_group_IT_number 12
_symmetry_cell_setting 'monoclinic'
loop_
_space_group_symop_operation_xyz
x,y,z
-x,y,-z
-x,-y,-z
x,-y,z
1/2+x,1/2+y,z
1/2-x,1/2+y,-z
1/2-x,1/2-y,-z
1/2+x,1/2-y,z
loop_
_atom_site_type_symbol
_atom_site_label
_atom_site_fract_x
_atom_site_fract_y
_atom_site_fract_z
Si Si1 0.801513 0.283809 0.378598
Si Si2 0.425202 0.790774 0.811793
Si Si3 0.922986 0.219688 0.555415
Si Si4 0.178338 0.717716 0.076238
Si Si5 0.645025 0.218986 0.731455
Si Si6 0.015126 0.790219 0.364722
Si Si7 0.831739 0.216676 0.744756
Si Si8 0.903938 0.288828 0.996033
O O1 0.800408 0.500000 0.377788
O O2 0.693334 0.225106 0.422548
O O3 0.819818 0.222238 0.324717
O O4 0.897204 0.227308 0.383625
O O5 0.376342 0.716769 0.867215
O O6 0.533297 0.715921 0.770456
O O7 0.350908 0.778394 0.788720
O O8 0.444182 0.000000 0.816308
O O9 0.955667 0.282159 0.595394
O O10 0.000000 0.279874 0.500000
O O11 0.925537 0.000000 0.554500
O O12 0.177256 0.500000 0.075832
O O13 0.121159 0.782233 0.046309
O O14 0.296480 0.769602 0.046139
O O15 0.727159 0.271454 0.747533
O O16 0.643962 0.000000 0.730185
O O17 0.078740 0.717646 0.308753
O O18 0.042581 0.000000 0.359842
O O19 0.834169 0.000000 0.745557
O O20 0.924582 0.500000 0.985234
O O21 0.000000 0.215413 0.000000
#
# Coordination Sequence:
#
# PCOD9174879 Si02
#       8
#     8   8   8   8   8   8   8   8
#     4  10  18  32  54  75  96 130 171 204 248 309
#     4  10  20  34  51  74 106 137 167 206 253 302
#     4   9  18  33  53  75 100 132 170 210 253 307
#     4   9  19  34  51  76 108 137 165 206 257 302
#     4   9  17  31  51  72  96 132 171 204 244 301
#     4  10  19  32  51  75 101 128 165 213 257 297
#     4  10  19  32  51  74  98 131 173 212 249 295
#     4   9  18  34  57  80 101 132 175 213 247 292
#
# _framework density 21.031362000000001
#
# number of rings (size 3 to 8) (size 9 to 14) (size 15 to 20)
#    0.000    2.500    2.500    0.000    0.000    2.250 
#    0.000    4.375    0.000    0.750    0.000    0.000 
#    0.000    0.000    0.000    0.000    0.000    0.000 
#
# Total GULP energy -178636.830600 kJ/mol
# GULP energy per Si atom -5582.400956 kJ/mol
# Density = 2.098349 g / cm^3
# Si number density = 21.031362 Si / 1000 Ang^3
#
#
#
# Elastic Constant Matrix: (Units=GPa)
#
#
# Indices 1 2 3 4 5 6 
#
# 1 85.4260 -6.8289 -4.6395 -0.0008 2.0467 -0.0001
# 2 -6.8289 56.4776 3.2528 -0.0009 0.8322 0.0000
# 3 -4.6395 3.2528 75.8120 -0.0009 3.2406 -0.0001
# 4 -0.0008 -0.0009 -0.0009 -107.7107 -0.0003 10.8111
# 5 2.0467 0.8322 3.2406 -0.0003 19.0123 0.0000
# 6 -0.0001 0.0000 -0.0001 10.8111 0.0000 13.5425
#
#
#
# Elastic Compliance Matrix: (Units=1/GPa)
#
#
# Indices 1 2 3 4 5 6 
#
# 1 0.011894 0.001418 0.000730 0.000000 -0.001467 0.000000
# 2 0.001418 0.017927 -0.000647 0.000000 -0.000827 0.000000
# 3 0.000730 -0.000647 0.013362 0.000000 -0.002328 0.000000
# 4 0.000000 0.000000 0.000000 -0.008595 0.000000 0.006862
# 5 -0.001467 -0.000827 -0.002328 0.000000 0.053188 0.000000
# 6 0.000000 0.000000 0.000000 0.006862 0.000000 0.068364
#
#
# Mechanical properties :
#
#
# Convention : Reuss Voigt Hill
#
# Bulk Modulus (GPa) = 21.65227 22.36492 22.00860
# Shear Modulus (GPa) = 29.66757 0.03091 14.84924
#
# Velocity S-wave (km/s) = 3.75992 0.12136 2.66005
# Velocity P-wave (km/s) = 5.40064 3.26754 4.46339
#
# Compressibility (1/GPa) = 0.04618453
#
# Stress axis : x y z
#
# Youngs Moduli (GPa) = 84.07497 55.78172 74.83657
#
# Poissons Ratio (x) = -0.07908 -0.05461
# Poissons Ratio (y) = -0.11920 0.04842
# Poissons Ratio (z) = -0.06135 0.03609
#
# Static dielectric constant tensor:
#      x y z
#    x 1.720930 0.000000 -0.001760 
#    y 0.000000 1.820890 0.000000 
#    z -0.001760 0.000000 1.732390 
# 
# From -- ./inp_files/335246.got.cif
#   From: 2010.05.17/outbox.cif.g08.bks.cpg/sg12_168_cif.got.tgz:335246.got - 2010.06.03 13:09:07.
