data_PCOD9174952
_publ_section_title
;
Structure prediction by ZEFSAII (Michael W. Deem and Ramdas Pophale) SiO2 
 PCOD9174952
Probable space group: C 2/M
;
_chemical_formula_sum "Si O2"
_cell_formula_units_Z 56
_cell_length_a 19.551286
_cell_length_b 9.133258
_cell_length_c 19.315511
_cell_angle_alpha 90.000000
_cell_angle_beta 120.313435
_cell_angle_gamma 90.000000
_cell_volume 2977.539552
_symmetry_space_group_name_H-M "C 2/M"
_symmetry_group_IT_number 12
_symmetry_cell_setting 'monoclinic'
loop_
_space_group_symop_operation_xyz
x,y,z
-x,y,-z
-x,-y,-z
x,-y,z
1/2+x,1/2+y,z
1/2-x,1/2+y,-z
1/2-x,1/2-y,-z
1/2+x,1/2-y,z
loop_
_atom_site_type_symbol
_atom_site_label
_atom_site_fract_x
_atom_site_fract_y
_atom_site_fract_z
Si Si1 0.512072 0.675659 0.828685
Si Si2 0.914899 0.668230 0.496168
Si Si3 0.661948 0.327006 0.666790
Si Si4 0.071248 0.674498 0.089649
Si Si5 0.730744 0.330902 0.171521
Si Si6 0.493536 0.327307 0.657978
Si Si7 0.820839 0.670170 0.076047
O O1 0.513758 0.500000 0.837511
O O2 0.450215 0.749093 0.848928
O O3 0.493957 0.709797 0.739129
O O4 0.597419 0.744033 0.890584
O O5 0.889428 0.500000 0.487503
O O6 0.856686 0.761389 0.418058
O O7 0.000000 0.671595 0.500000
O O8 0.932878 0.736665 0.580020
O O9 0.677085 0.500000 0.671366
O O10 0.731777 0.244007 0.742025
O O11 0.581581 0.304746 0.671147
O O12 0.077634 0.500000 0.100311
O O13 0.153836 0.742713 0.107498
O O14 0.000000 0.706102 0.000000
O O15 0.709982 0.500000 0.173854
O O16 0.795476 0.327263 0.143565
O O17 0.476307 0.500000 0.641621
O O18 0.828933 0.500000 0.058436
O O19 0.750000 0.750000 0.000000
#
# Coordination Sequence:
#
# PCOD9174952 Si02
#       7
#     8   8   8   8   8   8   8
#     4  11  22  38  60  85 115 149 190 237 286 341
#     4   9  17  28  47  78 115 151 186 229 276 329
#     4  10  18  32  54  81 115 151 188 231 280 337
#     4  11  25  43  61  82 111 151 196 239 287 346
#     4  11  23  38  58  84 114 149 190 238 286 339
#     4   9  18  32  52  81 114 150 187 228 280 336
#     4  11  23  37  57  84 114 146 185 235 290 342
#
# _framework density 18.807473999999999
#
# number of rings (size 3 to 8) (size 9 to 14) (size 15 to 20)
#    0.000    1.714    1.429    3.429    0.000    8.571 
#    0.000    0.000    0.000    0.857    0.000    0.000 
#    0.000    0.000    0.000    0.000    0.000    0.000 
#
# Total GULP energy -156430.336781 kJ/mol
# GULP energy per Si atom -5586.797742 kJ/mol
# Density = 1.876467 g / cm^3
# Si number density = 18.807474 Si / 1000 Ang^3
#
#
#
# Elastic Constant Matrix: (Units=GPa)
#
#
# Indices 1 2 3 4 5 6 
#
# 1 27.9320 9.4988 -11.4771 0.0000 -3.2762 0.0000
# 2 9.4988 94.8715 53.2080 0.0000 2.4205 0.0000
# 3 -11.4771 53.2080 87.2654 0.0000 1.8773 0.0000
# 4 0.0000 0.0000 0.0000 33.5162 0.0000 4.8552
# 5 -3.2762 2.4205 1.8773 0.0000 23.8483 0.0000
# 6 0.0000 0.0000 0.0000 4.8552 0.0000 26.3188
#
#
#
# Elastic Compliance Matrix: (Units=1/GPa)
#
#
# Indices 1 2 3 4 5 6 
#
# 1 0.046325 -0.012375 0.013497 0.000000 0.006558 0.000000
# 2 -0.012375 0.019342 -0.013364 0.000000 -0.002611 0.000000
# 3 0.013497 -0.013364 0.021350 0.000000 0.001530 0.000000
# 4 0.000000 0.000000 0.000000 0.030656 0.000000 -0.005655
# 5 0.006558 -0.002611 0.001530 0.000000 0.042977 0.000000
# 6 0.000000 0.000000 0.000000 -0.005655 0.000000 0.039039
#
#
# Mechanical properties :
#
#
# Convention : Reuss Voigt Hill
#
# Bulk Modulus (GPa) = 15.99208 34.72538 25.35873
# Shear Modulus (GPa) = 20.40676 27.32594 23.86635
#
# Velocity S-wave (km/s) = 3.29756 3.81587 3.56614
# Velocity P-wave (km/s) = 4.79792 6.15777 5.51988
#
# Compressibility (1/GPa) = 0.06253097
#
# Stress axis : x y z
#
# Youngs Moduli (GPa) = 21.58684 51.70206 46.83809
#
# Poissons Ratio (x) = 0.63982 -0.63217
# Poissons Ratio (y) = 0.26714 0.62597
# Poissons Ratio (z) = -0.29136 0.69097
#
# Static dielectric constant tensor:
#      x y z
#    x 1.645680 0.000000 -0.012690 
#    y 0.000000 1.626990 0.000000 
#    z -0.012690 0.000000 1.639530 
# 
# From -- ./inp_files/281608.got.cif
#   From: 2010.05.17/outbox.cif.g08.bks.cpg/sg12_141_cif.got.tgz:281608.got - 2010.06.03 13:09:07.
