data_PCOD9174316
_publ_section_title
;
Structure prediction by ZEFSAII (Michael W. Deem and Ramdas Pophale) SiO2 
 PCOD9174316
Probable space group: C 2/M
;
_chemical_formula_sum "Si O2"
_cell_formula_units_Z 56
_cell_length_a 15.073484
_cell_length_b 7.426008
_cell_length_c 19.210166
_cell_angle_alpha 90.000000
_cell_angle_beta 99.431516
_cell_angle_gamma 90.000000
_cell_volume 2121.238088
_symmetry_space_group_name_H-M "C 2/M"
_symmetry_group_IT_number 12
_symmetry_cell_setting 'monoclinic'
loop_
_space_group_symop_operation_xyz
x,y,z
-x,y,-z
-x,-y,-z
x,-y,z
1/2+x,1/2+y,z
1/2-x,1/2+y,-z
1/2-x,1/2-y,-z
1/2+x,1/2-y,z
loop_
_atom_site_type_symbol
_atom_site_label
_atom_site_fract_x
_atom_site_fract_y
_atom_site_fract_z
Si Si1 0.142699 0.283548 0.544786
Si Si2 0.426761 0.280221 0.127576
Si Si3 0.846980 0.785032 0.978550
Si Si4 0.877989 0.215197 0.826288
Si Si5 0.187668 0.785507 0.763492
Si Si6 0.477327 0.285641 0.348017
Si Si7 0.169435 0.205543 0.388059
O O1 0.149896 0.500000 0.538660
O O2 0.054110 0.240368 0.576667
O O3 0.149758 0.203530 0.468993
O O4 0.230104 0.215654 0.600209
O O5 0.425362 0.500000 0.126331
O O6 0.520398 0.223574 0.174746
O O7 0.342568 0.222094 0.163434
O O8 0.416371 0.220360 0.046709
O O9 0.856324 0.714302 0.901587
O O10 0.859551 0.000000 0.974624
O O11 0.750000 0.750000 0.000000
O O12 0.792824 0.251370 0.766355
O O13 0.883012 0.000000 0.829235
O O14 0.108029 0.711532 0.705098
O O15 0.179282 0.000000 0.760136
O O16 0.484031 0.500000 0.335393
O O17 0.577158 0.211927 0.346974
O O18 0.176410 0.000000 0.363642
#
# Coordination Sequence:
#
# PCOD9174316 Si02
#       7
#     8   8   8   8   8   8   8
#     4  10  20  34  56  85 110 134 171 220 265 303
#     4   9  18  34  55  76 103 139 176 213 260 320
#     4  10  18  31  54  80 105 134 170 216 267 316
#     4  10  20  34  55  80 104 134 175 221 267 314
#     4  10  21  37  54  74 103 141 180 217 258 309
#     4  10  21  36  54  75 104 144 182 211 253 314
#     4   9  19  36  56  79 109 142 174 210 257 316
#
# _framework density 26.399675999999999
#
# number of rings (size 3 to 8) (size 9 to 14) (size 15 to 20)
#    0.000    2.286    1.429    1.286    0.000    6.286 
#    0.000    4.286    0.000    1.714    0.000    0.000 
#    0.000    0.000    0.000    0.000    0.000    0.000 
#
# Total GULP energy -156545.616679 kJ/mol
# GULP energy per Si atom -5590.914881 kJ/mol
# Density = 2.633959 g / cm^3
# Si number density = 26.399676 Si / 1000 Ang^3
#
#
#
# Elastic Constant Matrix: (Units=GPa)
#
#
# Indices 1 2 3 4 5 6 
#
# 1 150.9842 -6.1631 26.6625 0.0000 31.8725 0.0000
# 2 -6.1631 96.9897 -1.8608 0.0000 6.4521 0.0000
# 3 26.6625 -1.8608 105.7082 0.0000 33.4852 0.0000
# 4 0.0000 0.0000 0.0000 7.7432 0.0000 4.7664
# 5 31.8725 6.4521 33.4852 0.0000 49.2895 0.0000
# 6 0.0000 0.0000 0.0000 4.7664 0.0000 14.1534
#
#
#
# Elastic Compliance Matrix: (Units=1/GPa)
#
#
# Indices 1 2 3 4 5 6 
#
# 1 0.007750 0.000807 -0.000407 0.000000 -0.004840 0.000000
# 2 0.000807 0.010536 0.000744 0.000000 -0.002406 0.000000
# 3 -0.000407 0.000744 0.012135 0.000000 -0.008078 0.000000
# 4 0.000000 0.000000 0.000000 0.162918 0.000000 -0.054865
# 5 -0.004840 -0.002406 -0.008078 0.000000 0.029221 0.000000
# 6 0.000000 0.000000 0.000000 -0.054865 0.000000 0.089131
#
#
# Mechanical properties :
#
#
# Convention : Reuss Voigt Hill
#
# Bulk Modulus (GPa) = 30.57377 43.43994 37.00686
# Shear Modulus (GPa) = 15.61008 36.57345 26.09176
#
# Velocity S-wave (km/s) = 2.43430 3.72610 3.14719
# Velocity P-wave (km/s) = 4.41671 5.91627 5.22061
#
# Compressibility (1/GPa) = 0.03270777
#
# Stress axis : x y z
#
# Youngs Moduli (GPa) = 129.03517 94.91278 82.40860
#
# Poissons Ratio (x) = -0.07656 0.03356
# Poissons Ratio (y) = -0.10408 -0.06134
# Poissons Ratio (z) = 0.05255 -0.07064
#
# Static dielectric constant tensor:
#      x y z
#    x 2.026750 0.000000 0.029900 
#    y 0.000000 2.019670 0.000000 
#    z 0.029900 0.000000 2.095480 
# 
# From -- ./inp_files/309512.got.cif
#   From: 2010.05.17/outbox.cif.g08.bks.cpg/sg12_155_cif.got.tgz:309512.got - 2010.06.03 13:09:07.
