data_PCOD9174995
_publ_section_title
;
Structure prediction by ZEFSAII (Michael W. Deem and Ramdas Pophale) SiO2 
 PCOD9174995
Probable space group: C 2/M
;
_chemical_formula_sum "Si O2"
_cell_formula_units_Z 58
_cell_length_a 14.970260
_cell_length_b 7.336514
_cell_length_c 23.498933
_cell_angle_alpha 90.000000
_cell_angle_beta 81.390345
_cell_angle_gamma 90.000000
_cell_volume 2551.793118
_symmetry_space_group_name_H-M "C 2/M"
_symmetry_group_IT_number 12
_symmetry_cell_setting 'monoclinic'
loop_
_space_group_symop_operation_xyz
x,y,z
-x,y,-z
-x,-y,-z
x,-y,z
1/2+x,1/2+y,z
1/2-x,1/2+y,-z
1/2-x,1/2-y,-z
1/2+x,1/2-y,z
loop_
_atom_site_type_symbol
_atom_site_label
_atom_site_fract_x
_atom_site_fract_y
_atom_site_fract_z
Si Si1 0.044759 0.776987 0.437135
Si Si2 0.645428 0.790735 0.858808
Si Si3 0.070327 0.210725 0.658347
Si Si4 0.852185 0.282865 0.012476
Si Si5 0.000524 0.219833 0.214790
Si Si6 0.776499 0.219807 0.636554
Si Si7 0.804120 0.778016 0.763627
Si Si8 0.000000 0.000000 0.000000
O O1 0.147805 0.722149 0.415510
O O2 0.000000 0.715862 0.500000
O O3 0.988119 0.713408 0.387685
O O4 0.042363 0.000000 0.438167
O O5 0.644923 0.713612 0.921877
O O6 0.550006 0.784822 0.836343
O O7 0.718191 0.712567 0.807564
O O8 0.672846 0.000000 0.864671
O O9 0.175289 0.220255 0.633860
O O10 0.052147 0.285260 0.723214
O O11 0.041634 0.000000 0.665413
O O12 0.870739 0.500000 0.006785
O O13 0.750000 0.250000 0.000000
O O14 0.931992 0.160537 0.979168
O O15 0.103652 0.275227 0.214245
O O16 0.997050 0.000000 0.212621
O O17 0.801675 0.281253 0.698179
O O18 0.776305 0.000000 0.637230
O O19 0.802400 0.000000 0.761651
#
# Coordination Sequence:
#
# PCOD9174995 Si02
#       8
#     8   8   8   8   8   8   8   2
#     4   9  18  33  53  75 103 145 197 243 288 358
#     4  10  22  39  61  94 131 158 205 269 320 389
#     4  10  19  32  51  78 110 145 189 246 297 360
#     4  11  25  48  75 108 147 192 246 300 357 426
#     4  10  19  32  55  84 117 156 200 244 308 382
#     4  10  18  32  55  76 103 147 192 232 297 367
#     4   9  17  33  55  81 114 155 193 241 306 376
#     4  12  26  48  84 104 144 204 246 296 360 420
#
# _framework density 22.729113999999999
#
# number of rings (size 3 to 8) (size 9 to 14) (size 15 to 20)
#    0.000    2.069    3.448    0.207    0.966    1.655 
#    2.483    2.069    0.000    0.828    0.000    0.000 
#    0.000    0.000    0.000    0.000    0.000    0.000 
#
# Total GULP energy -161775.346894 kJ/mol
# GULP energy per Si atom -5578.460238 kJ/mol
# Density = 2.267738 g / cm^3
# Si number density = 22.729114 Si / 1000 Ang^3
#
#
#
# Elastic Constant Matrix: (Units=GPa)
#
#
# Indices 1 2 3 4 5 6 
#
# 1 88.4269 2.2874 -17.6203 0.0000 4.9045 0.0000
# 2 2.2874 117.6701 1.9292 0.0000 0.4648 0.0000
# 3 -17.6203 1.9292 51.9990 0.0000 2.4731 0.0000
# 4 0.0000 0.0000 0.0000 -12.9074 0.0000 21.2164
# 5 4.9045 0.4648 2.4731 0.0000 28.0675 0.0000
# 6 0.0000 0.0000 0.0000 21.2164 0.0000 -53.6535
#
#
#
# Elastic Compliance Matrix: (Units=1/GPa)
#
#
# Indices 1 2 3 4 5 6 
#
# 1 0.012314 -0.000300 0.004304 0.000000 -0.002526 0.000000
# 2 -0.000300 0.008511 -0.000415 0.000000 -0.000052 0.000000
# 3 0.004304 -0.000415 0.020828 0.000000 -0.002580 0.000000
# 4 0.000000 0.000000 0.000000 -0.221353 0.000000 -0.087530
# 5 -0.002526 -0.000052 -0.002580 0.000000 0.036298 0.000000
# 6 0.000000 0.000000 0.000000 -0.087530 0.000000 -0.053251
#
#
# Mechanical properties :
#
#
# Convention : Reuss Voigt Hill
#
# Bulk Modulus (GPa) = 20.47857 25.69873 23.08865
# Shear Modulus (GPa) = -26.65910 10.40131 -8.12890
#
# Velocity S-wave (km/s) = -3.42849 2.14153 -1.89320
# Velocity P-wave (km/s) = 2.57746 4.17683 2.32407
#
# Compressibility (1/GPa) = 0.04883152
#
# Stress axis : x y z
#
# Youngs Moduli (GPa) = 81.20644 117.49263 48.01290
#
# Poissons Ratio (x) = 0.03524 -0.20665
# Poissons Ratio (y) = 0.02436 0.01992
# Poissons Ratio (z) = -0.34952 0.04875
#
# Static dielectric constant tensor:
#      x y z
#    x 1.817140 0.000000 -0.049280 
#    y 0.000000 1.897860 0.000000 
#    z -0.049280 0.000000 1.878350 
# 
# From -- ./inp_files/337958.got.cif
#   From: 2010.05.17/outbox.cif.g08.bks.cpg/sg12_169_cif.got.tgz:337958.got - 2010.06.03 13:09:07.
