data_PCOD9174296
_publ_section_title
;
Structure prediction by ZEFSAII (Michael W. Deem and Ramdas Pophale) SiO2 
 PCOD9174296
Probable space group: C 2/M
;
_chemical_formula_sum "Si O2"
_cell_formula_units_Z 64
_cell_length_a 20.047274
_cell_length_b 7.402239
_cell_length_c 18.732240
_cell_angle_alpha 90.000000
_cell_angle_beta 93.581046
_cell_angle_gamma 90.000000
_cell_volume 2774.337744
_symmetry_space_group_name_H-M "C 2/M"
_symmetry_group_IT_number 12
_symmetry_cell_setting 'monoclinic'
loop_
_space_group_symop_operation_xyz
x,y,z
-x,y,-z
-x,-y,-z
x,-y,z
1/2+x,1/2+y,z
1/2-x,1/2+y,-z
1/2-x,1/2-y,-z
1/2+x,1/2-y,z
loop_
_atom_site_type_symbol
_atom_site_label
_atom_site_fract_x
_atom_site_fract_y
_atom_site_fract_z
Si Si1 0.993416 0.290749 0.784835
Si Si2 0.136133 0.279037 0.580773
Si Si3 0.003737 0.279376 0.373874
Si Si4 0.958055 0.708544 0.063257
Si Si5 0.175229 0.213854 0.020561
Si Si6 0.653465 0.219047 0.425281
Si Si7 0.744136 0.206172 0.692554
Si Si8 0.657185 0.719986 0.182174
O O1 0.015009 0.500000 0.782282
O O2 0.913692 0.281686 0.791524
O O3 0.008199 0.214898 0.707883
O O4 0.026518 0.210383 0.858312
O O5 0.138328 0.500000 0.581539
O O6 0.058910 0.225970 0.582154
O O7 0.167442 0.223362 0.507427
O O8 0.178368 0.213889 0.651557
O O9 0.004840 0.500000 0.373920
O O10 0.077273 0.225760 0.403489
O O11 0.981243 0.500000 0.070225
O O12 0.881049 0.711017 0.035871
O O13 0.000000 0.789545 0.000000
O O14 0.164326 0.279639 0.100823
O O15 0.164636 0.000000 0.021073
O O16 0.250000 0.250000 0.000000
O O17 0.702362 0.293164 0.368455
O O18 0.657389 0.000000 0.421587
O O19 0.782335 0.284540 0.763376
O O20 0.727208 0.000000 0.711179
O O21 0.656911 0.500000 0.183912
#
# Coordination Sequence:
#
# PCOD9174296 Si02
#       8
#     8   8   8   8   8   8   8   8
#     4  10  19  33  57  84 107 140 182 227 270 318
#     4   9  18  31  49  76 108 138 175 223 269 315
#     4   9  17  30  51  79 105 136 179 224 266 310
#     4  10  20  35  58  86 114 144 182 228 277 328
#     4  11  24  40  59  84 114 149 186 227 277 331
#     4  10  18  31  54  79 103 136 179 225 267 315
#     4  10  20  34  53  77 106 142 177 215 267 323
#     4  10  21  36  55  78 107 144 180 220 270 328
#
# _framework density 23.068567000000002
#
# number of rings (size 3 to 8) (size 9 to 14) (size 15 to 20)
#    0.000    2.125    2.500    1.125    0.000    3.750 
#    0.000    3.750    0.000    3.750    0.000    0.000 
#    0.000    0.000    0.000    0.000    0.000    0.000 
#
# Total GULP energy -178830.692062 kJ/mol
# GULP energy per Si atom -5588.459127 kJ/mol
# Density = 2.301606 g / cm^3
# Si number density = 23.068567 Si / 1000 Ang^3
#
#
#
# Elastic Constant Matrix: (Units=GPa)
#
#
# Indices 1 2 3 4 5 6 
#
# 1 71.4297 -16.5828 -11.4227 0.0000 12.1254 0.0000
# 2 -16.5828 81.1734 -0.6885 0.0000 3.4572 0.0000
# 3 -11.4227 -0.6885 82.7132 0.0000 19.1606 0.0000
# 4 0.0000 0.0000 0.0000 -13.4568 0.0000 -4.9328
# 5 12.1254 3.4572 19.1606 0.0000 45.8129 0.0000
# 6 0.0000 0.0000 0.0000 -4.9328 0.0000 15.2897
#
#
#
# Elastic Compliance Matrix: (Units=1/GPa)
#
#
# Indices 1 2 3 4 5 6 
#
# 1 0.016506 0.003668 0.003749 0.000000 -0.006214 0.000000
# 2 0.003668 0.013184 0.001187 0.000000 -0.002462 0.000000
# 3 0.003749 0.001187 0.014249 0.000000 -0.007041 0.000000
# 4 0.000000 0.000000 0.000000 -0.066453 0.000000 -0.021439
# 5 -0.006214 -0.002462 -0.007041 0.000000 0.026603 0.000000
# 6 0.000000 0.000000 0.000000 -0.021439 0.000000 0.058487
#
#
# Mechanical properties :
#
#
# Convention : Reuss Voigt Hill
#
# Bulk Modulus (GPa) = 16.35403 19.76980 18.06192
# Shear Modulus (GPa) = 76.04760 27.12986 51.58873
#
# Velocity S-wave (km/s) = 5.74782 3.43308 4.73411
# Velocity P-wave (km/s) = 7.15225 4.92985 6.14239
#
# Compressibility (1/GPa) = 0.06114700
#
# Stress axis : x y z
#
# Youngs Moduli (GPa) = 60.58493 75.85158 70.18160
#
# Poissons Ratio (x) = -0.27825 -0.26314
# Poissons Ratio (y) = -0.22225 -0.08328
# Poissons Ratio (z) = -0.22715 -0.09001
#
# Static dielectric constant tensor:
#      x y z
#    x 1.816680 0.000000 0.032740 
#    y 0.000000 1.916570 0.000000 
#    z 0.032740 0.000000 1.860800 
# 
# From -- ./inp_files/281357.got.cif
#   From: 2010.05.17/outbox.cif.g08.bks.cpg/sg12_141_cif.got.tgz:281357.got - 2010.06.03 13:09:07.
