data_PCOD9174961
_publ_section_title
;
Structure prediction by ZEFSAII (Michael W. Deem and Ramdas Pophale) SiO2 
 PCOD9174961
Probable space group: C 2/M
;
_chemical_formula_sum "Si O2"
_cell_formula_units_Z 60
_cell_length_a 24.627122
_cell_length_b 15.404487
_cell_length_c 14.731287
_cell_angle_alpha 90.000000
_cell_angle_beta 30.817849
_cell_angle_gamma 90.000000
_cell_volume 2863.088597
_symmetry_space_group_name_H-M "C 2/M"
_symmetry_group_IT_number 12
_symmetry_cell_setting 'monoclinic'
loop_
_space_group_symop_operation_xyz
x,y,z
-x,y,-z
-x,-y,-z
x,-y,z
1/2+x,1/2+y,z
1/2-x,1/2+y,-z
1/2-x,1/2-y,-z
1/2+x,1/2-y,z
loop_
_atom_site_type_symbol
_atom_site_label
_atom_site_fract_x
_atom_site_fract_y
_atom_site_fract_z
Si Si1 0.375439 0.170399 0.046913
Si Si2 0.959361 0.102863 0.230267
Si Si3 0.092018 0.400261 0.679457
Si Si4 0.160113 0.398423 0.228011
Si Si5 0.871300 0.799955 0.896795
Si Si6 0.000000 0.201313 0.000000
Si Si7 0.254615 0.896232 0.379407
Si Si8 0.533717 0.823266 0.577927
O O1 0.424371 0.240328 0.046952
O O2 0.283933 0.127921 0.235763
O O3 0.471775 0.105529 0.888249
O O4 0.344440 0.217369 0.998960
O O5 0.861464 0.134517 0.430242
O O6 0.063876 0.136999 0.129031
O O7 0.961318 0.000000 0.223051
O O8 0.942057 0.140883 0.155448
O O9 0.120477 0.500000 0.617537
O O10 0.164895 0.365906 0.656984
O O11 0.091832 0.342546 0.589290
O O12 0.181995 0.500000 0.219814
O O13 0.057897 0.394842 0.309197
O O14 0.117695 0.340982 0.375796
O O15 0.261499 0.350742 0.036541
O O16 0.957729 0.762846 0.699320
O O17 0.258553 0.000000 0.380449
#
# Coordination Sequence:
#
# PCOD9174961 Si02
#       8
#     8   8   8   8   8   4   8   8
#     4  10  19  33  50  81 112 148 197 233 287 346
#     4  10  22  37  52  77 113 156 198 234 281 350
#     4  10  18  32  54  82 117 152 191 244 298 348
#     4  11  22  41  67  91 120 157 197 252 312 367
#     4  10  23  38  60  88 120 157 194 244 302 354
#     4  10  19  34  47  70 104 148 184 238 273 328
#     4  10  20  33  54  79 114 156 193 234 285 346
#     4  10  22  39  61  95 117 146 202 257 302 356
#
# _framework density 20.956389999999999
#
# number of rings (size 3 to 8) (size 9 to 14) (size 15 to 20)
#    0.000    1.867    1.333    3.000    1.867    3.733 
#    0.000    4.000    0.000    0.000    0.000    4.667 
#    0.000    0.000    0.000    0.000    0.000    0.000 
#
# Total GULP energy -167240.834090 kJ/mol
# GULP energy per Si atom -5574.694470 kJ/mol
# Density = 2.090869 g / cm^3
# Si number density = 20.956390 Si / 1000 Ang^3
#
#
#
# Elastic Constant Matrix: (Units=GPa)
#
#
# Indices 1 2 3 4 5 6 
#
# 1 38.7113 14.2660 10.0524 0.0000 10.2133 0.0000
# 2 14.2660 73.2441 23.1295 0.0000 4.9654 0.0000
# 3 10.0524 23.1295 77.9933 0.0000 8.2692 0.0000
# 4 0.0000 0.0000 0.0000 23.7535 0.0000 8.1636
# 5 10.2133 4.9654 8.2692 0.0000 25.7432 0.0000
# 6 0.0000 0.0000 0.0000 8.1636 0.0000 9.1329
#
#
#
# Elastic Compliance Matrix: (Units=1/GPa)
#
#
# Indices 1 2 3 4 5 6 
#
# 1 0.030838 -0.004831 -0.001391 0.000000 -0.010856 0.000000
# 2 -0.004831 0.015878 -0.004104 0.000000 0.000172 0.000000
# 3 -0.001391 -0.004104 0.014572 0.000000 -0.003337 0.000000
# 4 0.000000 0.000000 0.000000 0.060767 0.000000 -0.054317
# 5 -0.010856 0.000172 -0.003337 0.000000 0.044191 0.000000
# 6 0.000000 0.000000 0.000000 -0.054317 0.000000 0.158046
#
#
# Mechanical properties :
#
#
# Convention : Reuss Voigt Hill
#
# Bulk Modulus (GPa) = 24.60923 31.64939 28.12931
# Shear Modulus (GPa) = 13.94738 21.22597 17.58667
#
# Velocity S-wave (km/s) = 2.58261 3.18601 2.90004
# Velocity P-wave (km/s) = 4.54552 5.35439 4.96645
#
# Compressibility (1/GPa) = 0.04063516
#
# Stress axis : x y z
#
# Youngs Moduli (GPa) = 32.42746 62.97853 68.62513
#
# Poissons Ratio (x) = 0.30427 0.09545
# Poissons Ratio (y) = 0.15667 0.28167
# Poissons Ratio (z) = 0.04510 0.25849
#
# Static dielectric constant tensor:
#      x y z
#    x 1.756130 0.000000 0.012420 
#    y 0.000000 1.771110 0.000000 
#    z 0.012420 0.000000 1.792930 
# 
# From -- ./inp_files/246692.got.cif
#   From: 2010.05.17/outbox.cif.g08.bks.cpg/sg12_124_cif.got.tgz:246692.got - 2010.06.03 13:09:07.
