data_PCOD9174369
_publ_section_title
;
Structure prediction by ZEFSAII (Michael W. Deem and Ramdas Pophale) SiO2 
 PCOD9174369
Probable space group: C 2/M
;
_chemical_formula_sum "Si O2"
_cell_formula_units_Z 56
_cell_length_a 14.983759
_cell_length_b 8.609357
_cell_length_c 24.771927
_cell_angle_alpha 90.000000
_cell_angle_beta 62.854480
_cell_angle_gamma 90.000000
_cell_volume 2843.599228
_symmetry_space_group_name_H-M "C 2/M"
_symmetry_group_IT_number 12
_symmetry_cell_setting 'monoclinic'
loop_
_space_group_symop_operation_xyz
x,y,z
-x,y,-z
-x,-y,-z
x,-y,z
1/2+x,1/2+y,z
1/2-x,1/2+y,-z
1/2-x,1/2-y,-z
1/2+x,1/2-y,z
loop_
_atom_site_type_symbol
_atom_site_label
_atom_site_fract_x
_atom_site_fract_y
_atom_site_fract_z
Si Si1 0.468868 0.182909 0.070854
Si Si2 0.814733 0.186877 0.719463
Si Si3 0.035834 0.814394 0.615725
Si Si4 0.753526 0.818687 0.148258
Si Si5 0.780227 0.685745 0.365103
Si Si6 0.332729 0.316402 0.935810
Si Si7 0.657079 0.814712 0.489935
O O1 0.371244 0.280177 0.112502
O O2 0.562992 0.232745 0.080485
O O3 0.446803 0.000000 0.083228
O O4 0.500000 0.209682 0.000000
O O5 0.787631 0.270087 0.782220
O O6 0.737822 0.225732 0.692282
O O7 0.926688 0.226697 0.668422
O O8 0.811213 0.000000 0.728214
O O9 0.122237 0.760784 0.633986
O O10 0.061405 0.738135 0.550782
O O11 0.041948 0.000000 0.607816
O O12 0.702421 0.720411 0.114827
O O13 0.736181 0.000000 0.142779
O O14 0.787975 0.500000 0.368407
O O15 0.681960 0.741479 0.425319
O O16 0.342046 0.500000 0.941820
O O17 0.250000 0.250000 0.000000
O O18 0.839238 0.500000 0.514184
O O19 0.750000 0.750000 0.500000
#
# Coordination Sequence:
#
# PCOD9174369 Si02
#       7
#     8   8   8   8   8   8   8
#     4  11  23  41  68  97 127 163 201 250 304 360
#     4  10  24  43  61  83 119 164 206 250 302 366
#     4  10  20  37  60  85 116 156 201 250 304 361
#     4  12  26  43  65  93 128 166 207 255 307 369
#     4  10  20  37  60  85 116 156 200 250 305 361
#     4  12  24  41  67  97 129 162 202 249 303 363
#     4  10  18  31  54  85 118 152 194 249 304 359
#
# _framework density 19.693352000000001
#
# number of rings (size 3 to 8) (size 9 to 14) (size 15 to 20)
#    0.000    1.286    1.429    6.857    0.000    4.571 
#    0.000    5.714    0.000    0.000    0.000    0.000 
#    0.000    0.000    0.000    0.000    0.000    0.000 
#
# Total GULP energy -156576.484539 kJ/mol
# GULP energy per Si atom -5592.017305 kJ/mol
# Density = 1.964853 g / cm^3
# Si number density = 19.693352 Si / 1000 Ang^3
#
#
#
# Elastic Constant Matrix: (Units=GPa)
#
#
# Indices 1 2 3 4 5 6 
#
# 1 59.8414 -17.0007 -0.6267 0.0000 2.4123 0.0000
# 2 -17.0007 48.6534 15.7965 0.0000 0.3237 0.0000
# 3 -0.6267 15.7965 66.0636 0.0000 11.8391 0.0000
# 4 0.0000 0.0000 0.0000 32.9489 0.0000 -0.2733
# 5 2.4123 0.3237 11.8391 0.0000 28.4870 0.0000
# 6 0.0000 0.0000 0.0000 -0.2733 0.0000 26.7706
#
#
#
# Elastic Compliance Matrix: (Units=1/GPa)
#
#
# Indices 1 2 3 4 5 6 
#
# 1 0.018722 0.006967 -0.001286 0.000000 -0.001130 0.000000
# 2 0.006967 0.024995 -0.006217 0.000000 0.001710 0.000000
# 3 -0.001286 -0.006217 0.017913 0.000000 -0.007265 0.000000
# 4 0.000000 0.000000 0.000000 0.030353 0.000000 0.000310
# 5 -0.001130 0.001710 -0.007265 0.000000 0.038199 0.000000
# 6 0.000000 0.000000 0.000000 0.000310 0.000000 0.037358
#
#
# Mechanical properties :
#
#
# Convention : Reuss Voigt Hill
#
# Bulk Modulus (GPa) = 16.51275 18.98851 17.75063
# Shear Modulus (GPa) = 26.48336 29.40058 27.94197
#
# Velocity S-wave (km/s) = 3.67111 3.86802 3.77085
# Velocity P-wave (km/s) = 5.13542 5.44167 5.29076
#
# Compressibility (1/GPa) = 0.06055926
#
# Stress axis : x y z
#
# Youngs Moduli (GPa) = 53.41244 40.00785 55.82470
#
# Poissons Ratio (x) = -0.27873 0.07178
# Poissons Ratio (y) = -0.37212 0.34706
# Poissons Ratio (z) = 0.06867 0.24872
#
# Static dielectric constant tensor:
#      x y z
#    x 1.656000 0.000000 -0.002180 
#    y 0.000000 1.658260 0.000000 
#    z -0.002180 0.000000 1.678600 
# 
# From -- ./inp_files/359674.got.cif
#   From: 2010.05.17/outbox.cif.g08.bks.cpg/sg12_180_cif.got.tgz:359674.got - 2010.06.03 13:09:07.
