data_PCOD9174819
_publ_section_title
;
Structure prediction by ZEFSAII (Michael W. Deem and Ramdas Pophale) SiO2 
 PCOD9174819
Probable space group: C 2/M
;
_chemical_formula_sum "Si O2"
_cell_formula_units_Z 64
_cell_length_a 20.719243
_cell_length_b 8.590950
_cell_length_c 25.247425
_cell_angle_alpha 90.000000
_cell_angle_beta 126.197222
_cell_angle_gamma 90.000000
_cell_volume 3626.600795
_symmetry_space_group_name_H-M "C 2/M"
_symmetry_group_IT_number 12
_symmetry_cell_setting 'monoclinic'
loop_
_space_group_symop_operation_xyz
x,y,z
-x,y,-z
-x,-y,-z
x,-y,z
1/2+x,1/2+y,z
1/2-x,1/2+y,-z
1/2-x,1/2-y,-z
1/2+x,1/2-y,z
loop_
_atom_site_type_symbol
_atom_site_label
_atom_site_fract_x
_atom_site_fract_y
_atom_site_fract_z
Si Si1 0.873262 0.688993 0.944557
Si Si2 0.869139 0.312323 0.442712
Si Si3 0.779766 0.684906 0.570861
Si Si4 0.957276 0.186431 0.673903
Si Si5 0.719237 0.311394 0.928815
Si Si6 0.037565 0.187792 0.822148
Si Si7 0.485938 0.812548 0.407672
Si Si8 0.985588 0.687999 0.906784
O O1 0.874091 0.500000 0.944100
O O2 0.784601 0.739320 0.916957
O O3 0.911108 0.739311 0.907192
O O4 0.935152 0.734198 0.021254
O O5 0.861052 0.500000 0.439262
O O6 0.785386 0.237078 0.417317
O O7 0.909933 0.266623 0.406808
O O8 0.934732 0.271805 0.519705
O O9 0.782970 0.500000 0.568993
O O10 0.750000 0.750000 0.500000
O O11 0.867699 0.748649 0.625575
O O12 0.998526 0.240504 0.748284
O O13 0.006462 0.239718 0.646186
O O14 0.953476 0.000000 0.672508
O O15 0.719259 0.500000 0.930551
O O16 0.629460 0.258475 0.873037
O O17 0.750000 0.250000 0.000000
O O18 0.989965 0.244159 0.850590
O O19 0.038217 0.000000 0.822279
O O20 0.485198 0.000000 0.402952
O O21 0.985248 0.500000 0.903602
#
# Coordination Sequence:
#
# PCOD9174819 Si02
#       8
#     8   8   8   8   8   8   8   8
#     4   8  15  28  50  78 104 132 172 221 265 308
#     4   9  18  34  57  85 114 141 173 223 278 322
#     4  12  23  36  57  85 111 140 183 230 272 323
#     4  11  23  38  54  76 112 153 185 224 274 324
#     4  10  18  32  53  77 104 135 174 220 264 311
#     4  10  22  36  51  76 111 144 174 217 273 317
#     4   9  18  34  57  83 111 144 180 219 269 325
#     4   9  16  30  52  76 102 138 178 215 261 319
#
# _framework density 17.647379999999998
#
# number of rings (size 3 to 8) (size 9 to 14) (size 15 to 20)
#    0.000    2.250    2.500    3.000    0.000    1.500 
#    0.000    4.375    0.000    1.500    0.000    0.000 
#    0.000    0.000    0.000    0.000    0.000    0.000 
#
# Total GULP energy -178520.032253 kJ/mol
# GULP energy per Si atom -5578.751008 kJ/mol
# Density = 1.760721 g / cm^3
# Si number density = 17.647380 Si / 1000 Ang^3
#
#
#
# Elastic Constant Matrix: (Units=GPa)
#
#
# Indices 1 2 3 4 5 6 
#
# 1 163.5533 30.9663 86.7535 0.0000 -18.5777 0.0000
# 2 30.9663 26.4580 29.7324 0.0000 -4.3092 0.0000
# 3 86.7535 29.7324 130.9491 0.0000 -15.4902 0.0000
# 4 0.0000 0.0000 0.0000 21.3139 0.0000 -4.7828
# 5 -18.5777 -4.3092 -15.4902 0.0000 27.4126 0.0000
# 6 0.0000 0.0000 0.0000 -4.7828 0.0000 28.2899
#
#
#
# Elastic Compliance Matrix: (Units=1/GPa)
#
#
# Indices 1 2 3 4 5 6 
#
# 1 0.010286 -0.005755 -0.005134 0.000000 0.003166 0.000000
# 2 -0.005755 0.054025 -0.008478 0.000000 -0.000198 0.000000
# 3 -0.005134 -0.008478 0.013281 0.000000 0.002693 0.000000
# 4 0.000000 0.000000 0.000000 0.048768 0.000000 0.008245
# 5 0.003166 -0.000198 0.002693 0.000000 0.040116 0.000000
# 6 0.000000 0.000000 0.000000 0.008245 0.000000 0.036742
#
#
# Mechanical properties :
#
#
# Convention : Reuss Voigt Hill
#
# Bulk Modulus (GPa) = 25.73268 68.42943 47.08105
# Shear Modulus (GPa) = 19.61522 26.97048 23.29285
#
# Velocity S-wave (km/s) = 3.33755 3.91359 3.63699
# Velocity P-wave (km/s) = 5.42822 7.69946 6.66135
#
# Compressibility (1/GPa) = 0.03886110
#
# Stress axis : x y z
#
# Youngs Moduli (GPa) = 97.21607 18.50981 75.29530
#
# Poissons Ratio (x) = 0.10652 0.38654
# Poissons Ratio (y) = 0.55943 0.63833
# Poissons Ratio (z) = 0.49907 0.15692
#
# Static dielectric constant tensor:
#      x y z
#    x 1.617310 0.000000 -0.000840 
#    y 0.000000 1.600590 0.000000 
#    z -0.000840 0.000000 1.576190 
# 
# From -- ./inp_files/320067.got.cif
#   From: 2010.05.17/outbox.cif.g08.bks.cpg/sg12_161_cif.got.tgz:320067.got - 2010.06.03 13:09:07.
