data_PCOD9174944
_publ_section_title
;
Structure prediction by ZEFSAII (Michael W. Deem and Ramdas Pophale) SiO2 
 PCOD9174944
Probable space group: C 2/M
;
_chemical_formula_sum "Si O2"
_cell_formula_units_Z 64
_cell_length_a 26.370947
_cell_length_b 13.573364
_cell_length_c 9.673557
_cell_angle_alpha 90.000000
_cell_angle_beta 111.068383
_cell_angle_gamma 90.000000
_cell_volume 3231.110641
_symmetry_space_group_name_H-M "C 2/M"
_symmetry_group_IT_number 12
_symmetry_cell_setting 'monoclinic'
loop_
_space_group_symop_operation_xyz
x,y,z
-x,y,-z
-x,-y,-z
x,-y,z
1/2+x,1/2+y,z
1/2-x,1/2+y,-z
1/2-x,1/2-y,-z
1/2+x,1/2-y,z
loop_
_atom_site_type_symbol
_atom_site_label
_atom_site_fract_x
_atom_site_fract_y
_atom_site_fract_z
Si Si1 0.452192 0.887943 0.058445
Si Si2 0.425484 0.299507 0.202505
Si Si3 0.175186 0.118274 0.076479
Si Si4 0.748143 0.886418 0.076434
Si Si5 0.972272 0.112915 0.822862
Si Si6 0.357030 0.613711 0.366272
Si Si7 0.856177 0.801883 0.665484
Si Si8 0.338273 0.888138 0.789365
O O1 0.442413 0.809718 0.170533
O O2 0.463281 0.000000 0.117806
O O3 0.500000 0.858113 0.000000
O O4 0.397805 0.890418 0.913868
O O5 0.378317 0.336623 0.050212
O O6 0.479466 0.364243 0.235633
O O7 0.399891 0.317654 0.327543
O O8 0.229754 0.152126 0.048520
O O9 0.171438 0.000000 0.054081
O O10 0.172751 0.143428 0.234915
O O11 0.801881 0.885022 0.223517
O O12 0.699895 0.847653 0.124543
O O13 0.731470 0.000000 0.033980
O O14 0.920657 0.182675 0.754010
O O15 0.953037 0.000000 0.791732
O O16 0.000000 0.124169 0.000000
O O17 0.376373 0.500000 0.388185
O O18 0.344681 0.651790 0.506552
O O19 0.839284 0.688272 0.665259
O O20 0.321587 0.000000 0.737116
#
# Coordination Sequence:
#
# PCOD9174944 Si02
#       8
#     8   8   8   8   8   8   8   8
#     4  10  20  36  59  88 116 141 185 244 284 314
#     4  11  19  35  55  81 110 152 186 217 277 339
#     4  10  18  32  54  81 110 142 183 229 278 336
#     4   8  18  36  57  78 108 149 185 227 283 337
#     4  11  20  31  53  83 114 141 179 231 276 330
#     4  10  22  38  54  79 119 153 181 226 284 340
#     4  12  22  34  53  83 112 150 190 230 277 335
#     4  10  20  37  59  81 108 145 191 238 280 325
#
# _framework density 19.807428999999999
#
# number of rings (size 3 to 8) (size 9 to 14) (size 15 to 20)
#    0.000    1.750    2.500    4.125    0.000    1.500 
#    0.000    1.875    0.000    0.000    0.000    4.375 
#    0.000    0.000    0.000    0.000    0.000    0.000 
#
# Total GULP energy -178654.419068 kJ/mol
# GULP energy per Si atom -5582.950596 kJ/mol
# Density = 1.976235 g / cm^3
# Si number density = 19.807429 Si / 1000 Ang^3
#
#
#
# Elastic Constant Matrix: (Units=GPa)
#
#
# Indices 1 2 3 4 5 6 
#
# 1 86.2031 20.1874 16.9275 0.0000 -36.9672 0.0000
# 2 20.1874 123.5084 29.7892 0.0000 -22.6597 0.0000
# 3 16.9275 29.7892 93.1111 0.0000 -36.4227 0.0000
# 4 0.0000 0.0000 0.0000 19.8997 0.0000 -14.4616
# 5 -36.9672 -22.6597 -36.4227 0.0000 28.5198 0.0000
# 6 0.0000 0.0000 0.0000 -14.4616 0.0000 23.5738
#
#
#
# Elastic Compliance Matrix: (Units=1/GPa)
#
#
# Indices 1 2 3 4 5 6 
#
# 1 0.055871 0.004571 0.036228 0.000000 0.122318 0.000000
# 2 0.004571 0.009854 0.002791 0.000000 0.017319 0.000000
# 3 0.036228 0.002791 0.044955 0.000000 0.106589 0.000000
# 4 0.000000 0.000000 0.000000 0.090677 0.000000 0.055627
# 5 0.122318 0.017319 0.106589 0.000000 0.343496 0.000000
# 6 0.000000 0.000000 0.000000 0.055627 0.000000 0.076545
#
#
# Mechanical properties :
#
#
# Convention : Reuss Voigt Hill
#
# Bulk Modulus (GPa) = 5.05407 48.51453 26.78430
# Shear Modulus (GPa) = 8.33096 30.12655 19.22875
#
# Velocity S-wave (km/s) = 2.05307 3.90420 3.11912
# Velocity P-wave (km/s) = 2.85960 6.69850 5.15011
#
# Compressibility (1/GPa) = 0.19786030
#
# Stress axis : x y z
#
# Youngs Moduli (GPa) = 17.89853 101.48498 22.24426
#
# Poissons Ratio (x) = -0.46392 -0.80586
# Poissons Ratio (y) = -0.08182 -0.06209
# Poissons Ratio (z) = -0.64842 -0.28326
#
# Static dielectric constant tensor:
#      x y z
#    x 1.701320 0.000000 -0.023190 
#    y 0.000000 1.765340 0.000000 
#    z -0.023190 0.000000 1.678020 
# 
# From -- ./inp_files/96886.got.cif
#   From: 2010.05.17/outbox.cif.g08.bks.cpg/sg12_49_cif.got.tgz:96886.got - 2010.06.03 13:09:07.
