data_PCOD9174591
_publ_section_title
;
Structure prediction by ZEFSAII (Michael W. Deem and Ramdas Pophale) SiO2 
 PCOD9174591
Probable space group: C 2/M
;
_chemical_formula_sum "Si O2"
_cell_formula_units_Z 64
_cell_length_a 10.490045
_cell_length_b 19.359199
_cell_length_c 14.584284
_cell_angle_alpha 90.000000
_cell_angle_beta 79.110525
_cell_angle_gamma 90.000000
_cell_volume 2908.428765
_symmetry_space_group_name_H-M "C 2/M"
_symmetry_group_IT_number 12
_symmetry_cell_setting 'monoclinic'
loop_
_space_group_symop_operation_xyz
x,y,z
-x,y,-z
-x,-y,-z
x,-y,z
1/2+x,1/2+y,z
1/2-x,1/2+y,-z
1/2-x,1/2-y,-z
1/2+x,1/2-y,z
loop_
_atom_site_type_symbol
_atom_site_label
_atom_site_fract_x
_atom_site_fract_y
_atom_site_fract_z
Si Si1 0.323655 0.424251 0.153886
Si Si2 0.119971 0.186838 0.409088
Si Si3 0.720620 0.576003 0.523686
Si Si4 0.490025 0.423907 0.695599
Si Si5 0.245836 0.780670 0.899471
Si Si6 0.085277 0.659661 0.398479
Si Si7 0.482343 0.923164 0.755782
Si Si8 0.970704 0.318399 0.113433
O O1 0.351961 0.500000 0.108311
O O2 0.420899 0.415107 0.226546
O O3 0.322905 0.355820 0.092360
O O4 0.173592 0.426539 0.206767
O O5 0.218239 0.137885 0.451403
O O6 0.153447 0.265756 0.379627
O O7 0.000000 0.192084 0.500000
O O8 0.090240 0.143609 0.320869
O O9 0.751576 0.500000 0.482325
O O10 0.582639 0.571648 0.593381
O O11 0.815840 0.598365 0.591726
O O12 0.425043 0.500000 0.711771
O O13 0.398109 0.788913 0.856367
O O14 0.153385 0.730035 0.855015
O O15 0.250000 0.750000 0.000000
O O16 0.001074 0.633671 0.325214
O O17 0.000000 0.664067 0.500000
O O18 0.546253 0.893219 0.839132
O O19 0.526903 0.000000 0.725889
O O20 0.000000 0.322906 0.000000
#
# Coordination Sequence:
#
# PCOD9174591 Si02
#       8
#     8   8   8   8   8   8   8   8
#     4   9  17  31  54  80 104 136 184 235 274 325
#     4   9  19  31  46  70  95 124 169 220 271 318
#     4  10  18  32  50  67  95 132 175 226 272 314
#     4   9  16  29  50  74  96 124 169 225 275 314
#     4   9  18  34  57  86 119 147 181 223 280 345
#     4  11  22  34  48  70 104 146 185 223 267 329
#     4  10  20  35  54  78 104 141 192 235 278 328
#     4   9  19  36  60  89 117 146 182 233 286 340
#
# _framework density 22.005008
#
# number of rings (size 3 to 8) (size 9 to 14) (size 15 to 20)
#    0.000    2.500    1.250    1.125    1.750    2.750 
#    0.000    1.875    0.000    4.125    0.000    0.000 
#    0.000    0.000    0.000    0.000    0.000    0.000 
#
# Total GULP energy -178298.044534 kJ/mol
# GULP energy per Si atom -5571.813892 kJ/mol
# Density = 2.195492 g / cm^3
# Si number density = 22.005008 Si / 1000 Ang^3
#
#
#
# Elastic Constant Matrix: (Units=GPa)
#
#
# Indices 1 2 3 4 5 6 
#
# 1 37.9368 19.0679 12.7974 0.0000 16.8209 0.0000
# 2 19.0679 149.4443 58.6675 0.0000 18.0028 0.0000
# 3 12.7974 58.6675 58.7793 0.0000 15.5017 0.0000
# 4 0.0000 0.0000 0.0000 35.1418 0.0000 17.2057
# 5 16.8209 18.0028 15.5017 0.0000 23.2680 0.0000
# 6 0.0000 0.0000 0.0000 17.2057 0.0000 28.6814
#
#
#
# Elastic Compliance Matrix: (Units=1/GPa)
#
#
# Indices 1 2 3 4 5 6 
#
# 1 0.039218 -0.001958 0.000598 0.000000 -0.027235 0.000000
# 2 -0.001958 0.011141 -0.010668 0.000000 -0.000097 0.000000
# 3 0.000598 -0.010668 0.030896 0.000000 -0.012762 0.000000
# 4 0.000000 0.000000 0.000000 0.040290 0.000000 -0.024169
# 5 -0.027235 -0.000097 -0.012762 0.000000 0.071244 0.000000
# 6 0.000000 0.000000 0.000000 -0.024169 0.000000 0.049365
#
#
# Mechanical properties :
#
#
# Convention : Reuss Voigt Hill
#
# Bulk Modulus (GPa) = 17.48270 47.46955 32.47613
# Shear Modulus (GPa) = 17.52707 27.79341 22.66024
#
# Velocity S-wave (km/s) = 2.82530 3.55780 3.21249
# Velocity P-wave (km/s) = 4.31338 6.20453 5.34329
#
# Compressibility (1/GPa) = 0.05719940
#
# Stress axis : x y z
#
# Youngs Moduli (GPa) = 25.49882 89.76001 32.36701
#
# Poissons Ratio (x) = 0.17574 -0.01936
# Poissons Ratio (y) = 0.04992 0.34528
# Poissons Ratio (z) = -0.01525 0.95753
#
# Static dielectric constant tensor:
#      x y z
#    x 1.886780 0.000000 -0.014690 
#    y 0.000000 1.873810 0.000000 
#    z -0.014690 0.000000 1.809700 
# 
# From -- ./inp_files/206689.got.cif
#   From: 2010.05.17/outbox.cif.g08.bks.cpg/sg12_104_cif.got.tgz:206689.got - 2010.06.03 13:09:07.
