data_PCOD9174293
_publ_section_title
;
Structure prediction by ZEFSAII (Michael W. Deem and Ramdas Pophale) SiO2 
 PCOD9174293
Probable space group: C 2/M
;
_chemical_formula_sum "Si O2"
_cell_formula_units_Z 44
_cell_length_a 16.092864
_cell_length_b 13.716153
_cell_length_c 25.848164
_cell_angle_alpha 90.000000
_cell_angle_beta 22.703105
_cell_angle_gamma 90.000000
_cell_volume 2202.080546
_symmetry_space_group_name_H-M "C 2/M"
_symmetry_group_IT_number 12
_symmetry_cell_setting 'monoclinic'
loop_
_space_group_symop_operation_xyz
x,y,z
-x,y,-z
-x,-y,-z
x,-y,z
1/2+x,1/2+y,z
1/2-x,1/2+y,-z
1/2-x,1/2-y,-z
1/2+x,1/2-y,z
loop_
_atom_site_type_symbol
_atom_site_label
_atom_site_fract_x
_atom_site_fract_y
_atom_site_fract_z
Si Si1 0.787502 0.116424 0.527722
Si Si2 0.576164 0.743238 0.287457
Si Si3 0.224295 0.603688 0.900908
Si Si4 0.622755 0.278860 0.788663
Si Si5 0.691514 0.891750 0.041950
Si Si6 0.500000 0.263413 0.500000
O O1 0.550034 0.157917 0.652448
O O2 0.923600 0.162721 0.402273
O O3 0.885157 0.168508 0.522809
O O4 0.800864 0.000000 0.523018
O O5 0.650252 0.696107 0.191485
O O6 0.764103 0.756191 0.221570
O O7 0.336457 0.500000 0.824670
O O8 0.176987 0.605563 0.988162
O O9 0.000000 0.603647 0.000000
O O10 0.437053 0.356939 0.908275
O O11 0.817167 0.297596 0.636292
O O12 0.488569 0.187959 0.841357
O O13 0.651062 0.000000 0.086280
#
# Coordination Sequence:
#
# PCOD9174293 Si02
#       6
#     8   8   8   8   8   4
#     4  10  21  35  54  80 108 141 178 218 268 323
#     4  10  20  35  55  79 109 139 175 225 270 317
#     4  10  18  31  54  79 100 130 175 224 265 307
#     4  10  21  37  56  80 111 146 182 221 271 324
#     4  10  21  36  56  82 111 143 181 225 272 322
#     4  10  21  38  59  78 108 148 183 226 265 320
#
# _framework density 19.981103999999998
#
# number of rings (size 3 to 8) (size 9 to 14) (size 15 to 20)
#    0.000    2.000    1.818    1.909    0.000    4.364 
#    0.000    0.455    0.000    0.545    0.000    0.000 
#    0.000    0.000    0.000    0.000    0.000    0.000 
#
# Total GULP energy -122645.023287 kJ/mol
# GULP energy per Si atom -5574.773786 kJ/mol
# Density = 1.993563 g / cm^3
# Si number density = 19.981104 Si / 1000 Ang^3
#
#
#
# Elastic Constant Matrix: (Units=GPa)
#
#
# Indices 1 2 3 4 5 6 
#
# 1 45.3636 13.2719 18.9474 -0.0054 -12.9978 0.0041
# 2 13.2719 33.8981 -5.8578 0.0000 -15.3309 -0.0015
# 3 18.9474 -5.8578 52.6556 -0.0590 -10.6291 0.0037
# 4 -0.0054 0.0000 -0.0590 15.1781 0.0156 0.7545
# 5 -12.9978 -15.3309 -10.6291 0.0156 31.3863 -0.0033
# 6 0.0041 -0.0015 0.0037 0.7545 -0.0033 25.8843
#
#
#
# Elastic Compliance Matrix: (Units=1/GPa)
#
#
# Indices 1 2 3 4 5 6 
#
# 1 0.031929 -0.013614 -0.012534 -0.000039 0.002328 -0.000003
# 2 -0.013614 0.047609 0.014761 0.000029 0.022616 0.000005
# 3 -0.012534 0.014761 0.027426 0.000091 0.011307 -0.000002
# 4 -0.000039 0.000029 0.000091 0.065980 -0.000005 -0.001923
# 5 0.002328 0.022616 0.011307 -0.000005 0.047701 0.000005
# 6 -0.000003 0.000005 -0.000002 -0.001923 0.000005 0.038689
#
#
# Mechanical properties :
#
#
# Convention : Reuss Voigt Hill
#
# Bulk Modulus (GPa) = 11.87788 20.51559 16.19674
# Shear Modulus (GPa) = 16.11995 21.52679 18.82337
#
# Velocity S-wave (km/s) = 2.84343 3.28587 3.07263
# Velocity P-wave (km/s) = 4.09116 4.96847 4.55101
#
# Compressibility (1/GPa) = 0.08419008
#
# Stress axis : x y z
#
# Youngs Moduli (GPa) = 31.31916 21.00422 36.46155
#
# Poissons Ratio (x) = 0.28595 0.45701
# Poissons Ratio (y) = 0.42638 -0.53819
# Poissons Ratio (z) = 0.39255 -0.31003
#
# Static dielectric constant tensor:
#      x y z
#    x 1.700290 0.000000 -0.001810 
#    y 0.000000 1.739680 0.000020 
#    z -0.001810 0.000020 1.763200 
# 
# From -- ./inp_files/364100.got.cif
#   From: 2010.05.17/outbox.cif.g08.bks.cpg/sg12_183_cif.got.tgz:364100.got - 2010.06.03 13:09:07.
