data_PCOD9174750
_publ_section_title
;
Structure prediction by ZEFSAII (Michael W. Deem and Ramdas Pophale) SiO2 
 PCOD9174750
Probable space group: C 2/M
;
_chemical_formula_sum "Si O2"
_cell_formula_units_Z 42
_cell_length_a 21.080406
_cell_length_b 10.804781
_cell_length_c 7.727661
_cell_angle_alpha 90.000000
_cell_angle_beta 93.429163
_cell_angle_gamma 90.000000
_cell_volume 1756.971455
_symmetry_space_group_name_H-M "C 2/M"
_symmetry_group_IT_number 12
_symmetry_cell_setting 'monoclinic'
loop_
_space_group_symop_operation_xyz
x,y,z
-x,y,-z
-x,-y,-z
x,-y,z
1/2+x,1/2+y,z
1/2-x,1/2+y,-z
1/2-x,1/2-y,-z
1/2+x,1/2-y,z
loop_
_atom_site_type_symbol
_atom_site_label
_atom_site_fract_x
_atom_site_fract_y
_atom_site_fract_z
Si Si1 0.026851 0.762861 0.170448
Si Si2 0.666616 0.359487 0.092490
Si Si3 0.858396 0.135836 0.320362
Si Si4 0.912125 0.361776 0.507682
Si Si5 0.280510 0.862901 0.700388
Si Si6 0.000000 0.000000 0.000000
O O1 0.036707 0.679770 0.339600
O O2 0.987071 0.889761 0.142975
O O3 0.097141 0.822073 0.152478
O O4 0.000000 0.688050 0.000000
O O5 0.682091 0.500000 0.149968
O O6 0.659182 0.360333 0.884909
O O7 0.711675 0.252991 0.171130
O O8 0.902720 0.250103 0.373358
O O9 0.788500 0.147325 0.399356
O O10 0.882635 0.000000 0.374952
O O11 0.923561 0.500000 0.442703
O O12 0.842854 0.365560 0.591248
O O13 0.280350 0.000000 0.788348
#
# Coordination Sequence:
#
# PCOD9174750 Si02
#       6
#     8   8   8   8   8   2
#     4   9  18  34  57  74  96 123 167 206 246 294
#     4  10  18  32  52  78  99 128 166 206 245 291
#     4  10  21  32  49  74 106 133 164 201 244 291
#     4  10  21  34  51  74 102 132 167 203 244 291
#     4   9  19  34  49  72 101 136 169 200 238 290
#     4   8  16  32  58  78  92 120 170 202 252 288
#
# _framework density 23.904771
#
# number of rings (size 3 to 8) (size 9 to 14) (size 15 to 20)
#    0.571    1.905    0.952    1.143    1.333    2.667 
#    0.000    0.952    0.000    4.571    0.000    0.000 
#    0.000    0.000    0.000    0.000    0.000    0.000 
#
# Total GULP energy -116928.905740 kJ/mol
# GULP energy per Si atom -5568.043130 kJ/mol
# Density = 2.385036 g / cm^3
# Si number density = 23.904771 Si / 1000 Ang^3
#
#
#
# Elastic Constant Matrix: (Units=GPa)
#
#
# Indices 1 2 3 4 5 6 
#
# 1 83.2282 40.7659 -2.8128 0.0000 6.9570 0.0000
# 2 40.7659 252.0359 85.8196 0.0000 30.0574 0.0000
# 3 -2.8128 85.8196 65.7983 0.0000 12.1087 0.0000
# 4 0.0000 0.0000 0.0000 35.8314 0.0000 -6.0752
# 5 6.9570 30.0574 12.1087 0.0000 34.3864 0.0000
# 6 0.0000 0.0000 0.0000 -6.0752 0.0000 5.7472
#
#
#
# Elastic Compliance Matrix: (Units=1/GPa)
#
#
# Indices 1 2 3 4 5 6 
#
# 1 0.014549 -0.004472 0.006712 0.000000 -0.001398 0.000000
# 2 -0.004472 0.008850 -0.011203 0.000000 -0.002886 0.000000
# 3 0.006712 -0.011203 0.030522 0.000000 -0.002314 0.000000
# 4 0.000000 0.000000 0.000000 0.034003 0.000000 0.035943
# 5 -0.001398 -0.002886 -0.002314 0.000000 0.032702 0.000000
# 6 0.000000 0.000000 0.000000 0.035943 0.000000 0.211994
#
#
# Mechanical properties :
#
#
# Convention : Reuss Voigt Hill
#
# Bulk Modulus (GPa) = 27.78093 72.06752 49.92423
# Shear Modulus (GPa) = 13.79147 33.67897 23.73522
#
# Velocity S-wave (km/s) = 2.40455 3.75758 3.15446
# Velocity P-wave (km/s) = 4.39953 7.00279 5.84786
#
# Compressibility (1/GPa) = 0.03599591
#
# Stress axis : x y z
#
# Youngs Moduli (GPa) = 68.73168 112.99705 32.76313
#
# Poissons Ratio (x) = 0.50533 -0.21991
# Poissons Ratio (y) = 0.30737 0.36704
# Poissons Ratio (z) = -0.46133 1.26587
#
# Static dielectric constant tensor:
#      x y z
#    x 2.081640 0.000000 -0.064530 
#    y 0.000000 1.897610 0.000000 
#    z -0.064530 0.000000 1.968180 
# 
# From -- ./inp_files/93801.got.cif
#   From: 2010.05.17/outbox.cif.g08.bks.cpg/sg12_47_cif.got.tgz:93801.got - 2010.06.03 13:09:07.
