data_PCOD9174738
_publ_section_title
;
Structure prediction by ZEFSAII (Michael W. Deem and Ramdas Pophale) SiO2 
 PCOD9174738
Probable space group: C 2/M
;
_chemical_formula_sum "Si O2"
_cell_formula_units_Z 64
_cell_length_a 24.313101
_cell_length_b 11.412963
_cell_length_c 12.895956
_cell_angle_alpha 90.000000
_cell_angle_beta 86.866727
_cell_angle_gamma 90.000000
_cell_volume 3573.078785
_symmetry_space_group_name_H-M "C 2/M"
_symmetry_group_IT_number 12
_symmetry_cell_setting 'monoclinic'
loop_
_space_group_symop_operation_xyz
x,y,z
-x,y,-z
-x,-y,-z
x,-y,z
1/2+x,1/2+y,z
1/2-x,1/2+y,-z
1/2-x,1/2-y,-z
1/2+x,1/2-y,z
loop_
_atom_site_type_symbol
_atom_site_label
_atom_site_fract_x
_atom_site_fract_y
_atom_site_fract_z
Si Si1 0.440711 0.637490 0.467548
Si Si2 0.683882 0.868077 0.207781
Si Si3 0.543979 0.132466 0.903283
Si Si4 0.666509 0.254633 0.418652
Si Si5 0.694093 0.701891 0.789140
Si Si6 0.781448 0.629645 0.401135
Si Si7 0.430063 0.632762 0.220889
Si Si8 0.831767 0.633983 0.024186
O O1 0.500000 0.681784 0.500000
O O2 0.437135 0.500000 0.495867
O O3 0.389795 0.701176 0.526762
O O4 0.436502 0.645485 0.343882
O O5 0.660195 0.789822 0.302391
O O6 0.749836 0.870689 0.217572
O O7 0.661551 0.000000 0.216387
O O8 0.672637 0.822795 0.093205
O O9 0.542828 0.251052 0.833906
O O10 0.604795 0.132140 0.946919
O O11 0.536803 0.000000 0.855732
O O12 0.500000 0.141869 0.000000
O O13 0.715828 0.349924 0.416028
O O14 0.691443 0.153697 0.490356
O O15 0.695392 0.778340 0.683969
O O16 0.635324 0.638693 0.798440
O O17 0.698053 0.786234 0.888510
O O18 0.793857 0.500000 0.362907
O O19 0.449873 0.500000 0.190046
O O20 0.810568 0.500000 0.028111
#
# Coordination Sequence:
#
# PCOD9174738 Si02
#       8
#     8   8   8   8   8   8   8   8
#     4  10  21  38  57  77 107 144 181 224 274 331
#     4  10  20  32  49  74 108 143 175 219 275 330
#     4   9  19  36  57  79 105 141 183 225 273 326
#     4  10  20  34  50  78 105 140 179 225 273 329
#     4  10  18  32  52  77 104 139 177 224 269 330
#     4  10  19  31  52  78 106 138 178 229 279 328
#     4  10  20  35  56  82 107 137 181 231 275 325
#     4   9  18  32  50  74 104 140 178 219 271 329
#
# _framework density 17.911724
#
# number of rings (size 3 to 8) (size 9 to 14) (size 15 to 20)
#    0.000    2.250    1.250    1.875    0.000    1.750 
#    0.000    0.000    0.000   13.125    0.000    0.000 
#    0.000    0.000    0.000    0.000    0.000    0.000 
#
# Total GULP energy -178321.394918 kJ/mol
# GULP energy per Si atom -5572.543591 kJ/mol
# Density = 1.787096 g / cm^3
# Si number density = 17.911724 Si / 1000 Ang^3
#
#
#
# Elastic Constant Matrix: (Units=GPa)
#
#
# Indices 1 2 3 4 5 6 
#
# 1 51.3720 26.2121 13.3323 0.0000 -13.3392 0.0000
# 2 26.2121 91.8804 38.8161 0.0000 -10.6064 0.0000
# 3 13.3323 38.8161 96.0557 0.0000 3.0077 0.0000
# 4 0.0000 0.0000 0.0000 44.9488 0.0000 -29.0898
# 5 -13.3392 -10.6064 3.0077 0.0000 24.0002 0.0000
# 6 0.0000 0.0000 0.0000 -29.0898 0.0000 41.7771
#
#
#
# Elastic Compliance Matrix: (Units=1/GPa)
#
#
# Indices 1 2 3 4 5 6 
#
# 1 0.025766 -0.005136 -0.001886 0.000000 0.012287 0.000000
# 2 -0.005136 0.015239 -0.005588 0.000000 0.004580 0.000000
# 3 -0.001886 -0.005588 0.013092 0.000000 -0.005159 0.000000
# 4 0.000000 0.000000 0.000000 0.040497 0.000000 0.028198
# 5 0.012287 0.004580 -0.005159 0.000000 0.051166 0.000000
# 6 0.000000 0.000000 0.000000 0.028198 0.000000 0.043571
#
#
# Mechanical properties :
#
#
# Convention : Reuss Voigt Hill
#
# Bulk Modulus (GPa) = 34.62939 44.00324 39.31631
# Shear Modulus (GPa) = 22.30382 32.87506 27.58944
#
# Velocity S-wave (km/s) = 3.53258 4.28880 3.92892
# Velocity P-wave (km/s) = 6.00118 7.01036 6.52531
#
# Compressibility (1/GPa) = 0.02887720
#
# Stress axis : x y z
#
# Youngs Moduli (GPa) = 38.81057 65.62322 76.38137
#
# Poissons Ratio (x) = 0.33702 0.14404
# Poissons Ratio (y) = 0.19932 0.42686
# Poissons Ratio (z) = 0.07319 0.36674
#
# Static dielectric constant tensor:
#      x y z
#    x 1.601530 0.000000 0.003810 
#    y 0.000000 1.633890 0.000000 
#    z 0.003810 0.000000 1.596500 
# 
# From -- ./inp_files/174658.got.cif
#   From: 2010.05.17/outbox.cif.g08.bks.cpg/sg12_88_cif.got.tgz:174658.got - 2010.06.03 13:09:07.
