data_PCOD9174189
_publ_section_title
;
Structure prediction by ZEFSAII (Michael W. Deem and Ramdas Pophale) SiO2 
 PCOD9174189
Probable space group: C 2/M
;
_chemical_formula_sum "Si O2"
_cell_formula_units_Z 64
_cell_length_a 11.779336
_cell_length_b 13.958096
_cell_length_c 19.361632
_cell_angle_alpha 90.000000
_cell_angle_beta 79.162490
_cell_angle_gamma 90.000000
_cell_volume 3126.605778
_symmetry_space_group_name_H-M "C 2/M"
_symmetry_group_IT_number 12
_symmetry_cell_setting 'monoclinic'
loop_
_space_group_symop_operation_xyz
x,y,z
-x,y,-z
-x,-y,-z
x,-y,z
1/2+x,1/2+y,z
1/2-x,1/2+y,-z
1/2-x,1/2-y,-z
1/2+x,1/2-y,z
loop_
_atom_site_type_symbol
_atom_site_label
_atom_site_fract_x
_atom_site_fract_y
_atom_site_fract_z
Si Si1 0.174097 0.891419 0.539675
Si Si2 0.210757 0.638464 0.075813
Si Si3 0.909867 0.318133 0.454021
Si Si4 0.960359 0.396953 0.154418
Si Si5 0.099135 0.181256 0.839062
Si Si6 0.213206 0.888081 0.699382
Si Si7 0.100429 0.838224 0.046313
Si Si8 0.971475 0.611793 0.693439
O O1 0.101766 0.795938 0.533153
O O2 0.290669 0.871970 0.483438
O O3 0.199620 0.884217 0.618816
O O4 0.131004 0.000000 0.531166
O O5 0.291166 0.636022 0.134257
O O6 0.170617 0.746529 0.064418
O O7 0.085535 0.595317 0.103779
O O8 0.298006 0.605265 0.005113
O O9 0.000000 0.356266 0.500000
O O10 0.951156 0.336092 0.371770
O O11 0.899576 0.500000 0.148836
O O12 0.905731 0.294629 0.140355
O O13 0.983707 0.386442 0.233637
O O14 0.119555 0.167484 0.755750
O O15 0.981264 0.132305 0.880492
O O16 0.340573 0.850435 0.703967
O O17 0.205536 0.000000 0.720605
O O18 0.000000 0.817602 0.000000
O O19 0.966166 0.500000 0.672800
#
# Coordination Sequence:
#
# PCOD9174189 Si02
#       8
#     8   8   8   8   8   8   8   8
#     4  10  22  37  54  79 108 137 172 215 259 308
#     4   9  16  30  51  73 102 136 172 211 258 306
#     4  11  21  35  57  80 104 139 177 212 259 309
#     4  10  20  33  52  78 105 137 174 213 260 311
#     4  10  18  31  53  77 104 136 171 216 262 307
#     4  10  19  33  54  78 103 134 174 217 259 305
#     4   8  16  29  49  74  99 134 175 210 254 306
#     4  10  19  32  53  79 105 134 173 218 258 304
#
# _framework density 20.469483
#
# number of rings (size 3 to 8) (size 9 to 14) (size 15 to 20)
#    0.000    2.250    2.500    1.125    0.000    0.750 
#    0.000    0.625    0.000   43.500    0.000    0.000 
#    0.000    0.000    0.000    0.000    0.000    0.000 
#
# Total GULP energy -178198.145552 kJ/mol
# GULP energy per Si atom -5568.692049 kJ/mol
# Density = 2.042289 g / cm^3
# Si number density = 20.469483 Si / 1000 Ang^3
#
#
#
# Elastic Constant Matrix: (Units=GPa)
#
#
# Indices 1 2 3 4 5 6 
#
# 1 28.5704 2.3295 15.7675 0.0000 -17.7677 0.0000
# 2 2.3295 65.8589 14.1074 0.0000 -8.3391 0.0000
# 3 15.7675 14.1074 112.3764 0.0000 -39.6619 0.0000
# 4 0.0000 0.0000 0.0000 53.7903 0.0000 16.9972
# 5 -17.7677 -8.3391 -39.6619 0.0000 29.0443 0.0000
# 6 0.0000 0.0000 0.0000 16.9972 0.0000 5.0814
#
#
#
# Elastic Compliance Matrix: (Units=1/GPa)
#
#
# Indices 1 2 3 4 5 6 
#
# 1 0.061079 0.002290 0.008806 0.000000 0.050048 0.000000
# 2 0.002290 0.015874 -0.000407 0.000000 0.005402 0.000000
# 3 0.008806 -0.000407 0.018482 0.000000 0.030508 0.000000
# 4 0.000000 0.000000 0.000000 -0.326263 0.000000 1.091340
# 5 0.050048 0.005402 0.030508 0.000000 0.108258 0.000000
# 6 0.000000 0.000000 0.000000 1.091340 0.000000 -3.453706
#
#
# Mechanical properties :
#
#
# Convention : Reuss Voigt Hill
#
# Bulk Modulus (GPa) = 8.56071 30.13494 19.34782
# Shear Modulus (GPa) = -1.40500 29.22329 13.90914
#
# Velocity S-wave (km/s) = -0.82938 3.78253 2.60956
# Velocity P-wave (km/s) = 1.80944 5.81640 4.30724
#
# Compressibility (1/GPa) = 0.11681279
#
# Stress axis : x y z
#
# Youngs Moduli (GPa) = 16.37235 62.99487 54.10755
#
# Poissons Ratio (x) = -0.14427 -0.47649
# Poissons Ratio (y) = -0.03750 0.02205
# Poissons Ratio (z) = -0.14418 0.02567
#
# Static dielectric constant tensor:
#      x y z
#    x 1.704320 0.000000 -0.019560 
#    y 0.000000 1.773990 0.000000 
#    z -0.019560 0.000000 1.739140 
# 
# From -- ./inp_files/305402.got.cif
#   From: 2010.05.17/outbox.cif.g08.bks.cpg/sg12_153_cif.got.tgz:305402.got - 2010.06.03 13:09:07.
