data_PCOD9174161
_publ_section_title
;
Structure prediction by ZEFSAII (Michael W. Deem and Ramdas Pophale) SiO2 
 PCOD9174161
Probable space group: C 2/M
;
_chemical_formula_sum "Si O2"
_cell_formula_units_Z 48
_cell_length_a 15.265081
_cell_length_b 7.274704
_cell_length_c 17.217732
_cell_angle_alpha 90.000000
_cell_angle_beta 73.303677
_cell_angle_gamma 90.000000
_cell_volume 1831.402391
_symmetry_space_group_name_H-M "C 2/M"
_symmetry_group_IT_number 12
_symmetry_cell_setting 'monoclinic'
loop_
_space_group_symop_operation_xyz
x,y,z
-x,y,-z
-x,-y,-z
x,-y,z
1/2+x,1/2+y,z
1/2-x,1/2+y,-z
1/2-x,1/2-y,-z
1/2+x,1/2-y,z
loop_
_atom_site_type_symbol
_atom_site_label
_atom_site_fract_x
_atom_site_fract_y
_atom_site_fract_z
Si Si1 0.108620 0.788289 0.979778
Si Si2 0.790834 0.776262 0.369222
Si Si3 0.777122 0.222491 0.193927
Si Si4 0.093709 0.710749 0.444450
Si Si5 0.906761 0.211156 0.848477
Si Si6 0.492277 0.722770 0.320358
O O1 0.124151 0.706113 0.061428
O O2 0.141845 0.000000 0.974626
O O3 0.151879 0.712467 0.890098
O O4 0.000000 0.785424 0.000000
O O5 0.790841 0.718598 0.278801
O O6 0.695182 0.710528 0.430703
O O7 0.890881 0.722555 0.374489
O O8 0.787211 0.000000 0.372787
O O9 0.680238 0.283716 0.184993
O O10 0.780499 0.000000 0.196175
O O11 0.095856 0.500000 0.470759
O O12 0.000000 0.799054 0.500000
O O13 0.070577 0.710116 0.358446
O O14 0.987178 0.285462 0.773025
O O15 0.933753 0.000000 0.859522
O O16 0.495569 0.500000 0.318797
#
# Coordination Sequence:
#
# PCOD9174161 Si02
#       6
#     8   8   8   8   8   8
#     4   9  17  29  47  73 101 133 178 219 250 298
#     4   9  18  34  55  78 105 140 179 212 255 318
#     4  10  18  31  53  74  99 140 179 211 255 310
#     4  10  21  38  58  80 108 138 170 216 269 318
#     4  10  19  31  49  75 105 133 170 221 263 296
#     4  10  20  35  56  79 106 141 177 216 261 311
#
# _framework density 26.209423999999999
#
# number of rings (size 3 to 8) (size 9 to 14) (size 15 to 20)
#    0.000    2.333    1.667    1.500    0.000    5.000 
#    0.000    1.667    0.000    4.000    0.000    0.000 
#    0.000    0.000    0.000    0.000    0.000    0.000 
#
# Total GULP energy -134130.277882 kJ/mol
# GULP energy per Si atom -5588.761578 kJ/mol
# Density = 2.614977 g / cm^3
# Si number density = 26.209424 Si / 1000 Ang^3
#
#
#
# Elastic Constant Matrix: (Units=GPa)
#
#
# Indices 1 2 3 4 5 6 
#
# 1 113.1701 -1.5338 11.2285 0.0000 -24.7041 0.0000
# 2 -1.5338 124.1353 11.6454 0.0000 -2.6933 0.0000
# 3 11.2285 11.6454 119.5822 0.0000 -28.9937 0.0000
# 4 0.0000 0.0000 0.0000 2.0262 0.0000 -3.6055
# 5 -24.7041 -2.6933 -28.9937 0.0000 60.5538 0.0000
# 6 0.0000 0.0000 0.0000 -3.6055 0.0000 29.8684
#
#
#
# Elastic Compliance Matrix: (Units=1/GPa)
#
#
# Indices 1 2 3 4 5 6 
#
# 1 0.009706 0.000203 0.000035 0.000000 0.003985 0.000000
# 2 0.000203 0.008134 -0.000796 0.000000 0.000064 0.000000
# 3 0.000035 -0.000796 0.009539 0.000000 0.004546 0.000000
# 4 0.000000 0.000000 0.000000 0.628527 0.000000 0.075871
# 5 0.003985 0.000064 0.004546 0.000000 0.020320 0.000000
# 6 0.000000 0.000000 0.000000 0.075871 0.000000 0.042639
#
#
# Mechanical properties :
#
#
# Convention : Reuss Voigt Hill
#
# Bulk Modulus (GPa) = 38.07542 44.39644 41.23593
# Shear Modulus (GPa) = 6.86121 40.85952 23.86036
#
# Velocity S-wave (km/s) = 1.61973 3.95265 3.02051
# Velocity P-wave (km/s) = 4.24935 6.14875 5.28508
#
# Compressibility (1/GPa) = 0.02626367
#
# Stress axis : x y z
#
# Youngs Moduli (GPa) = 103.03433 122.93667 104.83354
#
# Poissons Ratio (x) = -0.02497 -0.00369
# Poissons Ratio (y) = -0.02092 0.08343
# Poissons Ratio (z) = -0.00363 0.09783
#
# Static dielectric constant tensor:
#      x y z
#    x 2.001390 0.000000 -0.014510 
#    y 0.000000 2.023100 0.000000 
#    z -0.014510 0.000000 2.149620 
# 
# From -- ./inp_files/250737.got.cif
#   From: 2010.05.17/outbox.cif.g08.bks.cpg/sg12_126_cif.got.tgz:250737.got - 2010.06.03 13:09:07.
