data_PCOD9174113
_publ_section_title
;
Structure prediction by ZEFSAII (Michael W. Deem and Ramdas Pophale) SiO2 
 PCOD9174113
Probable space group: C 2/M
;
_chemical_formula_sum "Si O2"
_cell_formula_units_Z 56
_cell_length_a 28.020764
_cell_length_b 8.329988
_cell_length_c 12.325039
_cell_angle_alpha 90.000000
_cell_angle_beta 122.651496
_cell_angle_gamma 90.000000
_cell_volume 2422.189656
_symmetry_space_group_name_H-M "C 2/M"
_symmetry_group_IT_number 12
_symmetry_cell_setting 'monoclinic'
loop_
_space_group_symop_operation_xyz
x,y,z
-x,y,-z
-x,-y,-z
x,-y,z
1/2+x,1/2+y,z
1/2-x,1/2+y,-z
1/2-x,1/2-y,-z
1/2+x,1/2-y,z
loop_
_atom_site_type_symbol
_atom_site_label
_atom_site_fract_x
_atom_site_fract_y
_atom_site_fract_z
Si Si1 0.294848 0.680807 0.138043
Si Si2 0.561169 0.305192 0.204844
Si Si3 0.766781 0.318067 0.705910
Si Si4 0.953946 0.809338 0.214374
Si Si5 0.094766 0.317315 0.635980
Si Si6 0.150888 0.807377 0.488211
Si Si7 0.384815 0.191333 0.935291
O O1 0.314280 0.500000 0.132423
O O2 0.263322 0.668188 0.214073
O O3 0.347604 0.796048 0.223187
O O4 0.250000 0.750000 0.000000
O O5 0.558927 0.500000 0.193546
O O6 0.508498 0.251203 0.213721
O O7 0.616926 0.256029 0.340977
O O8 0.566812 0.234105 0.092355
O O9 0.777815 0.500000 0.678163
O O10 0.715073 0.239964 0.574811
O O11 0.826925 0.240999 0.810175
O O12 0.950855 0.746606 0.333674
O O13 0.956767 0.000000 0.224335
O O14 0.901419 0.761686 0.072127
O O15 0.082807 0.500000 0.594898
O O16 0.111656 0.229490 0.545087
O O17 0.156855 0.000000 0.492984
O O18 0.378527 0.000000 0.939603
#
# Coordination Sequence:
#
# PCOD9174113 Si02
#       7
#     8   8   8   8   8   8   8
#     4  10  18  31  52  79 114 154 193 234 284 343
#     4  10  23  41  61  83 111 152 199 243 286 343
#     4   8  17  33  54  80 111 146 183 226 276 336
#     4  11  23  40  60  83 113 152 198 241 287 347
#     4  11  22  36  56  85 118 149 188 239 295 351
#     4   9  19  40  63  83 113 153 194 234 285 349
#     4  11  22  37  59  88 119 150 188 237 292 344
#
# _framework density 23.119577
#
# number of rings (size 3 to 8) (size 9 to 14) (size 15 to 20)
#    0.000    2.000    0.000    4.714    0.000    5.714 
#    0.000    9.286    0.000    0.000    0.000    0.000 
#    0.000    0.000    0.000    0.000    0.000    0.000 
#
# Total GULP energy -156375.960847 kJ/mol
# GULP energy per Si atom -5584.855745 kJ/mol
# Density = 2.306696 g / cm^3
# Si number density = 23.119577 Si / 1000 Ang^3
#
#
#
# Elastic Constant Matrix: (Units=GPa)
#
#
# Indices 1 2 3 4 5 6 
#
# 1 73.2231 -1.5668 4.5127 0.0000 -6.4964 0.0000
# 2 -1.5668 25.2485 -5.7759 0.0000 1.4900 0.0000
# 3 4.5127 -5.7759 80.3167 0.0000 -5.2852 0.0000
# 4 0.0000 0.0000 0.0000 18.5339 0.0000 -5.4981
# 5 -6.4964 1.4900 -5.2852 0.0000 35.3268 0.0000
# 6 0.0000 0.0000 0.0000 -5.4981 0.0000 15.6591
#
#
#
# Elastic Compliance Matrix: (Units=1/GPa)
#
#
# Indices 1 2 3 4 5 6 
#
# 1 0.013922 0.000587 -0.000579 0.000000 0.002449 0.000000
# 2 0.000587 0.040351 0.002791 0.000000 -0.001176 0.000000
# 3 -0.000579 0.002791 0.012795 0.000000 0.001690 0.000000
# 4 0.000000 0.000000 0.000000 0.060229 0.000000 0.021147
# 5 0.002449 -0.001176 0.001690 0.000000 0.029060 0.000000
# 6 0.000000 0.000000 0.000000 0.021147 0.000000 0.071285
#
#
# Mechanical properties :
#
#
# Convention : Reuss Voigt Hill
#
# Bulk Modulus (GPa) = 13.76134 19.23648 16.49891
# Shear Modulus (GPa) = 20.30327 26.01185 23.15756
#
# Velocity S-wave (km/s) = 2.96663 3.35789 3.16831
# Velocity P-wave (km/s) = 4.20710 4.83450 4.53167
#
# Compressibility (1/GPa) = 0.07266732
#
# Stress axis : x y z
#
# Youngs Moduli (GPa) = 71.82672 24.78271 78.15435
#
# Poissons Ratio (x) = -0.01455 0.04524
# Poissons Ratio (y) = -0.04216 -0.21816
# Poissons Ratio (z) = 0.04158 -0.06918
#
# Static dielectric constant tensor:
#      x y z
#    x 1.944360 0.000000 0.077340 
#    y 0.000000 1.833880 0.000000 
#    z 0.077340 0.000000 1.907340 
# 
# From -- ./inp_files/181073.got.cif
#   From: 2010.05.17/outbox.cif.g08.bks.cpg/sg12_91_cif.got.tgz:181073.got - 2010.06.03 13:09:07.
