data_PCOD9174455
_publ_section_title
;
Structure prediction by ZEFSAII (Michael W. Deem and Ramdas Pophale) SiO2 
 PCOD9174455
Probable space group: C 2/M
;
_chemical_formula_sum "Si O2"
_cell_formula_units_Z 64
_cell_length_a 26.148049
_cell_length_b 21.826254
_cell_length_c 10.973523
_cell_angle_alpha 90.000000
_cell_angle_beta 147.613180
_cell_angle_gamma 90.000000
_cell_volume 3354.528912
_symmetry_space_group_name_H-M "C 2/M"
_symmetry_group_IT_number 12
_symmetry_cell_setting 'monoclinic'
loop_
_space_group_symop_operation_xyz
x,y,z
-x,y,-z
-x,-y,-z
x,-y,z
1/2+x,1/2+y,z
1/2-x,1/2+y,-z
1/2-x,1/2-y,-z
1/2+x,1/2-y,z
loop_
_atom_site_type_symbol
_atom_site_label
_atom_site_fract_x
_atom_site_fract_y
_atom_site_fract_z
Si Si1 0.127069 0.747169 0.458566
Si Si2 0.105348 0.675454 0.170799
Si Si3 0.898068 0.150220 0.247531
Si Si4 0.440052 0.223209 0.183415
Si Si5 0.243327 0.700431 0.093096
Si Si6 0.949591 0.121325 0.768663
Si Si7 0.260117 0.571960 0.494807
Si Si8 0.640346 0.428652 0.047410
O O1 0.141586 0.714420 0.359337
O O2 0.224001 0.763496 0.720684
O O3 0.074900 0.811892 0.330411
O O4 0.053703 0.711985 0.401804
O O5 0.176657 0.619140 0.292770
O O6 0.089354 0.717143 0.018705
O O7 0.000000 0.653343 0.000000
O O8 0.923883 0.213522 0.226004
O O9 0.828224 0.156138 0.223137
O O10 0.840986 0.110652 0.034204
O O11 0.000000 0.125975 0.500000
O O12 0.364564 0.178987 0.100527
O O13 0.250000 0.750000 0.000000
O O14 0.851959 0.084831 0.594757
O O15 0.029331 0.085835 0.853238
O O16 0.000000 0.130594 0.000000
O O17 0.234391 0.500000 0.438024
O O18 0.297017 0.586570 0.706957
O O19 0.652804 0.500000 0.049639
#
# Coordination Sequence:
#
# PCOD9174455 Si02
#       8
#     8   8   8   8   8   8   8   8
#     4  11  20  34  54  84 116 141 176 227 282 338
#     4  10  23  35  57  85 108 142 184 230 292 337
#     4  11  20  36  54  76 115 156 183 226 267 320
#     4  10  20  36  52  81 115 139 180 225 279 339
#     4  10  22  31  50  74 105 153 181 212 269 325
#     4  10  18  31  56  80 113 146 174 218 278 342
#     4  10  22  37  54  79 113 149 188 231 274 331
#     4  10  21  35  55  82 113 153 192 221 262 327
#
# _framework density 19.078685
#
# number of rings (size 3 to 8) (size 9 to 14) (size 15 to 20)
#    0.000    1.750    2.500    2.250    5.250    3.000 
#    0.000    0.000    0.000    0.750    0.000    0.000 
#    0.000    5.000    0.000    0.000    0.000    0.000 
#
# Total GULP energy -178335.786549 kJ/mol
# GULP energy per Si atom -5572.993330 kJ/mol
# Density = 1.903526 g / cm^3
# Si number density = 19.078685 Si / 1000 Ang^3
#
#
#
# Elastic Constant Matrix: (Units=GPa)
#
#
# Indices 1 2 3 4 5 6 
#
# 1 62.9685 -2.5685 6.1023 0.0000 9.7116 0.0000
# 2 -2.5685 35.7709 15.3578 0.0000 -9.2963 0.0000
# 3 6.1023 15.3578 46.8245 0.0000 5.6517 0.0000
# 4 0.0000 0.0000 0.0000 26.2585 0.0000 0.5249
# 5 9.7116 -9.2963 5.6517 0.0000 25.8077 0.0000
# 6 0.0000 0.0000 0.0000 0.5249 0.0000 7.4881
#
#
#
# Elastic Compliance Matrix: (Units=1/GPa)
#
#
# Indices 1 2 3 4 5 6 
#
# 1 0.016962 0.000386 -0.001627 0.000000 -0.005888 0.000000
# 2 0.000386 0.038790 -0.014834 0.000000 0.017076 0.000000
# 3 -0.001627 -0.014834 0.027738 0.000000 -0.010806 0.000000
# 4 0.000000 0.000000 0.000000 0.038136 0.000000 -0.002673
# 5 -0.005888 0.017076 -0.010806 0.000000 0.049481 0.000000
# 6 0.000000 0.000000 0.000000 -0.002673 0.000000 0.133732
#
#
# Mechanical properties :
#
#
# Convention : Reuss Voigt Hill
#
# Bulk Modulus (GPa) = 19.47741 20.37190 19.92466
# Shear Modulus (GPa) = 14.12020 20.35567 17.23794
#
# Velocity S-wave (km/s) = 2.72344 3.26994 3.00912
# Velocity P-wave (km/s) = 4.48560 4.99576 4.74754
#
# Compressibility (1/GPa) = 0.05134152
#
# Stress axis : x y z
#
# Youngs Moduli (GPa) = 58.95388 25.77982 36.05166
#
# Poissons Ratio (x) = -0.00996 0.05864
# Poissons Ratio (y) = -0.02277 0.53479
# Poissons Ratio (z) = 0.09589 0.38242
#
# Static dielectric constant tensor:
#      x y z
#    x 1.730740 0.000000 0.023060 
#    y 0.000000 1.654090 0.000000 
#    z 0.023060 0.000000 1.699210 
# 
# From -- ./inp_files/184724.got.cif
#   From: 2010.05.17/outbox.cif.g08.bks.cpg/sg12_93_cif.got.tgz:184724.got - 2010.06.03 13:09:07.
