data_PCOD9174037
_publ_section_title
;
Structure prediction by ZEFSAII (Michael W. Deem and Ramdas Pophale) SiO2 
 PCOD9174037
Probable space group: C 2/M
;
_chemical_formula_sum "Si O2"
_cell_formula_units_Z 64
_cell_length_a 14.346954
_cell_length_b 13.702063
_cell_length_c 27.070700
_cell_angle_alpha 90.000000
_cell_angle_beta 142.804105
_cell_angle_gamma 90.000000
_cell_volume 3217.152611
_symmetry_space_group_name_H-M "C 2/M"
_symmetry_group_IT_number 12
_symmetry_cell_setting 'monoclinic'
loop_
_space_group_symop_operation_xyz
x,y,z
-x,y,-z
-x,-y,-z
x,-y,z
1/2+x,1/2+y,z
1/2-x,1/2+y,-z
1/2-x,1/2-y,-z
1/2+x,1/2-y,z
loop_
_atom_site_type_symbol
_atom_site_label
_atom_site_fract_x
_atom_site_fract_y
_atom_site_fract_z
Si Si1 0.452400 0.252918 0.531245
Si Si2 0.746285 0.617082 0.055147
Si Si3 0.922534 0.697492 0.039139
Si Si4 0.773135 0.616989 0.882750
Si Si5 0.455485 0.387443 0.293178
Si Si6 0.775572 0.114462 0.314461
Si Si7 0.959997 0.617029 0.231350
Si Si8 0.112159 0.298441 0.389914
O O1 0.500000 0.203280 0.500000
O O2 0.591417 0.325485 0.602684
O O3 0.293307 0.314101 0.458399
O O4 0.429101 0.186904 0.570173
O O5 0.721842 0.500000 0.041182
O O6 0.605590 0.686625 0.979093
O O7 0.806022 0.642676 0.135685
O O8 0.881019 0.652132 0.074415
O O9 0.796751 0.650118 0.948596
O O10 0.087189 0.665167 0.088620
O O11 0.791214 0.500000 0.887178
O O12 0.612066 0.641126 0.788543
O O13 0.502336 0.500000 0.312828
O O14 0.314699 0.376852 0.272892
O O15 0.586777 0.316381 0.367595
O O16 0.608860 0.148968 0.261971
O O17 0.788062 0.000000 0.331860
O O18 0.960016 0.500000 0.231854
O O19 0.997488 0.651463 0.302608
#
# Coordination Sequence:
#
# PCOD9174037 Si02
#       8
#     8   8   8   8   8   8   8   8
#     4  10  19  33  50  76 108 139 169 213 264 316
#     4  10  20  33  49  74 108 141 174 217 263 317
#     4  10  19  31  50  75 104 137 175 212 270 322
#     4  10  18  31  52  76 102 132 172 227 271 314
#     4   9  18  32  51  76 102 131 173 221 267 308
#     4   9  17  29  49  77 103 129 167 220 274 313
#     4  10  19  32  52  78 105 135 174 219 267 314
#     4  10  20  33  53  77 106 141 173 211 265 321
#
# _framework density 19.893369
#
# number of rings (size 3 to 8) (size 9 to 14) (size 15 to 20)
#    0.000    2.250    1.250    3.000    0.000    2.750 
#    0.000    3.125    0.000    2.250    0.000    0.000 
#    0.000    0.000    0.000    0.000    0.000    0.000 
#
# Total GULP energy -178379.996530 kJ/mol
# GULP energy per Si atom -5574.374892 kJ/mol
# Density = 1.984809 g / cm^3
# Si number density = 19.893369 Si / 1000 Ang^3
#
#
#
# Elastic Constant Matrix: (Units=GPa)
#
#
# Indices 1 2 3 4 5 6 
#
# 1 56.5080 2.5930 17.4753 0.0000 -18.8408 0.0000
# 2 2.5930 61.6776 23.6442 0.0000 0.7889 0.0000
# 3 17.4753 23.6442 79.5531 0.0000 -20.8470 0.0000
# 4 0.0000 0.0000 0.0000 19.9251 0.0000 1.4091
# 5 -18.8408 0.7889 -20.8470 0.0000 27.6949 0.0000
# 6 0.0000 0.0000 0.0000 1.4091 0.0000 16.0676
#
#
#
# Elastic Compliance Matrix: (Units=1/GPa)
#
#
# Indices 1 2 3 4 5 6 
#
# 1 0.023013 -0.000825 -0.000874 0.000000 0.015022 0.000000
# 2 -0.000825 0.019093 -0.007204 0.000000 -0.006528 0.000000
# 3 -0.000874 -0.007204 0.018438 0.000000 0.013490 0.000000
# 4 0.000000 0.000000 0.000000 0.050501 0.000000 -0.004429
# 5 0.015022 -0.006528 0.013490 0.000000 0.056667 0.000000
# 6 0.000000 0.000000 0.000000 -0.004429 0.000000 0.062626
#
#
# Mechanical properties :
#
#
# Convention : Reuss Voigt Hill
#
# Bulk Modulus (GPa) = 23.39752 31.68485 27.54119
# Shear Modulus (GPa) = 19.05559 23.00595 21.03077
#
# Velocity S-wave (km/s) = 3.09833 3.40437 3.25495
# Velocity P-wave (km/s) = 4.95848 5.60490 5.29157
#
# Compressibility (1/GPa) = 0.04273957
#
# Stress axis : x y z
#
# Youngs Moduli (GPa) = 43.45345 52.37464 54.23470
#
# Poissons Ratio (x) = 0.04319 0.04739
# Poissons Ratio (y) = 0.03584 0.39072
# Poissons Ratio (z) = 0.03797 0.37732
#
# Static dielectric constant tensor:
#      x y z
#    x 1.719700 0.000000 -0.031490 
#    y 0.000000 1.709150 0.000000 
#    z -0.031490 0.000000 1.733210 
# 
# From -- ./inp_files/361264.got.cif
#   From: 2010.05.17/outbox.cif.g08.bks.cpg/sg12_181_cif.got.tgz:361264.got - 2010.06.03 13:09:07.
