data_PCOD9174625
_publ_section_title
;
Structure prediction by ZEFSAII (Michael W. Deem and Ramdas Pophale) SiO2 
 PCOD9174625
Probable space group: C 2/M
;
_chemical_formula_sum "Si O2"
_cell_formula_units_Z 50
_cell_length_a 5.269781
_cell_length_b 14.172044
_cell_length_c 29.862261
_cell_angle_alpha 90.000000
_cell_angle_beta 105.622505
_cell_angle_gamma 90.000000
_cell_volume 2147.828879
_symmetry_space_group_name_H-M "C 2/M"
_symmetry_group_IT_number 12
_symmetry_cell_setting 'monoclinic'
loop_
_space_group_symop_operation_xyz
x,y,z
-x,y,-z
-x,-y,-z
x,-y,z
1/2+x,1/2+y,z
1/2-x,1/2+y,-z
1/2-x,1/2-y,-z
1/2+x,1/2-y,z
loop_
_atom_site_type_symbol
_atom_site_label
_atom_site_fract_x
_atom_site_fract_y
_atom_site_fract_z
Si Si1 0.239370 0.887655 0.102161
Si Si2 0.502566 0.813817 0.302235
Si Si3 0.500000 0.000000 0.500000
Si Si4 0.160723 0.384657 0.051323
Si Si5 0.015603 0.608540 0.397993
Si Si6 0.067387 0.893665 0.433914
Si Si7 0.754918 0.309604 0.201536
O O1 0.497069 0.854796 0.087519
O O2 0.243995 0.864481 0.154641
O O3 0.963723 0.853833 0.067758
O O4 0.238433 0.000000 0.097186
O O5 0.784124 0.765691 0.305218
O O6 0.520645 0.883477 0.345077
O O7 0.386841 0.858357 0.251083
O O8 0.732381 0.081945 0.517167
O O9 0.165362 0.500000 0.050559
O O10 0.000000 0.354015 0.000000
O O11 0.001790 0.500000 0.417374
O O12 0.287107 0.651831 0.428227
O O13 0.745184 0.650455 0.403549
O O14 0.985888 0.000000 0.412960
O O15 0.463137 0.275193 0.201305
#
# Coordination Sequence:
#
# PCOD9174625 Si02
#       7
#     8   8   2   8   8   8   8
#     4  10  19  32  54  79 101 129 174 213 254 298
#     4  10  21  36  54  74 101 140 176 204 255 319
#     4   8  16  30  48  78 116 134 168 206 262 306
#     4   9  17  30  50  77 105 132 164 209 255 306
#     4  10  18  32  50  79 106 127 169 218 255 288
#     4   8  17  27  47  74 108 128 164 204 256 290
#     4  10  21  37  54  73 101 138 173 207 255 314
#
# _framework density 23.279322000000001
#
# number of rings (size 3 to 8) (size 9 to 14) (size 15 to 20)
#    0.480    2.080    0.000    2.400    0.000    3.840 
#    0.000    0.000    0.000   21.120    0.000   11.200 
#    0.000    0.000    0.000    0.000    0.000    0.000 
#
# Total GULP energy -139235.908371 kJ/mol
# GULP energy per Si atom -5569.436335 kJ/mol
# Density = 2.322634 g / cm^3
# Si number density = 23.279322 Si / 1000 Ang^3
#
#
#
# Elastic Constant Matrix: (Units=GPa)
#
#
# Indices 1 2 3 4 5 6 
#
# 1 115.1820 -11.9168 12.0473 0.0000 5.9986 0.0000
# 2 -11.9168 58.4061 -5.5415 0.0000 3.4245 0.0000
# 3 12.0473 -5.5415 81.8137 0.0000 1.7869 0.0000
# 4 0.0000 0.0000 0.0000 16.1876 0.0000 0.6950
# 5 5.9986 3.4245 1.7869 0.0000 41.4644 0.0000
# 6 0.0000 0.0000 0.0000 0.6950 0.0000 -7.4888
#
#
#
# Elastic Compliance Matrix: (Units=1/GPa)
#
#
# Indices 1 2 3 4 5 6 
#
# 1 0.009067 0.001821 -0.001181 0.000000 -0.001411 0.000000
# 2 0.001821 0.017688 0.000969 0.000000 -0.001766 0.000000
# 3 -0.001181 0.000969 0.012472 0.000000 -0.000447 0.000000
# 4 0.000000 0.000000 0.000000 0.061530 0.000000 0.005711
# 5 -0.001411 -0.001766 -0.000447 0.000000 0.024486 0.000000
# 6 0.000000 0.000000 0.000000 0.005711 0.000000 -0.133003
#
#
# Mechanical properties :
#
#
# Convention : Reuss Voigt Hill
#
# Bulk Modulus (GPa) = 23.56025 27.17554 25.36790
# Shear Modulus (GPa) = 1575.80994 27.42018 801.61506
#
# Velocity S-wave (km/s) = 26.04580 3.43574 18.57670
# Velocity P-wave (km/s) = 30.24325 5.23814 21.70360
#
# Compressibility (1/GPa) = 0.04244437
#
# Stress axis : x y z
#
# Youngs Moduli (GPa) = 110.28633 56.53416 80.17858
#
# Poissons Ratio (x) = -0.10293 0.09469
# Poissons Ratio (y) = -0.20080 -0.07766
# Poissons Ratio (z) = 0.13025 -0.05476
#
# Static dielectric constant tensor:
#      x y z
#    x 1.882460 0.000000 0.038030 
#    y 0.000000 1.901700 0.000000 
#    z 0.038030 0.000000 1.556260 
# 
# From -- ./inp_files/354971.got.cif
#   From: 2010.05.17/outbox.cif.g08.bks.cpg/sg12_178_cif.got.tgz:354971.got - 2010.06.03 13:09:07.
