data_PCOD9174928
_publ_section_title
;
Structure prediction by ZEFSAII (Michael W. Deem and Ramdas Pophale) SiO2 
 PCOD9174928
Probable space group: C 2/M
;
_chemical_formula_sum "Si O2"
_cell_formula_units_Z 40
_cell_length_a 16.769293
_cell_length_b 14.133165
_cell_length_c 20.708935
_cell_angle_alpha 90.000000
_cell_angle_beta 159.922427
_cell_angle_gamma 90.000000
_cell_volume 1684.906227
_symmetry_space_group_name_H-M "C 2/M"
_symmetry_group_IT_number 12
_symmetry_cell_setting 'monoclinic'
loop_
_space_group_symop_operation_xyz
x,y,z
-x,y,-z
-x,-y,-z
x,-y,z
1/2+x,1/2+y,z
1/2-x,1/2+y,-z
1/2-x,1/2-y,-z
1/2+x,1/2-y,z
loop_
_atom_site_type_symbol
_atom_site_label
_atom_site_fract_x
_atom_site_fract_y
_atom_site_fract_z
Si Si1 0.420149 0.208776 0.574990
Si Si2 0.422284 0.336946 0.007084
Si Si3 0.222097 0.165205 0.733836
Si Si4 0.906976 0.000000 0.284866
Si Si5 0.272110 0.000000 0.070696
Si Si6 0.192900 0.500000 0.301287
Si Si7 0.820501 0.500000 0.507055
O O1 0.250000 0.250000 0.500000
O O2 0.666333 0.201446 0.798502
O O3 0.477835 0.280453 0.561048
O O4 0.354898 0.103311 0.501983
O O5 0.388943 0.408838 0.040229
O O6 0.500000 0.389689 0.000000
O O7 0.597537 0.249537 0.142849
O O8 0.259452 0.090183 0.706306
O O9 0.234932 0.095249 0.807081
O O10 0.118420 0.000000 0.498183
O O11 0.057900 0.000000 0.335089
O O12 0.473239 0.000000 0.280664
O O13 0.431419 0.000000 0.129038
#
# Coordination Sequence:
#
# PCOD9174928 Si02
#       7
#     8   8   8   4   4   4   4
#     4  10  18  32  54  80 108 141 171 215 271 325
#     4   9  19  33  53  83 106 136 170 223 274 319
#     4  10  19  32  51  78 109 133 177 217 273 306
#     4  10  18  35  54  78 103 138 186 228 250 316
#     4   9  18  34  56  73 108 134 181 218 258 312
#     4  10  22  36  55  79 100 147 188 226 254 314
#     4   9  17  31  53  81 105 129 179 220 259 314
#
# _framework density 23.740193999999999
#
# number of rings (size 3 to 8) (size 9 to 14) (size 15 to 20)
#    0.000    2.400    2.000    1.500    0.000    3.200 
#    0.000   20.000    0.000    0.000    0.000    5.600 
#    0.000    0.000    0.000    0.000    0.000    0.000 
#
# Total GULP energy -111587.725478 kJ/mol
# GULP energy per Si atom -5579.386274 kJ/mol
# Density = 2.368616 g / cm^3
# Si number density = 23.740194 Si / 1000 Ang^3
#
#
#
# Elastic Constant Matrix: (Units=GPa)
#
#
# Indices 1 2 3 4 5 6 
#
# 1 78.6107 74.2949 42.6813 -0.0052 45.9046 -0.0166
# 2 74.2949 241.3623 62.9243 0.1127 46.9194 -0.0277
# 3 42.6813 62.9243 123.7957 0.1212 49.0273 -0.1110
# 4 -0.0052 0.1127 0.1212 27.2229 -0.0487 -0.5096
# 5 45.9046 46.9194 49.0273 -0.0487 51.4700 -0.0030
# 6 -0.0166 -0.0277 -0.1110 -0.5096 -0.0030 15.7530
#
#
#
# Elastic Compliance Matrix: (Units=1/GPa)
#
#
# Indices 1 2 3 4 5 6 
#
# 1 0.031101 -0.005234 0.001659 -0.000023 -0.024548 0.000030
# 2 -0.005234 0.006028 -0.001496 -0.000018 0.000598 -0.000006
# 3 0.001659 -0.001496 0.013348 -0.000074 -0.012830 0.000088
# 4 -0.000023 -0.000018 -0.000074 0.036757 0.000143 0.001189
# 5 -0.024548 0.000598 -0.012830 0.000143 0.052998 -0.000100
# 6 0.000030 -0.000006 0.000088 0.001189 -0.000100 0.063519
#
#
# Mechanical properties :
#
#
# Convention : Reuss Voigt Hill
#
# Bulk Modulus (GPa) = 24.79266 89.28552 57.03909
# Shear Modulus (GPa) = 21.99369 36.48040 29.23705
#
# Velocity S-wave (km/s) = 3.04704 3.92427 3.51314
# Velocity P-wave (km/s) = 4.77967 7.63048 6.36669
#
# Compressibility (1/GPa) = 0.04033453
#
# Stress axis : x y z
#
# Youngs Moduli (GPa) = 32.15306 165.89005 74.91963
#
# Poissons Ratio (x) = 0.86829 -0.12432
# Poissons Ratio (y) = 0.16829 0.11211
# Poissons Ratio (z) = -0.05335 0.24824
#
# Static dielectric constant tensor:
#      x y z
#    x 2.034000 0.000010 -0.081560 
#    y 0.000010 1.962130 -0.000040 
#    z -0.081560 -0.000040 1.959920 
# 
# From -- ./inp_files/364066.got.cif
#   From: 2010.05.17/outbox.cif.g08.bks.cpg/sg12_183_cif.got.tgz:364066.got - 2010.06.03 13:09:07.
