data_PCOD9174209
_publ_section_title
;
Structure prediction by ZEFSAII (Michael W. Deem and Ramdas Pophale) SiO2 
 PCOD9174209
Probable space group: C 2/M
;
_chemical_formula_sum "Si O2"
_cell_formula_units_Z 56
_cell_length_a 29.218530
_cell_length_b 8.381476
_cell_length_c 22.054153
_cell_angle_alpha 90.000000
_cell_angle_beta 148.658072
_cell_angle_gamma 90.000000
_cell_volume 2809.267231
_symmetry_space_group_name_H-M "C 2/M"
_symmetry_group_IT_number 12
_symmetry_cell_setting 'monoclinic'
loop_
_space_group_symop_operation_xyz
x,y,z
-x,y,-z
-x,-y,-z
x,-y,z
1/2+x,1/2+y,z
1/2-x,1/2+y,-z
1/2-x,1/2-y,-z
1/2+x,1/2-y,z
loop_
_atom_site_type_symbol
_atom_site_label
_atom_site_fract_x
_atom_site_fract_y
_atom_site_fract_z
Si Si1 0.577184 0.813934 0.136991
Si Si2 0.477337 0.192148 0.242248
Si Si3 0.755193 0.807651 0.191612
Si Si4 0.433565 0.806337 0.060608
Si Si5 0.681389 0.806595 0.474111
Si Si6 0.234740 0.684841 0.668253
Si Si7 0.316367 0.689824 0.128129
O O1 0.526627 0.753934 0.139195
O O2 0.660511 0.710760 0.215421
O O3 0.605463 0.000000 0.175154
O O4 0.500000 0.811871 0.000000
O O5 0.428144 0.235703 0.124290
O O6 0.579071 0.240076 0.349951
O O7 0.416554 0.265236 0.225226
O O8 0.476076 0.000000 0.247113
O O9 0.795454 0.756274 0.301459
O O10 0.795081 0.752029 0.172484
O O11 0.755345 0.000000 0.191470
O O12 0.652969 0.753215 0.072505
O O13 0.435706 0.000000 0.058240
O O14 0.750000 0.750000 0.500000
O O15 0.704398 0.749223 0.568489
O O16 0.685456 0.000000 0.477683
O O17 0.210873 0.500000 0.641987
O O18 0.305676 0.500000 0.116773
O O19 0.250000 0.750000 0.000000
#
# Coordination Sequence:
#
# PCOD9174209 Si02
#       7
#     8   8   8   8   8   8   8
#     4  10  18  31  53  78 107 149 194 227 276 350
#     4  10  20  38  61  84 115 156 199 246 295 344
#     4  10  20  37  57  81 113 152 193 230 280 353
#     4   9  16  30  53  80 108 143 190 233 275 340
#     4  10  23  42  64  88 118 157 201 245 291 351
#     4  11  23  37  54  84 120 150 189 243 298 344
#     4  11  22  37  60  90 122 154 195 246 297 353
#
# _framework density 19.934024999999998
#
# number of rings (size 3 to 8) (size 9 to 14) (size 15 to 20)
#    0.000    1.857    2.857    1.714    0.000    4.286 
#    0.000    1.429    0.000    4.286    0.000    0.000 
#    0.000    0.000    0.000    0.000    0.000    0.000 
#
# Total GULP energy -156094.478186 kJ/mol
# GULP energy per Si atom -5574.802792 kJ/mol
# Density = 1.988865 g / cm^3
# Si number density = 19.934025 Si / 1000 Ang^3
#
#
#
# Elastic Constant Matrix: (Units=GPa)
#
#
# Indices 1 2 3 4 5 6 
#
# 1 157.4203 18.8945 47.3522 0.0000 -17.2669 0.0000
# 2 18.8945 15.4388 13.8114 0.0000 -6.1117 0.0000
# 3 47.3522 13.8114 83.4205 0.0000 -14.1760 0.0000
# 4 0.0000 0.0000 0.0000 18.7472 0.0000 -1.1552
# 5 -17.2669 -6.1117 -14.1760 0.0000 33.9303 0.0000
# 6 0.0000 0.0000 0.0000 -1.1552 0.0000 30.5001
#
#
#
# Elastic Compliance Matrix: (Units=1/GPa)
#
#
# Indices 1 2 3 4 5 6 
#
# 1 0.008330 -0.006527 -0.003366 0.000000 0.001657 0.000000
# 2 -0.006527 0.083839 -0.008798 0.000000 0.008104 0.000000
# 3 -0.003366 -0.008798 0.015925 0.000000 0.003356 0.000000
# 4 0.000000 0.000000 0.000000 0.053466 0.000000 0.002025
# 5 0.001657 0.008104 0.003356 0.000000 0.033177 0.000000
# 6 0.000000 0.000000 0.000000 0.002025 0.000000 0.032863
#
#
# Mechanical properties :
#
#
# Convention : Reuss Voigt Hill
#
# Bulk Modulus (GPa) = 14.14215 46.26621 30.20418
# Shear Modulus (GPa) = 17.32768 28.38362 22.85565
#
# Velocity S-wave (km/s) = 2.95151 3.77752 3.38977
# Velocity P-wave (km/s) = 4.32725 6.50279 5.52320
#
# Compressibility (1/GPa) = 0.07071060
#
# Stress axis : x y z
#
# Youngs Moduli (GPa) = 120.04523 11.92757 62.79367
#
# Poissons Ratio (x) = 0.07786 0.21138
# Poissons Ratio (y) = 0.78359 0.55249
# Poissons Ratio (z) = 0.40410 0.10494
#
# Static dielectric constant tensor:
#      x y z
#    x 1.764940 0.000000 -0.033920 
#    y 0.000000 1.700090 0.000000 
#    z -0.033920 0.000000 1.713530 
# 
# From -- ./inp_files/237877.got.cif
#   From: 2010.05.17/outbox.cif.g08.bks.cpg/sg12_119_cif.got.tgz:237877.got - 2010.06.03 13:09:07.
