data_PCOD9174404
_publ_section_title
;
Structure prediction by ZEFSAII (Michael W. Deem and Ramdas Pophale) SiO2 
 PCOD9174404
Probable space group: C 2/M
;
_chemical_formula_sum "Si O2"
_cell_formula_units_Z 56
_cell_length_a 30.323291
_cell_length_b 7.661894
_cell_length_c 13.455040
_cell_angle_alpha 90.000000
_cell_angle_beta 55.527827
_cell_angle_gamma 90.000000
_cell_volume 2577.128482
_symmetry_space_group_name_H-M "C 2/M"
_symmetry_group_IT_number 12
_symmetry_cell_setting 'monoclinic'
loop_
_space_group_symop_operation_xyz
x,y,z
-x,y,-z
-x,-y,-z
x,-y,z
1/2+x,1/2+y,z
1/2-x,1/2+y,-z
1/2-x,1/2-y,-z
1/2+x,1/2-y,z
loop_
_atom_site_type_symbol
_atom_site_label
_atom_site_fract_x
_atom_site_fract_y
_atom_site_fract_z
Si Si1 0.446028 0.703557 0.519668
Si Si2 0.670710 0.798943 0.265557
Si Si3 0.128362 0.286884 0.783638
Si Si4 0.274463 0.794239 0.218493
Si Si5 0.551754 0.787650 0.713516
Si Si6 0.835757 0.713535 0.945285
Si Si7 0.937329 0.711840 0.937344
O O1 0.500000 0.777583 0.500000
O O2 0.443093 0.500000 0.550492
O O3 0.391136 0.785286 0.627787
O O4 0.448629 0.723135 0.398124
O O5 0.711122 0.727626 0.296710
O O6 0.678231 0.718851 0.146021
O O7 0.685285 0.000000 0.239744
O O8 0.128158 0.500000 0.780111
O O9 0.187491 0.226632 0.741828
O O10 0.102623 0.228798 0.713310
O O11 0.088727 0.235208 0.924686
O O12 0.284954 0.000000 0.203066
O O13 0.297187 0.727057 0.083588
O O14 0.497180 0.730738 0.838111
O O15 0.551653 0.000000 0.710329
O O16 0.834477 0.500000 0.943378
O O17 0.895603 0.762280 0.904038
O O18 0.938314 0.500000 0.938443
#
# Coordination Sequence:
#
# PCOD9174404 Si02
#       7
#     8   8   8   8   8   8   8
#     4  11  25  42  56  73 101 136 171 208 257 314
#     4  11  21  34  54  79 104 133 176 221 256 294
#     4   8  15  28  50  81 111 138 170 208 251 304
#     4   9  17  32  52  76 110 144 170 202 253 311
#     4  10  18  31  55  82 105 134 175 218 255 294
#     4   8  15  27  47  77 109 138 167 205 254 306
#     4   8  13  24  47  80 111 135 164 206 255 304
#
# _framework density 21.729610000000001
#
# number of rings (size 3 to 8) (size 9 to 14) (size 15 to 20)
#    0.000    2.714    0.000    4.286    0.000    4.000 
#    0.000    2.143    0.000    5.143    0.000    0.000 
#    0.000    0.000    0.000    0.000    0.000    0.000 
#
# Total GULP energy -156240.695978 kJ/mol
# GULP energy per Si atom -5580.024856 kJ/mol
# Density = 2.168015 g / cm^3
# Si number density = 21.729610 Si / 1000 Ang^3
#
#
#
# Elastic Constant Matrix: (Units=GPa)
#
#
# Indices 1 2 3 4 5 6 
#
# 1 192.0908 2.1892 47.7947 0.0001 9.0728 0.0000
# 2 2.1892 37.2246 -5.2899 -0.0004 -0.5447 0.0002
# 3 47.7947 -5.2899 30.0704 0.0000 10.2394 0.0000
# 4 0.0001 -0.0004 0.0000 975.6668 0.0000 -453.4545
# 5 9.0728 -0.5447 10.2394 0.0000 32.4583 0.0000
# 6 0.0000 0.0002 0.0000 -453.4545 0.0000 219.2765
#
#
#
# Elastic Compliance Matrix: (Units=1/GPa)
#
#
# Indices 1 2 3 4 5 6 
#
# 1 0.009005 -0.002711 -0.015592 0.000000 0.002356 0.000000
# 2 -0.002711 0.028410 0.009956 0.000000 -0.001906 0.000000
# 3 -0.015592 0.009956 0.065258 0.000000 -0.016061 0.000000
# 4 0.000000 0.000000 0.000000 0.026356 0.000000 0.054503
# 5 0.002356 -0.001906 -0.016061 0.000000 0.035185 0.000000
# 6 0.000000 0.000000 0.000000 0.054503 0.000000 0.117270
#
#
# Mechanical properties :
#
#
# Convention : Reuss Voigt Hill
#
# Bulk Modulus (GPa) = 11.63079 38.75265 25.19172
# Shear Modulus (GPa) = 15.29813 259.79312 137.54563
#
# Velocity S-wave (km/s) = 2.65622 10.94608 7.96468
# Velocity P-wave (km/s) = 3.84337 13.32773 9.80816
#
# Compressibility (1/GPa) = 0.08597867
#
# Stress axis : x y z
#
# Youngs Moduli (GPa) = 111.05039 35.19857 15.32390
#
# Poissons Ratio (x) = 0.09542 0.23893
# Poissons Ratio (y) = 0.30104 -0.15256
# Poissons Ratio (z) = 1.73147 -0.35042
#
# Static dielectric constant tensor:
#      x y z
#    x 1.829280 0.000000 0.001820 
#    y 0.000000 1.814640 0.000000 
#    z 0.001820 0.000000 1.752490 
# 
# From -- ./inp_files/187173.got.cif
#   From: 2010.05.17/outbox.cif.g08.bks.cpg/sg12_94_cif.got.tgz:187173.got - 2010.06.03 13:09:07.
