data_PCOD9174913
_publ_section_title
;
Structure prediction by ZEFSAII (Michael W. Deem and Ramdas Pophale) SiO2 
 PCOD9174913
Probable space group: C 2/M
;
_chemical_formula_sum "Si O2"
_cell_formula_units_Z 64
_cell_length_a 20.943008
_cell_length_b 7.600929
_cell_length_c 21.888161
_cell_angle_alpha 90.000000
_cell_angle_beta 131.138186
_cell_angle_gamma 90.000000
_cell_volume 2624.110583
_symmetry_space_group_name_H-M "C 2/M"
_symmetry_group_IT_number 12
_symmetry_cell_setting 'monoclinic'
loop_
_space_group_symop_operation_xyz
x,y,z
-x,y,-z
-x,-y,-z
x,-y,z
1/2+x,1/2+y,z
1/2-x,1/2+y,-z
1/2-x,1/2-y,-z
1/2+x,1/2-y,z
loop_
_atom_site_type_symbol
_atom_site_label
_atom_site_fract_x
_atom_site_fract_y
_atom_site_fract_z
Si Si1 0.574325 0.713782 0.360793
Si Si2 0.593842 0.208672 0.548822
Si Si3 0.324181 0.199630 0.755214
Si Si4 0.334258 0.208751 0.015978
Si Si5 0.751411 0.203228 0.579969
Si Si6 0.740724 0.215220 0.156356
Si Si7 0.008717 0.203877 0.186398
Si Si8 0.591466 0.287782 0.682204
O O1 0.578894 0.500000 0.367192
O O2 0.672640 0.776109 0.415692
O O3 0.527535 0.761729 0.267591
O O4 0.504783 0.776484 0.366457
O O5 0.500000 0.286966 0.500000
O O6 0.658899 0.283461 0.538972
O O7 0.627366 0.229489 0.639266
O O8 0.586619 0.000000 0.532212
O O9 0.293854 0.292747 0.674369
O O10 0.297947 0.273594 0.803718
O O11 0.425569 0.197085 0.815204
O O12 0.290897 0.000000 0.729864
O O13 0.313579 0.277692 0.935062
O O14 0.346653 0.000000 0.019860
O O15 0.250000 0.250000 0.000000
O O16 0.414347 0.280682 0.102672
O O17 0.740030 0.000000 0.556638
O O18 0.840316 0.264823 0.223179
O O19 0.738975 0.000000 0.153461
O O20 0.032816 0.000000 0.199765
O O21 0.588024 0.500000 0.680167
#
# Coordination Sequence:
#
# PCOD9174913 Si02
#       8
#     8   8   8   8   8   8   8   8
#     4   8  16  31  55  78 101 138 179 220 264 313
#     4  10  21  36  54  78 111 145 172 210 269 327
#     4  10  18  32  54  79 103 134 176 221 268 318
#     4  11  22  37  53  73 103 142 183 226 278 327
#     4   9  17  33  54  77 106 142 180 215 262 324
#     4   9  19  33  52  75 104 139 173 218 276 328
#     4  10  20  36  54  76 108 144 181 220 268 322
#     4  10  18  34  57  80 102 132 180 224 260 314
#
# _framework density 24.389215
#
# number of rings (size 3 to 8) (size 9 to 14) (size 15 to 20)
#    0.000    2.375    1.250    2.625    0.000    2.750 
#    0.000   11.250    0.000    0.000    0.000    0.000 
#    0.000    0.000    0.000    0.000    0.000    0.000 
#
# Total GULP energy -178729.603798 kJ/mol
# GULP energy per Si atom -5585.300119 kJ/mol
# Density = 2.433370 g / cm^3
# Si number density = 24.389215 Si / 1000 Ang^3
#
#
#
# Elastic Constant Matrix: (Units=GPa)
#
#
# Indices 1 2 3 4 5 6 
#
# 1 188.4921 7.8479 34.2421 0.0000 13.1050 0.0000
# 2 7.8479 71.3220 14.9948 0.0000 -4.6481 0.0001
# 3 34.2421 14.9948 95.3457 0.0000 15.7184 0.0000
# 4 0.0000 0.0000 0.0000 27.7509 0.0000 1.0868
# 5 13.1050 -4.6481 15.7184 0.0000 47.3889 0.0000
# 6 0.0000 0.0001 0.0000 1.0868 0.0000 15.7564
#
#
#
# Elastic Compliance Matrix: (Units=1/GPa)
#
#
# Indices 1 2 3 4 5 6 
#
# 1 0.005722 -0.000308 -0.001842 0.000000 -0.001002 0.000000
# 2 -0.000308 0.014759 -0.002606 0.000000 0.002397 0.000000
# 3 -0.001842 -0.002606 0.012184 0.000000 -0.003788 0.000000
# 4 0.000000 0.000000 0.000000 0.036132 0.000000 -0.002492
# 5 -0.001002 0.002397 -0.003788 0.000000 0.022870 0.000000
# 6 0.000000 0.000000 0.000000 -0.002492 0.000000 0.063638
#
#
# Mechanical properties :
#
#
# Convention : Reuss Voigt Hill
#
# Bulk Modulus (GPa) = 43.18763 52.14771 47.66767
# Shear Modulus (GPa) = 28.97974 38.05089 33.51532
#
# Velocity S-wave (km/s) = 3.45080 3.95416 3.71102
# Velocity P-wave (km/s) = 5.79857 6.50193 6.16030
#
# Compressibility (1/GPa) = 0.02315478
#
# Stress axis : x y z
#
# Youngs Moduli (GPa) = 174.75605 67.75608 82.07688
#
# Poissons Ratio (x) = 0.02085 0.15115
# Poissons Ratio (y) = 0.05379 0.21387
# Poissons Ratio (z) = 0.32182 0.17655
#
# Static dielectric constant tensor:
#      x y z
#    x 1.968480 0.000000 0.020940 
#    y 0.000000 1.296290 0.000000 
#    z 0.020940 0.000000 1.993500 
# 
# From -- ./inp_files/346220.got.cif
#   From: 2010.05.17/outbox.cif.g08.bks.cpg/sg12_174_cif.got.tgz:346220.got - 2010.06.03 13:09:07.
