data_PCOD9174488
_publ_section_title
;
Structure prediction by ZEFSAII (Michael W. Deem and Ramdas Pophale) SiO2 
 PCOD9174488
Probable space group: C 2/M
;
_chemical_formula_sum "Si O2"
_cell_formula_units_Z 56
_cell_length_a 23.314900
_cell_length_b 21.577343
_cell_length_c 19.507285
_cell_angle_alpha 90.000000
_cell_angle_beta 162.518166
_cell_angle_gamma 90.000000
_cell_volume 2948.038822
_symmetry_space_group_name_H-M "C 2/M"
_symmetry_group_IT_number 12
_symmetry_cell_setting 'monoclinic'
loop_
_space_group_symop_operation_xyz
x,y,z
-x,y,-z
-x,-y,-z
x,-y,z
1/2+x,1/2+y,z
1/2-x,1/2+y,-z
1/2-x,1/2-y,-z
1/2+x,1/2-y,z
loop_
_atom_site_type_symbol
_atom_site_label
_atom_site_fract_x
_atom_site_fract_y
_atom_site_fract_z
Si Si1 0.330430 0.224806 0.995670
Si Si2 0.991374 0.609325 0.735204
Si Si3 0.059971 0.203413 0.367685
Si Si4 0.760082 0.568581 0.108828
Si Si5 0.359652 0.433435 0.583853
Si Si6 0.788040 0.176598 0.841607
Si Si7 0.232731 0.812163 0.337216
O O1 0.413888 0.156683 0.102806
O O2 0.485802 0.271273 0.209016
O O3 0.280496 0.255535 0.866948
O O4 0.127631 0.221252 0.803028
O O5 0.841638 0.568750 0.606320
O O6 0.863367 0.649484 0.537365
O O7 0.143313 0.579668 0.855891
O O8 0.110273 0.131119 0.421944
O O9 0.233670 0.242141 0.597880
O O10 0.819613 0.500000 0.201466
O O11 0.794249 0.624100 0.201362
O O12 0.534053 0.567732 0.836539
O O13 0.375257 0.500000 0.564249
O O14 0.706079 0.178973 0.671807
O O15 0.015618 0.165856 0.094354
#
# Coordination Sequence:
#
# PCOD9174488 Si02
#       7
#     8   8   8   8   8   8   8
#     4  10  18  31  57  78 109 136 181 231 279 311
#     4  11  20  37  56  81 105 147 182 231 269 322
#     4  10  18  35  53  84 105 142 176 232 274 322
#     4  11  22  36  54  78 113 148 185 222 261 325
#     4  11  21  35  56  82 112 145 181 225 268 323
#     4  11  20  38  51  83 110 146 182 231 265 331
#     4  10  22  33  58  77 112 142 185 225 283 314
#
# _framework density 18.995678999999999
#
# number of rings (size 3 to 8) (size 9 to 14) (size 15 to 20)
#    0.000    1.429    4.286    3.000    0.000    4.571 
#    0.000    3.571    0.000    0.000    0.000   11.000 
#    0.000    0.000    0.000    0.000    0.000    0.000 
#
# Total GULP energy -156096.431217 kJ/mol
# GULP energy per Si atom -5574.872543 kJ/mol
# Density = 1.895244 g / cm^3
# Si number density = 18.995679 Si / 1000 Ang^3
#
#
#
# Elastic Constant Matrix: (Units=GPa)
#
#
# Indices 1 2 3 4 5 6 
#
# 1 56.1784 25.9812 11.6014 0.0001 12.2446 0.0000
# 2 25.9812 119.5151 22.9554 -0.0001 0.4948 0.0000
# 3 11.6014 22.9554 50.5086 -0.0003 11.4511 -0.0001
# 4 0.0001 -0.0001 -0.0003 5.9061 0.0000 1.0642
# 5 12.2446 0.4948 11.4511 0.0000 22.5045 -0.0002
# 6 0.0000 0.0000 -0.0001 1.0642 -0.0002 18.6668
#
#
#
# Elastic Compliance Matrix: (Units=1/GPa)
#
#
# Indices 1 2 3 4 5 6 
#
# 1 0.022739 -0.004840 -0.000274 -0.000001 -0.012126 0.000000
# 2 -0.004840 0.010292 -0.004648 0.000000 0.004772 0.000000
# 3 -0.000274 -0.004648 0.024775 0.000001 -0.012355 0.000000
# 4 -0.000001 0.000000 0.000001 0.171073 -0.000001 -0.009753
# 5 -0.012126 0.004772 -0.012355 -0.000001 0.057215 0.000000
# 6 0.000000 0.000000 0.000000 -0.009753 0.000000 0.054127
#
#
# Mechanical properties :
#
#
# Convention : Reuss Voigt Hill
#
# Bulk Modulus (GPa) = 26.12198 38.58646 32.35422
# Shear Modulus (GPa) = 13.42262 20.45976 16.94119
#
# Velocity S-wave (km/s) = 2.66111 3.28544 2.98962
# Velocity P-wave (km/s) = 4.81906 5.89487 5.38391
#
# Compressibility (1/GPa) = 0.03828194
#
# Stress axis : x y z
#
# Youngs Moduli (GPa) = 43.97818 97.15965 40.36323
#
# Poissons Ratio (x) = 0.47028 0.01105
# Poissons Ratio (y) = 0.21287 0.18760
# Poissons Ratio (z) = 0.01204 0.45159
#
# Static dielectric constant tensor:
#      x y z
#    x 1.686910 0.000000 0.046370 
#    y 0.000000 1.698840 0.000000 
#    z 0.046370 0.000000 1.674900 
# 
# From -- ./inp_files/286059.got.cif
#   From: 2010.05.17/outbox.cif.g08.bks.cpg/sg12_144_cif.got.tgz:286059.got - 2010.06.03 13:09:07.
