data_PCOD9174269
_publ_section_title
;
Structure prediction by ZEFSAII (Michael W. Deem and Ramdas Pophale) SiO2 
 PCOD9174269
Probable space group: C 2/M
;
_chemical_formula_sum "Si O2"
_cell_formula_units_Z 56
_cell_length_a 17.969971
_cell_length_b 15.494625
_cell_length_c 18.973589
_cell_angle_alpha 90.000000
_cell_angle_beta 28.735594
_cell_angle_gamma 90.000000
_cell_volume 2539.883367
_symmetry_space_group_name_H-M "C 2/M"
_symmetry_group_IT_number 12
_symmetry_cell_setting 'monoclinic'
loop_
_space_group_symop_operation_xyz
x,y,z
-x,y,-z
-x,-y,-z
x,-y,z
1/2+x,1/2+y,z
1/2-x,1/2+y,-z
1/2-x,1/2-y,-z
1/2+x,1/2-y,z
loop_
_atom_site_type_symbol
_atom_site_label
_atom_site_fract_x
_atom_site_fract_y
_atom_site_fract_z
Si Si1 0.931969 0.596227 0.256931
Si Si2 0.195788 0.772229 0.663345
Si Si3 0.541720 0.600295 0.884253
Si Si4 0.450544 0.220404 0.619178
Si Si5 0.298229 0.899383 0.861705
Si Si6 0.629782 0.405840 0.601674
Si Si7 0.905228 0.092737 0.652422
O O1 0.926201 0.500000 0.228814
O O2 0.881742 0.680271 0.255911
O O3 0.803056 0.595266 0.425988
O O4 0.097179 0.610613 0.155948
O O5 0.375873 0.759203 0.495710
O O6 0.117645 0.824737 0.663520
O O7 0.171480 0.836579 0.748398
O O8 0.583865 0.500000 0.841539
O O9 0.500000 0.614510 0.000000
O O10 0.381396 0.620094 0.976813
O O11 0.500000 0.190636 0.500000
O O12 0.369020 0.155201 0.739311
O O13 0.348476 0.308405 0.699622
O O14 0.305279 0.000000 0.835311
O O15 0.610026 0.500000 0.654749
O O16 0.514351 0.408130 0.631097
O O17 0.000000 0.090267 0.500000
O O18 0.817399 0.000000 0.727358
#
# Coordination Sequence:
#
# PCOD9174269 Si02
#       7
#     8   8   8   8   8   8   8
#     4  10  20  34  55  83 115 146 179 227 287 333
#     4  12  21  34  60  87 111 144 194 238 269 325
#     4  10  23  42  59  78 111 152 187 227 286 342
#     4  11  21  32  53  84 111 142 187 233 276 326
#     4  10  21  38  55  76 112 148 179 223 284 341
#     4  10  18  31  53  84 115 141 180 231 276 324
#     4   9  18  32  50  78 116 149 176 220 283 335
#
# _framework density 22.048255999999999
#
# number of rings (size 3 to 8) (size 9 to 14) (size 15 to 20)
#    0.000    1.714    2.857    2.571    0.000    1.429 
#    0.000    0.000    0.000    1.286    0.000    0.000 
#    0.000    0.000    0.000    0.000    0.000    0.000 
#
# Total GULP energy -156175.516968 kJ/mol
# GULP energy per Si atom -5577.697035 kJ/mol
# Density = 2.199807 g / cm^3
# Si number density = 22.048256 Si / 1000 Ang^3
#
#
#
# Elastic Constant Matrix: (Units=GPa)
#
#
# Indices 1 2 3 4 5 6 
#
# 1 62.8745 15.3591 3.5535 -0.0008 2.9749 0.0006
# 2 15.3591 127.6678 43.5209 0.0011 3.4109 0.0002
# 3 3.5535 43.5209 46.7869 -0.0017 -9.2080 0.0011
# 4 -0.0008 0.0011 -0.0017 15.0385 0.0003 2.0468
# 5 2.9749 3.4109 -9.2080 0.0003 26.8786 -0.0004
# 6 0.0006 0.0002 0.0011 2.0468 -0.0004 25.4590
#
#
#
# Elastic Compliance Matrix: (Units=1/GPa)
#
#
# Indices 1 2 3 4 5 6 
#
# 1 0.016457 -0.002080 0.000406 0.000001 -0.001418 -0.000001
# 2 -0.002080 0.012538 -0.012624 -0.000002 -0.005686 0.000001
# 3 0.000406 -0.012624 0.035806 0.000005 0.013823 -0.000002
# 4 0.000001 -0.000002 0.000005 0.067232 0.000001 -0.005405
# 5 -0.001418 -0.005686 0.013823 0.000001 0.042818 0.000000
# 6 -0.000001 0.000001 -0.000002 -0.005405 0.000000 0.039713
#
#
# Mechanical properties :
#
#
# Convention : Reuss Voigt Hill
#
# Bulk Modulus (GPa) = 27.62067 40.24402 33.93234
# Shear Modulus (GPa) = 19.59015 25.13494 22.36255
#
# Velocity S-wave (km/s) = 2.98403 3.38005 3.18819
# Velocity P-wave (km/s) = 4.94238 5.79010 5.38295
#
# Compressibility (1/GPa) = 0.03620477
#
# Stress axis : x y z
#
# Youngs Moduli (GPa) = 60.76420 79.75443 27.92817
#
# Poissons Ratio (x) = 0.16592 -0.01134
# Poissons Ratio (y) = 0.12642 0.35257
# Poissons Ratio (z) = -0.02468 1.00683
#
# Static dielectric constant tensor:
#      x y z
#    x 1.886820 0.000000 -0.045330 
#    y 0.000000 1.868580 0.000000 
#    z -0.045330 0.000000 1.754360 
# 
# From -- ./inp_files/316726.got.cif
#   From: 2010.05.17/outbox.cif.g08.bks.cpg/sg12_159_cif.got.tgz:316726.got - 2010.06.03 13:09:07.
