data_PCOD9174641
_publ_section_title
;
Structure prediction by ZEFSAII (Michael W. Deem and Ramdas Pophale) SiO2 
 PCOD9174641
Probable space group: C 2/M
;
_chemical_formula_sum "Si O2"
_cell_formula_units_Z 64
_cell_length_a 35.994771
_cell_length_b 8.830651
_cell_length_c 19.632632
_cell_angle_alpha 90.000000
_cell_angle_beta 140.814994
_cell_angle_gamma 90.000000
_cell_volume 3942.833946
_symmetry_space_group_name_H-M "C 2/M"
_symmetry_group_IT_number 12
_symmetry_cell_setting 'monoclinic'
loop_
_space_group_symop_operation_xyz
x,y,z
-x,y,-z
-x,-y,-z
x,-y,z
1/2+x,1/2+y,z
1/2-x,1/2+y,-z
1/2-x,1/2-y,-z
1/2+x,1/2-y,z
loop_
_atom_site_type_symbol
_atom_site_label
_atom_site_fract_x
_atom_site_fract_y
_atom_site_fract_z
Si Si1 0.947959 0.317891 0.476953
Si Si2 0.362551 0.682374 0.135676
Si Si3 0.796155 0.680721 0.910691
Si Si4 0.565421 0.825473 0.126142
Si Si5 0.615908 0.679927 0.068509
Si Si6 0.512028 0.318334 0.178238
Si Si7 0.499662 0.682124 0.684012
Si Si8 0.827276 0.317773 0.229742
O O1 0.950958 0.500000 0.485308
O O2 0.960600 0.250749 0.568838
O O3 0.885333 0.277431 0.355545
O O4 0.000000 0.266488 0.500000
O O5 0.357079 0.500000 0.126669
O O6 0.431834 0.722041 0.231119
O O7 0.335310 0.749182 0.165825
O O8 0.330342 0.751325 0.024538
O O9 0.794166 0.500000 0.912472
O O10 0.832249 0.733283 0.895828
O O11 0.731107 0.749946 0.820158
O O12 0.605774 0.731776 0.131687
O O13 0.556466 0.757628 0.188340
O O14 0.416142 0.000000 0.845380
O O15 0.500000 0.819533 0.000000
O O16 0.625221 0.500000 0.077624
O O17 0.554723 0.714503 0.941612
O O18 0.518777 0.500000 0.183968
O O19 0.517839 0.269078 0.264655
O O20 0.496054 0.500000 0.676685
O O21 0.823233 0.500000 0.219500
#
# Coordination Sequence:
#
# PCOD9174641 Si02
#       8
#     8   8   8   8   8   8   8   8
#     4  10  21  37  55  76 100 131 173 219 266 308
#     4  11  21  36  54  76 104 137 175 213 259 311
#     4  12  24  36  52  76 105 138 176 217 258 308
#     4   9  17  28  44  72 104 136 171 207 250 301
#     4  10  18  32  51  72 103 140 173 207 253 308
#     4   9  17  31  48  72 103 137 172 207 252 306
#     4  10  20  33  53  78 104 136 174 214 257 308
#     4  11  23  39  55  73 101 137 176 219 262 310
#
# _framework density 16.231981000000001
#
# number of rings (size 3 to 8) (size 9 to 14) (size 15 to 20)
#    0.000    1.750    2.500    3.000    0.000    4.250 
#    0.000    0.000    0.000    0.000    0.000    0.875 
#    0.000    0.000    0.000    0.000    0.000    0.000 
#
# Total GULP energy -178661.378022 kJ/mol
# GULP energy per Si atom -5583.168063 kJ/mol
# Density = 1.619504 g / cm^3
# Si number density = 16.231981 Si / 1000 Ang^3
#
#
#
# Elastic Constant Matrix: (Units=GPa)
#
#
# Indices 1 2 3 4 5 6 
#
# 1 131.3799 45.0761 50.0803 0.0000 -8.5603 0.0000
# 2 45.0761 58.4634 28.9211 0.0000 6.3586 0.0000
# 3 50.0803 28.9211 56.0510 0.0000 7.6349 0.0000
# 4 0.0000 0.0000 0.0000 21.6315 0.0000 -5.0387
# 5 -8.5603 6.3586 7.6349 0.0000 21.3313 0.0000
# 6 0.0000 0.0000 0.0000 -5.0387 0.0000 31.4559
#
#
#
# Elastic Compliance Matrix: (Units=1/GPa)
#
#
# Indices 1 2 3 4 5 6 
#
# 1 0.015454 -0.007528 -0.011641 0.000000 0.012612 0.000000
# 2 -0.007528 0.026787 -0.005883 0.000000 -0.008900 0.000000
# 3 -0.011641 -0.005883 0.033298 0.000000 -0.014836 0.000000
# 4 0.000000 0.000000 0.000000 0.048021 0.000000 0.007692
# 5 0.012612 -0.008900 -0.014836 0.000000 0.059904 0.000000
# 6 0.000000 0.000000 0.000000 0.007692 0.000000 0.033023
#
#
# Mechanical properties :
#
#
# Convention : Reuss Voigt Hill
#
# Bulk Modulus (GPa) = 39.31646 54.89437 47.10541
# Shear Modulus (GPa) = 18.17724 23.00485 20.59104
#
# Velocity S-wave (km/s) = 3.35003 3.76873 3.56553
# Velocity P-wave (km/s) = 6.26401 7.26841 6.78482
#
# Compressibility (1/GPa) = 0.02543464
#
# Stress axis : x y z
#
# Youngs Moduli (GPa) = 64.71024 37.33120 30.03144
#
# Poissons Ratio (x) = 0.28103 0.34960
# Poissons Ratio (y) = 0.48713 0.17668
# Poissons Ratio (z) = 0.75330 0.21963
#
# Static dielectric constant tensor:
#      x y z
#    x 1.539010 0.000000 0.000080 
#    y 0.000000 1.542990 0.000000 
#    z 0.000080 0.000000 1.518870 
# 
# From -- ./inp_files/295623.got.cif
#   From: 2010.05.17/outbox.cif.g08.bks.cpg/sg12_148_cif.got.tgz:295623.got - 2010.06.03 13:09:07.
