data_PCOD9174966
_publ_section_title
;
Structure prediction by ZEFSAII (Michael W. Deem and Ramdas Pophale) SiO2 
 PCOD9174966
Probable space group: C 2/M
;
_chemical_formula_sum "Si O2"
_cell_formula_units_Z 56
_cell_length_a 18.415166
_cell_length_b 27.883594
_cell_length_c 9.000807
_cell_angle_alpha 90.000000
_cell_angle_beta 135.286287
_cell_angle_gamma 90.000000
_cell_volume 3251.696049
_symmetry_space_group_name_H-M "C 2/M"
_symmetry_group_IT_number 12
_symmetry_cell_setting 'monoclinic'
loop_
_space_group_symop_operation_xyz
x,y,z
-x,y,-z
-x,-y,-z
x,-y,z
1/2+x,1/2+y,z
1/2-x,1/2+y,-z
1/2-x,1/2-y,-z
1/2+x,1/2-y,z
loop_
_atom_site_type_symbol
_atom_site_label
_atom_site_fract_x
_atom_site_fract_y
_atom_site_fract_z
Si Si1 0.111712 0.054292 0.735608
Si Si2 0.432115 0.710195 0.157038
Si Si3 0.718527 0.648395 0.861534
Si Si4 0.470519 0.554582 0.788396
Si Si5 0.394498 0.197357 0.303409
Si Si6 0.142664 0.847283 0.428432
Si Si7 0.265206 0.714557 0.663828
O O1 0.200167 0.091753 0.832644
O O2 0.000000 0.066889 0.500000
O O3 0.078508 0.056394 0.857986
O O4 0.136083 0.000000 0.728006
O O5 0.372080 0.670125 0.166633
O O6 0.430259 0.755965 0.262338
O O7 0.542462 0.687650 0.278349
O O8 0.364864 0.723546 0.913944
O O9 0.701540 0.664483 0.667349
O O10 0.821091 0.667230 0.088094
O O11 0.429607 0.500000 0.707223
O O12 0.397125 0.597958 0.631364
O O13 0.500000 0.562168 0.000000
O O14 0.500000 0.171326 0.500000
O O15 0.328495 0.211789 0.354171
O O16 0.211622 0.835607 0.385634
O O17 0.250000 0.750000 0.500000
#
# Coordination Sequence:
#
# PCOD9174966 Si02
#       7
#     8   8   8   8   8   8   8
#     4  10  18  32  54  83 114 143 175 210 262 338
#     4  11  20  35  54  77 108 141 174 219 277 326
#     4  11  20  34  53  78 106 144 181 215 264 324
#     4  10  20  32  49  82 123 147 164 201 266 338
#     4  11  24  39  54  70 103 145 189 233 266 307
#     4  12  21  33  56  83 111 144 173 219 279 333
#     4  11  22  35  52  79 104 138 189 227 265 326
#
# _framework density 17.221781
#
# number of rings (size 3 to 8) (size 9 to 14) (size 15 to 20)
#    0.000    1.143    2.857    6.857    2.000    0.000 
#    0.000    2.143    0.000    0.429    0.000    0.000 
#    0.000    2.286    0.000    0.000    0.000    0.000 
#
# Total GULP energy -156178.881960 kJ/mol
# GULP energy per Si atom -5577.817213 kJ/mol
# Density = 1.718258 g / cm^3
# Si number density = 17.221781 Si / 1000 Ang^3
#
#
#
# Elastic Constant Matrix: (Units=GPa)
#
#
# Indices 1 2 3 4 5 6 
#
# 1 68.0501 19.4965 54.0188 0.0000 -15.3475 0.0000
# 2 19.4965 90.7866 39.6750 0.0000 5.3819 0.0000
# 3 54.0188 39.6750 119.8732 0.0000 -10.0539 0.0000
# 4 0.0000 0.0000 0.0000 15.7049 0.0000 -3.8060
# 5 -15.3475 5.3819 -10.0539 0.0000 32.2391 0.0000
# 6 0.0000 0.0000 0.0000 -3.8060 0.0000 22.7090
#
#
#
# Elastic Compliance Matrix: (Units=1/GPa)
#
#
# Indices 1 2 3 4 5 6 
#
# 1 0.025191 -0.001546 -0.010076 0.000000 0.009108 0.000000
# 2 -0.001546 0.013386 -0.004090 0.000000 -0.004246 0.000000
# 3 -0.010076 -0.004090 0.014264 0.000000 0.000334 0.000000
# 4 0.000000 0.000000 0.000000 0.066370 0.000000 0.011124
# 5 0.009108 -0.004246 0.000334 0.000000 0.036167 0.000000
# 6 0.000000 0.000000 0.000000 0.011124 0.000000 0.045900
#
#
# Mechanical properties :
#
#
# Convention : Reuss Voigt Hill
#
# Bulk Modulus (GPa) = 46.69222 56.12118 51.40670
# Shear Modulus (GPa) = 20.84715 25.16526 23.00621
#
# Velocity S-wave (km/s) = 3.48301 3.82677 3.65893
# Velocity P-wave (km/s) = 6.58379 7.22382 6.91122
#
# Compressibility (1/GPa) = 0.02141685
#
# Stress axis : x y z
#
# Youngs Moduli (GPa) = 39.69716 74.70565 70.10453
#
# Poissons Ratio (x) = 0.11551 0.70638
# Poissons Ratio (y) = 0.06138 0.28671
# Poissons Ratio (z) = 0.39999 0.30552
#
# Static dielectric constant tensor:
#      x y z
#    x 1.609890 0.000000 -0.041030 
#    y 0.000000 1.633240 0.000000 
#    z -0.041030 0.000000 1.613350 
# 
# From -- ./inp_files/80497.got.cif
#   From: 2010.05.17/outbox.cif.g08.bks.cpg/sg12_41_cif.got.tgz:80497.got - 2010.06.03 13:09:07.
