data_PCOD9174450
_publ_section_title
;
Structure prediction by ZEFSAII (Michael W. Deem and Ramdas Pophale) SiO2 
 PCOD9174450
Probable space group: C 2/M
;
_chemical_formula_sum "Si O2"
_cell_formula_units_Z 58
_cell_length_a 21.240869
_cell_length_b 14.537803
_cell_length_c 12.366495
_cell_angle_alpha 90.000000
_cell_angle_beta 121.766843
_cell_angle_gamma 90.000000
_cell_volume 3246.665226
_symmetry_space_group_name_H-M "C 2/M"
_symmetry_group_IT_number 12
_symmetry_cell_setting 'monoclinic'
loop_
_space_group_symop_operation_xyz
x,y,z
-x,y,-z
-x,-y,-z
x,-y,z
1/2+x,1/2+y,z
1/2-x,1/2+y,-z
1/2-x,1/2-y,-z
1/2+x,1/2-y,z
loop_
_atom_site_type_symbol
_atom_site_label
_atom_site_fract_x
_atom_site_fract_y
_atom_site_fract_z
Si Si1 0.921457 0.394580 0.376334
Si Si2 0.571841 0.348586 0.405010
Si Si3 0.171242 0.105309 0.294542
Si Si4 0.087180 0.232753 0.060687
Si Si5 0.000000 0.000000 0.500000
Si Si6 0.671623 0.824808 0.517802
Si Si7 0.913407 0.607946 0.769285
Si Si8 0.051610 0.713151 0.800695
O O1 0.930794 0.500000 0.350692
O O2 0.861657 0.386047 0.415833
O O3 0.904805 0.332312 0.258142
O O4 0.000000 0.364441 0.500000
O O5 0.610573 0.392666 0.335037
O O6 0.544339 0.419593 0.469322
O O7 0.632668 0.273985 0.499925
O O8 0.501485 0.291444 0.296765
O O9 0.135563 0.153177 0.157861
O O10 0.240665 0.166917 0.395115
O O11 0.194046 0.000000 0.296732
O O12 0.100952 0.326259 0.141404
O O13 0.097505 0.249038 0.943089
O O14 0.000000 0.210863 0.000000
O O15 0.642409 0.864286 0.377453
O O16 0.909781 0.500000 0.789369
O O17 0.994365 0.637292 0.797515
#
# Coordination Sequence:
#
# PCOD9174450 Si02
#       8
#     8   8   8   8   2   8   8   8
#     4  11  19  32  57  89 118 154 203 252 306 375
#     4  11  21  38  60  88 128 154 199 261 313 375
#     4  12  23  40  62  90 120 167 208 264 322 375
#     4  10  21  38  55  85 121 163 216 257 315 367
#     4  12  24  40  64 102 122 164 220 248 326 374
#     4  11  22  38  60  90 126 159 199 260 323 375
#     4  10  18  31  55  88 123 154 197 253 310 381
#     4  10  20  36  56  83 121 158 201 257 313 361
#
# _framework density 17.864484000000001
#
# number of rings (size 3 to 8) (size 9 to 14) (size 15 to 20)
#    0.000    1.241    7.586    2.897    0.000    3.310 
#    1.241    0.690    0.000    0.000    0.000    0.000 
#    0.000    0.000    0.000    0.000    0.000    0.000 
#
# Total GULP energy -161591.924175 kJ/mol
# GULP energy per Si atom -5572.135316 kJ/mol
# Density = 1.782382 g / cm^3
# Si number density = 17.864484 Si / 1000 Ang^3
#
#
#
# Elastic Constant Matrix: (Units=GPa)
#
#
# Indices 1 2 3 4 5 6 
#
# 1 56.0392 24.2993 36.5339 0.0000 -8.4782 0.0000
# 2 24.2993 124.8093 46.4371 0.0000 -3.4486 0.0000
# 3 36.5339 46.4371 109.3011 0.0000 -4.3026 0.0000
# 4 0.0000 0.0000 0.0000 10.9353 0.0000 -5.8784
# 5 -8.4782 -3.4486 -4.3026 0.0000 18.8065 0.0000
# 6 0.0000 0.0000 0.0000 -5.8784 0.0000 25.5229
#
#
#
# Elastic Compliance Matrix: (Units=1/GPa)
#
#
# Indices 1 2 3 4 5 6 
#
# 1 0.024671 -0.001920 -0.007070 0.000000 0.009152 0.000000
# 2 -0.001920 0.009679 -0.003466 0.000000 0.000116 0.000000
# 3 -0.007070 -0.003466 0.012951 0.000000 -0.000860 0.000000
# 4 0.000000 0.000000 0.000000 0.104368 0.000000 0.024038
# 5 0.009152 0.000116 -0.000860 0.000000 0.057124 0.000000
# 6 0.000000 0.000000 0.000000 0.024038 0.000000 0.044717
#
#
# Mechanical properties :
#
#
# Convention : Reuss Voigt Hill
#
# Bulk Modulus (GPa) = 44.66496 56.07668 50.37082
# Shear Modulus (GPa) = 17.48958 23.24492 20.36725
#
# Velocity S-wave (km/s) = 3.13231 3.61110 3.38020
# Velocity P-wave (km/s) = 6.17562 6.98891 6.59481
#
# Compressibility (1/GPa) = 0.02238891
#
# Stress axis : x y z
#
# Youngs Moduli (GPa) = 40.53302 103.31977 77.21441
#
# Poissons Ratio (x) = 0.19834 0.54594
# Poissons Ratio (y) = 0.07781 0.26761
# Poissons Ratio (z) = 0.28659 0.35808
#
# Static dielectric constant tensor:
#      x y z
#    x 1.624850 0.000000 -0.006850 
#    y 0.000000 1.626780 0.000000 
#    z -0.006850 0.000000 1.611360 
# 
# From -- ./inp_files/167344.got.cif
#   From: 2010.05.17/outbox.cif.g08.bks.cpg/sg12_84_cif.got.tgz:167344.got - 2010.06.03 13:09:07.
