data_PCOD9174601
_publ_section_title
;
Structure prediction by ZEFSAII (Michael W. Deem and Ramdas Pophale) SiO2 
 PCOD9174601
Probable space group: C 2/M
;
_chemical_formula_sum "Si O2"
_cell_formula_units_Z 48
_cell_length_a 24.480550
_cell_length_b 8.819464
_cell_length_c 20.776673
_cell_angle_alpha 90.000000
_cell_angle_beta 140.269046
_cell_angle_gamma 90.000000
_cell_volume 2867.245298
_symmetry_space_group_name_H-M "C 2/M"
_symmetry_group_IT_number 12
_symmetry_cell_setting 'monoclinic'
loop_
_space_group_symop_operation_xyz
x,y,z
-x,y,-z
-x,-y,-z
x,-y,z
1/2+x,1/2+y,z
1/2-x,1/2+y,-z
1/2-x,1/2-y,-z
1/2+x,1/2-y,z
loop_
_atom_site_type_symbol
_atom_site_label
_atom_site_fract_x
_atom_site_fract_y
_atom_site_fract_z
Si Si1 0.258674 0.324638 0.762577
Si Si2 0.907536 0.818134 0.224347
Si Si3 0.078197 0.182409 0.614681
Si Si4 0.056702 0.183945 0.114230
Si Si5 0.276486 0.323715 0.932794
Si Si6 0.046469 0.319405 0.861438
O O1 0.245832 0.500000 0.732606
O O2 0.170228 0.237436 0.673084
O O3 0.345008 0.268084 0.807073
O O4 0.277843 0.321399 0.856377
O O5 0.931171 0.771587 0.318794
O O6 0.811099 0.757171 0.126667
O O7 0.965370 0.747267 0.220896
O O8 0.908555 0.000000 0.221011
O O9 0.000000 0.237293 0.500000
O O10 0.078162 0.000000 0.613798
O O11 0.017084 0.253184 0.142618
O O12 0.054033 0.000000 0.115408
O O13 0.000000 0.226526 0.000000
O O14 0.277303 0.500000 0.954353
O O15 0.359767 0.237906 0.032313
O O16 0.043104 0.500000 0.857306
#
# Coordination Sequence:
#
# PCOD9174601 Si02
#       6
#     8   8   8   8   8   8
#     4   9  18  32  53  78 103 134 172 210 252 301
#     4  10  20  34  51  73 101 134 170 210 259 311
#     4   9  19  36  58  81 103 128 163 213 268 312
#     4  10  19  35  53  72 103 143 178 210 248 299
#     4  10  18  32  50  71 102 138 173 210 252 301
#     4  12  23  32  46  72 105 141 176 210 249 297
#
# _framework density 16.740807
#
# number of rings (size 3 to 8) (size 9 to 14) (size 15 to 20)
#    0.000    2.000    1.667    3.000    0.000    2.667 
#    0.000    0.000    0.000    1.000    0.000    0.000 
#    0.000    0.000    0.000    0.000    0.000    0.000 
#
# Total GULP energy -133929.096769 kJ/mol
# GULP energy per Si atom -5580.379032 kJ/mol
# Density = 1.670270 g / cm^3
# Si number density = 16.740807 Si / 1000 Ang^3
#
#
#
# Elastic Constant Matrix: (Units=GPa)
#
#
# Indices 1 2 3 4 5 6 
#
# 1 159.8970 46.8819 65.3327 0.0000 2.8905 0.0000
# 2 46.8819 53.7599 28.0832 0.0000 0.6431 0.0000
# 3 65.3327 28.0832 100.0394 0.0000 9.1461 0.0000
# 4 0.0000 0.0000 0.0000 18.1781 0.0000 3.5204
# 5 2.8905 0.6431 9.1461 0.0000 9.9713 0.0000
# 6 0.0000 0.0000 0.0000 3.5204 0.0000 29.1355
#
#
#
# Elastic Compliance Matrix: (Units=1/GPa)
#
#
# Indices 1 2 3 4 5 6 
#
# 1 0.010093 -0.006191 -0.005045 0.000000 0.002102 0.000000
# 2 -0.006191 0.025790 -0.003502 0.000000 0.003344 0.000000
# 3 -0.005045 -0.003502 0.015412 0.000000 -0.012448 0.000000
# 4 0.000000 0.000000 0.000000 0.056329 0.000000 -0.006806
# 5 0.002102 0.003344 -0.012448 0.000000 0.110881 0.000000
# 6 0.000000 0.000000 0.000000 -0.006806 0.000000 0.035145
#
#
# Mechanical properties :
#
#
# Convention : Reuss Voigt Hill
#
# Bulk Modulus (GPa) = 45.83509 66.03243 55.93376
# Shear Modulus (GPa) = 17.21763 23.01689 20.11726
#
# Velocity S-wave (km/s) = 3.21048 3.71198 3.47030
# Velocity P-wave (km/s) = 6.41729 7.60930 7.03857
#
# Compressibility (1/GPa) = 0.02181735
#
# Stress axis : x y z
#
# Youngs Moduli (GPa) = 99.08071 38.77521 64.88293
#
# Poissons Ratio (x) = 0.24006 0.32737
# Poissons Ratio (y) = 0.61341 0.22724
# Poissons Ratio (z) = 0.49991 0.13580
#
# Static dielectric constant tensor:
#      x y z
#    x 1.580160 0.000000 -0.018570 
#    y 0.000000 1.563790 0.000000 
#    z -0.018570 0.000000 1.556470 
# 
# From -- ./inp_files/280763.got.cif
#   From: 2010.05.17/outbox.cif.g08.bks.cpg/sg12_141_cif.got.tgz:280763.got - 2010.06.03 13:09:07.
