data_PCOD9174888
_publ_section_title
;
Structure prediction by ZEFSAII (Michael W. Deem and Ramdas Pophale) SiO2 
 PCOD9174888
Probable space group: C 2/M
;
_chemical_formula_sum "Si O2"
_cell_formula_units_Z 20
_cell_length_a 18.410753
_cell_length_b 7.284093
_cell_length_c 7.583042
_cell_angle_alpha 90.000000
_cell_angle_beta 133.335564
_cell_angle_gamma 90.000000
_cell_volume 739.659946
_symmetry_space_group_name_H-M "C 2/M"
_symmetry_group_IT_number 12
_symmetry_cell_setting 'monoclinic'
loop_
_space_group_symop_operation_xyz
x,y,z
-x,y,-z
-x,-y,-z
x,-y,z
1/2+x,1/2+y,z
1/2-x,1/2+y,-z
1/2-x,1/2-y,-z
1/2+x,1/2-y,z
loop_
_atom_site_type_symbol
_atom_site_label
_atom_site_fract_x
_atom_site_fract_y
_atom_site_fract_z
Si Si1 0.222533 0.000000 0.349616
Si Si2 0.952002 0.000000 0.723768
Si Si3 0.385044 0.000000 0.372980
Si Si4 0.392226 0.793446 0.073091
O O1 0.338612 0.000000 0.489005
O O2 0.166808 0.000000 0.445589
O O3 0.176111 0.176083 0.170970
O O4 0.003974 0.819393 0.732515
O O5 0.000000 0.000000 0.000000
O O6 0.500000 0.000000 0.500000
O O7 0.348385 0.173624 0.195107
O O8 0.407089 0.000000 0.025372
#
# Coordination Sequence:
#
# PCOD9174888 Si02
#       4
#     4   4   4   8
#     4  10  18  32  54  76  92 124 168 200 232 288
#     4   8  16  30  50  78  95 118 160 208 235 278
#     4  10  20  34  49  70 104 130 157 200 241 280
#     4   8  17  31  55  69  99 124 162 195 244 278
#
# _framework density 27.039453000000002
#
# number of rings (size 3 to 8) (size 9 to 14) (size 15 to 20)
#    1.200    2.400    0.000    1.200    0.000    7.200 
#    0.000    6.000    0.000    0.000    0.000    0.000 
#    0.000    0.000    0.000    0.000    0.000    0.000 
#
# Total GULP energy -55706.169648 kJ/mol
# GULP energy per Si atom -5570.616965 kJ/mol
# Density = 2.697791 g / cm^3
# Si number density = 27.039453 Si / 1000 Ang^3
#
#
#
# Elastic Constant Matrix: (Units=GPa)
#
#
# Indices 1 2 3 4 5 6 
#
# 1 167.4693 55.5573 18.5605 0.0000 46.7795 0.0000
# 2 55.5573 202.4251 28.9495 0.0000 22.1706 0.0000
# 3 18.5605 28.9495 62.9343 0.0000 31.0826 0.0000
# 4 0.0000 0.0000 0.0000 32.8374 0.0000 0.9054
# 5 46.7795 22.1706 31.0826 0.0000 58.8570 0.0000
# 6 0.0000 0.0000 0.0000 0.9054 0.0000 7.2246
#
#
#
# Elastic Compliance Matrix: (Units=1/GPa)
#
#
# Indices 1 2 3 4 5 6 
#
# 1 0.008274 -0.001773 0.001750 0.000000 -0.006832 0.000000
# 2 -0.001773 0.005708 -0.002350 0.000000 0.000500 0.000000
# 3 0.001750 -0.002350 0.022598 0.000000 -0.012440 0.000000
# 4 0.000000 0.000000 0.000000 0.030559 0.000000 -0.003830
# 5 -0.006832 0.000500 -0.012440 0.000000 0.028802 0.000000
# 6 0.000000 0.000000 0.000000 -0.003830 0.000000 0.138895
#
#
# Mechanical properties :
#
#
# Convention : Reuss Voigt Hill
#
# Bulk Modulus (GPa) = 31.41198 70.99591 51.20395
# Shear Modulus (GPa) = 19.98456 41.76789 30.87623
#
# Velocity S-wave (km/s) = 2.72157 3.93453 3.38286
# Velocity P-wave (km/s) = 4.63877 6.85231 5.85117
#
# Compressibility (1/GPa) = 0.03183499
#
# Stress axis : x y z
#
# Youngs Moduli (GPa) = 120.86139 175.19431 44.25109
#
# Poissons Ratio (x) = 0.31058 -0.07743
# Poissons Ratio (y) = 0.21426 0.10397
# Poissons Ratio (z) = -0.21148 0.41164
#
# Static dielectric constant tensor:
#      x y z
#    x 2.110540 0.000000 0.028500 
#    y 0.000000 2.166280 0.000000 
#    z 0.028500 0.000000 2.385910 
# 
# From -- ./inp_files/138215.got.cif
#   From: 2010.05.17/outbox.cif.g08.bks.cpg/sg12_70_cif.got.tgz:138215.got - 2010.06.03 13:09:07.
