data_PCOD9174890
_publ_section_title
;
Structure prediction by ZEFSAII (Michael W. Deem and Ramdas Pophale) SiO2 
 PCOD9174890
Probable space group: C 2/M
;
_chemical_formula_sum "Si O2"
_cell_formula_units_Z 48
_cell_length_a 16.175029
_cell_length_b 29.077874
_cell_length_c 6.973281
_cell_angle_alpha 90.000000
_cell_angle_beta 38.309418
_cell_angle_gamma 90.000000
_cell_volume 2033.162731
_symmetry_space_group_name_H-M "C 2/M"
_symmetry_group_IT_number 12
_symmetry_cell_setting 'monoclinic'
loop_
_space_group_symop_operation_xyz
x,y,z
-x,y,-z
-x,-y,-z
x,-y,z
1/2+x,1/2+y,z
1/2-x,1/2+y,-z
1/2-x,1/2-y,-z
1/2+x,1/2-y,z
loop_
_atom_site_type_symbol
_atom_site_label
_atom_site_fract_x
_atom_site_fract_y
_atom_site_fract_z
Si Si1 0.046159 0.947804 0.141712
Si Si2 0.798731 0.604128 0.585799
Si Si3 0.696111 0.389542 0.341161
Si Si4 0.610416 0.299479 0.634284
Si Si5 0.447079 0.051133 0.811303
Si Si6 0.113555 0.302351 0.637969
O O1 0.919996 0.926228 0.475986
O O2 0.075356 0.000000 0.142514
O O3 0.178820 0.917401 0.924776
O O4 0.000000 0.948182 0.000000
O O5 0.730082 0.611897 0.506202
O O6 0.859013 0.653055 0.542970
O O7 0.919753 0.569272 0.327858
O O8 0.635094 0.338350 0.427640
O O9 0.833169 0.410170 0.013393
O O10 0.750012 0.295944 0.492731
O O11 0.578116 0.247838 0.618742
O O12 0.500000 0.311650 0.000000
O O13 0.500000 0.046924 0.500000
O O14 0.402058 0.000000 0.958141
O O15 0.000000 0.314754 0.000000
#
# Coordination Sequence:
#
# PCOD9174890 Si02
#       6
#     8   8   8   8   8   8
#     4   9  17  28  46  74 101 122 153 203 251 288
#     4  10  18  32  54  78 101 129 167 205 247 299
#     4  10  18  32  54  77 100 128 165 205 249 302
#     4   9  16  27  46  76 108 128 151 197 249 293
#     4  11  24  38  50  69 100 136 173 214 257 298
#     4   9  16  26  44  74 106 130 155 193 243 294
#
# _framework density 23.608539
#
# number of rings (size 3 to 8) (size 9 to 14) (size 15 to 20)
#    0.000    2.333    0.000    6.000    0.000    2.667 
#    0.000    0.833    0.000    4.000    0.000    0.000 
#    0.000    0.000    0.000    0.000    0.000    0.000 
#
# Total GULP energy -133894.016365 kJ/mol
# GULP energy per Si atom -5578.917349 kJ/mol
# Density = 2.355480 g / cm^3
# Si number density = 23.608539 Si / 1000 Ang^3
#
#
#
# Elastic Constant Matrix: (Units=GPa)
#
#
# Indices 1 2 3 4 5 6 
#
# 1 36.2775 -2.0424 -0.0548 0.0000 -13.9040 0.0000
# 2 -2.0424 207.7340 72.1804 0.0000 -13.7130 0.0000
# 3 -0.0548 72.1804 154.3216 0.0000 -37.4709 0.0000
# 4 0.0000 0.0000 0.0000 38.7455 0.0000 -9.7527
# 5 -13.9040 -13.7130 -37.4709 0.0000 29.8331 0.0000
# 6 0.0000 0.0000 0.0000 -9.7527 0.0000 8.4858
#
#
#
# Elastic Compliance Matrix: (Units=1/GPa)
#
#
# Indices 1 2 3 4 5 6 
#
# 1 0.037127 -0.000116 0.006124 0.000000 0.024941 0.000000
# 2 -0.000116 0.005772 -0.002976 0.000000 -0.001139 0.000000
# 3 0.006124 -0.002976 0.011849 0.000000 0.016368 0.000000
# 4 0.000000 0.000000 0.000000 0.036315 0.000000 0.041737
# 5 0.024941 -0.001139 0.016368 0.000000 0.065178 0.000000
# 6 0.000000 0.000000 0.000000 0.041737 0.000000 0.165813
#
#
# Mechanical properties :
#
#
# Convention : Reuss Voigt Hill
#
# Bulk Modulus (GPa) = 16.44481 59.83328 38.13905
# Shear Modulus (GPa) = 14.86940 37.29620 26.08280
#
# Velocity S-wave (km/s) = 2.51237 3.97895 3.32746
# Velocity P-wave (km/s) = 3.92387 6.81970 5.56350
#
# Compressibility (1/GPa) = 0.06080945
#
# Stress axis : x y z
#
# Youngs Moduli (GPa) = 26.93442 173.26104 84.39884
#
# Poissons Ratio (x) = 0.02015 -0.51682
# Poissons Ratio (y) = 0.00313 0.25119
# Poissons Ratio (z) = -0.16494 0.51567
#
# Static dielectric constant tensor:
#      x y z
#    x 2.067810 0.000000 0.049700 
#    y 0.000000 2.036090 0.000000 
#    z 0.049700 0.000000 1.885250 
# 
# From -- ./inp_files/91370.got.cif
#   From: 2010.05.17/outbox.cif.g08.bks.cpg/sg12_46_cif.got.tgz:91370.got - 2010.06.03 13:09:07.
