data_PCOD9174393
_publ_section_title
;
Structure prediction by ZEFSAII (Michael W. Deem and Ramdas Pophale) SiO2 
 PCOD9174393
Probable space group: C 2/M
;
_chemical_formula_sum "Si O2"
_cell_formula_units_Z 56
_cell_length_a 17.067336
_cell_length_b 15.511301
_cell_length_c 12.752110
_cell_angle_alpha 90.000000
_cell_angle_beta 65.723263
_cell_angle_gamma 90.000000
_cell_volume 3077.415756
_symmetry_space_group_name_H-M "C 2/M"
_symmetry_group_IT_number 12
_symmetry_cell_setting 'monoclinic'
loop_
_space_group_symop_operation_xyz
x,y,z
-x,y,-z
-x,-y,-z
x,-y,z
1/2+x,1/2+y,z
1/2-x,1/2+y,-z
1/2-x,1/2-y,-z
1/2+x,1/2-y,z
loop_
_atom_site_type_symbol
_atom_site_label
_atom_site_fract_x
_atom_site_fract_y
_atom_site_fract_z
Si Si1 0.216683 0.596888 0.600373
Si Si2 0.927449 0.900138 0.950575
Si Si3 0.685789 0.742594 0.341988
Si Si4 0.942142 0.654327 0.435889
Si Si5 0.041499 0.796017 0.273967
Si Si6 0.712857 0.599003 0.802880
Si Si7 0.878312 0.096919 0.362146
O O1 0.229764 0.500000 0.638147
O O2 0.237708 0.679598 0.661450
O O3 0.123700 0.599853 0.597412
O O4 0.288715 0.609645 0.470574
O O5 0.938926 0.830323 0.852905
O O6 0.934641 0.000000 0.907544
O O7 0.836548 0.891463 0.060471
O O8 0.000000 0.889937 0.000000
O O9 0.624646 0.780232 0.467733
O O10 0.623448 0.688267 0.301329
O O11 0.721029 0.825348 0.259342
O O12 0.000000 0.617300 0.500000
O O13 0.009221 0.699598 0.318997
O O14 0.956946 0.847061 0.355075
O O15 0.746325 0.500000 0.775591
O O16 0.642157 0.607989 0.749090
O O17 0.904712 0.000000 0.366511
#
# Coordination Sequence:
#
# PCOD9174393 Si02
#       7
#     8   8   8   8   8   8   8
#     4  11  22  35  54  83 116 155 190 222 283 347
#     4  10  20  34  56  86 111 140 190 245 292 334
#     4  11  22  36  56  83 118 152 188 226 287 349
#     4  10  21  36  55  81 109 149 196 235 276 331
#     4  11  21  34  53  82 117 147 184 231 286 334
#     4  10  20  36  60  84 107 145 193 241 286 329
#     4  10  18  31  55  80 108 144 184 232 284 328
#
# _framework density 18.197085999999999
#
# number of rings (size 3 to 8) (size 9 to 14) (size 15 to 20)
#    0.000    1.571    4.286    1.714    0.000    2.000 
#    0.000    3.571    0.000    0.000    0.000    2.000 
#    0.000    0.000    0.000    0.000    0.000    0.000 
#
# Total GULP energy -155932.821976 kJ/mol
# GULP energy per Si atom -5569.029356 kJ/mol
# Density = 1.815567 g / cm^3
# Si number density = 18.197086 Si / 1000 Ang^3
#
#
#
# Elastic Constant Matrix: (Units=GPa)
#
#
# Indices 1 2 3 4 5 6 
#
# 1 79.0187 28.8390 6.6573 0.0000 2.3212 0.0000
# 2 28.8390 46.5620 39.8124 0.0000 0.4136 0.0000
# 3 6.6573 39.8124 72.2253 0.0000 -12.4446 0.0000
# 4 0.0000 0.0000 0.0000 16.9115 0.0000 -6.3372
# 5 2.3212 0.4136 -12.4446 0.0000 17.7974 0.0000
# 6 0.0000 0.0000 0.0000 -6.3372 0.0000 14.8459
#
#
#
# Elastic Compliance Matrix: (Units=1/GPa)
#
#
# Indices 1 2 3 4 5 6 
#
# 1 0.019416 -0.021538 0.011066 0.000000 0.005706 0.000000
# 2 -0.021538 0.070979 -0.042001 0.000000 -0.028209 0.000000
# 3 0.011066 -0.042001 0.040814 0.000000 0.028072 0.000000
# 4 0.000000 0.000000 0.000000 0.070391 0.000000 0.030047
# 5 0.005706 -0.028209 0.028072 0.000000 0.075728 0.000000
# 6 0.000000 0.000000 0.000000 0.030047 0.000000 0.080185
#
#
# Mechanical properties :
#
#
# Convention : Reuss Voigt Hill
#
# Bulk Modulus (GPa) = 38.07550 38.71370 38.39460
# Shear Modulus (GPa) = 10.61089 18.07745 14.34417
#
# Velocity S-wave (km/s) = 2.41739 3.15528 2.81066
# Velocity P-wave (km/s) = 5.36293 5.88178 5.62834
#
# Compressibility (1/GPa) = 0.02626361
#
# Stress axis : x y z
#
# Youngs Moduli (GPa) = 51.50438 14.08858 24.50118
#
# Poissons Ratio (x) = 0.30344 -0.27112
# Poissons Ratio (y) = 1.10929 1.02907
# Poissons Ratio (z) = -0.56993 0.59173
#
# Static dielectric constant tensor:
#      x y z
#    x 1.642370 0.000000 0.001530 
#    y 0.000000 1.670930 0.000000 
#    z 0.001530 0.000000 1.639630 
# 
# From -- ./inp_files/155962.got.cif
#   From: 2010.05.17/outbox.cif.g08.bks.cpg/sg12_78_cif.got.tgz:155962.got - 2010.06.03 13:09:07.
