data_PCOD9174911
_publ_section_title
;
Structure prediction by ZEFSAII (Michael W. Deem and Ramdas Pophale) SiO2 
 PCOD9174911
Probable space group: C 2/M
;
_chemical_formula_sum "Si O2"
_cell_formula_units_Z 32
_cell_length_a 9.761174
_cell_length_b 14.438494
_cell_length_c 11.484856
_cell_angle_alpha 90.000000
_cell_angle_beta 125.423015
_cell_angle_gamma 90.000000
_cell_volume 1319.019390
_symmetry_space_group_name_H-M "C 2/M"
_symmetry_group_IT_number 12
_symmetry_cell_setting 'monoclinic'
loop_
_space_group_symop_operation_xyz
x,y,z
-x,y,-z
-x,-y,-z
x,-y,z
1/2+x,1/2+y,z
1/2-x,1/2+y,-z
1/2-x,1/2-y,-z
1/2+x,1/2-y,z
loop_
_atom_site_type_symbol
_atom_site_label
_atom_site_fract_x
_atom_site_fract_y
_atom_site_fract_z
Si Si1 0.665527 0.393144 0.509480
Si Si2 0.397374 0.602201 0.797748
Si Si3 0.378273 0.195130 0.791582
Si Si4 0.290088 0.895600 0.980725
O O1 0.500000 0.365884 0.500000
O O2 0.705211 0.500000 0.559059
O O3 0.629666 0.391944 0.355062
O O4 0.813288 0.329614 0.631800
O O5 0.333000 0.500000 0.802833
O O6 0.329526 0.701006 0.804782
O O7 0.596461 0.605768 0.921943
O O8 0.296573 0.126826 0.846212
O O9 0.577327 0.175568 0.898958
O O10 0.353137 0.000000 0.032009
#
# Coordination Sequence:
#
# PCOD9174911 Si02
#       4
#     8   8   8   8
#     4  10  18  32  54  79 103 131 171 217 256 296
#     4  10  21  35  52  77 107 136 170 211 255 306
#     4  11  19  32  55  80 102 135 172 212 256 302
#     4  10  20  35  55  80 105 130 171 219 253 298
#
# _framework density 24.260449000000001
#
# number of rings (size 3 to 8) (size 9 to 14) (size 15 to 20)
#    0.000    1.750    2.500    4.500    0.000    0.000 
#    0.000    2.500    0.000    5.250    0.000    0.000 
#    0.000    0.000    0.000    0.000    0.000    0.000 
#
# Total GULP energy -89497.240017 kJ/mol
# GULP energy per Si atom -5593.577501 kJ/mol
# Density = 2.420523 g / cm^3
# Si number density = 24.260449 Si / 1000 Ang^3
#
#
#
# Elastic Constant Matrix: (Units=GPa)
#
#
# Indices 1 2 3 4 5 6 
#
# 1 38.8612 2.9694 2.4881 0.0000 -13.9348 0.0000
# 2 2.9694 141.7164 36.9341 0.0000 0.0456 0.0000
# 3 2.4881 36.9341 135.5617 0.0000 -5.7821 0.0000
# 4 0.0000 0.0000 0.0000 36.6151 0.0000 -0.5379
# 5 -13.9348 0.0456 -5.7821 0.0000 24.6459 0.0000
# 6 0.0000 0.0000 0.0000 -0.5379 0.0000 10.8444
#
#
#
# Elastic Compliance Matrix: (Units=1/GPa)
#
#
# Indices 1 2 3 4 5 6 
#
# 1 0.032363 -0.000790 0.000406 0.000000 0.018395 0.000000
# 2 -0.000790 0.007621 -0.002103 0.000000 -0.000954 0.000000
# 3 0.000406 -0.002103 0.008032 0.000000 0.002118 0.000000
# 4 0.000000 0.000000 0.000000 0.027331 0.000000 0.001356
# 5 0.018395 -0.000954 0.002118 0.000000 0.051474 0.000000
# 6 0.000000 0.000000 0.000000 0.001356 0.000000 0.092281
#
#
# Mechanical properties :
#
#
# Convention : Reuss Voigt Hill
#
# Bulk Modulus (GPa) = 23.23242 44.54695 33.88968
# Shear Modulus (GPa) = 20.97113 32.67091 26.82102
#
# Velocity S-wave (km/s) = 2.94329 3.67369 3.32858
# Velocity P-wave (km/s) = 4.59865 6.03295 5.36396
#
# Compressibility (1/GPa) = 0.04304330
#
# Stress axis : x y z
#
# Youngs Moduli (GPa) = 30.89959 131.21327 124.49491
#
# Poissons Ratio (x) = 0.10363 -0.05052
# Poissons Ratio (y) = 0.02440 0.26176
# Poissons Ratio (z) = -0.01254 0.27589
#
# Static dielectric constant tensor:
#      x y z
#    x 1.949180 0.000000 -0.025250 
#    y 0.000000 1.921910 0.000000 
#    z -0.025250 0.000000 1.940030 
# 
# From -- ./inp_files/45231.got.cif
#   From: 2010.05.17/outbox.cif.g08.bks.cpg/sg12_23_cif.got.tgz:45231.got - 2010.06.03 13:09:07.
