data_PCOD9174203
_publ_section_title
;
Structure prediction by ZEFSAII (Michael W. Deem and Ramdas Pophale) SiO2 
 PCOD9174203
Probable space group: C 2/M
;
_chemical_formula_sum "Si O2"
_cell_formula_units_Z 64
_cell_length_a 19.859627
_cell_length_b 8.552934
_cell_length_c 21.352934
_cell_angle_alpha 90.000000
_cell_angle_beta 84.720520
_cell_angle_gamma 90.000000
_cell_volume 3611.581721
_symmetry_space_group_name_H-M "C 2/M"
_symmetry_group_IT_number 12
_symmetry_cell_setting 'monoclinic'
loop_
_space_group_symop_operation_xyz
x,y,z
-x,y,-z
-x,-y,-z
x,-y,z
1/2+x,1/2+y,z
1/2-x,1/2+y,-z
1/2-x,1/2-y,-z
1/2+x,1/2-y,z
loop_
_atom_site_type_symbol
_atom_site_label
_atom_site_fract_x
_atom_site_fract_y
_atom_site_fract_z
Si Si1 0.076734 0.182549 0.021126
Si Si2 0.032229 0.811038 0.292400
Si Si3 0.880845 0.810915 0.330191
Si Si4 0.328054 0.813179 0.677937
Si Si5 0.213122 0.314402 0.772648
Si Si6 0.263980 0.311991 0.430060
Si Si7 0.129879 0.810587 0.889063
Si Si8 0.982156 0.809032 0.849394
O O1 0.404557 0.500000 0.973545
O O2 0.068106 0.249328 0.091563
O O3 0.123420 0.247209 0.961497
O O4 0.000000 0.185081 0.000000
O O5 0.095523 0.742726 0.323423
O O6 0.035066 0.760886 0.219254
O O7 0.958829 0.763494 0.324626
O O8 0.035742 0.000000 0.293675
O O9 0.842871 0.745293 0.272451
O O10 0.836218 0.764881 0.394045
O O11 0.878551 0.000000 0.324960
O O12 0.283895 0.747155 0.739315
O O13 0.291355 0.760754 0.616881
O O14 0.324241 0.000000 0.680451
O O15 0.213992 0.500000 0.773373
O O16 0.190888 0.251397 0.842158
O O17 0.262654 0.500000 0.432401
O O18 0.250000 0.250000 0.500000
O O19 0.058988 0.765239 0.861294
O O20 0.131663 0.000000 0.889633
O O21 0.980834 0.000000 0.851172
#
# Coordination Sequence:
#
# PCOD9174203 Si02
#       8
#     8   8   8   8   8   8   8   8
#     4   7  11  19  37  66  94 124 166 206 246 301
#     4  10  18  31  53  78 105 134 167 209 253 295
#     4   9  18  34  54  78 106 136 167 203 248 296
#     4  10  22  38  53  73 104 136 167 204 251 302
#     4  11  20  30  48  74 100 130 173 217 255 298
#     4   9  19  36  58  79 102 133 167 202 242 290
#     4   9  14  25  45  68  97 131 166 210 258 302
#     4   8  13  23  43  71  99 129 165 206 250 299
#
# _framework density 17.720768
#
# number of rings (size 3 to 8) (size 9 to 14) (size 15 to 20)
#    0.000    2.875    1.250    3.750    0.000    3.000 
#    0.000    0.625    0.000    8.625    0.000    0.000 
#    0.000    0.000    0.000    0.000    0.000    0.000 
#
# Total GULP energy -178266.990461 kJ/mol
# GULP energy per Si atom -5570.843452 kJ/mol
# Density = 1.768043 g / cm^3
# Si number density = 17.720768 Si / 1000 Ang^3
#
#
#
# Elastic Constant Matrix: (Units=GPa)
#
#
# Indices 1 2 3 4 5 6 
#
# 1 98.9443 23.2407 52.5243 0.0000 -14.3627 0.0000
# 2 23.2407 17.6256 22.5250 0.0000 -6.8863 0.0000
# 3 52.5243 22.5250 139.9504 0.0000 -25.2197 0.0000
# 4 0.0000 0.0000 0.0000 15.9716 0.0000 -1.1711
# 5 -14.3627 -6.8863 -25.2197 0.0000 19.5360 0.0000
# 6 0.0000 0.0000 0.0000 -1.1711 0.0000 19.8117
#
#
#
# Elastic Compliance Matrix: (Units=1/GPa)
#
#
# Indices 1 2 3 4 5 6 
#
# 1 0.015783 -0.016247 -0.002931 0.000000 0.002092 0.000000
# 2 -0.016247 0.090980 -0.006410 0.000000 0.011850 0.000000
# 3 -0.002931 -0.006410 0.011053 0.000000 0.009854 0.000000
# 4 0.000000 0.000000 0.000000 0.062884 0.000000 0.003717
# 5 0.002092 0.011850 0.009854 0.000000 0.069624 0.000000
# 6 0.000000 0.000000 0.000000 0.003717 0.000000 0.050695
#
#
# Mechanical properties :
#
#
# Convention : Reuss Voigt Hill
#
# Bulk Modulus (GPa) = 15.00631 50.34448 32.67539
# Shear Modulus (GPa) = 13.35440 21.61255 17.48348
#
# Velocity S-wave (km/s) = 2.74816 3.49609 3.14444
# Velocity P-wave (km/s) = 4.30772 6.69092 5.62694
#
# Compressibility (1/GPa) = 0.06663865
#
# Stress axis : x y z
#
# Youngs Moduli (GPa) = 63.36045 10.99140 90.47292
#
# Poissons Ratio (x) = 0.17858 0.26521
# Poissons Ratio (y) = 1.02942 0.57996
# Poissons Ratio (z) = 0.18573 0.07046
#
# Static dielectric constant tensor:
#      x y z
#    x 1.593500 0.000000 -0.020320 
#    y 0.000000 1.607480 0.000000 
#    z -0.020320 0.000000 1.625830 
# 
# From -- ./inp_files/319080.got.cif
#   From: 2010.05.17/outbox.cif.g08.bks.cpg/sg12_160_cif.got.tgz:319080.got - 2010.06.03 13:09:07.
