data_PCOD9174416
_publ_section_title
;
Structure prediction by ZEFSAII (Michael W. Deem and Ramdas Pophale) SiO2 
 PCOD9174416
Probable space group: C 2/M
;
_chemical_formula_sum "Si O2"
_cell_formula_units_Z 64
_cell_length_a 14.868272
_cell_length_b 7.807784
_cell_length_c 29.473002
_cell_angle_alpha 90.000000
_cell_angle_beta 132.160495
_cell_angle_gamma 90.000000
_cell_volume 2536.224301
_symmetry_space_group_name_H-M "C 2/M"
_symmetry_group_IT_number 12
_symmetry_cell_setting 'monoclinic'
loop_
_space_group_symop_operation_xyz
x,y,z
-x,y,-z
-x,-y,-z
x,-y,z
1/2+x,1/2+y,z
1/2-x,1/2+y,-z
1/2-x,1/2-y,-z
1/2+x,1/2-y,z
loop_
_atom_site_type_symbol
_atom_site_label
_atom_site_fract_x
_atom_site_fract_y
_atom_site_fract_z
Si Si1 0.766563 0.807914 0.116085
Si Si2 0.873418 0.705092 0.515689
Si Si3 0.741444 0.292324 0.383989
Si Si4 0.521081 0.806304 0.204900
Si Si5 0.383781 0.700727 0.855586
Si Si6 0.389195 0.789995 0.350409
Si Si7 0.480287 0.801949 0.289697
Si Si8 0.128616 0.203910 0.986370
O O1 0.880415 0.692544 0.141467
O O2 0.725811 0.785954 0.154200
O O3 0.652893 0.767715 0.045416
O O4 0.806881 0.000000 0.120191
O O5 0.887690 0.500000 0.519506
O O6 0.750000 0.750000 0.500000
O O7 0.847420 0.757199 0.454976
O O8 0.990748 0.770619 0.581930
O O9 0.727879 0.500000 0.381564
O O10 0.778239 0.243329 0.345344
O O11 0.616379 0.205329 0.356015
O O12 0.601203 0.722267 0.193065
O O13 0.503035 0.719967 0.248143
O O14 0.564368 0.000000 0.225357
O O15 0.371816 0.500000 0.861305
O O16 0.508482 0.768963 0.920494
O O17 0.396166 0.729100 0.300911
O O18 0.391364 0.000000 0.349066
O O19 0.442931 0.000000 0.268977
O O20 0.117953 0.000000 0.984169
O O21 0.250000 0.250000 0.000000
#
# Coordination Sequence:
#
# PCOD9174416 Si02
#       8
#     8   8   8   8   8   8   8   8
#     4  12  25  41  64  94 127 164 202 247 306 364
#     4  10  18  31  55  83 114 149 189 235 289 349
#     4  10  20  34  57  87 113 149 196 239 287 350
#     4  11  24  42  63  87 119 160 210 258 303 360
#     4  11  24  42  65  93 124 161 203 250 306 362
#     4   9  18  35  57  81 115 153 188 232 289 353
#     4  10  22  40  60  83 113 153 194 241 299 349
#     4  11  22  38  64  95 128 162 202 248 300 363
#
# _framework density 25.234361
#
# number of rings (size 3 to 8) (size 9 to 14) (size 15 to 20)
#    0.000    1.500    2.500    3.000    0.000    6.500 
#    0.000    2.500    0.000    1.500    0.000    0.000 
#    0.000    0.000    0.000    0.000    0.000    0.000 
#
# Total GULP energy -179022.836201 kJ/mol
# GULP energy per Si atom -5594.463631 kJ/mol
# Density = 2.517693 g / cm^3
# Si number density = 25.234361 Si / 1000 Ang^3
#
#
#
# Elastic Constant Matrix: (Units=GPa)
#
#
# Indices 1 2 3 4 5 6 
#
# 1 144.2491 -5.1180 23.4251 0.0000 -24.9558 0.0000
# 2 -5.1180 56.5668 0.5128 0.0000 -2.5338 0.0000
# 3 23.4251 0.5128 81.2923 0.0000 -20.9619 0.0000
# 4 0.0000 0.0000 0.0000 18.6234 0.0000 -1.5404
# 5 -24.9558 -2.5338 -20.9619 0.0000 52.8261 0.0000
# 6 0.0000 0.0000 0.0000 -1.5404 0.0000 18.0468
#
#
#
# Elastic Compliance Matrix: (Units=1/GPa)
#
#
# Indices 1 2 3 4 5 6 
#
# 1 0.007736 0.000853 -0.001428 0.000000 0.003129 0.000000
# 2 0.000853 0.017811 -0.000038 0.000000 0.001242 0.000000
# 3 -0.001428 -0.000038 0.013968 0.000000 0.004866 0.000000
# 4 0.000000 0.000000 0.000000 0.054078 0.000000 0.004616
# 5 0.003129 0.001242 0.004866 0.000000 0.022399 0.000000
# 6 0.000000 0.000000 0.000000 0.004616 0.000000 0.055806
#
#
# Mechanical properties :
#
#
# Convention : Reuss Voigt Hill
#
# Bulk Modulus (GPa) = 26.11652 35.52756 30.82204
# Shear Modulus (GPa) = 26.91277 35.45180 31.18229
#
# Velocity S-wave (km/s) = 3.26929 3.75227 3.51908
# Velocity P-wave (km/s) = 4.96217 5.73431 5.36215
#
# Compressibility (1/GPa) = 0.03828994
#
# Stress axis : x y z
#
# Youngs Moduli (GPa) = 129.26760 56.14384 71.59354
#
# Poissons Ratio (x) = -0.04789 0.10222
# Poissons Ratio (y) = -0.11027 0.00271
# Poissons Ratio (z) = 0.18456 0.00212
#
# Static dielectric constant tensor:
#      x y z
#    x 1.939200 0.000000 -0.028130 
#    y 0.000000 1.902680 0.000000 
#    z -0.028130 0.000000 2.085560 
# 
# From -- ./inp_files/375593.got.cif
#   From: 2010.05.17/outbox.cif.g08.bks.cpg/sg12_188_cif.got.tgz:375593.got - 2010.06.03 13:09:07.
