data_PCOD9174032
_publ_section_title
;
Structure prediction by ZEFSAII (Michael W. Deem and Ramdas Pophale) SiO2 
 PCOD9174032
Probable space group: C 2/M
;
_chemical_formula_sum "Si O2"
_cell_formula_units_Z 48
_cell_length_a 13.458039
_cell_length_b 15.385659
_cell_length_c 16.317729
_cell_angle_alpha 90.000000
_cell_angle_beta 37.865062
_cell_angle_gamma 90.000000
_cell_volume 2073.897347
_symmetry_space_group_name_H-M "C 2/M"
_symmetry_group_IT_number 12
_symmetry_cell_setting 'monoclinic'
loop_
_space_group_symop_operation_xyz
x,y,z
-x,y,-z
-x,-y,-z
x,-y,z
1/2+x,1/2+y,z
1/2-x,1/2+y,-z
1/2-x,1/2-y,-z
1/2+x,1/2-y,z
loop_
_atom_site_type_symbol
_atom_site_label
_atom_site_fract_x
_atom_site_fract_y
_atom_site_fract_z
Si Si1 0.834558 0.900934 0.269535
Si Si2 0.884517 0.721386 0.494072
Si Si3 0.217380 0.903117 0.000979
Si Si4 0.751595 0.596352 0.164465
Si Si5 0.788395 0.290743 0.801502
Si Si6 0.409582 0.408463 0.470284
O O1 0.750583 0.848354 0.397432
O O2 0.783036 0.857384 0.217743
O O3 0.027071 0.898739 0.144644
O O4 0.778791 0.000000 0.309463
O O5 0.814719 0.818478 0.530759
O O6 0.000000 0.721225 0.500000
O O7 0.018179 0.709465 0.337378
O O8 0.295799 0.899361 0.039797
O O9 0.251111 0.000000 0.943664
O O10 0.255834 0.826819 0.913034
O O11 0.809832 0.500000 0.157539
O O12 0.786062 0.695156 0.171182
O O13 0.558399 0.592751 0.309384
O O14 0.500000 0.409968 0.500000
O O15 0.319370 0.500000 0.519758
#
# Coordination Sequence:
#
# PCOD9174032 Si02
#       6
#     8   8   8   8   8   8
#     4  10  20  33  49  72 103 134 163 201 248 293
#     4   8  16  28  45  71  96 122 160 204 246 279
#     4  10  20  33  50  73 102 134 164 199 247 297
#     4   9  18  32  51  75 100 127 163 206 249 291
#     4  10  18  31  52  75  97 129 172 206 236 287
#     4   8  13  25  46  69  92 119 158 202 236 278
#
# _framework density 23.144829000000001
#
# number of rings (size 3 to 8) (size 9 to 14) (size 15 to 20)
#    0.000    2.833    0.000    2.500    0.000    5.000 
#    0.000    3.333    0.000    3.000    0.000    0.000 
#    0.000    0.000    0.000    0.000    0.000    0.000 
#
# Total GULP energy -133859.631243 kJ/mol
# GULP energy per Si atom -5577.484635 kJ/mol
# Density = 2.309215 g / cm^3
# Si number density = 23.144829 Si / 1000 Ang^3
#
#
#
# Elastic Constant Matrix: (Units=GPa)
#
#
# Indices 1 2 3 4 5 6 
#
# 1 31.8008 2.0835 16.7898 0.0001 11.4185 0.0000
# 2 2.0835 209.1952 60.0834 0.0000 8.6213 0.0000
# 3 16.7898 60.0834 82.1295 -0.0001 22.2336 0.0000
# 4 0.0001 0.0000 -0.0001 32.1254 0.0001 12.0936
# 5 11.4185 8.6213 22.2336 0.0001 27.2262 0.0000
# 6 0.0000 0.0000 0.0000 12.0936 0.0000 24.2989
#
#
#
# Elastic Compliance Matrix: (Units=1/GPa)
#
#
# Indices 1 2 3 4 5 6 
#
# 1 0.038799 0.001844 -0.006056 0.000000 -0.011910 0.000000
# 2 0.001844 0.006242 -0.005391 0.000000 0.001652 0.000000
# 3 -0.006056 -0.005391 0.020808 0.000000 -0.012745 0.000000
# 4 0.000000 0.000000 0.000000 0.038305 0.000000 -0.019064
# 5 -0.011910 0.001652 -0.012745 0.000000 0.051609 0.000000
# 6 0.000000 0.000000 0.000000 -0.019064 0.000000 0.050642
#
#
# Mechanical properties :
#
#
# Convention : Reuss Voigt Hill
#
# Bulk Modulus (GPa) = 21.43966 53.44879 37.44422
# Shear Modulus (GPa) = 20.73318 33.00803 26.87060
#
# Velocity S-wave (km/s) = 2.99624 3.78054 3.41101
# Velocity P-wave (km/s) = 4.61013 6.49615 5.63264
#
# Compressibility (1/GPa) = 0.04664253
#
# Stress axis : x y z
#
# Youngs Moduli (GPa) = 25.77389 160.20369 48.05839
#
# Poissons Ratio (x) = -0.29540 0.29106
# Poissons Ratio (y) = -0.04752 0.25907
# Poissons Ratio (z) = 0.15610 0.86362
#
# Static dielectric constant tensor:
#      x y z
#    x 1.912170 0.000000 0.032270 
#    y 0.000000 1.921890 0.000000 
#    z 0.032270 0.000000 1.838140 
# 
# From -- ./inp_files/278018.got.cif
#   From: 2010.05.17/outbox.cif.g08.bks.cpg/sg12_140_cif.got.tgz:278018.got - 2010.06.03 13:09:07.
