data_PCOD9174454
_publ_section_title
;
Structure prediction by ZEFSAII (Michael W. Deem and Ramdas Pophale) SiO2 
 PCOD9174454
Probable space group: C 2/M
;
_chemical_formula_sum "Si O2"
_cell_formula_units_Z 58
_cell_length_a 5.416272
_cell_length_b 29.312698
_cell_length_c 16.259265
_cell_angle_alpha 90.000000
_cell_angle_beta 111.439847
_cell_angle_gamma 90.000000
_cell_volume 2402.782161
_symmetry_space_group_name_H-M "C 2/M"
_symmetry_group_IT_number 12
_symmetry_cell_setting 'monoclinic'
loop_
_space_group_symop_operation_xyz
x,y,z
-x,y,-z
-x,-y,-z
x,-y,z
1/2+x,1/2+y,z
1/2-x,1/2+y,-z
1/2-x,1/2-y,-z
1/2+x,1/2-y,z
loop_
_atom_site_type_symbol
_atom_site_label
_atom_site_fract_x
_atom_site_fract_y
_atom_site_fract_z
Si Si1 0.156567 0.579580 0.416049
Si Si2 0.080015 0.452244 0.775763
Si Si3 0.722399 0.735461 0.376973
Si Si4 0.000000 0.500000 0.500000
Si Si5 0.890177 0.131117 0.634483
Si Si6 0.622974 0.550936 0.924948
Si Si7 0.436966 0.770076 0.827841
Si Si8 0.723985 0.874476 0.170791
O O1 0.013009 0.549385 0.328281
O O2 0.199042 0.541350 0.490901
O O3 0.913099 0.614166 0.406247
O O4 0.403400 0.606150 0.403071
O O5 0.972476 0.500000 0.799445
O O6 0.389146 0.453130 0.829799
O O7 0.973188 0.406902 0.803328
O O8 0.540908 0.765486 0.415021
O O9 0.614143 0.684968 0.379325
O O10 0.652942 0.754638 0.275965
O O11 0.008514 0.125116 0.740999
O O12 0.746522 0.500000 0.941377
O O13 0.758711 0.597663 0.912225
O O14 0.500000 0.557132 0.000000
O O15 0.748451 0.758935 0.865317
O O16 0.375626 0.822725 0.839488
#
# Coordination Sequence:
#
# PCOD9174454 Si02
#       8
#     8   8   8   2   8   8   8   8
#     4  11  25  41  66  94 131 174 214 268 323 397
#     4  10  21  38  60  94 125 166 221 275 330 389
#     4  10  18  31  55  91 136 161 212 279 325 373
#     4  12  28  54  68 102 142 180 216 270 332 410
#     4  11  22  37  62  98 130 169 223 270 324 386
#     4  10  22  39  61  91 129 174 223 279 343 401
#     4  10  21  32  55  93 132 170 212 282 330 385
#     4  11  21  34  62  87 137 168 226 274 336 391
#
# _framework density 24.138686
#
# number of rings (size 3 to 8) (size 9 to 14) (size 15 to 20)
#    0.000    1.517    4.828    1.241    7.724    2.207 
#    1.241    2.069    0.000    0.828    0.000    9.655 
#    0.000    0.000    0.000    0.000    0.000    0.000 
#
# Total GULP energy -161493.357848 kJ/mol
# GULP energy per Si atom -5568.736478 kJ/mol
# Density = 2.408374 g / cm^3
# Si number density = 24.138686 Si / 1000 Ang^3
#
#
#
# Elastic Constant Matrix: (Units=GPa)
#
#
# Indices 1 2 3 4 5 6 
#
# 1 129.6102 39.4363 25.7059 0.0000 -15.7149 0.0000
# 2 39.4363 199.0083 40.3751 0.0000 -17.6555 0.0000
# 3 25.7059 40.3751 54.3994 0.0000 -11.8479 0.0000
# 4 0.0000 0.0000 0.0000 19.4702 0.0000 5.5778
# 5 -15.7149 -17.6555 -11.8479 0.0000 26.5035 0.0000
# 6 0.0000 0.0000 0.0000 5.5778 0.0000 35.0283
#
#
#
# Elastic Compliance Matrix: (Units=1/GPa)
#
#
# Indices 1 2 3 4 5 6 
#
# 1 0.008967 -0.000899 -0.002817 0.000000 0.003459 0.000000
# 2 -0.000899 0.006123 -0.003709 0.000000 0.001888 0.000000
# 3 -0.002817 -0.003709 0.023890 0.000000 0.006539 0.000000
# 4 0.000000 0.000000 0.000000 0.053815 0.000000 -0.008569
# 5 0.003459 0.001888 0.006539 0.000000 0.043963 0.000000
# 6 0.000000 0.000000 0.000000 -0.008569 0.000000 0.029913
#
#
# Mechanical properties :
#
#
# Convention : Reuss Voigt Hill
#
# Bulk Modulus (GPa) = 41.43884 66.00586 53.72235
# Shear Modulus (GPa) = 26.37639 34.70044 30.53842
#
# Velocity S-wave (km/s) = 3.30919 3.79561 3.56072
# Velocity P-wave (km/s) = 5.63961 6.82735 6.26171
#
# Compressibility (1/GPa) = 0.02413195
#
# Stress axis : x y z
#
# Youngs Moduli (GPa) = 111.52087 163.32157 41.85794
#
# Poissons Ratio (x) = 0.14675 0.11791
# Poissons Ratio (y) = 0.10021 0.15523
# Poissons Ratio (z) = 0.31415 0.60569
#
# Static dielectric constant tensor:
#      x y z
#    x 1.915070 0.000000 -0.139830 
#    y 0.000000 1.942290 0.000000 
#    z -0.139830 0.000000 1.789190 
# 
# From -- ./inp_files/253621.got.cif
#   From: 2010.05.17/outbox.cif.g08.bks.cpg/sg12_127_cif.got.tgz:253621.got - 2010.06.03 13:09:07.
