data_PCOD9174412
_publ_section_title
;
Structure prediction by ZEFSAII (Michael W. Deem and Ramdas Pophale) SiO2 
 PCOD9174412
Probable space group: C 2/M
;
_chemical_formula_sum "Si O2"
_cell_formula_units_Z 56
_cell_length_a 19.977841
_cell_length_b 8.324115
_cell_length_c 14.349186
_cell_angle_alpha 90.000000
_cell_angle_beta 107.120651
_cell_angle_gamma 90.000000
_cell_volume 2280.497260
_symmetry_space_group_name_H-M "C 2/M"
_symmetry_group_IT_number 12
_symmetry_cell_setting 'monoclinic'
loop_
_space_group_symop_operation_xyz
x,y,z
-x,y,-z
-x,-y,-z
x,-y,z
1/2+x,1/2+y,z
1/2-x,1/2+y,-z
1/2-x,1/2-y,-z
1/2+x,1/2-y,z
loop_
_atom_site_type_symbol
_atom_site_label
_atom_site_fract_x
_atom_site_fract_y
_atom_site_fract_z
Si Si1 0.611780 0.191273 0.012990
Si Si2 0.318116 0.307450 0.132577
Si Si3 0.236537 0.312853 0.264888
Si Si4 0.969308 0.812163 0.628782
Si Si5 0.466969 0.192633 0.839535
Si Si6 0.616845 0.815838 0.666656
Si Si7 0.321610 0.192818 0.574810
O O1 0.669729 0.265968 0.968733
O O2 0.539252 0.218420 0.925615
O O3 0.624354 0.000000 0.021646
O O4 0.749013 0.242213 0.163960
O O5 0.326027 0.500000 0.147510
O O6 0.375730 0.212815 0.218014
O O7 0.219829 0.500000 0.252572
O O8 0.093494 0.256482 0.111115
O O9 0.316330 0.289104 0.337500
O O10 0.185582 0.243409 0.321302
O O11 0.968509 0.774052 0.739603
O O12 0.894309 0.751455 0.562181
O O13 0.037925 0.731224 0.613112
O O14 0.975690 0.000000 0.616539
O O15 0.459372 0.000000 0.821339
O O16 0.630962 0.000000 0.648760
O O17 0.250000 0.250000 0.500000
O O18 0.322948 0.000000 0.575391
#
# Coordination Sequence:
#
# PCOD9174412 Si02
#       7
#     8   8   8   8   8   8   8
#     4   9  16  26  45  76 112 149 188 230 277 328
#     4   9  16  28  48  77 109 143 182 222 270 323
#     4   8  18  36  58  83 112 146 182 225 280 337
#     4  12  23  36  56  85 117 150 192 236 283 333
#     4   9  17  29  46  73 111 151 188 230 283 330
#     4  10  18  31  55  83 111 146 187 229 275 328
#     4  11  24  44  65  86 114 146 183 229 285 344
#
# _framework density 24.556049000000002
#
# number of rings (size 3 to 8) (size 9 to 14) (size 15 to 20)
#    0.857    1.429    1.429    3.857    0.000    1.714 
#    0.000    2.143    0.000    5.143    0.000    0.000 
#    0.000    0.000    0.000    0.000    0.000    0.000 
#
# Total GULP energy -156331.845012 kJ/mol
# GULP energy per Si atom -5583.280179 kJ/mol
# Density = 2.450016 g / cm^3
# Si number density = 24.556049 Si / 1000 Ang^3
#
#
#
# Elastic Constant Matrix: (Units=GPa)
#
#
# Indices 1 2 3 4 5 6 
#
# 1 145.5194 -1.9769 20.3679 0.0000 -5.2578 0.0000
# 2 -1.9769 24.7376 11.0320 0.0000 0.6499 0.0000
# 3 20.3679 11.0320 95.2185 0.0000 4.9466 0.0000
# 4 0.0000 0.0000 0.0000 11.3662 0.0000 -10.5633
# 5 -5.2578 0.6499 4.9466 0.0000 42.4485 0.0000
# 6 0.0000 0.0000 0.0000 -10.5633 0.0000 -14.9611
#
#
#
# Elastic Compliance Matrix: (Units=1/GPa)
#
#
# Indices 1 2 3 4 5 6 
#
# 1 0.007173 0.001322 -0.001743 0.000000 0.001071 0.000000
# 2 0.001322 0.042871 -0.005256 0.000000 0.000120 0.000000
# 3 -0.001743 -0.005256 0.011561 0.000000 -0.001483 0.000000
# 4 0.000000 0.000000 0.000000 0.053122 0.000000 -0.037507
# 5 0.001071 0.000120 -0.001483 0.000000 0.023862 0.000000
# 6 0.000000 0.000000 0.000000 -0.037507 0.000000 -0.040358
#
#
# Mechanical properties :
#
#
# Convention : Reuss Voigt Hill
#
# Bulk Modulus (GPa) = 19.90015 36.03570 27.96792
# Shear Modulus (GPa) = 39.57747 23.50754 31.54250
#
# Velocity S-wave (km/s) = 4.01898 3.09739 3.58790
# Velocity P-wave (km/s) = 5.44590 5.24390 5.34585
#
# Compressibility (1/GPa) = 0.05025088
#
# Stress axis : x y z
#
# Youngs Moduli (GPa) = 139.41961 23.32584 86.49749
#
# Poissons Ratio (x) = -0.03085 0.15078
# Poissons Ratio (y) = -0.18437 0.45464
# Poissons Ratio (z) = 0.24303 0.12260
#
# Static dielectric constant tensor:
#      x y z
#    x 1.989700 0.000000 0.036550 
#    y 0.000000 1.857750 0.000000 
#    z 0.036550 0.000000 2.086770 
# 
# From -- ./inp_files/314393.got.cif
#   From: 2010.05.17/outbox.cif.g08.bks.cpg/sg12_158_cif.got.tgz:314393.got - 2010.06.03 13:09:07.
