data_PCOD9174334
_publ_section_title
;
Structure prediction by ZEFSAII (Michael W. Deem and Ramdas Pophale) SiO2 
 PCOD9174334
Probable space group: C 2/M
;
_chemical_formula_sum "Si O2"
_cell_formula_units_Z 48
_cell_length_a 29.206759
_cell_length_b 7.453194
_cell_length_c 10.462745
_cell_angle_alpha 90.000000
_cell_angle_beta 89.472753
_cell_angle_gamma 90.000000
_cell_volume 2277.471994
_symmetry_space_group_name_H-M "C 2/M"
_symmetry_group_IT_number 12
_symmetry_cell_setting 'monoclinic'
loop_
_space_group_symop_operation_xyz
x,y,z
-x,y,-z
-x,-y,-z
x,-y,z
1/2+x,1/2+y,z
1/2-x,1/2+y,-z
1/2-x,1/2-y,-z
1/2+x,1/2-y,z
loop_
_atom_site_type_symbol
_atom_site_label
_atom_site_fract_x
_atom_site_fract_y
_atom_site_fract_z
Si Si1 0.717744 0.786974 0.380078
Si Si2 0.273718 0.285203 0.134634
Si Si3 0.126489 0.780335 0.784113
Si Si4 0.470748 0.282590 0.625993
Si Si5 0.620535 0.707655 0.491129
Si Si6 0.473732 0.719343 0.128230
O O1 0.750000 0.750000 0.500000
O O2 0.742178 0.716707 0.251811
O O3 0.668135 0.713748 0.415984
O O4 0.712566 0.000000 0.366918
O O5 0.275979 0.500000 0.149598
O O6 0.326076 0.220711 0.151299
O O7 0.250000 0.250000 0.000000
O O8 0.125496 0.719531 0.635297
O O9 0.079226 0.725126 0.853330
O O10 0.127090 0.000000 0.784423
O O11 0.500000 0.240992 0.500000
O O12 0.469447 0.500000 0.639767
O O13 0.419903 0.215958 0.595263
O O14 0.496860 0.218773 0.750678
O O15 0.607682 0.500000 0.513039
O O16 0.473039 0.500000 0.128125
O O17 0.500000 0.776062 0.000000
#
# Coordination Sequence:
#
# PCOD9174334 Si02
#       6
#     8   8   8   8   8   8
#     4  11  22  37  57  82 109 140 183 229 272 321
#     4  10  22  38  55  77 108 144 179 222 274 325
#     4   9  16  30  49  71 106 142 172 218 274 318
#     4   9  15  25  45  73 101 134 175 216 262 313
#     4  10  18  31  54  81 109 141 179 223 269 320
#     4   9  16  25  41  70 105 136 170 216 264 313
#
# _framework density 21.076001000000002
#
# number of rings (size 3 to 8) (size 9 to 14) (size 15 to 20)
#    0.000    2.333    3.333    0.500    0.000    2.667 
#    0.000    3.333    0.000    0.500    0.000    0.000 
#    0.000    4.667    0.000    0.000    0.000    0.000 
#
# Total GULP energy -133977.765622 kJ/mol
# GULP energy per Si atom -5582.406901 kJ/mol
# Density = 2.102803 g / cm^3
# Si number density = 21.076001 Si / 1000 Ang^3
#
#
#
# Elastic Constant Matrix: (Units=GPa)
#
#
# Indices 1 2 3 4 5 6 
#
# 1 225.9288 -7.1079 114.9027 0.0000 3.4615 0.0000
# 2 -7.1079 58.9225 -4.4708 0.0000 0.8622 0.0000
# 3 114.9027 -4.4708 188.8893 0.0000 0.0999 0.0000
# 4 0.0000 0.0000 0.0000 6.6120 0.0000 -0.1789
# 5 3.4615 0.8622 0.0999 0.0000 34.1812 0.0000
# 6 0.0000 0.0000 0.0000 -0.1789 0.0000 10.2841
#
#
#
# Elastic Compliance Matrix: (Units=1/GPa)
#
#
# Indices 1 2 3 4 5 6 
#
# 1 0.006437 0.000490 -0.003904 0.000000 -0.000653 0.000000
# 2 0.000490 0.017046 0.000106 0.000000 -0.000480 0.000000
# 3 -0.003904 0.000106 0.007671 0.000000 0.000370 0.000000
# 4 0.000000 0.000000 0.000000 0.151312 0.000000 0.002632
# 5 -0.000653 -0.000480 0.000370 0.000000 0.029333 0.000000
# 6 0.000000 0.000000 0.000000 0.002632 0.000000 0.097283
#
#
# Mechanical properties :
#
#
# Convention : Reuss Voigt Hill
#
# Bulk Modulus (GPa) = 40.75424 75.59873 58.17649
# Shear Modulus (GPa) = 15.43799 34.90991 25.17395
#
# Velocity S-wave (km/s) = 2.70939 4.07428 3.45981
# Velocity P-wave (km/s) = 5.40060 7.62106 6.60481
#
# Compressibility (1/GPa) = 0.02453732
#
# Stress axis : x y z
#
# Youngs Moduli (GPa) = 155.35376 58.66628 130.36020
#
# Poissons Ratio (x) = -0.02874 0.50889
# Poissons Ratio (y) = -0.07610 -0.01378
# Poissons Ratio (z) = 0.60645 -0.00620
#
# Static dielectric constant tensor:
#      x y z
#    x 1.766030 0.000000 0.008100 
#    y 0.000000 1.847920 0.000000 
#    z 0.008100 0.000000 1.711980 
# 
# From -- ./inp_files/101999.got.cif
#   From: 2010.05.17/outbox.cif.g08.bks.cpg/sg12_51_cif.got.tgz:101999.got - 2010.06.03 13:09:07.
