data_PCOD9174192
_publ_section_title
;
Structure prediction by ZEFSAII (Michael W. Deem and Ramdas Pophale) SiO2 
 PCOD9174192
Probable space group: C 2/M
;
_chemical_formula_sum "Si O2"
_cell_formula_units_Z 56
_cell_length_a 15.966065
_cell_length_b 18.997785
_cell_length_c 11.889521
_cell_angle_alpha 90.000000
_cell_angle_beta 48.483075
_cell_angle_gamma 90.000000
_cell_volume 2700.273955
_symmetry_space_group_name_H-M "C 2/M"
_symmetry_group_IT_number 12
_symmetry_cell_setting 'monoclinic'
loop_
_space_group_symop_operation_xyz
x,y,z
-x,y,-z
-x,-y,-z
x,-y,z
1/2+x,1/2+y,z
1/2-x,1/2+y,-z
1/2-x,1/2-y,-z
1/2+x,1/2-y,z
loop_
_atom_site_type_symbol
_atom_site_label
_atom_site_fract_x
_atom_site_fract_y
_atom_site_fract_z
Si Si1 0.704932 0.728141 0.196989
Si Si2 0.683965 0.379284 0.875606
Si Si3 0.356445 0.000000 0.739972
Si Si4 0.892871 0.500000 0.441226
Si Si5 0.032959 0.851120 0.807139
Si Si6 0.425264 0.209864 0.900045
Si Si7 0.638403 0.296236 0.489339
Si Si8 0.368416 0.847955 0.380486
O O1 0.760810 0.802521 0.180496
O O2 0.631062 0.748596 0.155144
O O3 0.629249 0.696941 0.363348
O O4 0.817076 0.685076 0.065200
O O5 0.780436 0.432006 0.824490
O O6 0.624152 0.387572 0.807158
O O7 0.585814 0.385470 0.056103
O O8 0.380491 0.000000 0.585727
O O9 0.473648 0.000000 0.698765
O O10 0.842771 0.426592 0.442537
O O11 0.073307 0.841465 0.642721
O O12 0.008494 0.770923 0.871549
O O13 0.511328 0.150810 0.786588
O O14 0.619240 0.213381 0.535579
O O15 0.767881 0.316635 0.396498
#
# Coordination Sequence:
#
# PCOD9174192 Si02
#       8
#     8   8   4   4   8   8   8   8
#     4  10  18  31  53  77 108 137 177 234 280 328
#     4  10  19  34  51  75 111 143 177 224 269 341
#     4  11  22  33  52  80 112 153 180 204 288 351
#     4  11  22  34  52  83 116 144 180 229 272 337
#     4   9  19  32  49  73 103 138 183 223 264 315
#     4   9  19  32  49  77 105 140 177 224 288 333
#     4  10  19  33  54  79 107 146 187 228 272 327
#     4  10  20  34  52  78 114 146 181 221 277 335
#
# _framework density 20.738636
#
# number of rings (size 3 to 8) (size 9 to 14) (size 15 to 20)
#    0.000    2.143    0.000    5.143    0.000    6.286 
#    0.000    0.714    0.000    1.714    0.000    5.000 
#    0.000   30.857    0.000    0.000    0.000    0.000 
#
# Total GULP energy -156022.989843 kJ/mol
# GULP energy per Si atom -5572.249637 kJ/mol
# Density = 2.069143 g / cm^3
# Si number density = 20.738636 Si / 1000 Ang^3
#
#
#
# Elastic Constant Matrix: (Units=GPa)
#
#
# Indices 1 2 3 4 5 6 
#
# 1 45.2474 8.9922 31.6311 0.0000 -11.9105 0.0000
# 2 8.9922 58.9251 12.8937 0.0000 -9.7990 0.0000
# 3 31.6311 12.8937 158.1755 0.0000 -7.7893 0.0000
# 4 0.0000 0.0000 0.0000 17.9742 0.0000 -10.1906
# 5 -11.9105 -9.7990 -7.7893 0.0000 37.1275 0.0000
# 6 0.0000 0.0000 0.0000 -10.1906 0.0000 19.8936
#
#
#
# Elastic Compliance Matrix: (Units=1/GPa)
#
#
# Indices 1 2 3 4 5 6 
#
# 1 0.027979 -0.001929 -0.005073 0.000000 0.007402 0.000000
# 2 -0.001929 0.018122 -0.000896 0.000000 0.003976 0.000000
# 3 -0.005073 -0.000896 0.007394 0.000000 -0.000313 0.000000
# 4 0.000000 0.000000 0.000000 0.078406 0.000000 0.040164
# 5 0.007402 0.003976 -0.000313 0.000000 0.030293 0.000000
# 6 0.000000 0.000000 0.000000 0.040164 0.000000 0.070842
#
#
# Mechanical properties :
#
#
# Convention : Reuss Voigt Hill
#
# Bulk Modulus (GPa) = 26.52507 41.04245 33.78376
# Shear Modulus (GPa) = 19.12786 28.92113 24.02449
#
# Velocity S-wave (km/s) = 3.04028 3.73842 3.40728
# Velocity P-wave (km/s) = 5.01422 6.20223 5.63959
#
# Compressibility (1/GPa) = 0.03770018
#
# Stress axis : x y z
#
# Youngs Moduli (GPa) = 35.74088 55.18076 135.24001
#
# Poissons Ratio (x) = 0.10642 0.68612
# Poissons Ratio (y) = 0.06893 0.12114
# Poissons Ratio (z) = 0.18133 0.04943
#
# Static dielectric constant tensor:
#      x y z
#    x 1.794500 0.000000 -0.003710 
#    y 0.000000 1.727630 0.000000 
#    z -0.003710 0.000000 1.861270 
# 
# From -- ./inp_files/159210.got.cif
#   From: 2010.05.17/outbox.cif.g08.bks.cpg/sg12_80_cif.got.tgz:159210.got - 2010.06.03 13:09:07.
