data_PCOD9174326
_publ_section_title
;
Structure prediction by ZEFSAII (Michael W. Deem and Ramdas Pophale) SiO2 
 PCOD9174326
Probable space group: C 2/M
;
_chemical_formula_sum "Si O2"
_cell_formula_units_Z 32
_cell_length_a 13.137939
_cell_length_b 20.111156
_cell_length_c 9.018821
_cell_angle_alpha 90.000000
_cell_angle_beta 35.339313
_cell_angle_gamma 90.000000
_cell_volume 1378.337106
_symmetry_space_group_name_H-M "C 2/M"
_symmetry_group_IT_number 12
_symmetry_cell_setting 'monoclinic'
loop_
_space_group_symop_operation_xyz
x,y,z
-x,y,-z
-x,-y,-z
x,-y,z
1/2+x,1/2+y,z
1/2-x,1/2+y,-z
1/2-x,1/2-y,-z
1/2+x,1/2-y,z
loop_
_atom_site_type_symbol
_atom_site_label
_atom_site_fract_x
_atom_site_fract_y
_atom_site_fract_z
Si Si1 0.013380 0.923589 0.317109
Si Si2 0.140113 0.187976 0.969882
Si Si3 0.397938 0.926113 0.277954
Si Si4 0.596159 0.786078 0.584427
O O1 0.812789 0.923009 0.497114
O O2 0.000000 0.895981 0.500000
O O3 0.135205 0.880683 0.065570
O O4 0.074115 0.000000 0.254712
O O5 0.066317 0.242047 0.171173
O O6 0.318829 0.209468 0.678497
O O7 0.000000 0.180955 0.000000
O O8 0.439716 0.861552 0.323288
O O9 0.439163 0.000000 0.289325
O O10 0.500000 0.920434 0.000000
O O11 0.750000 0.750000 0.500000
#
# Coordination Sequence:
#
# PCOD9174326 Si02
#       4
#     8   8   8   8
#     4  10  21  36  54  81 116 146 177 225 279 328
#     4  10  19  33  56  81 108 147 185 226 273 320
#     4  10  19  32  55  82 107 145 187 223 271 327
#     4  10  18  31  54  80 110 138 182 234 267 310
#
# _framework density 23.216384000000001
#
# number of rings (size 3 to 8) (size 9 to 14) (size 15 to 20)
#    0.000    2.000    5.000    2.250    0.000    1.500 
#    0.000    1.250    0.000    0.000    0.000    7.000 
#    0.000    0.000    0.000    0.000    0.000    0.000 
#
# Total GULP energy -89481.460077 kJ/mol
# GULP energy per Si atom -5592.591255 kJ/mol
# Density = 2.316354 g / cm^3
# Si number density = 23.216384 Si / 1000 Ang^3
#
#
#
# Elastic Constant Matrix: (Units=GPa)
#
#
# Indices 1 2 3 4 5 6 
#
# 1 52.4334 14.0623 29.5340 0.0000 -1.8735 0.0000
# 2 14.0623 157.8224 91.2537 0.0000 20.3445 0.0000
# 3 29.5340 91.2537 210.5279 0.0000 10.6164 0.0000
# 4 0.0000 0.0000 0.0000 36.3519 0.0000 35.6478
# 5 -1.8735 20.3445 10.6164 0.0000 44.5665 0.0000
# 6 0.0000 0.0000 0.0000 35.6478 0.0000 -11.0178
#
#
#
# Elastic Compliance Matrix: (Units=1/GPa)
#
#
# Indices 1 2 3 4 5 6 
#
# 1 0.020842 -0.000456 -0.002815 0.000000 0.001755 0.000000
# 2 -0.000456 0.008888 -0.003627 0.000000 -0.003213 0.000000
# 3 -0.002815 -0.003627 0.006720 0.000000 -0.000064 0.000000
# 4 0.000000 0.000000 0.000000 0.006592 0.000000 0.021330
# 5 0.001755 -0.003213 -0.000064 0.000000 0.023994 0.000000
# 6 0.000000 0.000000 0.000000 0.021330 0.000000 -0.021751
#
#
# Mechanical properties :
#
#
# Convention : Reuss Voigt Hill
#
# Bulk Modulus (GPa) = 44.13860 76.72039 60.42950
# Shear Modulus (GPa) = 75.03970 33.04239 54.04104
#
# Velocity S-wave (km/s) = 5.69140 3.77667 4.82987
# Velocity P-wave (km/s) = 7.88939 7.22047 7.56233
#
# Compressibility (1/GPa) = 0.02265591
#
# Stress axis : x y z
#
# Youngs Moduli (GPa) = 47.97951 112.51336 148.81032
#
# Poissons Ratio (x) = 0.05128 0.41887
# Poissons Ratio (y) = 0.02187 0.53966
# Poissons Ratio (z) = 0.13505 0.40803
#
# Static dielectric constant tensor:
#      x y z
#    x 1.912190 0.000000 -0.035470 
#    y 0.000000 1.844000 0.000000 
#    z -0.035470 0.000000 1.812370 
# 
# From -- ./inp_files/46017.got.cif
#   From: 2010.05.17/outbox.cif.g08.bks.cpg/sg12_24_cif.got.tgz:46017.got - 2010.06.03 13:09:07.
