data_PCOD9174884
_publ_section_title
;
Structure prediction by ZEFSAII (Michael W. Deem and Ramdas Pophale) SiO2 
 PCOD9174884
Probable space group: C 2/M
;
_chemical_formula_sum "Si O2"
_cell_formula_units_Z 64
_cell_length_a 15.061304
_cell_length_b 23.277480
_cell_length_c 14.878942
_cell_angle_alpha 90.000000
_cell_angle_beta 138.700968
_cell_angle_gamma 90.000000
_cell_volume 3442.764123
_symmetry_space_group_name_H-M "C 2/M"
_symmetry_group_IT_number 12
_symmetry_cell_setting 'monoclinic'
loop_
_space_group_symop_operation_xyz
x,y,z
-x,y,-z
-x,-y,-z
x,-y,z
1/2+x,1/2+y,z
1/2-x,1/2+y,-z
1/2-x,1/2-y,-z
1/2+x,1/2-y,z
loop_
_atom_site_type_symbol
_atom_site_label
_atom_site_fract_x
_atom_site_fract_y
_atom_site_fract_z
Si Si1 0.205168 0.434701 0.500242
Si Si2 0.202159 0.869094 0.594194
Si Si3 0.906362 0.132605 0.294707
Si Si4 0.496027 0.434135 0.197894
Si Si5 0.443105 0.176430 0.558322
Si Si6 0.802467 0.247614 0.687529
Si Si7 0.809438 0.744698 0.191650
Si Si8 0.946477 0.181171 0.061687
O O1 0.160348 0.500000 0.475751
O O2 0.246693 0.420094 0.429400
O O3 0.343098 0.427106 0.662760
O O4 0.096337 0.387934 0.445949
O O5 0.176977 0.883057 0.679391
O O6 0.299875 0.814458 0.660846
O O7 0.055944 0.850707 0.443692
O O8 0.926532 0.081430 0.240135
O O9 0.842791 0.188650 0.199591
O O10 0.470724 0.500000 0.152348
O O11 0.445598 0.384627 0.093043
O O12 0.500000 0.176914 0.500000
O O13 0.305864 0.213100 0.453266
O O14 0.555834 0.206863 0.703938
O O15 0.745813 0.245545 0.747048
O O16 0.944430 0.215913 0.796563
O O17 0.694733 0.714271 0.046441
O O18 0.000000 0.182001 0.000000
#
# Coordination Sequence:
#
# PCOD9174884 Si02
#       8
#     8   8   8   8   8   8   8   8
#     4  10  21  34  50  76 105 138 182 216 247 305
#     4   9  17  31  54  79 106 136 166 212 267 312
#     4   9  17  32  53  79 107 133 168 216 263 309
#     4  10  21  35  51  73 103 143 184 212 247 305
#     4  10  18  32  54  76 104 137 169 214 265 307
#     4   9  16  31  53  80 105 133 170 208 263 320
#     4   9  18  31  52  81 108 132 166 214 265 314
#     4  10  20  34  53  78 108 138 172 215 258 306
#
# _framework density 18.589715000000002
#
# number of rings (size 3 to 8) (size 9 to 14) (size 15 to 20)
#    0.000    2.500    2.500    0.000    0.000    3.000 
#    0.000    3.125    0.000    0.000    0.000    0.000 
#    0.000    7.000    0.000    0.000    0.000    0.000 
#
# Total GULP energy -178600.483859 kJ/mol
# GULP energy per Si atom -5581.265121 kJ/mol
# Density = 1.854740 g / cm^3
# Si number density = 18.589715 Si / 1000 Ang^3
#
#
#
# Elastic Constant Matrix: (Units=GPa)
#
#
# Indices 1 2 3 4 5 6 
#
# 1 41.5478 1.8637 17.5168 0.0000 -2.4453 0.0000
# 2 1.8637 72.5536 17.4882 0.0000 11.6178 0.0000
# 3 17.5168 17.4882 65.2045 0.0000 17.5074 0.0000
# 4 0.0000 0.0000 0.0000 21.0732 0.0000 0.4316
# 5 -2.4453 11.6178 17.5074 0.0000 17.2358 0.0000
# 6 0.0000 0.0000 0.0000 0.4316 0.0000 22.0276
#
#
#
# Elastic Compliance Matrix: (Units=1/GPa)
#
#
# Indices 1 2 3 4 5 6 
#
# 1 0.030538 -0.000531 -0.012816 0.000000 0.017709 0.000000
# 2 -0.000531 0.015624 -0.001650 0.000000 -0.008931 0.000000
# 3 -0.012816 -0.001650 0.026691 0.000000 -0.027818 0.000000
# 4 0.000000 0.000000 0.000000 0.047473 0.000000 -0.000930
# 5 0.017709 -0.008931 -0.027818 0.000000 0.094807 0.000000
# 6 0.000000 0.000000 0.000000 -0.000930 0.000000 0.045416
#
#
# Mechanical properties :
#
#
# Convention : Reuss Voigt Hill
#
# Bulk Modulus (GPa) = 23.33220 28.11592 25.72406
# Shear Modulus (GPa) = 16.40263 21.56315 18.98289
#
# Velocity S-wave (km/s) = 2.97366 3.40950 3.19901
# Velocity P-wave (km/s) = 4.93645 5.53686 5.24526
#
# Compressibility (1/GPa) = 0.04285922
#
# Stress axis : x y z
#
# Youngs Moduli (GPa) = 32.74592 64.00271 37.46598
#
# Poissons Ratio (x) = 0.03398 0.48017
# Poissons Ratio (y) = 0.01738 0.06182
# Poissons Ratio (z) = 0.41968 0.10560
#
# Static dielectric constant tensor:
#      x y z
#    x 1.683010 0.000000 -0.022480 
#    y 0.000000 1.607680 0.000000 
#    z -0.022480 0.000000 1.637200 
# 
# From -- ./inp_files/218509.got.cif
#   From: 2010.05.17/outbox.cif.g08.bks.cpg/sg12_110_cif.got.tgz:218509.got - 2010.06.03 13:09:07.
