data_PCOD9174227
_publ_section_title
;
Structure prediction by ZEFSAII (Michael W. Deem and Ramdas Pophale) SiO2 
 PCOD9174227
Probable space group: C 2/M
;
_chemical_formula_sum "Si O2"
_cell_formula_units_Z 52
_cell_length_a 14.701280
_cell_length_b 19.578107
_cell_length_c 8.537570
_cell_angle_alpha 90.000000
_cell_angle_beta 108.166552
_cell_angle_gamma 90.000000
_cell_volume 2334.824424
_symmetry_space_group_name_H-M "C 2/M"
_symmetry_group_IT_number 12
_symmetry_cell_setting 'monoclinic'
loop_
_space_group_symop_operation_xyz
x,y,z
-x,y,-z
-x,-y,-z
x,-y,z
1/2+x,1/2+y,z
1/2-x,1/2+y,-z
1/2-x,1/2-y,-z
1/2+x,1/2-y,z
loop_
_atom_site_type_symbol
_atom_site_label
_atom_site_fract_x
_atom_site_fract_y
_atom_site_fract_z
Si Si1 0.452516 0.000000 0.174584
Si Si2 0.763318 0.633162 0.398570
Si Si3 0.841201 0.278542 0.200889
Si Si4 0.682643 0.000000 0.273805
Si Si5 0.396043 0.674662 0.459408
Si Si6 0.560587 0.815638 0.332102
Si Si7 0.146158 0.624701 0.066231
Si Si8 0.306318 0.000000 0.350734
O O1 0.566027 0.000000 0.221639
O O2 0.412627 0.068726 0.069800
O O3 0.409777 0.000000 0.326353
O O4 0.763777 0.698760 0.288057
O O5 0.684162 0.635461 0.488159
O O6 0.869613 0.633375 0.534467
O O7 0.756380 0.569859 0.277628
O O8 0.864034 0.201838 0.270732
O O9 0.814004 0.314273 0.022785
O O10 0.946085 0.314818 0.286728
O O11 0.709120 0.000000 0.470047
O O12 0.710505 0.068899 0.195045
O O13 0.500000 0.641087 0.500000
O O14 0.411588 0.742199 0.578992
O O15 0.587524 0.833894 0.168328
#
# Coordination Sequence:
#
# PCOD9174227 Si02
#       8
#     4   8   8   4   8   8   8   4
#     4  11  21  31  45  72 115 157 172 196 236 303
#     4  11  21  36  51  76 103 136 183 221 254 308
#     4  10  18  31  53  79 110 142 163 198 255 316
#     4  11  21  31  45  72 115 157 172 196 236 303
#     4   9  21  39  57  72  97 135 179 233 274 298
#     4  10  18  31  53  79 110 142 163 198 255 316
#     4  11  20  30  47  78 118 147 172 194 240 317
#     4  12  23  32  53  70 102 142 188 214 252 298
#
# _framework density 22.271484000000001
#
# number of rings (size 3 to 8) (size 9 to 14) (size 15 to 20)
#    0.000    1.538    3.077    6.692    0.000    1.231 
#    0.000    3.462    0.000    0.000    0.000    0.000 
#    0.000    2.462    0.000    0.000    0.000    0.000 
#
# Total GULP energy -144763.635327 kJ/mol
# GULP energy per Si atom -5567.832128 kJ/mol
# Density = 2.222079 g / cm^3
# Si number density = 22.271484 Si / 1000 Ang^3
#
#
#
# Elastic Constant Matrix: (Units=GPa)
#
#
# Indices 1 2 3 4 5 6 
#
# 1 81.6471 10.9368 30.7171 0.0000 -26.5938 0.0000
# 2 10.9368 40.9078 0.9353 0.0000 -4.2146 0.0000
# 3 30.7171 0.9353 99.0529 0.0000 -22.0669 0.0000
# 4 0.0000 0.0000 0.0000 40.3899 0.0000 -15.0560
# 5 -26.5938 -4.2146 -22.0669 0.0000 38.3646 0.0000
# 6 0.0000 0.0000 0.0000 -15.0560 0.0000 22.3600
#
#
#
# Elastic Compliance Matrix: (Units=1/GPa)
#
#
# Indices 1 2 3 4 5 6 
#
# 1 0.017018 -0.003487 -0.003099 0.000000 0.009631 0.000000
# 2 -0.003487 0.025455 0.001061 0.000000 0.000990 0.000000
# 3 -0.003099 0.001061 0.012151 0.000000 0.004958 0.000000
# 4 0.000000 0.000000 0.000000 0.033056 0.000000 0.022258
# 5 0.009631 0.000990 0.004958 0.000000 0.035702 0.000000
# 6 0.000000 0.000000 0.000000 0.022258 0.000000 0.059710
#
#
# Mechanical properties :
#
#
# Convention : Reuss Voigt Hill
#
# Bulk Modulus (GPa) = 22.94851 34.08735 28.51793
# Shear Modulus (GPa) = 23.96189 32.15749 28.05969
#
# Velocity S-wave (km/s) = 3.28365 3.80397 3.55335
# Velocity P-wave (km/s) = 4.97019 5.88491 5.44679
#
# Compressibility (1/GPa) = 0.04357581
#
# Stress axis : x y z
#
# Youngs Moduli (GPa) = 58.76247 39.28489 82.29754
#
# Poissons Ratio (x) = 0.13697 0.25502
# Poissons Ratio (y) = 0.20488 -0.08735
# Poissons Ratio (z) = 0.18209 -0.04170
#
# Static dielectric constant tensor:
#      x y z
#    x 1.823550 0.000000 0.063870 
#    y 0.000000 1.932240 0.000000 
#    z 0.063870 0.000000 1.964120 
# 
# From -- ./inp_files/64814.got.cif
#   From: 2010.05.17/outbox.cif.g08.bks.cpg/sg12_33_cif.got.tgz:64814.got - 2010.06.03 13:09:07.
