data_PCOD9174563
_publ_section_title
;
Structure prediction by ZEFSAII (Michael W. Deem and Ramdas Pophale) SiO2 
 PCOD9174563
Probable space group: C 2/M
;
_chemical_formula_sum "Si O2"
_cell_formula_units_Z 64
_cell_length_a 9.485592
_cell_length_b 25.405240
_cell_length_c 19.296223
_cell_angle_alpha 90.000000
_cell_angle_beta 142.468787
_cell_angle_gamma 90.000000
_cell_volume 2832.796236
_symmetry_space_group_name_H-M "C 2/M"
_symmetry_group_IT_number 12
_symmetry_cell_setting 'monoclinic'
loop_
_space_group_symop_operation_xyz
x,y,z
-x,y,-z
-x,-y,-z
x,-y,z
1/2+x,1/2+y,z
1/2-x,1/2+y,-z
1/2-x,1/2-y,-z
1/2+x,1/2-y,z
loop_
_atom_site_type_symbol
_atom_site_label
_atom_site_fract_x
_atom_site_fract_y
_atom_site_fract_z
Si Si1 0.313650 0.942163 0.688179
Si Si2 0.367905 0.765479 0.185465
Si Si3 0.786510 0.942307 0.514092
Si Si4 0.881910 0.246924 0.352324
Si Si5 0.244356 0.330807 0.543635
Si Si6 0.640186 0.346656 0.804825
Si Si7 0.752336 0.060379 0.060876
Si Si8 0.413237 0.864338 0.120363
O O1 0.265166 0.942731 0.587886
O O2 0.486228 0.896930 0.776183
O O3 0.065167 0.935662 0.628833
O O4 0.403027 0.000000 0.744031
O O5 0.646596 0.769873 0.296242
O O6 0.310972 0.763223 0.245487
O O7 0.308432 0.707224 0.133032
O O8 0.293699 0.812558 0.105771
O O9 0.675594 0.890189 0.500411
O O10 0.723931 0.000000 0.517862
O O11 0.027132 0.293918 0.442733
O O12 0.055489 0.197236 0.424413
O O13 0.398518 0.335283 0.672974
O O14 0.612001 0.400427 0.835454
O O15 0.859856 0.351153 0.838477
O O16 0.832704 0.000000 0.083986
O O17 0.500000 0.057648 0.000000
O O18 0.729761 0.094301 0.981780
#
# Coordination Sequence:
#
# PCOD9174563 Si02
#       8
#     8   8   8   8   8   8   8   8
#     4   9  16  25  43  73 105 138 175 227 288 336
#     4  11  20  38  54  86 114 154 188 233 280 341
#     4   9  16  25  41  70 105 137 177 223 279 341
#     4  10  22  33  55  80 114 149 196 225 273 335
#     4  10  18  32  48  77 108 155 184 233 273 337
#     4  10  21  34  51  80 111 147 188 233 283 334
#     4   9  20  36  57  84 112 143 188 244 294 336
#     4  11  18  34  55  78 113 146 186 235 285 342
#
# _framework density 22.592518999999999
#
# number of rings (size 3 to 8) (size 9 to 14) (size 15 to 20)
#    0.000    2.125    3.750    1.875    0.000    7.000 
#    0.000    0.000    0.000    0.750    0.000    5.250 
#    0.000    0.000    0.000    0.000    0.000    0.000 
#
# Total GULP energy -178454.044128 kJ/mol
# GULP energy per Si atom -5576.688879 kJ/mol
# Density = 2.254110 g / cm^3
# Si number density = 22.592519 Si / 1000 Ang^3
#
#
#
# Elastic Constant Matrix: (Units=GPa)
#
#
# Indices 1 2 3 4 5 6 
#
# 1 32.3963 17.8645 4.0317 0.0000 -8.0766 0.0000
# 2 17.8645 204.5003 30.2374 0.0000 -22.0180 0.0000
# 3 4.0317 30.2374 36.4473 -0.0006 -7.5931 0.0002
# 4 0.0000 0.0000 -0.0006 31.9890 0.0000 -4.3055
# 5 -8.0766 -22.0180 -7.5931 0.0000 22.5322 0.0000
# 6 0.0000 0.0000 0.0002 -4.3055 0.0000 15.7591
#
#
#
# Elastic Compliance Matrix: (Units=1/GPa)
#
#
# Indices 1 2 3 4 5 6 
#
# 1 0.034533 -0.001873 -0.000074 0.000000 0.010523 0.000000
# 2 -0.001873 0.006067 -0.004013 0.000000 0.003905 0.000000
# 3 -0.000074 -0.004013 0.032213 0.000001 0.006908 0.000000
# 4 0.000000 0.000000 0.000001 0.032454 0.000000 0.008867
# 5 0.010523 0.003905 0.006908 0.000000 0.054297 0.000000
# 6 0.000000 0.000000 0.000000 0.008867 0.000000 0.065878
#
#
# Mechanical properties :
#
#
# Convention : Reuss Voigt Hill
#
# Bulk Modulus (GPa) = 16.42177 41.95677 29.18927
# Shear Modulus (GPa) = 19.40539 28.80340 24.10439
#
# Velocity S-wave (km/s) = 2.93393 3.57446 3.26992
# Velocity P-wave (km/s) = 4.33148 5.97052 5.21578
#
# Compressibility (1/GPa) = 0.06089476
#
# Stress axis : x y z
#
# Youngs Moduli (GPa) = 28.95766 164.81557 31.04309
#
# Poissons Ratio (x) = 0.30866 0.00230
# Poissons Ratio (y) = 0.05423 0.12457
# Poissons Ratio (z) = 0.00214 0.66138
#
# Static dielectric constant tensor:
#      x y z
#    x 1.898380 0.000000 -0.032510 
#    y 0.000000 1.894260 0.000000 
#    z -0.032510 0.000000 1.844840 
# 
# From -- ./inp_files/337135.got.cif
#   From: 2010.05.17/outbox.cif.g08.bks.cpg/sg12_169_cif.got.tgz:337135.got - 2010.06.03 13:09:07.
