data_PCOD9174560
_publ_section_title
;
Structure prediction by ZEFSAII (Michael W. Deem and Ramdas Pophale) SiO2 
 PCOD9174560
Probable space group: C 2/M
;
_chemical_formula_sum "Si O2"
_cell_formula_units_Z 44
_cell_length_a 5.447690
_cell_length_b 14.452429
_cell_length_c 25.934530
_cell_angle_alpha 90.000000
_cell_angle_beta 108.350263
_cell_angle_gamma 90.000000
_cell_volume 1938.055945
_symmetry_space_group_name_H-M "C 2/M"
_symmetry_group_IT_number 12
_symmetry_cell_setting 'monoclinic'
loop_
_space_group_symop_operation_xyz
x,y,z
-x,y,-z
-x,-y,-z
x,-y,z
1/2+x,1/2+y,z
1/2-x,1/2+y,-z
1/2-x,1/2-y,-z
1/2+x,1/2-y,z
loop_
_atom_site_type_symbol
_atom_site_label
_atom_site_fract_x
_atom_site_fract_y
_atom_site_fract_z
Si Si1 0.019834 0.388273 0.851272
Si Si2 0.711174 0.639095 0.620263
Si Si3 0.721776 0.650447 0.335184
Si Si4 0.000000 0.811215 0.500000
Si Si5 0.284144 0.145893 0.022778
Si Si6 0.074702 0.112439 0.211562
O O1 0.026845 0.500000 0.854973
O O2 0.117954 0.351777 0.912428
O O3 0.219114 0.362120 0.819050
O O4 0.721198 0.362727 0.821510
O O5 0.514070 0.603982 0.650211
O O6 0.746226 0.748602 0.636444
O O7 0.586953 0.632134 0.555814
O O8 0.001209 0.602592 0.641174
O O9 0.653739 0.657575 0.270806
O O10 0.250000 0.750000 0.500000
O O11 0.500000 0.102595 0.000000
O O12 0.250000 0.250000 0.000000
O O13 0.000000 0.102637 0.000000
O O14 0.085231 0.000000 0.218510
#
# Coordination Sequence:
#
# PCOD9174560 Si02
#       6
#     8   8   8   4   8   8
#     4  10  21  38  58  78 101 136 182 219 253 309
#     4  10  19  30  48  77 103 134 170 214 269 315
#     4  10  18  32  48  74 106 130 171 217 259 311
#     4  12  16  30  48  74 106 138 174 216 266 318
#     4  10  21  38  56  81 112 138 168 212 265 319
#     4  10  21  37  56  77 103 140 180 216 254 301
#
# _framework density 22.703163
#
# number of rings (size 3 to 8) (size 9 to 14) (size 15 to 20)
#    0.000    1.818    3.636    2.182    0.000    0.727 
#    0.000   21.818    0.000    0.000    0.000    7.000 
#    0.000    0.000    0.000    0.000    0.000    0.000 
#
# Total GULP energy -123011.254527 kJ/mol
# GULP energy per Si atom -5591.420660 kJ/mol
# Density = 2.265149 g / cm^3
# Si number density = 22.703163 Si / 1000 Ang^3
#
#
#
# Elastic Constant Matrix: (Units=GPa)
#
#
# Indices 1 2 3 4 5 6 
#
# 1 157.5204 -1.3782 -11.6701 0.0000 -1.7129 0.0000
# 2 -1.3782 89.5792 3.8548 0.0000 0.6925 0.0000
# 3 -11.6701 3.8548 131.6881 0.0000 3.5056 0.0000
# 4 0.0000 0.0000 0.0000 -158.8391 0.0000 8.1728
# 5 -1.7129 0.6925 3.5056 0.0000 50.1473 0.0000
# 6 0.0000 0.0000 0.0000 8.1728 0.0000 -23.8142
#
#
#
# Elastic Compliance Matrix: (Units=1/GPa)
#
#
# Indices 1 2 3 4 5 6 
#
# 1 0.006392 0.000073 0.000560 0.000000 0.000178 0.000000
# 2 0.000073 0.011179 -0.000317 0.000000 -0.000130 0.000000
# 3 0.000560 -0.000317 0.007666 0.000000 -0.000512 0.000000
# 4 0.000000 0.000000 0.000000 -0.006409 0.000000 -0.002199
# 5 0.000178 -0.000130 -0.000512 0.000000 0.019985 0.000000
# 6 0.000000 0.000000 0.000000 -0.002199 0.000000 -0.042747
#
#
# Mechanical properties :
#
#
# Convention : Reuss Voigt Hill
#
# Bulk Modulus (GPa) = 38.65769 40.04453 39.35111
# Shear Modulus (GPa) = 1231.63473 -0.63579 615.49947
#
# Velocity S-wave (km/s) = 23.31679 -0.52977 16.48320
# Velocity P-wave (km/s) = 27.23896 4.15961 19.48414
#
# Compressibility (1/GPa) = 0.02586808
#
# Stress axis : x y z
#
# Youngs Moduli (GPa) = 156.43528 89.45279 130.44236
#
# Poissons Ratio (x) = -0.00652 -0.07300
# Poissons Ratio (y) = -0.01140 0.04139
# Poissons Ratio (z) = -0.08754 0.02839
#
# Static dielectric constant tensor:
#      x y z
#    x 1.775770 0.000000 -0.005200 
#    y 0.000000 1.785050 0.000000 
#    z -0.005200 0.000000 1.760590 
# 
# From -- ./inp_files/297632.got.cif
#   From: 2010.05.17/outbox.cif.g08.bks.cpg/sg12_149_cif.got.tgz:297632.got - 2010.06.03 13:09:07.
