data_PCOD9174402
_publ_section_title
;
Structure prediction by ZEFSAII (Michael W. Deem and Ramdas Pophale) SiO2 
 PCOD9174402
Probable space group: C 2/M
;
_chemical_formula_sum "Si O2"
_cell_formula_units_Z 64
_cell_length_a 18.147833
_cell_length_b 23.154742
_cell_length_c 11.170801
_cell_angle_alpha 90.000000
_cell_angle_beta 130.939041
_cell_angle_gamma 90.000000
_cell_volume 3545.929780
_symmetry_space_group_name_H-M "C 2/M"
_symmetry_group_IT_number 12
_symmetry_cell_setting 'monoclinic'
loop_
_space_group_symop_operation_xyz
x,y,z
-x,y,-z
-x,-y,-z
x,-y,z
1/2+x,1/2+y,z
1/2-x,1/2+y,-z
1/2-x,1/2-y,-z
1/2+x,1/2-y,z
loop_
_atom_site_type_symbol
_atom_site_label
_atom_site_fract_x
_atom_site_fract_y
_atom_site_fract_z
Si Si1 0.057096 0.265300 0.294479
Si Si2 0.599968 0.131195 0.165191
Si Si3 0.656454 0.760896 0.820630
Si Si4 0.554850 0.433843 0.688249
Si Si5 0.388557 0.364419 0.625523
Si Si6 0.701849 0.931030 0.498572
Si Si7 0.700202 0.353751 0.734059
Si Si8 0.889340 0.342523 0.427397
O O1 0.076017 0.308321 0.205338
O O2 0.094480 0.200579 0.311179
O O3 0.110829 0.294779 0.465968
O O4 0.943289 0.264259 0.210440
O O5 0.644912 0.089967 0.316942
O O6 0.683661 0.143076 0.155988
O O7 0.500000 0.109036 0.000000
O O8 0.653466 0.704740 0.733551
O O9 0.666798 0.816354 0.745878
O O10 0.750000 0.750000 0.000000
O O11 0.500000 0.432414 0.500000
O O12 0.561918 0.500000 0.732848
O O13 0.490295 0.397049 0.711535
O O14 0.658057 0.404551 0.771461
O O15 0.309895 0.402792 0.611553
O O16 0.340709 0.359444 0.443206
O O17 0.648381 0.901019 0.553572
O O18 0.705492 0.000000 0.506408
O O19 0.000000 0.348608 0.500000
#
# Coordination Sequence:
#
# PCOD9174402 Si02
#       8
#     8   8   8   8   8   8   8   8
#     4  10  19  34  54  81 114 146 179 226 284 340
#     4  10  22  36  52  79 117 148 184 230 286 338
#     4  11  20  32  53  82 111 141 182 226 281 337
#     4   9  17  29  48  76 106 137 171 218 267 317
#     4  10  18  31  55  81 111 141 179 226 276 324
#     4  10  22  37  57  83 108 147 199 232 270 329
#     4  10  19  30  52  76 108 142 179 223 272 325
#     4   9  20  35  57  79 109 143 184 231 281 324
#
# _framework density 18.048863999999998
#
# number of rings (size 3 to 8) (size 9 to 14) (size 15 to 20)
#    0.000    2.125    2.500    1.125    1.750    5.000 
#    0.000    0.000    0.000    0.750    0.000    0.875 
#    0.000    0.000    0.000    0.000    0.000    0.000 
#
# Total GULP energy -178462.400704 kJ/mol
# GULP energy per Si atom -5576.950022 kJ/mol
# Density = 1.800778 g / cm^3
# Si number density = 18.048864 Si / 1000 Ang^3
#
#
#
# Elastic Constant Matrix: (Units=GPa)
#
#
# Indices 1 2 3 4 5 6 
#
# 1 98.5714 56.4357 27.0528 0.0000 14.6238 0.0000
# 2 56.4357 142.3683 17.2114 0.0000 1.4951 0.0000
# 3 27.0528 17.2114 52.2762 0.0000 10.3905 0.0000
# 4 0.0000 0.0000 0.0000 10.1646 0.0000 -0.7160
# 5 14.6238 1.4951 10.3905 0.0000 17.7345 0.0000
# 6 0.0000 0.0000 0.0000 -0.7160 0.0000 23.6705
#
#
#
# Elastic Compliance Matrix: (Units=1/GPa)
#
#
# Indices 1 2 3 4 5 6 
#
# 1 0.016192 -0.005774 -0.004438 0.000000 -0.010265 0.000000
# 2 -0.005774 0.009387 -0.001009 0.000000 0.004561 0.000000
# 3 -0.004438 -0.001009 0.023783 0.000000 -0.010190 0.000000
# 4 0.000000 0.000000 0.000000 0.098591 0.000000 0.002982
# 5 -0.010265 0.004561 -0.010190 0.000000 0.070437 0.000000
# 6 0.000000 0.000000 0.000000 0.002982 0.000000 0.042337
#
#
# Mechanical properties :
#
#
# Convention : Reuss Voigt Hill
#
# Bulk Modulus (GPa) = 37.14722 54.95731 46.05226
# Shear Modulus (GPa) = 17.11497 23.14834 20.13165
#
# Velocity S-wave (km/s) = 3.08272 3.58514 3.34338
# Velocity P-wave (km/s) = 5.77036 6.90311 6.36199
#
# Compressibility (1/GPa) = 0.02691991
#
# Stress axis : x y z
#
# Youngs Moduli (GPa) = 61.76024 106.52979 42.04629
#
# Poissons Ratio (x) = 0.61512 0.18659
# Poissons Ratio (y) = 0.35661 0.04243
# Poissons Ratio (z) = 0.27408 0.10750
#
# Static dielectric constant tensor:
#      x y z
#    x 1.602030 0.000000 0.045680 
#    y 0.000000 1.616410 0.000000 
#    z 0.045680 0.000000 1.573550 
# 
# From -- ./inp_files/160312.got.cif
#   From: 2010.05.17/outbox.cif.g08.bks.cpg/sg12_81_cif.got.tgz:160312.got - 2010.06.03 13:09:07.
