data_PCOD9174581
_publ_section_title
;
Structure prediction by ZEFSAII (Michael W. Deem and Ramdas Pophale) SiO2 
 PCOD9174581
Probable space group: C 2/M
;
_chemical_formula_sum "Si O2"
_cell_formula_units_Z 48
_cell_length_a 23.271897
_cell_length_b 25.405670
_cell_length_c 5.510544
_cell_angle_alpha 90.000000
_cell_angle_beta 54.650839
_cell_angle_gamma 90.000000
_cell_volume 2657.395620
_symmetry_space_group_name_H-M "C 2/M"
_symmetry_group_IT_number 12
_symmetry_cell_setting 'monoclinic'
loop_
_space_group_symop_operation_xyz
x,y,z
-x,y,-z
-x,-y,-z
x,-y,z
1/2+x,1/2+y,z
1/2-x,1/2+y,-z
1/2-x,1/2-y,-z
1/2+x,1/2-y,z
loop_
_atom_site_type_symbol
_atom_site_label
_atom_site_fract_x
_atom_site_fract_y
_atom_site_fract_z
Si Si1 0.678418 0.240012 0.944990
Si Si2 0.208439 0.830605 0.526155
Si Si3 0.913813 0.198776 0.484913
Si Si4 0.473993 0.787613 0.819310
Si Si5 0.837366 0.058930 0.371356
Si Si6 0.919005 0.915326 0.675251
O O1 0.736226 0.194693 0.796595
O O2 0.713572 0.292506 0.745281
O O3 0.640748 0.257656 0.282138
O O4 0.609560 0.220550 0.965191
O O5 0.126495 0.823904 0.648537
O O6 0.217613 0.892868 0.513242
O O7 0.985748 0.230572 0.279339
O O8 0.918043 0.148549 0.651164
O O9 0.500000 0.811544 0.500000
O O10 0.500000 0.815043 0.000000
O O11 0.881870 0.065129 0.515682
O O12 0.807937 0.000000 0.443281
O O13 0.882199 0.066521 0.013656
O O14 0.000000 0.931916 0.500000
#
# Coordination Sequence:
#
# PCOD9174581 Si02
#       6
#     8   8   8   8   8   8
#     4  10  18  32  49  75  98 132 165 206 248 307
#     4  10  20  32  51  71 100 131 170 205 254 297
#     4  10  19  31  50  74 104 134 164 203 254 302
#     4  10  19  30  48  70 101 132 158 194 243 299
#     4  11  24  39  51  70  99 134 174 216 253 290
#     4  11  22  35  56  73  98 132 176 215 251 288
#
# _framework density 18.062797
#
# number of rings (size 3 to 8) (size 9 to 14) (size 15 to 20)
#    0.000    1.667    3.333    3.000    0.000    2.000 
#    0.000    0.000    0.000    0.000    0.000    0.000 
#    0.000    6.667    0.000    0.000    0.000    2.833 
#
# Total GULP energy -133624.221080 kJ/mol
# GULP energy per Si atom -5567.675878 kJ/mol
# Density = 1.802169 g / cm^3
# Si number density = 18.062797 Si / 1000 Ang^3
#
#
#
# Elastic Constant Matrix: (Units=GPa)
#
#
# Indices 1 2 3 4 5 6 
#
# 1 65.8612 17.6612 26.6971 0.0000 0.8785 0.0000
# 2 17.6612 104.5365 20.9852 0.0000 -7.6877 0.0000
# 3 26.6971 20.9852 58.2988 0.0000 22.7996 0.0000
# 4 0.0000 0.0000 0.0000 11.6078 0.0000 0.8109
# 5 0.8785 -7.6877 22.7996 0.0000 33.4387 0.0000
# 6 0.0000 0.0000 0.0000 0.8109 0.0000 12.8391
#
#
#
# Elastic Compliance Matrix: (Units=1/GPa)
#
#
# Indices 1 2 3 4 5 6 
#
# 1 0.020053 -0.000429 -0.011978 0.000000 0.007542 0.000000
# 2 -0.000429 0.011546 -0.006821 0.000000 0.007316 0.000000
# 3 -0.011978 -0.006821 0.034886 0.000000 -0.025040 0.000000
# 4 0.000000 0.000000 0.000000 0.086531 0.000000 -0.005465
# 5 0.007542 0.007316 -0.025040 0.000000 0.048463 0.000000
# 6 0.000000 0.000000 0.000000 -0.005465 0.000000 0.078232
#
#
# Mechanical properties :
#
#
# Convention : Reuss Voigt Hill
#
# Bulk Modulus (GPa) = 35.67687 39.93151 37.80419
# Shear Modulus (GPa) = 15.26671 22.46733 18.86702
#
# Velocity S-wave (km/s) = 2.91039 3.53065 3.23542
# Velocity P-wave (km/s) = 5.57569 6.22701 5.91033
#
# Compressibility (1/GPa) = 0.02802937
#
# Stress axis : x y z
#
# Youngs Moduli (GPa) = 49.86728 86.61145 28.66457
#
# Poissons Ratio (x) = 0.03713 0.34335
# Poissons Ratio (y) = 0.02138 0.19552
# Poissons Ratio (z) = 0.59732 0.59078
#
# Static dielectric constant tensor:
#      x y z
#    x 1.709530 0.000000 0.057200 
#    y 0.000000 1.638730 0.000000 
#    z 0.057200 0.000000 1.696260 
# 
# From -- ./inp_files/17196.got.cif
#   From: 2010.05.17/outbox.cif.g08.bks.cpg/sg12_9_cif.got.tgz:17196.got - 2010.06.03 13:09:07.
