data_PCOD9174820
_publ_section_title
;
Structure prediction by ZEFSAII (Michael W. Deem and Ramdas Pophale) SiO2 
 PCOD9174820
Probable space group: C 2/M
;
_chemical_formula_sum "Si O2"
_cell_formula_units_Z 52
_cell_length_a 5.366965
_cell_length_b 25.267013
_cell_length_c 19.242110
_cell_angle_alpha 90.000000
_cell_angle_beta 111.650450
_cell_angle_gamma 90.000000
_cell_volume 2425.282422
_symmetry_space_group_name_H-M "C 2/M"
_symmetry_group_IT_number 12
_symmetry_cell_setting 'monoclinic'
loop_
_space_group_symop_operation_xyz
x,y,z
-x,y,-z
-x,-y,-z
x,-y,z
1/2+x,1/2+y,z
1/2-x,1/2+y,-z
1/2-x,1/2-y,-z
1/2+x,1/2-y,z
loop_
_atom_site_type_symbol
_atom_site_label
_atom_site_fract_x
_atom_site_fract_y
_atom_site_fract_z
Si Si1 0.543010 0.278602 0.416973
Si Si2 0.852132 0.896938 0.576799
Si Si3 0.689230 0.281118 0.762955
Si Si4 0.374279 0.061477 0.591812
Si Si5 0.119664 0.937264 0.090477
Si Si6 0.673222 0.126221 0.130957
Si Si7 0.500000 0.213878 0.000000
O O1 0.286923 0.262457 0.435983
O O2 0.656441 0.336222 0.444239
O O3 0.429031 0.281942 0.326742
O O4 0.746773 0.929380 0.498576
O O5 0.654854 0.908812 0.619232
O O6 0.154893 0.914312 0.619803
O O7 0.472769 0.249720 0.787765
O O8 0.725948 0.340785 0.792560
O O9 0.411175 0.000000 0.607427
O O10 0.409417 0.908696 0.119786
O O11 0.907495 0.908659 0.119764
O O12 0.143473 0.000000 0.108503
O O13 0.000000 0.932300 0.000000
O O14 0.592708 0.173896 0.070169
O O15 0.250000 0.250000 0.000000
#
# Coordination Sequence:
#
# PCOD9174820 Si02
#       7
#     8   8   8   8   8   8   4
#     4  10  21  37  55  76 106 143 186 221 254 312
#     4  10  18  32  53  77 104 139 179 216 261 312
#     4  10  21  38  58  79 105 144 180 214 266 326
#     4  10  19  33  53  79 110 140 175 217 271 327
#     4  11  22  38  57  79 106 141 180 212 257 324
#     4  12  21  37  57  81 109 141 177 219 271 319
#     4  12  22  32  49  80 113 132 162 216 268 316
#
# _framework density 21.440802000000001
#
# number of rings (size 3 to 8) (size 9 to 14) (size 15 to 20)
#    0.000    1.385    1.538    6.462    0.000    1.231 
#    0.000    9.231    0.000    7.385    0.000    0.000 
#    0.000    0.000    0.000    0.000    0.000    0.000 
#
# Total GULP energy -145367.574654 kJ/mol
# GULP energy per Si atom -5591.060564 kJ/mol
# Density = 2.139200 g / cm^3
# Si number density = 21.440802 Si / 1000 Ang^3
#
#
#
# Elastic Constant Matrix: (Units=GPa)
#
#
# Indices 1 2 3 4 5 6 
#
# 1 253.4413 107.9068 31.9022 0.0000 17.5475 0.0000
# 2 107.9068 172.2238 21.5804 0.0000 7.3527 0.0000
# 3 31.9022 21.5804 27.2352 0.0000 2.2518 0.0000
# 4 0.0000 0.0000 0.0000 35.2414 0.0000 10.8573
# 5 17.5475 7.3527 2.2518 0.0000 12.0897 0.0000
# 6 0.0000 0.0000 0.0000 10.8573 0.0000 50.5460
#
#
#
# Elastic Compliance Matrix: (Units=1/GPa)
#
#
# Indices 1 2 3 4 5 6 
#
# 1 0.006255 -0.003103 -0.004341 0.000000 -0.006383 0.000000
# 2 -0.003103 0.008096 -0.002789 0.000000 0.000099 0.000000
# 3 -0.004341 -0.002789 0.044028 0.000000 -0.000204 0.000000
# 4 0.000000 0.000000 0.000000 0.030387 0.000000 -0.006527
# 5 -0.006383 0.000099 -0.000204 0.000000 0.091958 0.000000
# 6 0.000000 0.000000 0.000000 -0.006527 0.000000 0.021186
#
#
# Mechanical properties :
#
#
# Convention : Reuss Voigt Hill
#
# Bulk Modulus (GPa) = 26.37484 86.18657 56.28071
# Shear Modulus (GPa) = 21.27559 39.00948 30.14254
#
# Velocity S-wave (km/s) = 3.15349 4.27007 3.75353
# Velocity P-wave (km/s) = 5.05839 8.03717 6.71503
#
# Compressibility (1/GPa) = 0.03791492
#
# Stress axis : x y z
#
# Youngs Moduli (GPa) = 159.87084 123.52449 22.71278
#
# Poissons Ratio (x) = 0.38326 0.09859
# Poissons Ratio (y) = 0.49603 0.06334
# Poissons Ratio (z) = 0.69395 0.34445
#
# Static dielectric constant tensor:
#      x y z
#    x 1.801810 0.000000 0.006800 
#    y 0.000000 1.728770 0.000000 
#    z 0.006800 0.000000 1.850140 
# 
# From -- ./inp_files/331286.got.cif
#   From: 2010.05.17/outbox.cif.g08.bks.cpg/sg12_166_cif.got.tgz:331286.got - 2010.06.03 13:09:07.
