data_PCOD9174187
_publ_section_title
;
Structure prediction by ZEFSAII (Michael W. Deem and Ramdas Pophale) SiO2 
 PCOD9174187
Probable space group: C 2/M
;
_chemical_formula_sum "Si O2"
_cell_formula_units_Z 56
_cell_length_a 27.368876
_cell_length_b 9.110867
_cell_length_c 13.119621
_cell_angle_alpha 90.000000
_cell_angle_beta 60.798111
_cell_angle_gamma 90.000000
_cell_volume 2855.652995
_symmetry_space_group_name_H-M "C 2/M"
_symmetry_group_IT_number 12
_symmetry_cell_setting 'monoclinic'
loop_
_space_group_symop_operation_xyz
x,y,z
-x,y,-z
-x,-y,-z
x,-y,z
1/2+x,1/2+y,z
1/2-x,1/2+y,-z
1/2-x,1/2-y,-z
1/2+x,1/2-y,z
loop_
_atom_site_type_symbol
_atom_site_label
_atom_site_fract_x
_atom_site_fract_y
_atom_site_fract_z
Si Si1 0.939026 0.168521 0.969702
Si Si2 0.765305 0.821904 0.246684
Si Si3 0.472592 0.173122 0.243902
Si Si4 0.373291 0.327723 0.251033
Si Si5 0.175275 0.825850 0.021239
Si Si6 0.834123 0.177604 0.743730
Si Si7 0.536670 0.669672 0.361064
O O1 0.890586 0.189945 0.934844
O O2 0.989384 0.274179 0.890368
O O3 0.959370 0.000000 0.943662
O O4 0.906693 0.185323 0.109215
O O5 0.809658 0.780577 0.289801
O O6 0.704082 0.751658 0.303502
O O7 0.762623 0.000000 0.249091
O O8 0.793708 0.769655 0.110860
O O9 0.410743 0.240277 0.292760
O O10 0.505114 0.236669 0.308143
O O11 0.469613 0.000000 0.250652
O O12 0.372615 0.500000 0.278296
O O13 0.186520 0.768440 0.122738
O O14 0.186773 0.000000 0.012513
O O15 0.899906 0.214283 0.675765
O O16 0.828912 0.000000 0.743611
O O17 0.500000 0.673901 0.500000
O O18 0.539579 0.500000 0.321710
#
# Coordination Sequence:
#
# PCOD9174187 Si02
#       7
#     8   8   8   8   8   8   8
#     4   9  16  31  52  73 104 147 188 218 251 309
#     4   9  18  31  49  76 108 143 179 209 250 311
#     4  12  23  33  51  79 111 140 171 224 280 319
#     4   9  19  34  53  75 106 150 189 216 248 308
#     4   8  14  27  47  72 104 140 177 212 248 305
#     4  10  18  31  53  77 104 135 170 219 270 312
#     4  10  22  41  63  81  99 134 184 227 267 323
#
# _framework density 19.610225
#
# number of rings (size 3 to 8) (size 9 to 14) (size 15 to 20)
#    0.000    2.429    1.429    3.857    0.000    3.714 
#    0.000    2.143    0.000    0.857    0.000    0.000 
#    0.000    0.000    0.000    0.000    0.000    0.000 
#
# Total GULP energy -156115.145289 kJ/mol
# GULP energy per Si atom -5575.540903 kJ/mol
# Density = 1.956559 g / cm^3
# Si number density = 19.610225 Si / 1000 Ang^3
#
#
#
# Elastic Constant Matrix: (Units=GPa)
#
#
# Indices 1 2 3 4 5 6 
#
# 1 187.9446 75.8555 19.0024 0.0000 -13.2025 0.0000
# 2 75.8555 61.8084 7.9577 0.0000 -0.5201 0.0000
# 3 19.0024 7.9577 17.8105 0.0000 -6.2081 0.0000
# 4 0.0000 0.0000 0.0000 -12.2852 0.0000 -12.7570
# 5 -13.2025 -0.5201 -6.2081 0.0000 11.6258 0.0000
# 6 0.0000 0.0000 0.0000 -12.7570 0.0000 28.2629
#
#
#
# Elastic Compliance Matrix: (Units=1/GPa)
#
#
# Indices 1 2 3 4 5 6 
#
# 1 0.012381 -0.014787 -0.002374 0.000000 0.012131 0.000000
# 2 -0.014787 0.034987 -0.006344 0.000000 -0.018615 0.000000
# 3 -0.002374 -0.006344 0.074306 0.000000 0.036699 0.000000
# 4 0.000000 0.000000 0.000000 -0.055422 0.000000 -0.025016
# 5 0.012131 -0.018615 0.036699 0.000000 0.118555 0.000000
# 6 0.000000 0.000000 0.000000 -0.025016 0.000000 0.024091
#
#
# Mechanical properties :
#
#
# Convention : Reuss Voigt Hill
#
# Bulk Modulus (GPa) = 13.39345 52.57721 32.98533
# Shear Modulus (GPa) = 17.80645 16.50390 17.15517
#
# Velocity S-wave (km/s) = 3.01660 2.90418 2.96092
# Velocity P-wave (km/s) = 4.35636 6.17373 5.34288
#
# Compressibility (1/GPa) = 0.07466334
#
# Stress axis : x y z
#
# Youngs Moduli (GPa) = 80.76818 28.58204 13.45780
#
# Poissons Ratio (x) = 0.42265 0.03195
# Poissons Ratio (y) = 1.19433 0.08538
# Poissons Ratio (z) = 0.19178 0.18132
#
# Static dielectric constant tensor:
#      x y z
#    x 1.746430 0.000000 0.000200 
#    y 0.000000 1.654090 0.000000 
#    z 0.000200 0.000000 1.704780 
# 
# From -- ./inp_files/243605.got.cif
#   From: 2010.05.17/outbox.cif.g08.bks.cpg/sg12_122_cif.got.tgz:243605.got - 2010.06.03 13:09:07.
