data_PCOD9174543
_publ_section_title
;
Structure prediction by ZEFSAII (Michael W. Deem and Ramdas Pophale) SiO2 
 PCOD9174543
Probable space group: C 2/M
;
_chemical_formula_sum "Si O2"
_cell_formula_units_Z 44
_cell_length_a 5.615779
_cell_length_b 22.180097
_cell_length_c 18.466925
_cell_angle_alpha 90.000000
_cell_angle_beta 59.181677
_cell_angle_gamma 90.000000
_cell_volume 1975.413877
_symmetry_space_group_name_H-M "C 2/M"
_symmetry_group_IT_number 12
_symmetry_cell_setting 'monoclinic'
loop_
_space_group_symop_operation_xyz
x,y,z
-x,y,-z
-x,-y,-z
x,-y,z
1/2+x,1/2+y,z
1/2-x,1/2+y,-z
1/2-x,1/2-y,-z
1/2+x,1/2-y,z
loop_
_atom_site_type_symbol
_atom_site_label
_atom_site_fract_x
_atom_site_fract_y
_atom_site_fract_z
Si Si1 0.720577 0.070944 0.901083
Si Si2 0.286645 0.271283 0.257208
Si Si3 0.174334 0.568533 0.160691
Si Si4 0.976855 0.191924 0.580959
Si Si5 0.000000 0.395178 0.500000
Si Si6 0.946205 0.393683 0.665759
O O1 0.560166 0.096328 0.855377
O O2 0.016172 0.096393 0.882550
O O3 0.783638 0.000000 0.874748
O O4 0.500000 0.073737 0.000000
O O5 0.592833 0.241215 0.216134
O O6 0.285673 0.341177 0.283272
O O7 0.083389 0.237959 0.346385
O O8 0.211034 0.500000 0.126753
O O9 0.069213 0.567423 0.259601
O O10 0.239010 0.148995 0.542369
O O11 0.000000 0.224251 0.500000
O O12 0.723901 0.145423 0.623365
O O13 0.959740 0.425774 0.585208
#
# Coordination Sequence:
#
# PCOD9174543 Si02
#       6
#     8   8   8   8   4   8
#     4   9  18  35  60  85 105 127 159 207 270 325
#     4  10  19  30  45  69  97 128 170 215 269 310
#     4  10  21  35  55  80 111 140 166 206 253 306
#     4   9  19  30  46  69  98 131 177 228 274 302
#     4  10  18  32  47  68 100 142 181 224 258 304
#     4  10  21  31  48  71 106 141 180 213 259 301
#
# _framework density 22.273814999999999
#
# number of rings (size 3 to 8) (size 9 to 14) (size 15 to 20)
#    0.000    2.364    1.818    0.545    3.818    4.364 
#    0.000    0.455    0.000    4.909    0.000    0.000 
#    0.000   58.182    0.000    0.000    0.000    0.000 
#
# Total GULP energy -122485.038149 kJ/mol
# GULP energy per Si atom -5567.501734 kJ/mol
# Density = 2.222312 g / cm^3
# Si number density = 22.273815 Si / 1000 Ang^3
#
#
#
# Elastic Constant Matrix: (Units=GPa)
#
#
# Indices 1 2 3 4 5 6 
#
# 1 142.3405 5.3649 19.5382 0.0000 4.2230 0.0000
# 2 5.3649 33.3854 -1.4298 0.0000 4.0317 0.0000
# 3 19.5382 -1.4298 52.3275 0.0000 9.3608 0.0000
# 4 0.0000 0.0000 0.0000 353.3578 0.0000 127.1667
# 5 4.2230 4.0317 9.3608 0.0000 31.2884 0.0000
# 6 0.0000 0.0000 0.0000 127.1667 0.0000 49.9061
#
#
#
# Elastic Compliance Matrix: (Units=1/GPa)
#
#
# Indices 1 2 3 4 5 6 
#
# 1 0.007463 -0.001321 -0.002824 0.000000 0.000008 0.000000
# 2 -0.001321 0.030791 0.002126 0.000000 -0.004425 0.000000
# 3 -0.002824 0.002126 0.021346 0.000000 -0.006279 0.000000
# 4 0.000000 0.000000 0.000000 0.034104 0.000000 -0.086900
# 5 0.000008 -0.004425 -0.006279 0.000000 0.034408 0.000000
# 6 0.000000 0.000000 0.000000 -0.086900 0.000000 0.241469
#
#
# Mechanical properties :
#
#
# Convention : Reuss Voigt Hill
#
# Bulk Modulus (GPa) = 17.99778 30.55552 24.27665
# Shear Modulus (GPa) = 12.75059 100.54916 56.64987
#
# Velocity S-wave (km/s) = 2.39518 6.72609 5.04862
# Velocity P-wave (km/s) = 3.96825 8.60630 6.70132
#
# Compressibility (1/GPa) = 0.05556241
#
# Stress axis : x y z
#
# Youngs Moduli (GPa) = 134.00185 32.47698 46.84677
#
# Poissons Ratio (x) = 0.04291 0.13229
# Poissons Ratio (y) = 0.17703 -0.09961
# Poissons Ratio (z) = 0.37841 -0.06906
#
# Static dielectric constant tensor:
#      x y z
#    x 2.004860 0.000000 0.079650 
#    y 0.000000 1.827820 0.000000 
#    z 0.079650 0.000000 1.827200 
# 
# From -- ./inp_files/191907.got.cif
#   From: 2010.05.17/outbox.cif.g08.bks.cpg/sg12_96_cif.got.tgz:191907.got - 2010.06.03 13:09:07.
