data_PCOD9174473
_publ_section_title
;
Structure prediction by ZEFSAII (Michael W. Deem and Ramdas Pophale) SiO2 
 PCOD9174473
Probable space group: C 2/M
;
_chemical_formula_sum "Si O2"
_cell_formula_units_Z 60
_cell_length_a 20.731954
_cell_length_b 7.569322
_cell_length_c 27.181759
_cell_angle_alpha 90.000000
_cell_angle_beta 38.354853
_cell_angle_gamma 90.000000
_cell_volume 2646.900422
_symmetry_space_group_name_H-M "C 2/M"
_symmetry_group_IT_number 12
_symmetry_cell_setting 'monoclinic'
loop_
_space_group_symop_operation_xyz
x,y,z
-x,y,-z
-x,-y,-z
x,-y,z
1/2+x,1/2+y,z
1/2-x,1/2+y,-z
1/2-x,1/2-y,-z
1/2+x,1/2-y,z
loop_
_atom_site_type_symbol
_atom_site_label
_atom_site_fract_x
_atom_site_fract_y
_atom_site_fract_z
Si Si1 0.500000 0.249020 0.000000
Si Si2 0.271994 0.782617 0.114151
Si Si3 0.793278 0.203260 0.304655
Si Si4 0.982403 0.784023 0.119027
Si Si5 0.585358 0.705674 0.297768
Si Si6 0.619303 0.713717 0.124031
Si Si7 0.068435 0.298827 0.691339
Si Si8 0.067799 0.798951 0.416106
O O1 0.618929 0.308364 0.939838
O O2 0.520790 0.189340 0.931266
O O3 0.183380 0.728885 0.206796
O O4 0.224651 0.736580 0.088839
O O5 0.286278 0.000000 0.107605
O O6 0.882810 0.259709 0.212501
O O7 0.839593 0.215157 0.331933
O O8 0.686923 0.304540 0.361816
O O9 0.771160 0.000000 0.306683
O O10 0.083813 0.735559 0.090741
O O11 0.981978 0.000000 0.111240
O O12 0.610792 0.500000 0.289781
O O13 0.480471 0.717849 0.328433
O O14 0.568966 0.785561 0.361265
O O15 0.612330 0.500000 0.130519
O O16 0.528662 0.786772 0.213092
O O17 0.095744 0.500000 0.664979
O O18 0.000000 0.714766 0.500000
O O19 0.026714 0.000000 0.434519
#
# Coordination Sequence:
#
# PCOD9174473 Si02
#       8
#     4   8   8   8   8   8   8   8
#     4  12  20  28  46  76 110 134 170 226 278 316
#     4   9  18  32  50  71  98 137 180 217 259 319
#     4  10  20  37  59  80 109 149 186 220 270 332
#     4   9  19  34  51  71  98 137 179 219 265 319
#     4   9  18  36  58  78 109 150 181 215 274 333
#     4   8  16  35  55  69  96 140 182 218 268 330
#     4  10  18  31  56  87 109 131 179 237 276 317
#     4  10  21  37  58  86 117 146 180 223 267 315
#
# _framework density 22.668023999999999
#
# number of rings (size 3 to 8) (size 9 to 14) (size 15 to 20)
#    0.000    2.533    0.000    4.400    0.000    1.333 
#    0.000   13.333    0.000    1.600    0.000    0.000 
#    0.000    0.000    0.000    0.000    0.000    0.000 
#
# Total GULP energy -167103.386482 kJ/mol
# GULP energy per Si atom -5570.112883 kJ/mol
# Density = 2.261643 g / cm^3
# Si number density = 22.668024 Si / 1000 Ang^3
#
#
#
# Elastic Constant Matrix: (Units=GPa)
#
#
# Indices 1 2 3 4 5 6 
#
# 1 154.3199 3.9138 43.1486 -0.0005 -69.9565 0.0043
# 2 3.9138 46.0984 -2.1302 0.0025 -40.2020 0.0071
# 3 43.1486 -2.1302 96.0026 -0.0003 -53.0103 0.0011
# 4 -0.0005 0.0025 -0.0003 11.4449 -0.0009 -15.1421
# 5 -69.9565 -40.2020 -53.0103 -0.0009 -210.6941 0.0047
# 6 0.0043 0.0071 0.0011 -15.1421 0.0047 -7.3079
#
#
#
# Elastic Compliance Matrix: (Units=1/GPa)
#
#
# Indices 1 2 3 4 5 6 
#
# 1 0.007107 -0.001714 -0.003824 0.000001 -0.001071 0.000000
# 2 -0.001714 0.019215 -0.000451 0.000004 -0.002984 0.000007
# 3 -0.003824 -0.000451 0.011303 -0.000001 -0.001488 -0.000001
# 4 0.000001 0.000004 -0.000001 0.023354 -0.000002 -0.048389
# 5 -0.001071 -0.002984 -0.001488 -0.000002 -0.003447 -0.000002
# 6 0.000000 0.000007 -0.000001 -0.048389 -0.000002 -0.036575
#
#
# Mechanical properties :
#
#
# Convention : Reuss Voigt Hill
#
# Bulk Modulus (GPa) = 38.98848 42.92059 40.95454
# Shear Modulus (GPa) = 120.52685 -24.54551 47.99067
#
# Velocity S-wave (km/s) = 7.29972 -3.29420 4.60620
# Velocity P-wave (km/s) = 9.39601 2.12285 6.81144
#
# Compressibility (1/GPa) = 0.02564860
#
# Stress axis : x y z
#
# Youngs Moduli (GPa) = 140.70201 52.04212 88.47102
#
# Poissons Ratio (x) = 0.08919 0.33828
# Poissons Ratio (y) = 0.24115 0.03990
# Poissons Ratio (z) = 0.53799 0.02347
#
# Static dielectric constant tensor:
#      x y z
#    x 1.849810 0.000000 0.023380 
#    y 0.000000 1.884400 0.000000 
#    z 0.023380 0.000000 1.824540 
# 
# From -- ./inp_files/365443.got.cif
#   From: 2010.05.17/outbox.cif.g08.bks.cpg/sg12_183_cif.got.tgz:365443.got - 2010.06.03 13:09:07.
