data_PCOD9174612
_publ_section_title
;
Structure prediction by ZEFSAII (Michael W. Deem and Ramdas Pophale) SiO2 
 PCOD9174612
Probable space group: C 2/M
;
_chemical_formula_sum "Si O2"
_cell_formula_units_Z 48
_cell_length_a 5.246368
_cell_length_b 14.369673
_cell_length_c 28.224940
_cell_angle_alpha 90.000000
_cell_angle_beta 90.155969
_cell_angle_gamma 90.000000
_cell_volume 2127.830619
_symmetry_space_group_name_H-M "C 2/M"
_symmetry_group_IT_number 12
_symmetry_cell_setting 'monoclinic'
loop_
_space_group_symop_operation_xyz
x,y,z
-x,y,-z
-x,-y,-z
x,-y,z
1/2+x,1/2+y,z
1/2-x,1/2+y,-z
1/2-x,1/2-y,-z
1/2+x,1/2-y,z
loop_
_atom_site_type_symbol
_atom_site_label
_atom_site_fract_x
_atom_site_fract_y
_atom_site_fract_z
Si Si1 0.055140 0.812917 0.549951
Si Si2 0.394845 0.640372 0.947364
Si Si3 0.106670 0.649979 0.090505
Si Si4 0.942060 0.809605 0.649771
Si Si5 0.431407 0.886632 0.194071
Si Si6 0.932423 0.111122 0.248317
O O1 0.840339 0.729843 0.549808
O O2 0.002391 0.861666 0.600207
O O3 0.000000 0.863054 0.500000
O O4 0.615185 0.605274 0.912508
O O5 0.355045 0.749122 0.933668
O O6 0.115628 0.600952 0.939110
O O7 0.500000 0.629528 0.000000
O O8 0.005670 0.655334 0.143609
O O9 0.650974 0.774173 0.649165
O O10 0.999428 0.861078 0.698456
O O11 0.651799 0.859568 0.231470
O O12 0.156067 0.856921 0.212995
O O13 0.433402 0.000000 0.189004
O O14 0.934504 0.000000 0.245759
#
# Coordination Sequence:
#
# PCOD9174612 Si02
#       6
#     8   8   8   8   8   8
#     4   8  14  25  44  68  99 132 164 204 258 311
#     4  10  19  33  53  74 101 128 150 192 249 303
#     4  10  18  32  50  74  94 123 161 194 238 286
#     4  10  19  33  50  79 105 131 173 224 261 291
#     4  10  21  37  54  70  97 135 175 205 238 297
#     4  10  21  38  53  70 101 146 175 203 260 318
#
# _framework density 22.558188000000001
#
# number of rings (size 3 to 8) (size 9 to 14) (size 15 to 20)
#    0.000    2.333    0.000    4.500    0.000    0.000 
#   18.000    0.000    0.000    6.000    0.000    0.000 
#    0.000   17.333    0.000    0.000    0.000    2.667 
#
# Total GULP energy -133965.333545 kJ/mol
# GULP energy per Si atom -5581.888898 kJ/mol
# Density = 2.250684 g / cm^3
# Si number density = 22.558188 Si / 1000 Ang^3
#
#
#
# Elastic Constant Matrix: (Units=GPa)
#
#
# Indices 1 2 3 4 5 6 
#
# 1 119.4291 -3.0731 -20.8260 0.0000 -0.3197 0.0000
# 2 -3.0731 56.1016 -8.6254 0.0000 -1.0551 0.0000
# 3 -20.8260 -8.6254 101.4756 0.0000 1.0183 0.0000
# 4 0.0000 0.0000 0.0000 51.7851 0.0000 34.0005
# 5 -0.3197 -1.0551 1.0183 0.0000 42.4718 0.0000
# 6 0.0000 0.0000 0.0000 34.0005 0.0000 9.9918
#
#
#
# Elastic Compliance Matrix: (Units=1/GPa)
#
#
# Indices 1 2 3 4 5 6 
#
# 1 0.008716 0.000763 0.001853 0.000000 0.000040 0.000000
# 2 0.000763 0.018135 0.001694 0.000000 0.000416 0.000000
# 3 0.001853 0.001694 0.010381 0.000000 -0.000193 0.000000
# 4 0.000000 0.000000 0.000000 -0.015646 0.000000 0.053241
# 5 0.000040 0.000416 -0.000193 0.000000 0.023560 0.000000
# 6 0.000000 0.000000 0.000000 0.053241 0.000000 -0.081090
#
#
# Mechanical properties :
#
#
# Convention : Reuss Voigt Hill
#
# Bulk Modulus (GPa) = 21.80910 23.55082 22.67996
# Shear Modulus (GPa) = -170.76146 41.48512 -64.63817
#
# Velocity S-wave (km/s) = -8.70991 4.29304 -5.35875
# Velocity P-wave (km/s) = 9.56353 5.91915 5.31154
#
# Compressibility (1/GPa) = 0.04585243
#
# Stress axis : x y z
#
# Youngs Moduli (GPa) = 114.73038 55.14241 96.33123
#
# Poissons Ratio (x) = -0.04208 -0.17853
# Poissons Ratio (y) = -0.08756 -0.16318
# Poissons Ratio (z) = -0.21263 -0.09341
#
# Static dielectric constant tensor:
#      x y z
#    x 1.883890 0.000000 0.003400 
#    y 0.000000 1.581290 0.000000 
#    z 0.003400 0.000000 1.859130 
# 
# From -- ./inp_files/354817.got.cif
#   From: 2010.05.17/outbox.cif.g08.bks.cpg/sg12_178_cif.got.tgz:354817.got - 2010.06.03 13:09:07.
