data_PCOD9174041
_publ_section_title
;
Structure prediction by ZEFSAII (Michael W. Deem and Ramdas Pophale) SiO2 
 PCOD9174041
Probable space group: C 2/M
;
_chemical_formula_sum "Si O2"
_cell_formula_units_Z 56
_cell_length_a 22.167147
_cell_length_b 12.442813
_cell_length_c 12.335975
_cell_angle_alpha 90.000000
_cell_angle_beta 67.416106
_cell_angle_gamma 90.000000
_cell_volume 3141.617126
_symmetry_space_group_name_H-M "C 2/M"
_symmetry_group_IT_number 12
_symmetry_cell_setting 'monoclinic'
loop_
_space_group_symop_operation_xyz
x,y,z
-x,y,-z
-x,-y,-z
x,-y,z
1/2+x,1/2+y,z
1/2-x,1/2+y,-z
1/2-x,1/2-y,-z
1/2+x,1/2-y,z
loop_
_atom_site_type_symbol
_atom_site_label
_atom_site_fract_x
_atom_site_fract_y
_atom_site_fract_z
Si Si1 0.776787 0.624237 0.703977
Si Si2 0.375402 0.873572 0.434169
Si Si3 0.897688 0.619878 0.762875
Si Si4 0.502594 0.714536 0.615605
Si Si5 0.983249 0.122615 0.166956
Si Si6 0.437744 0.823298 0.975914
Si Si7 0.647040 0.760505 0.775947
O O1 0.754577 0.500000 0.717187
O O2 0.821654 0.640646 0.565811
O O3 0.823162 0.637872 0.777297
O O4 0.715581 0.702555 0.744657
O O5 0.436703 0.797119 0.417214
O O6 0.351709 0.834853 0.331832
O O7 0.393167 0.000000 0.418894
O O8 0.914604 0.500000 0.710810
O O9 0.916332 0.625628 0.876916
O O10 0.940035 0.710085 0.675841
O O11 0.500000 0.663135 0.500000
O O12 0.505679 0.632936 0.712228
O O13 0.911440 0.173228 0.198498
O O14 0.035567 0.203944 0.076316
O O15 0.988348 0.000000 0.128617
O O16 0.500000 0.870169 0.000000
O O17 0.377722 0.821971 0.100073
#
# Coordination Sequence:
#
# PCOD9174041 Si02
#       7
#     8   8   8   8   8   8   8
#     4  10  20  33  52  76 100 132 173 211 249 298
#     4  10  20  33  52  78 104 134 170 207 251 300
#     4  10  20  33  52  78 105 133 167 207 252 301
#     4  10  18  31  52  76 103 132 163 206 256 299
#     4   9  19  34  52  75  99 128 169 212 252 296
#     4   9  20  35  52  76 101 132 170 209 254 298
#     4  10  20  34  53  74 102 136 169 209 251 296
#
# _framework density 17.825215
#
# number of rings (size 3 to 8) (size 9 to 14) (size 15 to 20)
#    0.000    2.286    1.429    2.143    0.000    5.429 
#    0.000    0.000    0.000    3.429    0.000    0.000 
#    0.000    0.000    0.000    0.000    0.000    0.000 
#
# Total GULP energy -156077.340940 kJ/mol
# GULP energy per Si atom -5574.190748 kJ/mol
# Density = 1.778464 g / cm^3
# Si number density = 17.825215 Si / 1000 Ang^3
#
#
#
# Elastic Constant Matrix: (Units=GPa)
#
#
# Indices 1 2 3 4 5 6 
#
# 1 51.1092 9.3694 29.7806 0.0000 2.6752 0.0000
# 2 9.3694 53.0835 8.8371 0.0000 -2.5365 0.0000
# 3 29.7806 8.8371 100.0472 0.0000 21.6899 0.0000
# 4 0.0000 0.0000 0.0000 3.0424 0.0000 2.4607
# 5 2.6752 -2.5365 21.6899 0.0000 30.6801 0.0000
# 6 0.0000 0.0000 0.0000 2.4607 0.0000 13.8501
#
#
#
# Elastic Compliance Matrix: (Units=1/GPa)
#
#
# Indices 1 2 3 4 5 6 
#
# 1 0.024406 -0.002884 -0.007673 0.000000 0.003058 0.000000
# 2 -0.002884 0.019743 -0.001528 0.000000 0.002964 0.000000
# 3 -0.007673 -0.001528 0.014522 0.000000 -0.009724 0.000000
# 4 0.000000 0.000000 0.000000 0.383853 0.000000 -0.068199
# 5 0.003058 0.002964 -0.009724 0.000000 0.039448 0.000000
# 6 0.000000 0.000000 0.000000 -0.068199 0.000000 0.084318
#
#
# Mechanical properties :
#
#
# Convention : Reuss Voigt Hill
#
# Bulk Modulus (GPa) = 28.98457 33.35712 31.17085
# Shear Modulus (GPa) = 8.30619 19.93136 14.11878
#
# Velocity S-wave (km/s) = 2.16100 3.34751 2.81742
# Velocity P-wave (km/s) = 4.74577 5.80475 5.30177
#
# Compressibility (1/GPa) = 0.03450111
#
# Stress axis : x y z
#
# Youngs Moduli (GPa) = 40.97435 50.65009 68.85920
#
# Poissons Ratio (x) = 0.14608 0.52835
# Poissons Ratio (y) = 0.11818 0.10522
# Poissons Ratio (z) = 0.31439 0.07739
#
# Static dielectric constant tensor:
#      x y z
#    x 1.597050 0.000000 0.029920 
#    y 0.000000 1.582100 0.000000 
#    z 0.029920 0.000000 1.630280 
# 
# From -- ./inp_files/165615.got.cif
#   From: 2010.05.17/outbox.cif.g08.bks.cpg/sg12_83_cif.got.tgz:165615.got - 2010.06.03 13:09:07.
