data_PCOD9174146
_publ_section_title
;
Structure prediction by ZEFSAII (Michael W. Deem and Ramdas Pophale) SiO2 
 PCOD9174146
Probable space group: C 2/M
;
_chemical_formula_sum "Si O2"
_cell_formula_units_Z 38
_cell_length_a 15.736077
_cell_length_b 19.296877
_cell_length_c 12.647687
_cell_angle_alpha 90.000000
_cell_angle_beta 29.845489
_cell_angle_gamma 90.000000
_cell_volume 1911.303903
_symmetry_space_group_name_H-M "C 2/M"
_symmetry_group_IT_number 12
_symmetry_cell_setting 'monoclinic'
loop_
_space_group_symop_operation_xyz
x,y,z
-x,y,-z
-x,-y,-z
x,-y,z
1/2+x,1/2+y,z
1/2-x,1/2+y,-z
1/2-x,1/2-y,-z
1/2+x,1/2-y,z
loop_
_atom_site_type_symbol
_atom_site_label
_atom_site_fract_x
_atom_site_fract_y
_atom_site_fract_z
Si Si1 0.500000 0.850032 0.000000
Si Si2 0.497427 0.285499 0.732575
Si Si3 0.671614 0.097817 0.376346
Si Si4 0.338669 0.862974 0.382171
Si Si5 0.000000 0.000000 0.000000
Si Si6 0.239616 0.261429 0.190952
O O1 0.568216 0.889704 0.823500
O O2 0.652186 0.798371 0.870110
O O3 0.576701 0.211967 0.683496
O O4 0.640418 0.344361 0.578126
O O5 0.412719 0.273533 0.710348
O O6 0.352346 0.298399 0.977073
O O7 0.500000 0.076220 0.500000
O O8 0.642594 0.091982 0.533247
O O9 0.695414 0.178889 0.321191
O O10 0.846469 0.059247 0.160185
#
# Coordination Sequence:
#
# PCOD9174146 Si02
#       6
#     4   8   8   8   2   8
#     4  10  21  30  50  86 126 158 179 212 266 366
#     4   9  17  29  52  82 121 158 179 216 268 356
#     4  12  23  40  62  84 113 157 193 250 296 332
#     4  10  19  33  51  81 118 152 186 221 280 346
#     4  12  28  44  60  84 106 138 218 270 298 324
#     4  10  18  31  52  86 122 153 185 217 281 351
#
# _framework density 19.881716000000001
#
# number of rings (size 3 to 8) (size 9 to 14) (size 15 to 20)
#    0.000    1.684    2.105    6.000    0.000    0.000 
#    0.000    0.000    0.000    0.632    0.000    1.474 
#    0.000    0.000    0.000    0.000    0.000    0.000 
#
# Total GULP energy -105837.645617 kJ/mol
# GULP energy per Si atom -5570.402401 kJ/mol
# Density = 1.983646 g / cm^3
# Si number density = 19.881716 Si / 1000 Ang^3
#
#
#
# Elastic Constant Matrix: (Units=GPa)
#
#
# Indices 1 2 3 4 5 6 
#
# 1 142.2181 20.2142 74.5368 -0.0013 -4.3533 -0.0004
# 2 20.2142 23.3429 21.7557 -0.0017 -1.2702 0.0008
# 3 74.5368 21.7557 113.9752 -0.0001 -4.3969 0.0005
# 4 -0.0013 -0.0017 -0.0001 9.2270 0.0005 -11.2547
# 5 -4.3533 -1.2702 -4.3969 0.0005 46.9893 -0.0001
# 6 -0.0004 0.0008 0.0005 -11.2547 -0.0001 -5.1793
#
#
#
# Elastic Compliance Matrix: (Units=1/GPa)
#
#
# Indices 1 2 3 4 5 6 
#
# 1 0.010921 -0.003400 -0.006481 0.000000 0.000313 -0.000001
# 2 -0.003400 0.053179 -0.007913 0.000005 0.000382 -0.000003
# 3 -0.006481 -0.007913 0.014544 0.000000 0.000547 0.000001
# 4 0.000000 0.000005 0.000000 0.029688 0.000000 -0.064513
# 5 0.000313 0.000382 0.000547 0.000000 0.021372 0.000001
# 6 -0.000001 -0.000003 0.000001 -0.064513 0.000001 -0.052890
#
#
# Mechanical properties :
#
#
# Convention : Reuss Voigt Hill
#
# Bulk Modulus (GPa) = 23.22516 56.94995 40.08756
# Shear Modulus (GPa) = 39.44666 21.07605 30.26136
#
# Velocity S-wave (km/s) = 4.45912 3.25941 3.90560
# Velocity P-wave (km/s) = 6.18213 6.54764 6.36750
#
# Compressibility (1/GPa) = 0.04305675
#
# Stress axis : x y z
#
# Youngs Moduli (GPa) = 91.56689 18.80433 68.75830
#
# Poissons Ratio (x) = 0.06393 0.44562
# Poissons Ratio (y) = 0.31131 0.54407
# Poissons Ratio (z) = 0.59344 0.14879
#
# Static dielectric constant tensor:
#      x y z
#    x 1.724640 0.000000 0.021560 
#    y 0.000000 1.605840 0.000000 
#    z 0.021560 0.000000 1.787770 
# 
# From -- ./inp_files/148831.got.cif
#   From: 2010.05.17/outbox.cif.g08.bks.cpg/sg12_75_cif.got.tgz:148831.got - 2010.06.03 13:09:07.
