data_PCOD9174569
_publ_section_title
;
Structure prediction by ZEFSAII (Michael W. Deem and Ramdas Pophale) SiO2 
 PCOD9174569
Probable space group: C 2/M
;
_chemical_formula_sum "Si O2"
_cell_formula_units_Z 64
_cell_length_a 18.690581
_cell_length_b 13.421068
_cell_length_c 32.098565
_cell_angle_alpha 90.000000
_cell_angle_beta 27.363570
_cell_angle_gamma 90.000000
_cell_volume 3700.912135
_symmetry_space_group_name_H-M "C 2/M"
_symmetry_group_IT_number 12
_symmetry_cell_setting 'monoclinic'
loop_
_space_group_symop_operation_xyz
x,y,z
-x,y,-z
-x,-y,-z
x,-y,z
1/2+x,1/2+y,z
1/2-x,1/2+y,-z
1/2-x,1/2-y,-z
1/2+x,1/2-y,z
loop_
_atom_site_type_symbol
_atom_site_label
_atom_site_fract_x
_atom_site_fract_y
_atom_site_fract_z
Si Si1 0.819354 0.195318 0.200480
Si Si2 0.372902 0.116070 0.220719
Si Si3 0.280055 0.118925 0.832077
Si Si4 0.850056 0.885173 0.451418
Si Si5 0.694878 0.811655 0.089183
Si Si6 0.549027 0.379792 0.429811
Si Si7 0.479310 0.190280 0.354118
Si Si8 0.891222 0.113679 0.909389
O O1 0.869560 0.308924 0.183311
O O2 0.834090 0.160832 0.144908
O O3 0.633837 0.184727 0.302933
O O4 0.926092 0.130915 0.175804
O O5 0.529430 0.135700 0.165341
O O6 0.223070 0.145701 0.325612
O O7 0.360605 0.000000 0.215678
O O8 0.255304 0.165494 0.889874
O O9 0.451216 0.149118 0.725211
O O10 0.268013 0.000000 0.840188
O O11 0.665962 0.870249 0.552865
O O12 0.920360 0.804437 0.383266
O O13 0.929311 0.856704 0.454662
O O14 0.887157 0.000000 0.422744
O O15 0.669732 0.695099 0.091862
O O16 0.810527 0.856523 0.994884
O O17 0.500000 0.338616 0.500000
O O18 0.547537 0.500000 0.433638
O O19 0.857190 0.000000 0.916316
#
# Coordination Sequence:
#
# PCOD9174569 Si02
#       8
#     8   8   8   8   8   8   8   8
#     4   9  20  33  51  77 103 137 176 211 258 319
#     4  10  18  33  51  72 105 140 174 215 262 307
#     4  10  19  34  53  79 107 131 167 222 270 300
#     4  10  18  32  49  68 102 139 171 213 258 305
#     4  10  22  35  55  83 104 134 177 214 259 316
#     4   9  17  25  41  69  95 126 163 203 255 301
#     4   9  20  32  47  75 101 133 177 211 257 316
#     4  10  20  38  57  76 106 141 174 209 255 315
#
# _framework density 17.293033999999999
#
# number of rings (size 3 to 8) (size 9 to 14) (size 15 to 20)
#    0.750    1.625    1.250    1.875    1.750    0.500 
#    0.000    2.500    0.000    0.000    0.000    5.250 
#    0.000   10.000    0.000    0.000    0.000    0.000 
#
# Total GULP energy -178147.270700 kJ/mol
# GULP energy per Si atom -5567.102209 kJ/mol
# Density = 1.725367 g / cm^3
# Si number density = 17.293034 Si / 1000 Ang^3
#
#
#
# Elastic Constant Matrix: (Units=GPa)
#
#
# Indices 1 2 3 4 5 6 
#
# 1 44.6192 32.4349 2.7715 0.0002 12.4796 -0.0003
# 2 32.4349 123.5281 15.8704 0.0001 20.6161 -0.0003
# 3 2.7715 15.8704 20.7825 0.0016 -3.4390 -0.0014
# 4 0.0002 0.0001 0.0016 15.0816 -0.0009 0.9052
# 5 12.4796 20.6161 -3.4390 -0.0009 31.5245 0.0004
# 6 -0.0003 -0.0003 -0.0014 0.9052 0.0004 11.6703
#
#
#
# Elastic Compliance Matrix: (Units=1/GPa)
#
#
# Indices 1 2 3 4 5 6 
#
# 1 0.029134 -0.006389 -0.000228 -0.000001 -0.007380 0.000001
# 2 -0.006389 0.012044 -0.009400 0.000001 -0.006373 -0.000001
# 3 -0.000228 -0.009400 0.057394 -0.000006 0.012498 0.000006
# 4 -0.000001 0.000001 -0.000006 0.066616 0.000001 -0.005167
# 5 -0.007380 -0.006373 0.012498 0.000001 0.040174 0.000000
# 6 0.000001 -0.000001 0.000006 -0.005167 0.000000 0.086088
#
#
# Mechanical properties :
#
#
# Convention : Reuss Voigt Hill
#
# Bulk Modulus (GPa) = 15.02863 32.34260 23.68561
# Shear Modulus (GPa) = 14.46493 20.84548 17.65521
#
# Velocity S-wave (km/s) = 2.89530 3.47569 3.19869
# Velocity P-wave (km/s) = 4.45942 5.90343 5.23149
#
# Compressibility (1/GPa) = 0.06653967
#
# Stress axis : x y z
#
# Youngs Moduli (GPa) = 34.32363 83.02817 17.42342
#
# Poissons Ratio (x) = 0.53046 0.00397
# Poissons Ratio (y) = 0.21929 0.16378
# Poissons Ratio (z) = 0.00781 0.78046
#
# Static dielectric constant tensor:
#      x y z
#    x 1.583780 0.000000 -0.017600 
#    y 0.000000 1.596080 0.000000 
#    z -0.017600 0.000000 1.623360 
# 
# From -- ./inp_files/379347.got.cif
#   From: 2010.05.17/outbox.cif.g08.bks.cpg/sg12_190_cif.got.tgz:379347.got - 2010.06.03 13:09:07.
