data_PCOD9174770
_publ_section_title
;
Structure prediction by ZEFSAII (Michael W. Deem and Ramdas Pophale) SiO2 
 PCOD9174770
Probable space group: C 2/M
;
_chemical_formula_sum "Si O2"
_cell_formula_units_Z 60
_cell_length_a 14.397035
_cell_length_b 9.073088
_cell_length_c 24.695762
_cell_angle_alpha 90.000000
_cell_angle_beta 67.382048
_cell_angle_gamma 90.000000
_cell_volume 2977.793309
_symmetry_space_group_name_H-M "C 2/M"
_symmetry_group_IT_number 12
_symmetry_cell_setting 'monoclinic'
loop_
_space_group_symop_operation_xyz
x,y,z
-x,y,-z
-x,-y,-z
x,-y,z
1/2+x,1/2+y,z
1/2-x,1/2+y,-z
1/2-x,1/2-y,-z
1/2+x,1/2-y,z
loop_
_atom_site_type_symbol
_atom_site_label
_atom_site_fract_x
_atom_site_fract_y
_atom_site_fract_z
Si Si1 0.289168 0.671690 0.598055
Si Si2 0.664302 0.324172 0.896023
Si Si3 0.922611 0.331593 0.400195
Si Si4 0.136002 0.177279 0.186494
Si Si5 0.500000 0.242088 0.500000
Si Si6 0.488992 0.173000 0.142805
Si Si7 0.354712 0.173317 0.991826
Si Si8 0.881463 0.822711 0.685484
O O1 0.268427 0.500000 0.609931
O O2 0.191021 0.726013 0.586900
O O3 0.398023 0.680802 0.544542
O O4 0.309054 0.736500 0.653636
O O5 0.670289 0.500000 0.897775
O O6 0.773240 0.250161 0.866867
O O7 0.604375 0.266256 0.857599
O O8 0.612815 0.257173 0.961109
O O9 0.931709 0.500000 0.379022
O O10 0.954518 0.333289 0.456349
O O11 0.006567 0.234666 0.351824
O O12 0.036526 0.252194 0.184730
O O13 0.148942 0.214476 0.246791
O O14 0.134611 0.000000 0.180162
O O15 0.465258 0.000000 0.156029
O O16 0.570034 0.183376 0.075569
O O17 0.341113 0.000000 0.007055
O O18 0.250000 0.250000 0.000000
O O19 0.882578 0.000000 0.681513
#
# Coordination Sequence:
#
# PCOD9174770 Si02
#       8
#     8   8   8   8   4   8   8   8
#     4   9  18  34  56  82 113 152 195 233 284 345
#     4  12  25  40  61  90 122 158 198 243 300 363
#     4  10  20  34  55  84 117 153 191 239 290 341
#     4  11  23  41  63  86 116 152 197 255 307 357
#     4  10  18  32  52  84 121 154 193 238 285 338
#     4  11  24  41  62  89 119 155 198 244 298 363
#     4  11  22  38  62  89 121 157 198 244 298 360
#     4   9  21  40  59  81 110 148 194 240 287 346
#
# _framework density 20.149149000000001
#
# number of rings (size 3 to 8) (size 9 to 14) (size 15 to 20)
#    0.000    1.600    1.333    3.600    0.000    5.867 
#    0.000    4.667    0.000    0.000    0.000    0.000 
#    0.000    0.000    0.000    0.000    0.000    0.000 
#
# Total GULP energy -167302.846050 kJ/mol
# GULP energy per Si atom -5576.761535 kJ/mol
# Density = 2.010329 g / cm^3
# Si number density = 20.149149 Si / 1000 Ang^3
#
#
#
# Elastic Constant Matrix: (Units=GPa)
#
#
# Indices 1 2 3 4 5 6 
#
# 1 119.8412 14.8814 26.6270 0.0000 19.5222 0.0000
# 2 14.8814 74.3254 30.3344 0.0000 11.7214 0.0000
# 3 26.6270 30.3344 83.2082 0.0000 17.7447 0.0000
# 4 0.0000 0.0000 0.0000 14.2327 0.0000 7.8863
# 5 19.5222 11.7214 17.7447 0.0000 22.4142 0.0000
# 6 0.0000 0.0000 0.0000 7.8863 0.0000 19.3610
#
#
#
# Elastic Compliance Matrix: (Units=1/GPa)
#
#
# Indices 1 2 3 4 5 6 
#
# 1 0.009900 -0.000204 -0.001537 0.000000 -0.007299 0.000000
# 2 -0.000204 0.016189 -0.004896 0.000000 -0.004413 0.000000
# 3 -0.001537 -0.004896 0.016198 0.000000 -0.008924 0.000000
# 4 0.000000 0.000000 0.000000 0.090741 0.000000 -0.036961
# 5 -0.007299 -0.004413 -0.008924 0.000000 0.060345 0.000000
# 6 0.000000 0.000000 0.000000 -0.036961 0.000000 0.066706
#
#
# Mechanical properties :
#
#
# Convention : Reuss Voigt Hill
#
# Bulk Modulus (GPa) = 34.46596 46.78450 40.62523
# Shear Modulus (GPa) = 17.66640 24.90373 21.28506
#
# Velocity S-wave (km/s) = 2.96426 3.51945 3.25372
# Velocity P-wave (km/s) = 5.37200 6.30752 5.85846
#
# Compressibility (1/GPa) = 0.02901414
#
# Stress axis : x y z
#
# Youngs Moduli (GPa) = 101.00702 61.76996 61.73633
#
# Poissons Ratio (x) = 0.01258 0.09490
# Poissons Ratio (y) = 0.02058 0.30224
# Poissons Ratio (z) = 0.15527 0.30240
#
# Static dielectric constant tensor:
#      x y z
#    x 1.852370 0.000000 0.029800 
#    y 0.000000 1.679330 0.000000 
#    z 0.029800 0.000000 1.713400 
# 
# From -- ./inp_files/338631.got.cif
#   From: 2010.05.17/outbox.cif.g08.bks.cpg/sg12_170_cif.got.tgz:338631.got - 2010.06.03 13:09:07.
