data_PCOD9174286
_publ_section_title
;
Structure prediction by ZEFSAII (Michael W. Deem and Ramdas Pophale) SiO2 
 PCOD9174286
Probable space group: C 2/M
;
_chemical_formula_sum "Si O2"
_cell_formula_units_Z 64
_cell_length_a 23.256535
_cell_length_b 7.613886
_cell_length_c 21.725298
_cell_angle_alpha 90.000000
_cell_angle_beta 126.551075
_cell_angle_gamma 90.000000
_cell_volume 3090.360239
_symmetry_space_group_name_H-M "C 2/M"
_symmetry_group_IT_number 12
_symmetry_cell_setting 'monoclinic'
loop_
_space_group_symop_operation_xyz
x,y,z
-x,y,-z
-x,-y,-z
x,-y,z
1/2+x,1/2+y,z
1/2-x,1/2+y,-z
1/2-x,1/2-y,-z
1/2+x,1/2-y,z
loop_
_atom_site_type_symbol
_atom_site_label
_atom_site_fract_x
_atom_site_fract_y
_atom_site_fract_z
Si Si1 0.425464 0.199425 0.932913
Si Si2 0.671515 0.790889 0.883656
Si Si3 0.361483 0.711118 0.546346
Si Si4 0.507156 0.284820 0.575598
Si Si5 0.220517 0.289822 0.385253
Si Si6 0.150477 0.790696 0.732466
Si Si7 0.164554 0.795798 0.011683
Si Si8 0.799453 0.283976 0.767526
O O1 0.371529 0.276468 0.847827
O O2 0.442390 0.000000 0.922764
O O3 0.500000 0.286926 0.000000
O O4 0.380538 0.195355 0.967003
O O5 0.639472 0.743390 0.797607
O O6 0.637397 0.719284 0.924420
O O7 0.672734 0.000000 0.890404
O O8 0.753989 0.726927 0.935376
O O9 0.361929 0.500000 0.541162
O O10 0.438075 0.773661 0.570701
O O11 0.295386 0.777496 0.461961
O O12 0.340506 0.752700 0.603171
O O13 0.500000 0.233255 0.500000
O O14 0.507667 0.500000 0.577480
O O15 0.582443 0.223199 0.651357
O O16 0.227518 0.500000 0.385243
O O17 0.205536 0.227448 0.306673
O O18 0.227773 0.725233 0.758095
O O19 0.152627 0.000000 0.724560
O O20 0.165484 0.000000 0.030125
O O21 0.800493 0.500000 0.770339
#
# Coordination Sequence:
#
# PCOD9174286 Si02
#       8
#     8   8   8   8   8   8   8   8
#     4  10  20  35  54  76 106 139 173 215 263 310
#     4  10  20  34  54  79 105 135 172 215 263 312
#     4   9  17  31  50  74 103 130 166 212 255 298
#     4   9  17  30  51  79 107 134 168 212 260 305
#     4   9  17  31  52  73  97 135 175 208 248 300
#     4  10  18  31  54  78 102 134 174 218 261 306
#     4  10  20  35  56  78 103 135 173 215 264 314
#     4   9  17  31  52  75  97 129 175 213 246 303
#
# _framework density 20.709558999999999
#
# number of rings (size 3 to 8) (size 9 to 14) (size 15 to 20)
#    0.000    2.500    1.250    1.500    0.000    4.250 
#    2.250    1.875    0.000    3.000    0.000    0.000 
#    0.000    0.000    0.000    0.000    0.000    0.000 
#
# Total GULP energy -178556.225852 kJ/mol
# GULP energy per Si atom -5579.882058 kJ/mol
# Density = 2.066242 g / cm^3
# Si number density = 20.709559 Si / 1000 Ang^3
#
#
#
# Elastic Constant Matrix: (Units=GPa)
#
#
# Indices 1 2 3 4 5 6 
#
# 1 54.0938 1.8606 47.7590 -0.0002 -4.3225 0.0001
# 2 1.8606 44.2923 3.2714 -0.0015 6.5516 0.0006
# 3 47.7590 3.2714 164.3108 -0.0001 -11.5758 0.0001
# 4 -0.0002 -0.0015 -0.0001 -24.1296 0.0000 5.4808
# 5 -4.3225 6.5516 -11.5758 0.0000 31.4632 0.0000
# 6 0.0001 0.0006 0.0001 5.4808 0.0000 8.6016
#
#
#
# Elastic Compliance Matrix: (Units=1/GPa)
#
#
# Indices 1 2 3 4 5 6 
#
# 1 0.024905 -0.000654 -0.007161 0.000000 0.000923 0.000000
# 2 -0.000654 0.023422 -0.000643 -0.000002 -0.005203 -0.000001
# 3 -0.007161 -0.000643 0.008336 0.000000 0.002217 0.000000
# 4 0.000000 -0.000002 0.000000 -0.036203 0.000000 0.023068
# 5 0.000923 -0.005203 0.002217 0.000000 0.033809 0.000000
# 6 0.000000 -0.000001 0.000000 0.023068 0.000000 0.101559
#
#
# Mechanical properties :
#
#
# Convention : Reuss Voigt Hill
#
# Bulk Modulus (GPa) = 25.15840 40.94209 33.05024
# Shear Modulus (GPa) = 26.88277 17.17411 22.02844
#
# Velocity S-wave (km/s) = 3.60680 2.88285 3.26496
# Velocity P-wave (km/s) = 5.43323 5.55821 5.49607
#
# Compressibility (1/GPa) = 0.03974816
#
# Stress axis : x y z
#
# Youngs Moduli (GPa) = 40.15268 42.69501 119.95534
#
# Poissons Ratio (x) = 0.02791 0.85899
# Poissons Ratio (y) = 0.02625 0.07712
# Poissons Ratio (z) = 0.28753 0.02745
#
# Static dielectric constant tensor:
#      x y z
#    x 1.717170 0.000000 0.012120 
#    y 0.000000 1.780990 0.000000 
#    z 0.012120 0.000000 1.744120 
# 
# From -- ./inp_files/324283.got.cif
#   From: 2010.05.17/outbox.cif.g08.bks.cpg/sg12_163_cif.got.tgz:324283.got - 2010.06.03 13:09:07.
