data_PCOD9174965
_publ_section_title
;
Structure prediction by ZEFSAII (Michael W. Deem and Ramdas Pophale) SiO2 
 PCOD9174965
Probable space group: C 2/M
;
_chemical_formula_sum "Si O2"
_cell_formula_units_Z 48
_cell_length_a 23.970635
_cell_length_b 11.653954
_cell_length_c 31.430963
_cell_angle_alpha 90.000000
_cell_angle_beta 159.880974
_cell_angle_gamma 90.000000
_cell_volume 3020.181256
_symmetry_space_group_name_H-M "C 2/M"
_symmetry_group_IT_number 12
_symmetry_cell_setting 'monoclinic'
loop_
_space_group_symop_operation_xyz
x,y,z
-x,y,-z
-x,-y,-z
x,-y,z
1/2+x,1/2+y,z
1/2-x,1/2+y,-z
1/2-x,1/2-y,-z
1/2+x,1/2-y,z
loop_
_atom_site_type_symbol
_atom_site_label
_atom_site_fract_x
_atom_site_fract_y
_atom_site_fract_z
Si Si1 0.682971 0.138900 0.592205
Si Si2 0.658947 0.780370 0.671916
Si Si3 0.687451 0.271420 0.024321
Si Si4 0.951754 0.135895 0.164312
Si Si5 0.556910 0.862857 0.088890
Si Si6 0.318719 0.500000 0.929396
Si Si7 0.701227 0.500000 0.182738
O O1 0.536061 0.209635 0.465822
O O2 0.698513 0.191954 0.650778
O O3 0.855463 0.150637 0.692893
O O4 0.646810 0.000000 0.569281
O O5 0.763104 0.677187 0.766980
O O6 0.723322 0.888346 0.743481
O O7 0.843351 0.198624 0.121836
O O8 0.730331 0.386450 0.080589
O O9 0.598849 0.311460 0.917543
O O10 0.566469 0.197592 0.966801
O O11 0.916738 0.000000 0.138553
O O12 0.545532 0.000000 0.083110
O O13 0.500000 0.828040 0.000000
O O14 0.262154 0.500000 0.840688
O O15 0.513550 0.500000 0.062334
#
# Coordination Sequence:
#
# PCOD9174965 Si02
#       7
#     8   8   8   8   8   4   4
#     4  10  18  32  54  83 113 136 172 225 269 325
#     4  11  18  32  54  83 109 135 174 223 277 315
#     4  11  20  34  53  79 109 137 180 220 272 320
#     4  10  20  34  54  77 108 144 173 216 266 329
#     4  11  23  37  54  77 110 147 182 219 266 328
#     4  11  20  30  52  82 112 133 173 231 271 314
#     4  11  18  29  54  86 106 133 169 227 279 307
#
# _framework density 15.893086
#
# number of rings (size 3 to 8) (size 9 to 14) (size 15 to 20)
#    0.000    1.333    5.833    2.000    0.000    0.000 
#    0.000    1.667    1.833    4.000    0.000    0.000 
#    0.000    0.000    0.000    0.000    0.000    0.000 
#
# Total GULP energy -133768.154315 kJ/mol
# GULP energy per Si atom -5573.673096 kJ/mol
# Density = 1.585691 g / cm^3
# Si number density = 15.893086 Si / 1000 Ang^3
#
#
#
# Elastic Constant Matrix: (Units=GPa)
#
#
# Indices 1 2 3 4 5 6 
#
# 1 102.4905 54.2177 63.1125 -0.0016 9.7245 0.0060
# 2 54.2177 93.1223 50.3514 -0.0072 7.1258 0.0092
# 3 63.1125 50.3514 115.2882 -0.0058 9.0748 0.0202
# 4 -0.0016 -0.0072 -0.0058 29.9918 0.0012 4.0056
# 5 9.7245 7.1258 9.0748 0.0012 29.5422 0.0009
# 6 0.0060 0.0092 0.0202 4.0056 0.0009 22.8327
#
#
#
# Elastic Compliance Matrix: (Units=1/GPa)
#
#
# Indices 1 2 3 4 5 6 
#
# 1 0.017389 -0.006419 -0.006545 -0.000002 -0.002165 0.000004
# 2 -0.006419 0.016497 -0.003632 0.000003 -0.000751 -0.000002
# 3 -0.006545 -0.003632 0.013942 0.000003 -0.001252 -0.000010
# 4 -0.000002 0.000003 0.000003 0.034142 -0.000002 -0.005990
# 5 -0.002165 -0.000751 -0.001252 -0.000002 0.035128 0.000001
# 6 0.000004 -0.000002 -0.000010 -0.005990 0.000001 0.044848
#
#
# Mechanical properties :
#
#
# Convention : Reuss Voigt Hill
#
# Bulk Modulus (GPa) = 68.32954 71.80713 70.06833
# Shear Modulus (GPa) = 24.99790 26.02130 25.50960
#
# Velocity S-wave (km/s) = 3.97026 4.05071 4.01069
# Velocity P-wave (km/s) = 8.00649 8.19495 8.10126
#
# Compressibility (1/GPa) = 0.01463496
#
# Stress axis : x y z
#
# Youngs Moduli (GPa) = 57.50859 60.61622 71.72765
#
# Poissons Ratio (x) = 0.38912 0.46946
# Poissons Ratio (y) = 0.36917 0.26050
# Poissons Ratio (z) = 0.37640 0.22014
#
# Static dielectric constant tensor:
#      x y z
#    x 1.521260 0.000000 0.002260 
#    y 0.000000 1.503520 0.000000 
#    z 0.002260 0.000000 1.557790 
# 
# From -- ./inp_files/325002.got.cif
#   From: 2010.05.17/outbox.cif.g08.bks.cpg/sg12_163_cif.got.tgz:325002.got - 2010.06.03 13:09:07.
