data_PCOD9174179
_publ_section_title
;
Structure prediction by ZEFSAII (Michael W. Deem and Ramdas Pophale) SiO2 
 PCOD9174179
Probable space group: C 2/M
;
_chemical_formula_sum "Si O2"
_cell_formula_units_Z 48
_cell_length_a 13.513746
_cell_length_b 17.932454
_cell_length_c 11.128559
_cell_angle_alpha 90.000000
_cell_angle_beta 102.788320
_cell_angle_gamma 90.000000
_cell_volume 2629.938859
_symmetry_space_group_name_H-M "C 2/M"
_symmetry_group_IT_number 12
_symmetry_cell_setting 'monoclinic'
loop_
_space_group_symop_operation_xyz
x,y,z
-x,y,-z
-x,-y,-z
x,-y,z
1/2+x,1/2+y,z
1/2-x,1/2+y,-z
1/2-x,1/2-y,-z
1/2+x,1/2-y,z
loop_
_atom_site_type_symbol
_atom_site_label
_atom_site_fract_x
_atom_site_fract_y
_atom_site_fract_z
Si Si1 0.463953 0.414838 0.129448
Si Si2 0.168778 0.840610 0.233408
Si Si3 0.082675 0.311562 0.114852
Si Si4 0.238478 0.839608 0.989972
Si Si5 0.831624 0.587556 0.432354
Si Si6 0.525866 0.913302 0.311699
O O1 0.442133 0.500000 0.158688
O O2 0.561458 0.381845 0.222379
O O3 0.362831 0.365206 0.106280
O O4 0.500000 0.415060 0.000000
O O5 0.140903 0.754929 0.198690
O O6 0.242781 0.859648 0.361929
O O7 0.223423 0.867513 0.123018
O O8 0.161900 0.360526 0.058372
O O9 0.026652 0.361019 0.197569
O O10 0.000000 0.278197 0.000000
O O11 0.250000 0.750000 0.000000
O O12 0.800664 0.500000 0.420054
O O13 0.878217 0.603395 0.575746
O O14 0.925817 0.595904 0.365729
O O15 0.531875 0.000000 0.279028
#
# Coordination Sequence:
#
# PCOD9174179 Si02
#       6
#     8   8   8   8   8   8
#     4   9  17  29  46  70  98 128 164 204 244 292
#     4  10  18  31  53  77 102 131 168 208 253 306
#     4  11  21  33  52  76 106 137 165 206 259 309
#     4   9  18  31  46  70 105 138 164 200 252 304
#     4   9  18  35  57  76  99 133 173 218 257 296
#     4   9  20  37  54  75 102 134 175 217 256 299
#
# _framework density 18.251376
#
# number of rings (size 3 to 8) (size 9 to 14) (size 15 to 20)
#    0.000    2.500    0.000    5.000    0.000    3.667 
#    0.000    0.000    0.000    1.000    0.000    3.500 
#    0.000    0.000    0.000    0.000    0.000    0.000 
#
# Total GULP energy -133766.504372 kJ/mol
# GULP energy per Si atom -5573.604349 kJ/mol
# Density = 1.820983 g / cm^3
# Si number density = 18.251376 Si / 1000 Ang^3
#
#
#
# Elastic Constant Matrix: (Units=GPa)
#
#
# Indices 1 2 3 4 5 6 
#
# 1 50.2525 27.0321 3.3965 0.0000 17.9498 0.0000
# 2 27.0321 64.1274 30.3328 0.0000 13.4807 0.0000
# 3 3.3965 30.3328 47.2507 0.0000 18.7275 0.0000
# 4 0.0000 0.0000 0.0000 21.3439 0.0000 6.9459
# 5 17.9498 13.4807 18.7275 0.0000 35.8158 0.0000
# 6 0.0000 0.0000 0.0000 6.9459 0.0000 3.7114
#
#
#
# Elastic Compliance Matrix: (Units=1/GPa)
#
#
# Indices 1 2 3 4 5 6 
#
# 1 0.036523 -0.019662 0.018061 0.000000 -0.020348 0.000000
# 2 -0.019662 0.033016 -0.023666 0.000000 0.009802 0.000000
# 3 0.018061 -0.023666 0.044295 0.000000 -0.023305 0.000000
# 4 0.000000 0.000000 0.000000 0.119838 0.000000 -0.224280
# 5 -0.020348 0.009802 -0.023305 0.000000 0.046615 0.000000
# 6 0.000000 0.000000 0.000000 -0.224280 0.000000 0.689186
#
#
# Mechanical properties :
#
#
# Convention : Reuss Voigt Hill
#
# Bulk Modulus (GPa) = 15.79750 31.46148 23.62949
# Shear Modulus (GPa) = 4.80258 18.89882 11.85070
#
# Velocity S-wave (km/s) = 1.62390 3.22137 2.55091
# Velocity P-wave (km/s) = 3.49147 5.57778 4.65306
#
# Compressibility (1/GPa) = 0.06330114
#
# Stress axis : x y z
#
# Youngs Moduli (GPa) = 27.37967 30.28840 22.57593
#
# Poissons Ratio (x) = 0.59552 -0.40775
# Poissons Ratio (y) = 0.53833 0.53429
# Poissons Ratio (z) = -0.49451 0.71681
#
# Static dielectric constant tensor:
#      x y z
#    x 1.662420 0.000000 0.005170 
#    y 0.000000 1.630560 0.000000 
#    z 0.005170 0.000000 1.624030 
# 
# From -- ./inp_files/106594.got.cif
#   From: 2010.05.17/outbox.cif.g08.bks.cpg/sg12_54_cif.got.tgz:106594.got - 2010.06.03 13:09:07.
