data_PCOD9174457
_publ_section_title
;
Structure prediction by ZEFSAII (Michael W. Deem and Ramdas Pophale) SiO2 
 PCOD9174457
Probable space group: C 2/M
;
_chemical_formula_sum "Si O2"
_cell_formula_units_Z 48
_cell_length_a 8.345291
_cell_length_b 23.174399
_cell_length_c 21.898421
_cell_angle_alpha 90.000000
_cell_angle_beta 144.679641
_cell_angle_gamma 90.000000
_cell_volume 2448.507754
_symmetry_space_group_name_H-M "C 2/M"
_symmetry_group_IT_number 12
_symmetry_cell_setting 'monoclinic'
loop_
_space_group_symop_operation_xyz
x,y,z
-x,y,-z
-x,-y,-z
x,-y,z
1/2+x,1/2+y,z
1/2-x,1/2+y,-z
1/2-x,1/2-y,-z
1/2+x,1/2-y,z
loop_
_atom_site_type_symbol
_atom_site_label
_atom_site_fract_x
_atom_site_fract_y
_atom_site_fract_z
Si Si1 0.834460 0.838407 0.818444
Si Si2 0.402276 0.129828 0.039954
Si Si3 0.433081 0.430611 0.546693
Si Si4 0.799939 0.068426 0.248489
Si Si5 0.232953 0.259980 0.120842
Si Si6 0.326770 0.931961 0.325976
O O1 0.668795 0.793314 0.808301
O O2 0.680890 0.887579 0.732687
O O3 0.019639 0.796730 0.831827
O O4 0.073527 0.867684 0.933836
O O5 0.526183 0.089942 0.130222
O O6 0.545395 0.191941 0.097353
O O7 0.500000 0.114716 0.000000
O O8 0.500000 0.408050 0.500000
O O9 0.480348 0.500000 0.559688
O O10 0.614099 0.407192 0.658766
O O11 0.103632 0.422939 0.451739
O O12 0.054383 0.079765 0.281192
O O13 0.781465 0.000000 0.249082
O O14 0.000000 0.239077 0.000000
O O15 0.325880 0.000000 0.306971
#
# Coordination Sequence:
#
# PCOD9174457 Si02
#       6
#     8   8   8   8   8   8
#     4  10  19  34  54  83 109 147 175 228 264 316
#     4   9  16  30  49  79 111 134 175 219 263 308
#     4   9  19  36  54  76 107 141 182 223 265 324
#     4  10  18  31  56  81 107 145 179 218 269 323
#     4   9  17  33  52  74 106 143 190 217 254 308
#     4  10  19  34  56  83 109 138 178 222 271 321
#
# _framework density 19.603777000000001
#
# number of rings (size 3 to 8) (size 9 to 14) (size 15 to 20)
#    0.000    2.833    3.333    2.500    0.000    3.000 
#    6.000    0.000    0.000    1.500    0.000    0.000 
#    0.000    0.000    0.000    0.000    0.000    0.000 
#
# Total GULP energy -133737.464057 kJ/mol
# GULP energy per Si atom -5572.394336 kJ/mol
# Density = 1.955916 g / cm^3
# Si number density = 19.603777 Si / 1000 Ang^3
#
#
#
# Elastic Constant Matrix: (Units=GPa)
#
#
# Indices 1 2 3 4 5 6 
#
# 1 26.1939 24.2845 28.3111 0.0007 -3.1042 0.0003
# 2 24.2845 30.0213 27.0547 -0.0002 -26.4361 0.0001
# 3 28.3111 27.0547 98.0315 -0.0035 -24.2030 0.0002
# 4 0.0007 -0.0002 -0.0035 10.2808 -0.0006 -9.8511
# 5 -3.1042 -26.4361 -24.2030 -0.0006 20.0670 0.0003
# 6 0.0003 0.0001 0.0002 -9.8511 0.0003 17.2002
#
#
#
# Elastic Compliance Matrix: (Units=1/GPa)
#
#
# Indices 1 2 3 4 5 6 
#
# 1 0.009063 0.038616 -0.000525 0.000004 0.051641 0.000001
# 2 0.038616 -0.029856 -0.015876 -0.000024 -0.052506 -0.000013
# 3 -0.000525 -0.015876 0.013600 0.000009 -0.004593 0.000005
# 4 0.000004 -0.000024 0.000009 0.215573 -0.000016 0.123466
# 5 0.051641 -0.052506 -0.004593 -0.000016 -0.016889 -0.000009
# 6 0.000001 -0.000013 0.000005 0.123466 -0.000009 0.128851
#
#
# Mechanical properties :
#
#
# Convention : Reuss Voigt Hill
#
# Bulk Modulus (GPa) = 26.85455 34.83859 30.84657
# Shear Modulus (GPa) = 17.34155 14.48270 15.91212
#
# Velocity S-wave (km/s) = 2.97745 2.72098 2.85210
# Velocity P-wave (km/s) = 5.05457 5.26133 5.15899
#
# Compressibility (1/GPa) = 0.03723763
#
# Stress axis : x y z
#
# Youngs Moduli (GPa) = 110.33802 -33.49427 73.53024
#
# Poissons Ratio (x) = 1.29341 0.03860
# Poissons Ratio (y) = -4.26081 1.16735
# Poissons Ratio (z) = 0.05792 -0.53175
#
# Static dielectric constant tensor:
#      x y z
#    x 1.787360 0.000000 -0.022630 
#    y 0.000000 1.696360 0.000000 
#    z -0.022630 0.000000 1.682020 
# 
# From -- ./inp_files/302185.got.cif
#   From: 2010.05.17/outbox.cif.g08.bks.cpg/sg12_152_cif.got.tgz:302185.got - 2010.06.03 13:09:07.
