data_PCOD9174359
_publ_section_title
;
Structure prediction by ZEFSAII (Michael W. Deem and Ramdas Pophale) SiO2 
 PCOD9174359
Probable space group: C 2/M
;
_chemical_formula_sum "Si O2"
_cell_formula_units_Z 58
_cell_length_a 23.375296
_cell_length_b 19.786038
_cell_length_c 14.572880
_cell_angle_alpha 90.000000
_cell_angle_beta 30.302058
_cell_angle_gamma 90.000000
_cell_volume 3400.736559
_symmetry_space_group_name_H-M "C 2/M"
_symmetry_group_IT_number 12
_symmetry_cell_setting 'monoclinic'
loop_
_space_group_symop_operation_xyz
x,y,z
-x,y,-z
-x,-y,-z
x,-y,z
1/2+x,1/2+y,z
1/2-x,1/2+y,-z
1/2-x,1/2-y,-z
1/2+x,1/2-y,z
loop_
_atom_site_type_symbol
_atom_site_label
_atom_site_fract_x
_atom_site_fract_y
_atom_site_fract_z
Si Si1 0.323609 0.214771 0.975701
Si Si2 0.425290 0.737465 0.330709
Si Si3 0.635852 0.073142 0.806369
Si Si4 0.430328 0.928113 0.778897
Si Si5 0.234301 0.287857 0.738768
Si Si6 0.500000 0.000000 0.500000
Si Si7 0.156434 0.611563 0.572195
Si Si8 0.117488 0.163048 0.798005
O O1 0.444140 0.251983 0.825159
O O2 0.356192 0.137624 0.903435
O O3 0.250000 0.250000 0.000000
O O4 0.259061 0.219814 0.161838
O O5 0.351337 0.718227 0.521469
O O6 0.376717 0.809976 0.364929
O O7 0.404024 0.686696 0.276681
O O8 0.683036 0.138473 0.791187
O O9 0.668543 0.078176 0.654163
O O10 0.672401 0.000000 0.792666
O O11 0.500000 0.076345 0.000000
O O12 0.551707 0.918469 0.660939
O O13 0.380109 0.000000 0.882467
O O14 0.457675 0.941963 0.634054
O O15 0.153476 0.229432 0.807316
O O16 0.274314 0.613716 0.353868
O O17 0.000000 0.135495 0.000000
#
# Coordination Sequence:
#
# PCOD9174359 Si02
#       8
#     8   8   8   8   8   2   8   8
#     4  11  24  37  59  90 115 151 207 255 289 349
#     4  10  19  35  54  81 118 149 183 237 301 354
#     4  11  20  29  50  83 114 145 182 224 286 356
#     4   9  20  39  59  83 117 153 195 244 301 352
#     4  11  20  34  55  80 117 151 183 239 303 354
#     4   8  20  40  60  76 112 174 194 244 296 364
#     4  10  18  31  54  83 115 146 186 233 281 358
#     4  11  18  32  55  84 115 151 184 230 305 355
#
# _framework density 17.055128
#
# number of rings (size 3 to 8) (size 9 to 14) (size 15 to 20)
#    0.414    1.241    4.138    3.310    0.000    5.517 
#    0.000    0.000    0.000    2.483    3.586    1.931 
#    0.000    0.000    0.000    0.000    0.000    0.000 
#
# Total GULP energy -161446.290702 kJ/mol
# GULP energy per Si atom -5567.113472 kJ/mol
# Density = 1.701631 g / cm^3
# Si number density = 17.055128 Si / 1000 Ang^3
#
#
#
# Elastic Constant Matrix: (Units=GPa)
#
#
# Indices 1 2 3 4 5 6 
#
# 1 84.4860 28.7888 33.9530 0.0000 18.4488 0.0000
# 2 28.7888 71.2302 18.9335 0.0000 2.0844 0.0000
# 3 33.9530 18.9335 80.7321 0.0000 14.5977 0.0000
# 4 0.0000 0.0000 0.0000 41.8449 0.0000 -11.1511
# 5 18.4488 2.0844 14.5977 0.0000 29.3726 0.0000
# 6 0.0000 0.0000 0.0000 -11.1511 0.0000 17.3935
#
#
#
# Elastic Compliance Matrix: (Units=1/GPa)
#
#
# Indices 1 2 3 4 5 6 
#
# 1 0.017347 -0.005575 -0.004493 0.000000 -0.008267 0.000000
# 2 -0.005575 0.016779 -0.002207 0.000000 0.003407 0.000000
# 3 -0.004493 -0.002207 0.015663 0.000000 -0.004805 0.000000
# 4 0.000000 0.000000 0.000000 0.028822 0.000000 0.018478
# 5 -0.008267 0.003407 -0.004805 0.000000 0.041384 0.000000
# 6 0.000000 0.000000 0.000000 0.018478 0.000000 0.069339
#
#
# Mechanical properties :
#
#
# Convention : Reuss Voigt Hill
#
# Bulk Modulus (GPa) = 39.62087 44.42209 42.02148
# Shear Modulus (GPa) = 22.49261 28.04042 25.26651
#
# Velocity S-wave (km/s) = 3.63549 4.05915 3.85315
# Velocity P-wave (km/s) = 6.39562 6.93338 6.66992
#
# Compressibility (1/GPa) = 0.02523922
#
# Stress axis : x y z
#
# Youngs Moduli (GPa) = 57.64756 59.59856 63.84583
#
# Poissons Ratio (x) = 0.33224 0.28688
# Poissons Ratio (y) = 0.32137 0.14088
# Poissons Ratio (z) = 0.25903 0.13151
#
# Static dielectric constant tensor:
#      x y z
#    x 1.562970 0.000000 0.010180 
#    y 0.000000 1.601560 0.000000 
#    z 0.010180 0.000000 1.600200 
# 
# From -- ./inp_files/241297.got.cif
#   From: 2010.05.17/outbox.cif.g08.bks.cpg/sg12_121_cif.got.tgz:241297.got - 2010.06.03 13:09:07.
