data_PCOD9174411
_publ_section_title
;
Structure prediction by ZEFSAII (Michael W. Deem and Ramdas Pophale) SiO2 
 PCOD9174411
Probable space group: C 2/M
;
_chemical_formula_sum "Si O2"
_cell_formula_units_Z 64
_cell_length_a 18.741477
_cell_length_b 22.474617
_cell_length_c 17.673232
_cell_angle_alpha 90.000000
_cell_angle_beta 29.956553
_cell_angle_gamma 90.000000
_cell_volume 3717.159472
_symmetry_space_group_name_H-M "C 2/M"
_symmetry_group_IT_number 12
_symmetry_cell_setting 'monoclinic'
loop_
_space_group_symop_operation_xyz
x,y,z
-x,y,-z
-x,-y,-z
x,-y,z
1/2+x,1/2+y,z
1/2-x,1/2+y,-z
1/2-x,1/2-y,-z
1/2+x,1/2-y,z
loop_
_atom_site_type_symbol
_atom_site_label
_atom_site_fract_x
_atom_site_fract_y
_atom_site_fract_z
Si Si1 0.701012 0.429607 0.517878
Si Si2 0.216529 0.567675 0.178198
Si Si3 0.379904 0.642165 0.548095
Si Si4 0.046405 0.744709 0.367819
Si Si5 0.302301 0.640057 0.245587
Si Si6 0.166043 0.273386 0.828704
Si Si7 0.428400 0.873898 0.413192
Si Si8 0.989755 0.068975 0.846696
O O1 0.733887 0.500000 0.492772
O O2 0.662720 0.409619 0.469014
O O3 0.830579 0.389839 0.431600
O O4 0.565750 0.417512 0.697678
O O5 0.237064 0.500000 0.187403
O O6 0.259314 0.614181 0.203974
O O7 0.054411 0.578950 0.305123
O O8 0.320728 0.576071 0.010753
O O9 0.500000 0.625173 0.500000
O O10 0.456295 0.696366 0.432685
O O11 0.242329 0.672763 0.713918
O O12 0.215279 0.759448 0.214718
O O13 0.000000 0.731292 0.500000
O O14 0.001387 0.690827 0.355530
O O15 0.328243 0.710577 0.221169
O O16 0.176269 0.622929 0.418694
O O17 0.440621 0.608163 0.151698
O O18 0.000000 0.284811 0.000000
O O19 0.023770 0.000000 0.831711
#
# Coordination Sequence:
#
# PCOD9174411 Si02
#       8
#     8   8   8   8   8   8   8   8
#     4  10  22  39  58  78 104 139 181 225 270 324
#     4  11  20  29  47  74 109 154 188 215 251 299
#     4   9  20  39  62  81  99 134 173 226 282 330
#     4   9  16  33  51  78 109 142 177 211 254 308
#     4  11  18  29  49  73 107 153 188 218 247 299
#     4  10  18  31  55  83 110 133 174 227 267 305
#     4  11  19  32  49  76 114 146 179 213 259 310
#     4   9  20  34  46  72 109 143 186 229 259 294
#
# _framework density 17.217448000000001
#
# number of rings (size 3 to 8) (size 9 to 14) (size 15 to 20)
#    0.000    2.250    3.750    2.250    0.000    3.750 
#    0.000    2.500    0.000    1.875    0.000    0.000 
#    0.000    0.000    0.000    0.000    0.000    0.000 
#
# Total GULP energy -178209.821336 kJ/mol
# GULP energy per Si atom -5569.056917 kJ/mol
# Density = 1.717826 g / cm^3
# Si number density = 17.217448 Si / 1000 Ang^3
#
#
#
# Elastic Constant Matrix: (Units=GPa)
#
#
# Indices 1 2 3 4 5 6 
#
# 1 59.7896 23.3183 33.1671 -0.0027 -2.6755 0.0007
# 2 23.3183 26.6048 7.5523 -0.0081 -3.0607 0.0026
# 3 33.1671 7.5523 103.3959 0.0011 -29.8335 -0.0012
# 4 -0.0027 -0.0081 0.0011 11.8203 0.0034 -2.3491
# 5 -2.6755 -3.0607 -29.8335 0.0034 15.0263 0.0003
# 6 0.0007 0.0026 -0.0012 -2.3491 0.0003 25.2955
#
#
#
# Elastic Compliance Matrix: (Units=1/GPa)
#
#
# Indices 1 2 3 4 5 6 
#
# 1 0.042833 -0.036079 -0.025810 0.000003 -0.050967 0.000002
# 2 -0.036079 0.068952 0.020452 0.000022 0.048226 -0.000004
# 3 -0.025810 0.020452 0.038239 -0.000017 0.075490 -0.000002
# 4 0.000003 0.000022 -0.000017 0.086191 -0.000049 0.008004
# 5 -0.050967 0.048226 0.075490 -0.000049 0.217179 -0.000007
# 6 0.000002 -0.000004 -0.000002 0.008004 -0.000007 0.040276
#
#
# Mechanical properties :
#
#
# Convention : Reuss Voigt Hill
#
# Bulk Modulus (GPa) = 14.89219 35.31839 25.10529
# Shear Modulus (GPa) = 8.34826 18.81192 13.58009
#
# Velocity S-wave (km/s) = 2.20437 3.30905 2.81150
# Velocity P-wave (km/s) = 3.89195 5.92937 5.01521
#
# Compressibility (1/GPa) = 0.06714930
#
# Stress axis : x y z
#
# Youngs Moduli (GPa) = 23.34633 14.50292 26.15140
#
# Poissons Ratio (x) = 0.52325 0.67498
# Poissons Ratio (y) = 0.84231 -0.53485
# Poissons Ratio (z) = 0.60258 -0.29661
#
# Static dielectric constant tensor:
#      x y z
#    x 1.571660 0.000000 -0.013610 
#    y 0.000000 1.590440 0.000000 
#    z -0.013610 0.000000 1.613620 
# 
# From -- ./inp_files/279368.got.cif
#   From: 2010.05.17/outbox.cif.g08.bks.cpg/sg12_140_cif.got.tgz:279368.got - 2010.06.03 13:09:07.
