data_PCOD9174313
_publ_section_title
;
Structure prediction by ZEFSAII (Michael W. Deem and Ramdas Pophale) SiO2 
 PCOD9174313
Probable space group: C 2/M
;
_chemical_formula_sum "Si O2"
_cell_formula_units_Z 64
_cell_length_a 21.849127
_cell_length_b 7.604122
_cell_length_c 24.225196
_cell_angle_alpha 90.000000
_cell_angle_beta 132.896124
_cell_angle_gamma 90.000000
_cell_volume 2948.565818
_symmetry_space_group_name_H-M "C 2/M"
_symmetry_group_IT_number 12
_symmetry_cell_setting 'monoclinic'
loop_
_space_group_symop_operation_xyz
x,y,z
-x,y,-z
-x,-y,-z
x,-y,z
1/2+x,1/2+y,z
1/2-x,1/2+y,-z
1/2-x,1/2-y,-z
1/2+x,1/2-y,z
loop_
_atom_site_type_symbol
_atom_site_label
_atom_site_fract_x
_atom_site_fract_y
_atom_site_fract_z
Si Si1 0.844893 0.711337 0.181692
Si Si2 0.390294 0.796556 0.698034
Si Si3 0.558661 0.710234 0.864112
Si Si4 0.930796 0.788551 0.499443
Si Si5 0.023508 0.785431 0.076080
Si Si6 0.788141 0.206463 0.816003
Si Si7 0.515454 0.789303 0.344021
Si Si8 0.731789 0.713556 0.664645
O O1 0.842939 0.500000 0.185421
O O2 0.761158 0.778162 0.160742
O O3 0.863549 0.747709 0.128487
O O4 0.925668 0.776506 0.266607
O O5 0.477701 0.787051 0.783555
O O6 0.412307 0.718244 0.652186
O O7 0.317569 0.718660 0.690297
O O8 0.366137 0.000000 0.674986
O O9 0.552281 0.500000 0.859908
O O10 0.542986 0.770080 0.917660
O O11 0.959226 0.744316 0.578199
O O12 0.842312 0.728303 0.421086
O O13 0.000000 0.720924 0.500000
O O14 0.929004 0.000000 0.495380
O O15 0.119665 0.723340 0.143289
O O16 0.022864 0.000000 0.077434
O O17 0.000000 0.731551 0.000000
O O18 0.729206 0.225247 0.726269
O O19 0.801789 0.000000 0.835047
O O20 0.512295 0.000000 0.334419
O O21 0.731342 0.500000 0.667345
#
# Coordination Sequence:
#
# PCOD9174313 Si02
#       8
#     8   8   8   8   8   8   8   8
#     4   9  19  34  53  76 106 141 173 214 262 304
#     4   9  18  33  51  72 101 134 167 210 265 309
#     4  10  18  31  54  80 104 134 175 213 251 307
#     4  10  21  34  46  66  98 133 168 210 263 311
#     4   9  18  33  54  81 110 136 166 211 262 305
#     4  10  19  34  56  80 103 134 180 217 249 307
#     4   9  18  32  48  68  95 130 171 211 256 304
#     4  10  20  33  51  73 102 137 169 213 267 305
#
# _framework density 21.705469000000001
#
# number of rings (size 3 to 8) (size 9 to 14) (size 15 to 20)
#    0.000    2.500    1.250    1.875    0.000    3.750 
#    0.000    0.625    0.000    3.375    0.000    0.000 
#    0.000    0.000    0.000    0.000    0.000    0.000 
#
# Total GULP energy -178375.892835 kJ/mol
# GULP energy per Si atom -5574.246651 kJ/mol
# Density = 2.165607 g / cm^3
# Si number density = 21.705469 Si / 1000 Ang^3
#
#
#
# Elastic Constant Matrix: (Units=GPa)
#
#
# Indices 1 2 3 4 5 6 
#
# 1 104.4973 15.3227 5.7002 0.0000 -48.8945 0.0000
# 2 15.3227 41.4915 -3.5407 0.0000 4.5738 0.0000
# 3 5.7002 -3.5407 55.4809 0.0000 -38.5536 0.0000
# 4 0.0000 0.0000 0.0000 19.7960 0.0000 5.1741
# 5 -48.8945 4.5738 -38.5536 0.0000 38.4810 0.0000
# 6 0.0000 0.0000 0.0000 5.1741 0.0000 28.2369
#
#
#
# Elastic Compliance Matrix: (Units=1/GPa)
#
#
# Indices 1 2 3 4 5 6 
#
# 1 -0.012097 0.007045 -0.031503 0.000000 -0.047771 0.000000
# 2 0.007045 0.020357 0.016835 0.000000 0.023399 0.000000
# 3 -0.031503 0.016835 -0.022618 0.000000 -0.064690 0.000000
# 4 0.000000 0.000000 0.000000 0.053056 0.000000 -0.009722
# 5 -0.047771 0.023399 -0.064690 0.000000 -0.102305 0.000000
# 6 0.000000 0.000000 0.000000 -0.009722 0.000000 0.037196
#
#
# Mechanical properties :
#
#
# Convention : Reuss Voigt Hill
#
# Bulk Modulus (GPa) = -33.77869 26.27047 -3.75411
# Shear Modulus (GPa) = -237.73141 29.56860 -104.08140
#
# Velocity S-wave (km/s) = -10.47682 3.69489 -6.93223
# Velocity P-wave (km/s) = 12.72587 5.50749 8.11220
#
# Compressibility (1/GPa) = -0.02960446
#
# Stress axis : x y z
#
# Youngs Moduli (GPa) = -82.66516 49.12338 -44.21297
#
# Poissons Ratio (x) = -0.34608 -1.39286
# Poissons Ratio (y) = 0.58238 0.74433
# Poissons Ratio (z) = -2.60424 -0.82700
#
# Static dielectric constant tensor:
#      x y z
#    x 1.849980 0.000000 -0.013270 
#    y 0.000000 1.815710 0.000000 
#    z -0.013270 0.000000 1.773000 
# 
# From -- ./inp_files/324235.got.cif
#   From: 2010.05.17/outbox.cif.g08.bks.cpg/sg12_163_cif.got.tgz:324235.got - 2010.06.03 13:09:07.
