data_PCOD9174206
_publ_section_title
;
Structure prediction by ZEFSAII (Michael W. Deem and Ramdas Pophale) SiO2 
 PCOD9174206
Probable space group: C 2/M
;
_chemical_formula_sum "Si O2"
_cell_formula_units_Z 64
_cell_length_a 12.728594
_cell_length_b 23.283869
_cell_length_c 14.610328
_cell_angle_alpha 90.000000
_cell_angle_beta 120.880647
_cell_angle_gamma 90.000000
_cell_volume 3716.237382
_symmetry_space_group_name_H-M "C 2/M"
_symmetry_group_IT_number 12
_symmetry_cell_setting 'monoclinic'
loop_
_space_group_symop_operation_xyz
x,y,z
-x,y,-z
-x,-y,-z
x,-y,z
1/2+x,1/2+y,z
1/2-x,1/2+y,-z
1/2-x,1/2-y,-z
1/2+x,1/2-y,z
loop_
_atom_site_type_symbol
_atom_site_label
_atom_site_fract_x
_atom_site_fract_y
_atom_site_fract_z
Si Si1 0.121506 0.232767 0.085573
Si Si2 0.555030 0.434881 0.789665
Si Si3 0.837039 0.432384 0.596346
Si Si4 0.114371 0.112277 0.617380
Si Si5 0.076480 0.824111 0.893747
Si Si6 0.762925 0.065484 0.655924
Si Si7 0.370249 0.270203 0.274471
Si Si8 0.554046 0.144635 0.627180
O O1 0.226659 0.263618 0.186704
O O2 0.056059 0.184340 0.118432
O O3 0.164211 0.203545 0.009920
O O4 0.000000 0.268677 0.000000
O O5 0.583943 0.500000 0.825755
O O6 0.597528 0.420495 0.705923
O O7 0.609116 0.388655 0.883508
O O8 0.408077 0.426536 0.727005
O O9 0.862817 0.500000 0.625852
O O10 0.738510 0.407258 0.623294
O O11 0.775366 0.429529 0.467798
O O12 0.957895 0.392961 0.642825
O O13 0.112732 0.179794 0.643403
O O14 0.000000 0.099412 0.500000
O O15 0.073028 0.790914 0.796332
O O16 0.681654 0.110387 0.675417
O O17 0.733043 0.000000 0.671009
O O18 0.423289 0.208786 0.326920
O O19 0.500000 0.147944 0.500000
#
# Coordination Sequence:
#
# PCOD9174206 Si02
#       8
#     8   8   8   8   8   8   8   8
#     4   8  19  35  56  74 100 129 174 223 276 327
#     4  10  18  31  53  78 106 141 177 220 270 319
#     4  10  20  34  52  72 106 149 192 227 253 309
#     4  11  22  34  49  81 113 150 187 218 265 318
#     4   8  19  33  51  76 100 128 174 220 265 326
#     4   9  17  31  51  71  99 141 183 216 256 307
#     4  11  20  34  54  76 110 141 175 221 275 328
#     4  10  21  34  49  78 109 147 181 219 268 317
#
# _framework density 17.221720000000001
#
# number of rings (size 3 to 8) (size 9 to 14) (size 15 to 20)
#    0.750    1.500    1.250    2.250    1.750    2.000 
#    0.000    3.125    0.000    1.500    0.000    0.000 
#    0.000    6.500    0.000    0.000    0.000    0.000 
#
# Total GULP energy -178156.726308 kJ/mol
# GULP energy per Si atom -5567.397697 kJ/mol
# Density = 1.718252 g / cm^3
# Si number density = 17.221720 Si / 1000 Ang^3
#
#
#
# Elastic Constant Matrix: (Units=GPa)
#
#
# Indices 1 2 3 4 5 6 
#
# 1 93.8531 48.0421 15.9800 0.0000 -16.5464 0.0000
# 2 48.0421 99.9076 1.6722 0.0000 -18.5277 0.0000
# 3 15.9800 1.6722 15.6764 0.0000 -6.5266 0.0000
# 4 0.0000 0.0000 0.0000 1.3896 0.0000 4.8232
# 5 -16.5464 -18.5277 -6.5266 0.0000 23.0372 0.0000
# 6 0.0000 0.0000 0.0000 4.8232 0.0000 19.8941
#
#
#
# Elastic Compliance Matrix: (Units=1/GPa)
#
#
# Indices 1 2 3 4 5 6 
#
# 1 0.017895 -0.008014 -0.016687 0.000000 0.001680 0.000000
# 2 -0.008014 0.015482 0.010550 0.000000 0.009684 0.000000
# 3 -0.016687 0.010550 0.088677 0.000000 0.021622 0.000000
# 4 0.000000 0.000000 0.000000 4.539882 0.000000 -1.100652
# 5 0.001680 0.009684 0.021622 0.000000 0.058529 0.000000
# 6 0.000000 0.000000 0.000000 -1.100652 0.000000 0.317109
#
#
# Mechanical properties :
#
#
# Convention : Reuss Voigt Hill
#
# Bulk Modulus (GPa) = 10.66652 37.86951 24.26801
# Shear Modulus (GPa) = 0.98094 18.44704 9.71399
#
# Velocity S-wave (km/s) = 0.75554 3.27639 2.37756
# Velocity P-wave (km/s) = 2.63973 6.02911 4.65394
#
# Compressibility (1/GPa) = 0.09375132
#
# Stress axis : x y z
#
# Youngs Moduli (GPa) = 55.88279 64.58986 11.27690
#
# Poissons Ratio (x) = 0.51763 0.18818
# Poissons Ratio (y) = 0.44785 -0.11897
# Poissons Ratio (z) = 0.93251 -0.68140
#
# Static dielectric constant tensor:
#      x y z
#    x 1.596500 0.000000 0.006260 
#    y 0.000000 1.589030 0.000000 
#    z 0.006260 0.000000 1.577470 
# 
# From -- ./inp_files/207724.got.cif
#   From: 2010.05.17/outbox.cif.g08.bks.cpg/sg12_104_cif.got.tgz:207724.got - 2010.06.03 13:09:07.
