data_PCOD9174579
_publ_section_title
;
Structure prediction by ZEFSAII (Michael W. Deem and Ramdas Pophale) SiO2 
 PCOD9174579
Probable space group: C 2/M
;
_chemical_formula_sum "Si O2"
_cell_formula_units_Z 56
_cell_length_a 23.253555
_cell_length_b 25.959066
_cell_length_c 5.316247
_cell_angle_alpha 90.000000
_cell_angle_beta 109.797584
_cell_angle_gamma 90.000000
_cell_volume 3019.428535
_symmetry_space_group_name_H-M "C 2/M"
_symmetry_group_IT_number 12
_symmetry_cell_setting 'monoclinic'
loop_
_space_group_symop_operation_xyz
x,y,z
-x,y,-z
-x,-y,-z
x,-y,z
1/2+x,1/2+y,z
1/2-x,1/2+y,-z
1/2-x,1/2-y,-z
1/2+x,1/2-y,z
loop_
_atom_site_type_symbol
_atom_site_label
_atom_site_fract_x
_atom_site_fract_y
_atom_site_fract_z
Si Si1 0.054615 0.338821 0.382312
Si Si2 0.857957 0.292491 0.131419
Si Si3 0.693630 0.059859 0.724103
Si Si4 0.934795 0.234118 0.893829
Si Si5 0.444280 0.053957 0.614721
Si Si6 0.196176 0.781421 0.563684
Si Si7 0.281082 0.874186 0.744500
O O1 0.117077 0.332240 0.628112
O O2 0.049572 0.286432 0.228946
O O3 0.054943 0.392507 0.234200
O O4 0.000000 0.342123 0.500000
O O5 0.813139 0.252919 0.200563
O O6 0.913108 0.255483 0.129955
O O7 0.831475 0.328592 0.872173
O O8 0.619870 0.055953 0.626749
O O9 0.709636 0.092274 0.494002
O O10 0.715460 0.000000 0.740309
O O11 0.717149 0.088988 0.008387
O O12 0.870373 0.215558 0.674106
O O13 0.000000 0.204408 0.000000
O O14 0.500000 0.053084 0.500000
O O15 0.443955 0.000000 0.760766
O O16 0.250000 0.750000 0.500000
O O17 0.220404 0.839028 0.642158
#
# Coordination Sequence:
#
# PCOD9174579 Si02
#       7
#     8   8   8   8   8   8   8
#     4  10  18  32  49  75 105 151 198 242 290 342
#     4  11  21  34  57  82 115 156 200 243 287 357
#     4  11  24  41  61  84 113 153 203 254 305 352
#     4  11  22  35  55  83 117 156 196 243 291 357
#     4   9  18  33  51  73 106 147 200 256 299 336
#     4  11  24  37  57  87 122 157 206 243 297 359
#     4  12  23  40  61  85 117 158 197 250 298 348
#
# _framework density 18.546555999999999
#
# number of rings (size 3 to 8) (size 9 to 14) (size 15 to 20)
#    0.000    1.286    4.286    2.571    2.000    0.000 
#    0.000    0.714    0.000    3.857    0.000    0.000 
#    0.000    3.429    0.000    0.000    0.000    0.000 
#
# Total GULP energy -156007.206359 kJ/mol
# GULP energy per Si atom -5571.685941 kJ/mol
# Density = 1.850434 g / cm^3
# Si number density = 18.546556 Si / 1000 Ang^3
#
#
#
# Elastic Constant Matrix: (Units=GPa)
#
#
# Indices 1 2 3 4 5 6 
#
# 1 109.4950 55.4999 47.1217 0.0000 4.0646 0.0000
# 2 55.4999 119.1591 52.7675 0.0000 3.7403 0.0000
# 3 47.1217 52.7675 99.7403 0.0000 11.9425 0.0000
# 4 0.0000 0.0000 0.0000 20.3586 0.0000 5.6788
# 5 4.0646 3.7403 11.9425 0.0000 44.2455 0.0000
# 6 0.0000 0.0000 0.0000 5.6788 0.0000 56.1872
#
#
#
# Elastic Compliance Matrix: (Units=1/GPa)
#
#
# Indices 1 2 3 4 5 6 
#
# 1 0.012991 -0.004346 -0.003864 0.000000 0.000217 0.000000
# 2 -0.004346 0.012433 -0.004595 0.000000 0.000588 0.000000
# 3 -0.003864 -0.004595 0.014667 0.000000 -0.003216 0.000000
# 4 0.000000 0.000000 0.000000 0.050544 0.000000 -0.005108
# 5 0.000217 0.000588 -0.003216 0.000000 0.023399 0.000000
# 6 0.000000 0.000000 0.000000 -0.005108 0.000000 0.018314
#
#
# Mechanical properties :
#
#
# Convention : Reuss Voigt Hill
#
# Bulk Modulus (GPa) = 69.05590 71.01919 70.03755
# Shear Modulus (GPa) = 30.71538 35.69194 33.20366
#
# Velocity S-wave (km/s) = 4.07396 4.39162 4.23577
# Velocity P-wave (km/s) = 7.71001 8.00566 7.85922
#
# Compressibility (1/GPa) = 0.01448102
#
# Stress axis : x y z
#
# Youngs Moduli (GPa) = 76.97839 80.43350 68.17890
#
# Poissons Ratio (x) = 0.34959 0.26344
# Poissons Ratio (y) = 0.33457 0.31325
# Poissons Ratio (z) = 0.29744 0.36956
#
# Static dielectric constant tensor:
#      x y z
#    x 1.779090 0.000000 0.069730 
#    y 0.000000 1.670180 0.000000 
#    z 0.069730 0.000000 1.803110 
# 
# From -- ./inp_files/21922.got.cif
#   From: 2010.05.17/outbox.cif.g08.bks.cpg/sg12_11_cif.got.tgz:21922.got - 2010.06.03 13:09:07.
