data_PCOD9174826
_publ_section_title
;
Structure prediction by ZEFSAII (Michael W. Deem and Ramdas Pophale) SiO2 
 PCOD9174826
Probable space group: C 2/M
;
_chemical_formula_sum "Si O2"
_cell_formula_units_Z 44
_cell_length_a 21.863534
_cell_length_b 12.131442
_cell_length_c 9.879186
_cell_angle_alpha 90.000000
_cell_angle_beta 38.731329
_cell_angle_gamma 90.000000
_cell_volume 1639.452335
_symmetry_space_group_name_H-M "C 2/M"
_symmetry_group_IT_number 12
_symmetry_cell_setting 'monoclinic'
loop_
_space_group_symop_operation_xyz
x,y,z
-x,y,-z
-x,-y,-z
x,-y,z
1/2+x,1/2+y,z
1/2-x,1/2+y,-z
1/2-x,1/2-y,-z
1/2+x,1/2-y,z
loop_
_atom_site_type_symbol
_atom_site_label
_atom_site_fract_x
_atom_site_fract_y
_atom_site_fract_z
Si Si1 0.000000 0.197189 0.500000
Si Si2 0.859881 0.380168 0.726922
Si Si3 0.346207 0.879521 0.158762
Si Si4 0.923991 0.652537 0.304097
Si Si5 0.811960 0.128044 0.138298
Si Si6 0.457358 0.386528 0.292698
O O1 0.082279 0.282087 0.302855
O O2 0.953005 0.128332 0.461701
O O3 0.886804 0.500000 0.735067
O O4 0.892670 0.373949 0.511035
O O5 0.744281 0.370300 0.909537
O O6 0.356151 0.890485 0.303099
O O7 0.298178 0.758569 0.210128
O O8 0.306662 0.000000 0.175839
O O9 0.461503 0.874216 0.914235
O O10 0.911715 0.782553 0.303931
O O11 0.784562 0.000000 0.235822
O O12 0.927991 0.118526 0.934344
O O13 0.414154 0.500000 0.319348
#
# Coordination Sequence:
#
# PCOD9174826 Si02
#       6
#     4   8   8   8   8   8
#     4  10  20  32  54  74  92 124 170 214 254 294
#     4  10  19  34  51  72  99 130 166 208 252 300
#     4  10  18  32  53  78 103 133 169 208 245 286
#     4   9  18  31  52  75 100 132 169 205 243 289
#     4   9  20  35  51  72 105 137 164 200 251 305
#     4   9  18  34  51  72 100 132 166 206 250 299
#
# _framework density 26.838228999999998
#
# number of rings (size 3 to 8) (size 9 to 14) (size 15 to 20)
#    0.000    2.545    0.000    2.727    0.000    2.182 
#    0.000    9.091    0.000    0.000    0.000    0.000 
#    0.000    0.000    0.000    0.000    0.000    0.000 
#
# Total GULP energy -122667.503643 kJ/mol
# GULP energy per Si atom -5575.795620 kJ/mol
# Density = 2.677714 g / cm^3
# Si number density = 26.838229 Si / 1000 Ang^3
#
#
#
# Elastic Constant Matrix: (Units=GPa)
#
#
# Indices 1 2 3 4 5 6 
#
# 1 54.8620 34.1461 0.5928 0.0000 4.2040 0.0000
# 2 34.1461 303.8619 13.8995 0.0000 -9.5365 0.0000
# 3 0.5928 13.8995 60.9350 0.0000 -8.3600 0.0000
# 4 0.0000 0.0000 0.0000 10.6405 0.0000 -5.3283
# 5 4.2040 -9.5365 -8.3600 0.0000 36.4186 0.0000
# 6 0.0000 0.0000 0.0000 -5.3283 0.0000 23.9854
#
#
#
# Elastic Compliance Matrix: (Units=1/GPa)
#
#
# Indices 1 2 3 4 5 6 
#
# 1 0.019899 -0.002325 -0.000064 0.000000 -0.002921 0.000000
# 2 -0.002325 0.003616 -0.000656 0.000000 0.001065 0.000000
# 3 -0.000064 -0.000656 0.017076 0.000000 0.003756 0.000000
# 4 0.000000 0.000000 0.000000 0.105744 0.000000 0.023491
# 5 -0.002921 0.001065 0.003756 0.000000 0.028937 0.000000
# 6 0.000000 0.000000 0.000000 0.023491 0.000000 0.046911
#
#
# Mechanical properties :
#
#
# Convention : Reuss Voigt Hill
#
# Bulk Modulus (GPa) = 28.98436 57.43730 43.21083
# Shear Modulus (GPa) = 20.85309 38.94358 29.89834
#
# Velocity S-wave (km/s) = 2.79048 3.81340 3.34132
# Velocity P-wave (km/s) = 4.60494 6.39039 5.56968
#
# Compressibility (1/GPa) = 0.03450136
#
# Stress axis : x y z
#
# Youngs Moduli (GPa) = 50.25369 276.57598 58.56016
#
# Poissons Ratio (x) = 0.64300 0.00374
# Poissons Ratio (y) = 0.11683 0.03842
# Poissons Ratio (z) = 0.00321 0.18146
#
# Static dielectric constant tensor:
#      x y z
#    x 2.016160 0.000000 -0.003560 
#    y 0.000000 2.147230 0.000000 
#    z -0.003560 0.000000 2.164160 
# 
# From -- ./inp_files/182400.got.cif
#   From: 2010.05.17/outbox.cif.g08.bks.cpg/sg12_92_cif.got.tgz:182400.got - 2010.06.03 13:09:07.
