data_PCOD9174456
_publ_section_title
;
Structure prediction by ZEFSAII (Michael W. Deem and Ramdas Pophale) SiO2 
 PCOD9174456
Probable space group: C 2/M
;
_chemical_formula_sum "Si O2"
_cell_formula_units_Z 52
_cell_length_a 21.912715
_cell_length_b 16.655293
_cell_length_c 8.881346
_cell_angle_alpha 90.000000
_cell_angle_beta 52.258384
_cell_angle_gamma 90.000000
_cell_volume 2563.199839
_symmetry_space_group_name_H-M "C 2/M"
_symmetry_group_IT_number 12
_symmetry_cell_setting 'monoclinic'
loop_
_space_group_symop_operation_xyz
x,y,z
-x,y,-z
-x,-y,-z
x,-y,z
1/2+x,1/2+y,z
1/2-x,1/2+y,-z
1/2-x,1/2-y,-z
1/2+x,1/2-y,z
loop_
_atom_site_type_symbol
_atom_site_label
_atom_site_fract_x
_atom_site_fract_y
_atom_site_fract_z
Si Si1 0.340245 0.411077 0.772438
Si Si2 0.024876 0.358288 0.298449
Si Si3 0.000000 0.632570 0.000000
Si Si4 0.073368 0.804892 0.583431
Si Si5 0.700821 0.808728 0.967592
Si Si6 0.632800 0.735132 0.787597
Si Si7 0.064403 0.908266 0.076054
O O1 0.358245 0.500000 0.684933
O O2 0.389592 0.342383 0.618755
O O3 0.251451 0.389192 0.883184
O O4 0.367851 0.409318 0.902134
O O5 0.000000 0.394881 0.500000
O O6 0.974713 0.276213 0.367043
O O7 0.115030 0.331177 0.155978
O O8 0.008000 0.402473 0.160511
O O9 0.926694 0.690945 0.120080
O O10 0.141620 0.785779 0.599622
O O11 0.012774 0.871121 0.735300
O O12 0.694262 0.763623 0.816933
O O13 0.750000 0.750000 0.000000
O O14 0.591557 0.655669 0.913270
O O15 0.054023 0.000000 0.043099
#
# Coordination Sequence:
#
# PCOD9174456 Si02
#       7
#     8   8   4   8   8   8   8
#     4  11  24  36  52  80 117 158 187 221 283 351
#     4  10  18  31  56  81 104 139 184 236 278 323
#     4   8  16  30  47  78 111 126 176 234 274 326
#     4  11  19  33  51  81 112 136 189 226 277 340
#     4  11  19  35  56  76 111 149 188 233 278 337
#     4  10  18  32  50  77 106 141 185 235 278 322
#     4  11  19  31  51  75 110 152 184 221 275 338
#
# _framework density 20.287143
#
# number of rings (size 3 to 8) (size 9 to 14) (size 15 to 20)
#    0.000    1.538    6.154    2.769    0.000    3.692 
#    0.000    1.538    0.000    0.462    0.000   19.385 
#    0.000    0.000    0.000    0.000    0.000    0.308 
#
# Total GULP energy -144826.760868 kJ/mol
# GULP energy per Si atom -5570.260033 kJ/mol
# Density = 2.024097 g / cm^3
# Si number density = 20.287143 Si / 1000 Ang^3
#
#
#
# Elastic Constant Matrix: (Units=GPa)
#
#
# Indices 1 2 3 4 5 6 
#
# 1 134.2909 18.0357 28.7931 0.0000 13.9609 0.0000
# 2 18.0357 52.0464 13.4001 0.0000 3.1420 0.0000
# 3 28.7931 13.4001 73.7562 0.0000 -1.1290 0.0000
# 4 0.0000 0.0000 0.0000 20.0037 0.0000 5.9630
# 5 13.9609 3.1420 -1.1290 0.0000 28.1907 0.0000
# 6 0.0000 0.0000 0.0000 5.9630 0.0000 31.5351
#
#
#
# Elastic Compliance Matrix: (Units=1/GPa)
#
#
# Indices 1 2 3 4 5 6 
#
# 1 0.008835 -0.001992 -0.003153 0.000000 -0.004280 0.000000
# 2 -0.001992 0.020768 -0.003018 0.000000 -0.001449 0.000000
# 3 -0.003153 -0.003018 0.015376 0.000000 0.002513 0.000000
# 4 0.000000 0.000000 0.000000 0.052977 0.000000 -0.010017
# 5 -0.004280 -0.001449 0.002513 0.000000 0.037854 0.000000
# 6 0.000000 0.000000 0.000000 -0.010017 0.000000 0.033605
#
#
# Mechanical properties :
#
#
# Convention : Reuss Voigt Hill
#
# Bulk Modulus (GPa) = 34.89842 42.28349 38.59096
# Shear Modulus (GPa) = 25.60290 29.27022 27.43656
#
# Velocity S-wave (km/s) = 3.55635 3.80254 3.68150
# Velocity P-wave (km/s) = 5.83979 6.33773 6.09385
#
# Compressibility (1/GPa) = 0.02865459
#
# Stress axis : x y z
#
# Youngs Moduli (GPa) = 113.18811 48.15045 65.03769
#
# Poissons Ratio (x) = 0.09589 0.20504
# Poissons Ratio (y) = 0.22541 0.19628
# Poissons Ratio (z) = 0.35684 0.14532
#
# Static dielectric constant tensor:
#      x y z
#    x 1.764470 0.000000 -0.042690 
#    y 0.000000 1.696270 0.000000 
#    z -0.042690 0.000000 1.530670 
# 
# From -- ./inp_files/88359.got.cif
#   From: 2010.05.17/outbox.cif.g08.bks.cpg/sg12_45_cif.got.tgz:88359.got - 2010.06.03 13:09:07.
