data_PCOD9174992
_publ_section_title
;
Structure prediction by ZEFSAII (Michael W. Deem and Ramdas Pophale) SiO2 
 PCOD9174992
Probable space group: C 2/M
;
_chemical_formula_sum "Si O2"
_cell_formula_units_Z 56
_cell_length_a 25.573332
_cell_length_b 21.413105
_cell_length_c 11.475798
_cell_angle_alpha 90.000000
_cell_angle_beta 34.000502
_cell_angle_gamma 90.000000
_cell_volume 3514.124558
_symmetry_space_group_name_H-M "C 2/M"
_symmetry_group_IT_number 12
_symmetry_cell_setting 'monoclinic'
loop_
_space_group_symop_operation_xyz
x,y,z
-x,y,-z
-x,-y,-z
x,-y,z
1/2+x,1/2+y,z
1/2-x,1/2+y,-z
1/2-x,1/2-y,-z
1/2+x,1/2-y,z
loop_
_atom_site_type_symbol
_atom_site_label
_atom_site_fract_x
_atom_site_fract_y
_atom_site_fract_z
Si Si1 0.842801 0.427332 0.743063
Si Si2 0.930845 0.738782 0.898492
Si Si3 0.756555 0.204417 0.100874
Si Si4 0.584645 0.931272 0.914140
Si Si5 0.356574 0.753320 0.463960
Si Si6 0.033372 0.601724 0.263563
Si Si7 0.690815 0.820774 0.671649
O O1 0.810850 0.500000 0.786061
O O2 0.770988 0.368362 0.870273
O O3 0.896399 0.422444 0.767671
O O4 0.927209 0.411965 0.497111
O O5 0.947186 0.675372 0.793049
O O6 0.034816 0.762973 0.729847
O O7 0.860149 0.784713 0.962591
O O8 0.879369 0.717546 0.113081
O O9 0.685898 0.230409 0.331417
O O10 0.750000 0.250000 0.000000
O O11 0.676930 0.891981 0.729058
O O12 0.596434 0.000000 0.844587
O O13 0.500000 0.899505 0.000000
O O14 0.555191 0.930503 0.101715
O O15 0.338423 0.810177 0.407614
O O16 0.293340 0.701570 0.516860
#
# Coordination Sequence:
#
# PCOD9174992 Si02
#       7
#     8   8   8   8   8   8   8
#     4  11  21  33  51  74 105 139 174 214 262 315
#     4  10  18  32  55  75 105 133 172 214 250 306
#     4  11  22  34  50  76 103 138 178 213 258 301
#     4  10  19  30  48  75 106 134 162 204 256 316
#     4  10  19  34  52  73 102 133 167 218 254 301
#     4  10  18  33  51  74 104 136 170 207 262 315
#     4   9  19  32  51  76 101 133 168 201 262 311
#
# _framework density 15.935691
#
# number of rings (size 3 to 8) (size 9 to 14) (size 15 to 20)
#    0.000    1.857    2.857    3.857    0.000    0.571 
#    0.000    0.000    0.000    0.857    0.000    1.000 
#    0.000    6.857    0.000    0.000    0.000    0.000 
#
# Total GULP energy -155951.313904 kJ/mol
# GULP energy per Si atom -5569.689782 kJ/mol
# Density = 1.589942 g / cm^3
# Si number density = 15.935691 Si / 1000 Ang^3
#
#
#
# Elastic Constant Matrix: (Units=GPa)
#
#
# Indices 1 2 3 4 5 6 
#
# 1 72.0415 28.6489 40.6857 0.0000 -7.1003 0.0000
# 2 28.6489 94.0924 33.7401 0.0000 -11.0267 0.0000
# 3 40.6857 33.7401 66.7305 0.0000 -13.6242 0.0000
# 4 0.0000 0.0000 0.0000 -1.0890 0.0000 -5.5702
# 5 -7.1003 -11.0267 -13.6242 0.0000 37.5362 0.0000
# 6 0.0000 0.0000 0.0000 -5.5702 0.0000 15.2095
#
#
#
# Elastic Compliance Matrix: (Units=1/GPa)
#
#
# Indices 1 2 3 4 5 6 
#
# 1 0.021593 -0.002319 -0.012202 0.000000 -0.001026 0.000000
# 2 -0.002319 0.013314 -0.004978 0.000000 0.001666 0.000000
# 3 -0.012202 -0.004978 0.026107 0.000000 0.005705 0.000000
# 4 0.000000 0.000000 0.000000 -0.319592 0.000000 -0.117044
# 5 -0.001026 0.001666 0.005705 0.000000 0.029007 0.000000
# 6 0.000000 0.000000 0.000000 -0.117044 0.000000 0.022884
#
#
# Mechanical properties :
#
#
# Convention : Reuss Voigt Hill
#
# Bulk Modulus (GPa) = 45.42134 48.77931 47.10032
# Shear Modulus (GPa) = -31.18183 18.98397 -6.09893
#
# Velocity S-wave (km/s) = -4.42829 3.45525 -1.95845
# Velocity P-wave (km/s) = 1.55512 6.82604 4.95042
#
# Compressibility (1/GPa) = 0.02201609
#
# Stress axis : x y z
#
# Youngs Moduli (GPa) = 46.31045 75.10801 38.30383
#
# Poissons Ratio (x) = 0.17420 0.46739
# Poissons Ratio (y) = 0.10741 0.19066
# Poissons Ratio (z) = 0.56509 0.37386
#
# Static dielectric constant tensor:
#      x y z
#    x 1.545640 0.000000 0.010040 
#    y 0.000000 1.565630 0.000000 
#    z 0.010040 0.000000 1.546880 
# 
# From -- ./inp_files/184576.got.cif
#   From: 2010.05.17/outbox.cif.g08.bks.cpg/sg12_93_cif.got.tgz:184576.got - 2010.06.03 13:09:07.
