data_PCOD9174492
_publ_section_title
;
Structure prediction by ZEFSAII (Michael W. Deem and Ramdas Pophale) SiO2 
 PCOD9174492
Probable space group: C 2/M
;
_chemical_formula_sum "Si O2"
_cell_formula_units_Z 64
_cell_length_a 12.743715
_cell_length_b 14.114590
_cell_length_c 20.776157
_cell_angle_alpha 90.000000
_cell_angle_beta 65.481011
_cell_angle_gamma 90.000000
_cell_volume 3400.061882
_symmetry_space_group_name_H-M "C 2/M"
_symmetry_group_IT_number 12
_symmetry_cell_setting 'monoclinic'
loop_
_space_group_symop_operation_xyz
x,y,z
-x,y,-z
-x,-y,-z
x,-y,z
1/2+x,1/2+y,z
1/2-x,1/2+y,-z
1/2-x,1/2-y,-z
1/2+x,1/2-y,z
loop_
_atom_site_type_symbol
_atom_site_label
_atom_site_fract_x
_atom_site_fract_y
_atom_site_fract_z
Si Si1 0.872458 0.394642 0.502631
Si Si2 0.803525 0.725089 0.724602
Si Si3 0.986548 0.890476 0.895545
Si Si4 0.190672 0.109996 0.940504
Si Si5 0.825592 0.892638 0.339093
Si Si6 0.405072 0.787215 0.841793
Si Si7 0.126240 0.389464 0.741856
Si Si8 0.557387 0.214669 0.632150
O O1 0.857310 0.500000 0.476642
O O2 0.778761 0.387308 0.582655
O O3 0.871449 0.313721 0.448949
O O4 0.000000 0.392509 0.500000
O O5 0.721240 0.642768 0.717873
O O6 0.846877 0.715134 0.786240
O O7 0.733894 0.822247 0.732008
O O8 0.921302 0.716799 0.653719
O O9 0.952932 0.814798 0.850509
O O10 0.105369 0.866178 0.902557
O O11 0.992432 0.000000 0.872441
O O12 0.887807 0.884576 0.975913
O O13 0.303435 0.174510 0.913128
O O14 0.225321 0.000000 0.923221
O O15 0.913752 0.815269 0.343232
O O16 0.867723 0.000000 0.325588
O O17 0.514999 0.856717 0.811423
O O18 0.149921 0.500000 0.742982
O O19 0.089475 0.362553 0.678311
#
# Coordination Sequence:
#
# PCOD9174492 Si02
#       8
#     8   8   8   8   8   8   8   8
#     4  10  18  31  57  84 105 137 176 221 271 315
#     4  10  22  36  51  75 106 140 176 217 264 310
#     4   9  19  35  55  81 111 139 172 215 264 315
#     4   9  18  34  56  81 108 139 175 218 262 309
#     4  10  21  36  55  80 107 137 178 220 265 317
#     4  11  20  34  55  80 105 141 180 217 261 312
#     4  10  22  37  52  74 105 139 177 220 264 313
#     4  10  20  36  56  78 105 139 178 221 265 316
#
# _framework density 18.823187000000001
#
# number of rings (size 3 to 8) (size 9 to 14) (size 15 to 20)
#    0.000    2.125    1.250    3.000    0.000    3.500 
#    0.000    7.500    0.000    0.375    0.000    7.875 
#    0.000    0.000    0.000    0.000    0.000    0.000 
#
# Total GULP energy -178537.906750 kJ/mol
# GULP energy per Si atom -5579.309586 kJ/mol
# Density = 1.878034 g / cm^3
# Si number density = 18.823187 Si / 1000 Ang^3
#
#
#
# Elastic Constant Matrix: (Units=GPa)
#
#
# Indices 1 2 3 4 5 6 
#
# 1 30.3823 -0.2044 -4.6971 0.0000 1.7395 0.0000
# 2 -0.2044 79.7333 5.0878 0.0000 14.6033 0.0000
# 3 -4.6971 5.0878 37.0705 0.0000 1.3580 0.0000
# 4 0.0000 0.0000 0.0000 26.7932 0.0000 -2.8382
# 5 1.7395 14.6033 1.3580 0.0000 25.8574 0.0000
# 6 0.0000 0.0000 0.0000 -2.8382 0.0000 15.4457
#
#
#
# Elastic Compliance Matrix: (Units=1/GPa)
#
#
# Indices 1 2 3 4 5 6 
#
# 1 0.033738 0.000298 0.004332 0.000000 -0.002666 0.000000
# 2 0.000298 0.014091 -0.001607 0.000000 -0.007894 0.000000
# 3 0.004332 -0.001607 0.027776 0.000000 -0.000843 0.000000
# 4 0.000000 0.000000 0.000000 0.038064 0.000000 0.006994
# 5 -0.002666 -0.007894 -0.000843 0.000000 0.043355 0.000000
# 6 0.000000 0.000000 0.000000 0.006994 0.000000 0.066028
#
#
# Mechanical properties :
#
#
# Convention : Reuss Voigt Hill
#
# Bulk Modulus (GPa) = 12.24729 16.39542 14.32135
# Shear Modulus (GPa) = 20.47308 23.41925 21.94616
#
# Velocity S-wave (km/s) = 3.30153 3.53111 3.41825
# Velocity P-wave (km/s) = 4.58848 5.03528 4.81706
#
# Compressibility (1/GPa) = 0.08165070
#
# Stress axis : x y z
#
# Youngs Moduli (GPa) = 29.63998 70.96805 36.00249
#
# Poissons Ratio (x) = -0.02117 -0.15595
# Poissons Ratio (y) = -0.00884 0.05786
# Poissons Ratio (z) = -0.12839 0.11404
#
# Static dielectric constant tensor:
#      x y z
#    x 1.627560 0.000000 -0.018410 
#    y 0.000000 1.635080 0.000000 
#    z -0.018410 0.000000 1.693820 
# 
# From -- ./inp_files/305408.got.cif
#   From: 2010.05.17/outbox.cif.g08.bks.cpg/sg12_153_cif.got.tgz:305408.got - 2010.06.03 13:09:07.
