data_PCOD9174798
_publ_section_title
;
Structure prediction by ZEFSAII (Michael W. Deem and Ramdas Pophale) SiO2 
 PCOD9174798
Probable space group: C 2/M
;
_chemical_formula_sum "Si O2"
_cell_formula_units_Z 56
_cell_length_a 25.711951
_cell_length_b 7.678028
_cell_length_c 15.429204
_cell_angle_alpha 90.000000
_cell_angle_beta 104.019232
_cell_angle_gamma 90.000000
_cell_volume 2955.262010
_symmetry_space_group_name_H-M "C 2/M"
_symmetry_group_IT_number 12
_symmetry_cell_setting 'monoclinic'
loop_
_space_group_symop_operation_xyz
x,y,z
-x,y,-z
-x,-y,-z
x,-y,z
1/2+x,1/2+y,z
1/2-x,1/2+y,-z
1/2-x,1/2-y,-z
1/2+x,1/2-y,z
loop_
_atom_site_type_symbol
_atom_site_label
_atom_site_fract_x
_atom_site_fract_y
_atom_site_fract_z
Si Si1 0.676786 0.705811 0.625156
Si Si2 0.090491 0.298548 0.729781
Si Si3 0.825560 0.294240 0.102720
Si Si4 0.203602 0.708800 0.287157
Si Si5 0.865886 0.288971 0.579466
Si Si6 0.513128 0.786516 0.406795
Si Si7 0.206268 0.792782 0.095005
O O1 0.674589 0.500000 0.643343
O O2 0.630482 0.792627 0.663603
O O3 0.735622 0.774184 0.674006
O O4 0.665416 0.733451 0.519485
O O5 0.079327 0.500000 0.747640
O O6 0.124999 0.219868 0.822561
O O7 0.034041 0.222998 0.675586
O O8 0.824105 0.500000 0.122250
O O9 0.767414 0.222106 0.108725
O O10 0.827520 0.273467 0.000296
O O11 0.206049 0.500000 0.297091
O O12 0.164282 0.773381 0.346503
O O13 0.186318 0.749068 0.182479
O O14 0.866362 0.500000 0.580593
O O15 0.927464 0.230889 0.596140
O O16 0.500000 0.733073 0.500000
O O17 0.512170 0.000000 0.406176
O O18 0.208609 0.000000 0.087039
#
# Coordination Sequence:
#
# PCOD9174798 Si02
#       7
#     8   8   8   8   8   8   8
#     4  11  21  31  46  73 104 134 163 199 244 294
#     4  10  18  32  53  75  99 130 165 202 246 292
#     4   9  18  31  49  74 101 128 159 200 248 295
#     4  10  21  34  49  71 102 135 166 202 244 293
#     4  10  20  35  52  70  97 135 172 205 243 287
#     4   9  16  29  53  76  94 124 169 213 242 277
#     4  10  19  31  51  75 100 129 161 200 248 299
#
# _framework density 18.949249999999999
#
# number of rings (size 3 to 8) (size 9 to 14) (size 15 to 20)
#    0.000    2.143    2.857    1.286    0.000    2.286 
#    0.000    1.429    0.000    0.857    0.000    6.000 
#    0.000    0.000    0.000    0.000    0.000    0.000 
#
# Total GULP energy -156273.001290 kJ/mol
# GULP energy per Si atom -5581.178618 kJ/mol
# Density = 1.890612 g / cm^3
# Si number density = 18.949250 Si / 1000 Ang^3
#
#
#
# Elastic Constant Matrix: (Units=GPa)
#
#
# Indices 1 2 3 4 5 6 
#
# 1 42.9935 -4.0998 29.4191 0.0000 -2.5317 0.0000
# 2 -4.0998 33.7322 -12.8438 0.0000 6.4750 0.0000
# 3 29.4191 -12.8438 144.5851 0.0000 6.1189 0.0000
# 4 0.0000 0.0000 0.0000 11.0214 0.0000 1.0312
# 5 -2.5317 6.4750 6.1189 0.0000 25.1757 0.0000
# 6 0.0000 0.0000 0.0000 1.0312 0.0000 2.8774
#
#
#
# Elastic Compliance Matrix: (Units=1/GPa)
#
#
# Indices 1 2 3 4 5 6 
#
# 1 0.027451 0.000379 -0.005723 0.000000 0.004054 0.000000
# 2 0.000379 0.032670 0.003212 0.000000 -0.009145 0.000000
# 3 -0.005723 0.003212 0.008513 0.000000 -0.003471 0.000000
# 4 0.000000 0.000000 0.000000 0.093880 0.000000 -0.033645
# 5 0.004054 -0.009145 -0.003471 0.000000 0.043324 0.000000
# 6 0.000000 0.000000 0.000000 -0.033645 0.000000 0.359596
#
#
# Mechanical properties :
#
#
# Convention : Reuss Voigt Hill
#
# Bulk Modulus (GPa) = 15.53553 27.36242 21.44897
# Shear Modulus (GPa) = 8.45803 21.73725 15.09764
#
# Velocity S-wave (km/s) = 2.11500 3.39060 2.82572
# Velocity P-wave (km/s) = 3.76571 5.45889 4.68935
#
# Compressibility (1/GPa) = 0.06436860
#
# Stress axis : x y z
#
# Youngs Moduli (GPa) = 36.42918 30.60939 117.46598
#
# Poissons Ratio (x) = -0.01160 0.67230
# Poissons Ratio (y) = -0.01380 -0.37731
# Poissons Ratio (z) = 0.20850 -0.09832
#
# Static dielectric constant tensor:
#      x y z
#    x 1.645430 0.000000 0.020430 
#    y 0.000000 1.705760 0.000000 
#    z 0.020430 0.000000 1.660250 
# 
# From -- ./inp_files/237826.got.cif
#   From: 2010.05.17/outbox.cif.g08.bks.cpg/sg12_119_cif.got.tgz:237826.got - 2010.06.03 13:09:07.
