data_PCOD9174506
_publ_section_title
;
Structure prediction by ZEFSAII (Michael W. Deem and Ramdas Pophale) SiO2 
 PCOD9174506
Probable space group: C 2/M
;
_chemical_formula_sum "Si O2"
_cell_formula_units_Z 48
_cell_length_a 15.002613
_cell_length_b 18.056873
_cell_length_c 21.604163
_cell_angle_alpha 90.000000
_cell_angle_beta 154.447495
_cell_angle_gamma 90.000000
_cell_volume 2524.437643
_symmetry_space_group_name_H-M "C 2/M"
_symmetry_group_IT_number 12
_symmetry_cell_setting 'monoclinic'
loop_
_space_group_symop_operation_xyz
x,y,z
-x,y,-z
-x,-y,-z
x,-y,z
1/2+x,1/2+y,z
1/2-x,1/2+y,-z
1/2-x,1/2-y,-z
1/2+x,1/2-y,z
loop_
_atom_site_type_symbol
_atom_site_label
_atom_site_fract_x
_atom_site_fract_y
_atom_site_fract_z
Si Si1 0.959393 0.212126 0.879430
Si Si2 0.284653 0.915147 0.332069
Si Si3 0.801548 0.360359 0.839497
Si Si4 0.773240 0.086335 0.344535
Si Si5 0.881750 0.330395 0.114222
Si Si6 0.874172 0.914268 0.154061
O O1 0.800382 0.145608 0.769325
O O2 0.859640 0.276397 0.857839
O O3 0.021034 0.255292 0.853825
O O4 0.190853 0.183407 0.041146
O O5 0.500000 0.895835 0.500000
O O6 0.101545 0.914776 0.267752
O O7 0.300791 0.000000 0.318015
O O8 0.760732 0.401586 0.750021
O O9 0.629170 0.370665 0.783458
O O10 0.000000 0.391839 0.000000
O O11 0.582114 0.124155 0.260019
O O12 0.000000 0.118436 0.500000
O O13 0.773930 0.000000 0.360022
O O14 0.777516 0.375811 0.991352
O O15 0.812753 0.000000 0.124590
#
# Coordination Sequence:
#
# PCOD9174506 Si02
#       6
#     8   8   8   8   8   8
#     4   9  18  31  50  77 109 139 179 224 268 328
#     4   9  19  36  58  80 106 144 189 233 271 322
#     4  11  20  33  55  84 114 143 175 230 282 325
#     4  10  20  32  50  79 117 151 181 223 277 331
#     4   9  17  31  51  75 108 149 179 220 266 326
#     4  10  18  31  57  89 109 135 186 236 275 314
#
# _framework density 19.014136000000001
#
# number of rings (size 3 to 8) (size 9 to 14) (size 15 to 20)
#    0.000    2.333    3.333    1.000    0.000    4.000 
#    0.000    0.833    3.667    0.500    0.000    0.000 
#    0.000    0.000    0.000    0.000    0.000    0.167 
#
# Total GULP energy -133659.506406 kJ/mol
# GULP energy per Si atom -5569.146100 kJ/mol
# Density = 1.897086 g / cm^3
# Si number density = 19.014136 Si / 1000 Ang^3
#
#
#
# Elastic Constant Matrix: (Units=GPa)
#
#
# Indices 1 2 3 4 5 6 
#
# 1 24.0859 12.4216 -7.2291 0.0184 4.6401 -0.0009
# 2 12.4216 89.9528 36.4405 0.0135 15.2946 0.0026
# 3 -7.2291 36.4405 107.4521 0.0080 13.3533 0.0050
# 4 0.0184 0.0135 0.0080 22.5230 0.0081 4.4082
# 5 4.6401 15.2946 13.3533 0.0081 16.5350 -0.0022
# 6 -0.0009 0.0026 0.0050 4.4082 -0.0022 29.6029
#
#
#
# Elastic Compliance Matrix: (Units=1/GPa)
#
#
# Indices 1 2 3 4 5 6 
#
# 1 0.050387 -0.007843 0.007676 -0.000035 -0.013084 0.000005
# 2 -0.007843 0.015547 -0.004765 0.000002 -0.008332 -0.000002
# 3 0.007676 -0.004765 0.012404 -0.000005 -0.007764 -0.000001
# 4 -0.000035 0.000002 -0.000005 0.045732 -0.000012 -0.006810
# 5 -0.013084 -0.008332 -0.007764 -0.000012 0.078126 0.000009
# 6 0.000005 -0.000002 -0.000001 -0.006810 0.000009 0.034795
#
#
# Mechanical properties :
#
#
# Convention : Reuss Voigt Hill
#
# Bulk Modulus (GPa) = 14.60412 33.86186 24.23299
# Shear Modulus (GPa) = 18.54061 25.72268 22.13165
#
# Velocity S-wave (km/s) = 3.12604 3.68206 3.41538
# Velocity P-wave (km/s) = 4.55267 5.99368 5.32217
#
# Compressibility (1/GPa) = 0.06847384
#
# Stress axis : x y z
#
# Youngs Moduli (GPa) = 19.84638 64.32192 80.62228
#
# Poissons Ratio (x) = 0.50446 -0.61883
# Poissons Ratio (y) = 0.15565 0.38414
# Poissons Ratio (z) = -0.15233 0.30647
#
# Static dielectric constant tensor:
#      x y z
#    x 1.715020 0.000000 0.036090 
#    y 0.000000 1.713120 -0.000010 
#    z 0.036090 -0.000010 1.699080 
# 
# From -- ./inp_files/364388.got.cif
#   From: 2010.05.17/outbox.cif.g08.bks.cpg/sg12_183_cif.got.tgz:364388.got - 2010.06.03 13:09:07.
