data_PCOD9174143
_publ_section_title
;
Structure prediction by ZEFSAII (Michael W. Deem and Ramdas Pophale) SiO2 
 PCOD9174143
Probable space group: C 2/M
;
_chemical_formula_sum "Si O2"
_cell_formula_units_Z 64
_cell_length_a 16.659969
_cell_length_b 16.680357
_cell_length_c 9.621063
_cell_angle_alpha 90.000000
_cell_angle_beta 86.135773
_cell_angle_gamma 90.000000
_cell_volume 2667.559518
_symmetry_space_group_name_H-M "C 2/M"
_symmetry_group_IT_number 12
_symmetry_cell_setting 'monoclinic'
loop_
_space_group_symop_operation_xyz
x,y,z
-x,y,-z
-x,-y,-z
x,-y,z
1/2+x,1/2+y,z
1/2-x,1/2+y,-z
1/2-x,1/2-y,-z
1/2+x,1/2-y,z
loop_
_atom_site_type_symbol
_atom_site_label
_atom_site_fract_x
_atom_site_fract_y
_atom_site_fract_z
Si Si1 0.295522 0.361932 0.767940
Si Si2 0.694163 0.583389 0.523985
Si Si3 0.958082 0.735838 0.364673
Si Si4 0.161720 0.137730 0.931633
Si Si5 0.330711 0.202747 0.597138
Si Si6 0.151930 0.594534 0.162845
Si Si7 0.464190 0.589096 0.276373
Si Si8 0.623958 0.824413 0.883737
O O1 0.318881 0.415852 0.637675
O O2 0.311373 0.273165 0.707453
O O3 0.200981 0.369623 0.810970
O O4 0.341403 0.378545 0.904611
O O5 0.733720 0.500000 0.565189
O O6 0.753942 0.653496 0.556251
O O7 0.608095 0.586577 0.603984
O O8 0.870869 0.737825 0.452033
O O9 0.997878 0.821682 0.313051
O O10 0.943604 0.685416 0.226736
O O11 0.000000 0.705197 0.500000
O O12 0.250413 0.110416 0.868269
O O13 0.086606 0.099283 0.860245
O O14 0.153233 0.233211 0.910366
O O15 0.375184 0.138896 0.693150
O O16 0.138567 0.500000 0.167208
O O17 0.109371 0.633932 0.032948
O O18 0.503415 0.500000 0.275170
#
# Coordination Sequence:
#
# PCOD9174143 Si02
#       8
#     8   8   8   8   8   8   8   8
#     4  11  18  31  56  83 111 150 170 218 281 342
#     4  11  21  31  50  85 118 143 172 217 287 347
#     4  11  24  40  60  78 103 154 205 238 272 315
#     4  10  18  31  52  85 119 146 173 205 275 360
#     4  12  19  36  55  80 116 146 187 233 274 333
#     4  11  20  32  57  88 116 146 179 222 286 349
#     4  10  20  35  58  87 118 143 176 227 279 342
#     4  10  19  36  54  80 116 141 185 226 275 332
#
# _framework density 23.991966000000001
#
# number of rings (size 3 to 8) (size 9 to 14) (size 15 to 20)
#    0.000    1.250    6.250    2.625    0.000    2.750 
#    0.000    0.625    0.000    4.125    0.000    0.875 
#    0.000    0.000    0.000    0.000    0.000    0.000 
#
# Total GULP energy -178678.447942 kJ/mol
# GULP energy per Si atom -5583.701498 kJ/mol
# Density = 2.393736 g / cm^3
# Si number density = 23.991966 Si / 1000 Ang^3
#
#
#
# Elastic Constant Matrix: (Units=GPa)
#
#
# Indices 1 2 3 4 5 6 
#
# 1 40.6738 10.5748 23.4049 0.0000 16.0809 0.0000
# 2 10.5748 113.6552 32.6190 0.0000 2.2285 0.0000
# 3 23.4049 32.6190 156.1894 0.0000 30.1985 0.0000
# 4 0.0000 0.0000 0.0000 -53.4925 0.0000 9.4103
# 5 16.0809 2.2285 30.1985 0.0000 29.4984 0.0000
# 6 0.0000 0.0000 0.0000 9.4103 0.0000 -2.0436
#
#
#
# Elastic Compliance Matrix: (Units=1/GPa)
#
#
# Indices 1 2 3 4 5 6 
#
# 1 0.032292 -0.002336 -0.001224 0.000000 -0.016175 0.000000
# 2 -0.002336 0.009591 -0.002193 0.000000 0.002794 0.000000
# 3 -0.001224 -0.002193 0.008581 0.000000 -0.007952 0.000000
# 4 0.000000 0.000000 0.000000 -0.098434 0.000000 -0.453278
# 5 -0.016175 0.002794 -0.007952 0.000000 0.050648 0.000000
# 6 0.000000 0.000000 0.000000 -0.453278 0.000000 -2.576634
#
#
# Mechanical properties :
#
#
# Convention : Reuss Voigt Hill
#
# Bulk Modulus (GPa) = 25.66857 49.30173 37.48515
# Shear Modulus (GPa) = -1.96120 11.05377 4.54629
#
# Velocity S-wave (km/s) = -0.90510 2.14879 1.37805
# Velocity P-wave (km/s) = 3.10319 5.17206 4.26497
#
# Compressibility (1/GPa) = 0.03895815
#
# Stress axis : x y z
#
# Youngs Moduli (GPa) = 30.96713 104.26951 116.53103
#
# Poissons Ratio (x) = 0.24359 0.14261
# Poissons Ratio (y) = 0.07234 0.25556
# Poissons Ratio (z) = 0.03790 0.22867
#
# Static dielectric constant tensor:
#      x y z
#    x 2.127340 0.000000 0.017740 
#    y 0.000000 1.947840 0.000000 
#    z 0.017740 0.000000 1.929830 
# 
# From -- ./inp_files/97755.got.cif
#   From: 2010.05.17/outbox.cif.g08.bks.cpg/sg12_49_cif.got.tgz:97755.got - 2010.06.03 13:09:07.
