data_PCOD9174182
_publ_section_title
;
Structure prediction by ZEFSAII (Michael W. Deem and Ramdas Pophale) SiO2 
 PCOD9174182
Probable space group: C 2/M
;
_chemical_formula_sum "Si O2"
_cell_formula_units_Z 64
_cell_length_a 14.273134
_cell_length_b 13.924176
_cell_length_c 22.570316
_cell_angle_alpha 90.000000
_cell_angle_beta 46.721375
_cell_angle_gamma 90.000000
_cell_volume 3265.689607
_symmetry_space_group_name_H-M "C 2/M"
_symmetry_group_IT_number 12
_symmetry_cell_setting 'monoclinic'
loop_
_space_group_symop_operation_xyz
x,y,z
-x,y,-z
-x,-y,-z
x,-y,z
1/2+x,1/2+y,z
1/2-x,1/2+y,-z
1/2-x,1/2-y,-z
1/2+x,1/2-y,z
loop_
_atom_site_type_symbol
_atom_site_label
_atom_site_fract_x
_atom_site_fract_y
_atom_site_fract_z
Si Si1 0.832225 0.387707 0.624378
Si Si2 0.532885 0.750946 0.593907
Si Si3 0.202811 0.114579 0.307269
Si Si4 0.476217 0.887299 0.138581
Si Si5 0.753320 0.286343 0.410322
Si Si6 0.795585 0.614352 0.880930
Si Si7 0.835101 0.112514 0.184751
Si Si8 0.565087 0.284848 0.034734
O O1 0.847505 0.500000 0.604314
O O2 0.766899 0.323687 0.602192
O O3 0.741164 0.376483 0.721511
O O4 0.964305 0.335289 0.586070
O O5 0.420890 0.675803 0.658328
O O6 0.637979 0.697871 0.507032
O O7 0.611422 0.793840 0.614904
O O8 0.327850 0.139143 0.213524
O O9 0.235018 0.148111 0.360522
O O10 0.182810 0.000000 0.313838
O O11 0.557589 0.870159 0.163611
O O12 0.546467 0.826145 0.057804
O O13 0.482015 0.000000 0.123251
O O14 0.769503 0.500000 0.898754
O O15 0.754938 0.642523 0.831980
O O16 0.706432 0.673121 0.965398
O O17 0.972258 0.164589 0.122653
O O18 0.861126 0.000000 0.164879
O O19 0.500000 0.307895 0.000000
#
# Coordination Sequence:
#
# PCOD9174182 Si02
#       8
#     8   8   8   8   8   8   8   8
#     4  10  20  35  57  82 113 147 179 223 280 332
#     4  10  22  38  56  82 114 144 183 229 276 328
#     4  10  21  38  60  81 109 150 189 228 275 328
#     4  10  21  35  51  75 107 141 181 225 265 317
#     4  10  22  38  56  83 113 144 182 232 276 325
#     4   9  18  32  52  78 106 134 175 228 273 319
#     4   9  18  32  52  79 107 134 172 224 272 320
#     4  10  18  31  53  77 102 142 180 215 272 327
#
# _framework density 19.597698000000001
#
# number of rings (size 3 to 8) (size 9 to 14) (size 15 to 20)
#    0.000    2.250    0.000    3.750    1.750    4.750 
#    0.000    2.500    0.000    0.000    0.000    0.000 
#    0.000    0.000    0.000    0.000    0.000    0.000 
#
# Total GULP energy -178540.808883 kJ/mol
# GULP energy per Si atom -5579.400278 kJ/mol
# Density = 1.955309 g / cm^3
# Si number density = 19.597698 Si / 1000 Ang^3
#
#
#
# Elastic Constant Matrix: (Units=GPa)
#
#
# Indices 1 2 3 4 5 6 
#
# 1 51.3726 5.3296 11.6864 0.0000 -20.2277 0.0000
# 2 5.3296 58.4720 18.1953 0.0000 -14.1069 0.0000
# 3 11.6864 18.1953 65.0313 0.0000 -17.0673 0.0000
# 4 0.0000 0.0000 0.0000 26.1133 0.0000 4.5303
# 5 -20.2277 -14.1069 -17.0673 0.0000 22.9391 0.0000
# 6 0.0000 0.0000 0.0000 4.5303 0.0000 16.6968
#
#
#
# Elastic Compliance Matrix: (Units=1/GPa)
#
#
# Indices 1 2 3 4 5 6 
#
# 1 0.030845 0.004193 0.001366 0.000000 0.030793 0.000000
# 2 0.004193 0.021119 -0.002838 0.000000 0.014574 0.000000
# 3 0.001366 -0.002838 0.019614 0.000000 0.014052 0.000000
# 4 0.000000 0.000000 0.000000 0.040186 0.000000 -0.010904
# 5 0.030793 0.014574 0.014052 0.000000 0.090165 0.000000
# 6 0.000000 0.000000 0.000000 -0.010904 0.000000 0.062850
#
#
# Mechanical properties :
#
#
# Convention : Reuss Voigt Hill
#
# Bulk Modulus (GPa) = 12.98380 27.25538 20.11959
# Shear Modulus (GPa) = 17.54322 22.46081 20.00201
#
# Velocity S-wave (km/s) = 2.99518 3.38907 3.19820
# Velocity P-wave (km/s) = 4.31289 5.40852 4.89148
#
# Compressibility (1/GPa) = 0.07701908
#
# Stress axis : x y z
#
# Youngs Moduli (GPa) = 32.42041 47.35061 50.98469
#
# Poissons Ratio (x) = -0.19853 -0.06962
# Poissons Ratio (y) = -0.13593 0.14468
# Poissons Ratio (z) = -0.04427 0.13436
#
# Static dielectric constant tensor:
#      x y z
#    x 1.691100 0.000000 -0.006940 
#    y 0.000000 1.696740 0.000000 
#    z -0.006940 0.000000 1.701930 
# 
# From -- ./inp_files/340130.got.cif
#   From: 2010.05.17/outbox.cif.g08.bks.cpg/sg12_171_cif.got.tgz:340130.got - 2010.06.03 13:09:07.
