data_PCOD9174356
_publ_section_title
;
Structure prediction by ZEFSAII (Michael W. Deem and Ramdas Pophale) SiO2 
 PCOD9174356
Probable space group: C 2/M
;
_chemical_formula_sum "Si O2"
_cell_formula_units_Z 56
_cell_length_a 18.289114
_cell_length_b 8.711739
_cell_length_c 29.466633
_cell_angle_alpha 90.000000
_cell_angle_beta 141.004816
_cell_angle_gamma 90.000000
_cell_volume 2954.301107
_symmetry_space_group_name_H-M "C 2/M"
_symmetry_group_IT_number 12
_symmetry_cell_setting 'monoclinic'
loop_
_space_group_symop_operation_xyz
x,y,z
-x,y,-z
-x,-y,-z
x,-y,z
1/2+x,1/2+y,z
1/2-x,1/2+y,-z
1/2-x,1/2-y,-z
1/2+x,1/2-y,z
loop_
_atom_site_type_symbol
_atom_site_label
_atom_site_fract_x
_atom_site_fract_y
_atom_site_fract_z
Si Si1 0.789249 0.683973 0.567197
Si Si2 0.940422 0.316998 0.285291
Si Si3 0.983342 0.316436 0.851739
Si Si4 0.288182 0.683212 0.292596
Si Si5 0.645740 0.317170 0.850592
Si Si6 0.135317 0.316419 0.574161
Si Si7 0.332415 0.683437 0.999728
O O1 0.776810 0.500000 0.561021
O O2 0.750000 0.750000 0.500000
O O3 0.711059 0.754786 0.569069
O O4 0.924195 0.720615 0.641617
O O5 0.931055 0.500000 0.274254
O O6 0.867756 0.265538 0.293890
O O7 0.892222 0.233197 0.217559
O O8 0.000472 0.500000 0.860158
O O9 0.847362 0.282870 0.781981
O O10 0.051780 0.248118 0.841377
O O11 0.041954 0.245601 0.925065
O O12 0.304070 0.500000 0.297055
O O13 0.322624 0.739648 0.359100
O O14 0.650288 0.500000 0.857134
O O15 0.770605 0.246836 0.924980
O O16 0.147791 0.500000 0.583744
O O17 0.000000 0.281516 0.500000
O O18 0.330406 0.500000 0.999333
O O19 0.250000 0.750000 0.000000
#
# Coordination Sequence:
#
# PCOD9174356 Si02
#       7
#     8   8   8   8   8   8   8
#     4  11  24  41  63  90 119 153 192 237 287 339
#     4  11  24  41  59  83 117 153 192 239 288 340
#     4  10  20  36  57  84 117 149 189 239 288 341
#     4  11  24  40  60  86 116 153 194 238 288 341
#     4  11  21  35  58  86 115 150 193 238 287 342
#     4  11  24  41  62  89 120 154 192 236 285 338
#     4  10  18  31  54  83 114 149 190 235 286 341
#
# _framework density 18.955413
#
# number of rings (size 3 to 8) (size 9 to 14) (size 15 to 20)
#    0.000    1.286    0.000    8.143    0.000   12.571 
#    0.000    0.714    0.000    4.286    0.000    0.000 
#    0.000    0.000    0.000    0.000    0.000    0.000 
#
# Total GULP energy -156570.245175 kJ/mol
# GULP energy per Si atom -5591.794471 kJ/mol
# Density = 1.891227 g / cm^3
# Si number density = 18.955413 Si / 1000 Ang^3
#
#
#
# Elastic Constant Matrix: (Units=GPa)
#
#
# Indices 1 2 3 4 5 6 
#
# 1 99.8328 43.6902 53.7410 0.0000 1.6591 0.0000
# 2 43.6902 109.2135 77.2300 0.0000 12.8031 0.0001
# 3 53.7410 77.2300 157.3274 0.0000 3.7464 0.0000
# 4 0.0000 0.0000 0.0000 40.0090 0.0000 -3.0903
# 5 1.6591 12.8031 3.7464 0.0000 27.9486 0.0000
# 6 0.0000 0.0001 0.0000 -3.0903 0.0000 31.8959
#
#
#
# Elastic Compliance Matrix: (Units=1/GPa)
#
#
# Indices 1 2 3 4 5 6 
#
# 1 0.012974 -0.003324 -0.002827 0.000000 0.001131 0.000000
# 2 -0.003324 0.015780 -0.006464 0.000000 -0.006165 0.000000
# 3 -0.002827 -0.006464 0.010454 0.000000 0.001728 0.000000
# 4 0.000000 0.000000 0.000000 0.025183 0.000000 0.002440
# 5 0.001131 -0.006165 0.001728 0.000000 0.038305 0.000000
# 6 0.000000 0.000000 0.000000 0.002440 0.000000 0.031588
#
#
# Mechanical properties :
#
#
# Convention : Reuss Voigt Hill
#
# Bulk Modulus (GPa) = 71.53994 79.52179 75.53087
# Shear Modulus (GPa) = 30.45556 32.75152 31.60354
#
# Velocity S-wave (km/s) = 4.01271 4.16121 4.08764
# Velocity P-wave (km/s) = 7.70014 8.07036 7.88742
#
# Compressibility (1/GPa) = 0.01397821
#
# Stress axis : x y z
#
# Youngs Moduli (GPa) = 77.07450 63.37290 95.65855
#
# Poissons Ratio (x) = 0.21063 0.27046
# Poissons Ratio (y) = 0.25617 0.61833
# Poissons Ratio (z) = 0.21791 0.40964
#
# Static dielectric constant tensor:
#      x y z
#    x 1.628490 0.000000 0.011060 
#    y 0.000000 1.634900 0.000000 
#    z 0.011060 0.000000 1.665240 
# 
# From -- ./inp_files/363115.got.cif
#   From: 2010.05.17/outbox.cif.g08.bks.cpg/sg12_182_cif.got.tgz:363115.got - 2010.06.03 13:09:07.
