data_PCOD9174796
_publ_section_title
;
Structure prediction by ZEFSAII (Michael W. Deem and Ramdas Pophale) SiO2 
 PCOD9174796
Probable space group: C 2/M
;
_chemical_formula_sum "Si O2"
_cell_formula_units_Z 64
_cell_length_a 21.229554
_cell_length_b 8.280039
_cell_length_c 22.614870
_cell_angle_alpha 90.000000
_cell_angle_beta 117.997780
_cell_angle_gamma 90.000000
_cell_volume 3510.033182
_symmetry_space_group_name_H-M "C 2/M"
_symmetry_group_IT_number 12
_symmetry_cell_setting 'monoclinic'
loop_
_space_group_symop_operation_xyz
x,y,z
-x,y,-z
-x,-y,-z
x,-y,z
1/2+x,1/2+y,z
1/2-x,1/2+y,-z
1/2-x,1/2-y,-z
1/2+x,1/2-y,z
loop_
_atom_site_type_symbol
_atom_site_label
_atom_site_fract_x
_atom_site_fract_y
_atom_site_fract_z
Si Si1 0.831636 0.695359 0.039045
Si Si2 0.081351 0.693597 0.674569
Si Si3 0.704937 0.695254 0.536224
Si Si4 0.581432 0.194681 0.036925
Si Si5 0.300429 0.692438 0.825658
Si Si6 0.726068 0.307038 0.677048
Si Si7 0.458685 0.305197 0.540589
Si Si8 0.654662 0.803386 0.824325
O O1 0.833247 0.500000 0.038677
O O2 0.860155 0.750186 0.115670
O O3 0.750000 0.750000 0.000000
O O4 0.876006 0.754616 0.002281
O O5 0.084754 0.500000 0.673717
O O6 0.146304 0.760074 0.663193
O O7 0.099213 0.746425 0.749338
O O8 0.006337 0.751525 0.616630
O O9 0.704214 0.500000 0.536984
O O10 0.750000 0.750000 0.500000
O O11 0.734962 0.749588 0.613366
O O12 0.622801 0.751277 0.494657
O O13 0.627178 0.240942 0.114598
O O14 0.579619 0.000000 0.033377
O O15 0.500000 0.253255 0.000000
O O16 0.302181 0.500000 0.830230
O O17 0.280376 0.739469 0.749906
O O18 0.233076 0.750024 0.836214
O O19 0.731411 0.500000 0.680515
O O20 0.500000 0.247744 0.500000
O O21 0.457716 0.500000 0.538322
O O22 0.655877 0.000000 0.825164
#
# Coordination Sequence:
#
# PCOD9174796 Si02
#       8
#     8   8   8   8   8   8   8   8
#     4  10  18  32  53  75 102 136 175 221 264 313
#     4  10  19  31  51  82 111 138 178 229 276 322
#     4  10  22  38  57  80 110 147 182 224 272 325
#     4  10  21  35  52  78 110 146 184 219 267 329
#     4  10  19  33  54  80 107 137 179 229 273 318
#     4  10  19  35  56  79 108 145 183 219 270 329
#     4  10  19  36  56  77 108 143 180 223 274 323
#     4   8  16  30  48  74 106 133 167 218 271 311
#
# _framework density 18.233445
#
# number of rings (size 3 to 8) (size 9 to 14) (size 15 to 20)
#    0.000    2.250    2.500    1.875    0.000    2.000 
#    0.000    1.875    0.000    3.000    0.000    0.000 
#    0.000    0.000    0.000    0.000    0.000    0.000 
#
# Total GULP energy -178497.826429 kJ/mol
# GULP energy per Si atom -5578.057076 kJ/mol
# Density = 1.819195 g / cm^3
# Si number density = 18.233445 Si / 1000 Ang^3
#
#
#
# Elastic Constant Matrix: (Units=GPa)
#
#
# Indices 1 2 3 4 5 6 
#
# 1 112.6460 11.8785 80.6600 0.0000 2.3175 0.0000
# 2 11.8785 9.1858 6.1971 0.0000 1.0846 0.0000
# 3 80.6600 6.1971 167.7867 0.0000 2.0641 0.0000
# 4 0.0000 0.0000 0.0000 22.6924 0.0000 2.8231
# 5 2.3175 1.0846 2.0641 0.0000 30.7030 0.0000
# 6 0.0000 0.0000 0.0000 2.8231 0.0000 19.6644
#
#
#
# Elastic Compliance Matrix: (Units=1/GPa)
#
#
# Indices 1 2 3 4 5 6 
#
# 1 0.015379 -0.015262 -0.006827 0.000000 -0.000163 0.000000
# 2 -0.015262 0.127206 0.002682 0.000000 -0.003522 0.000000
# 3 -0.006827 0.002682 0.009145 0.000000 -0.000194 0.000000
# 4 0.000000 0.000000 0.000000 0.044869 0.000000 -0.006442
# 5 -0.000163 -0.003522 -0.000194 0.000000 0.032720 0.000000
# 6 0.000000 0.000000 0.000000 -0.006442 0.000000 0.051778
#
#
# Mechanical properties :
#
#
# Convention : Reuss Voigt Hill
#
# Bulk Modulus (GPa) = 8.85617 54.12108 31.48862
# Shear Modulus (GPa) = 13.98407 27.33750 20.66079
#
# Velocity S-wave (km/s) = 2.77238 3.87629 3.36985
# Velocity P-wave (km/s) = 3.88790 7.05556 5.69634
#
# Compressibility (1/GPa) = 0.11291559
#
# Stress axis : x y z
#
# Youngs Moduli (GPa) = 65.02475 7.86128 109.34469
#
# Poissons Ratio (x) = 0.11998 0.74653
# Poissons Ratio (y) = 0.99238 -0.29324
# Poissons Ratio (z) = 0.44395 -0.02108
#
# Static dielectric constant tensor:
#      x y z
#    x 1.602490 0.000000 -0.010790 
#    y 0.000000 1.634550 0.000000 
#    z -0.010790 0.000000 1.650610 
# 
# From -- ./inp_files/319995.got.cif
#   From: 2010.05.17/outbox.cif.g08.bks.cpg/sg12_160_cif.got.tgz:319995.got - 2010.06.03 13:09:07.
