data_PCOD9174131
_publ_section_title
;
Structure prediction by ZEFSAII (Michael W. Deem and Ramdas Pophale) SiO2 
 PCOD9174131
Probable space group: C 2/M
;
_chemical_formula_sum "Si O2"
_cell_formula_units_Z 56
_cell_length_a 22.508811
_cell_length_b 17.807718
_cell_length_c 9.537344
_cell_angle_alpha 90.000000
_cell_angle_beta 120.410718
_cell_angle_gamma 90.000000
_cell_volume 3296.906145
_symmetry_space_group_name_H-M "C 2/M"
_symmetry_group_IT_number 12
_symmetry_cell_setting 'monoclinic'
loop_
_space_group_symop_operation_xyz
x,y,z
-x,y,-z
-x,-y,-z
x,-y,z
1/2+x,1/2+y,z
1/2-x,1/2+y,-z
1/2-x,1/2-y,-z
1/2+x,1/2-y,z
loop_
_atom_site_type_symbol
_atom_site_label
_atom_site_fract_x
_atom_site_fract_y
_atom_site_fract_z
Si Si1 0.684090 0.239874 0.248039
Si Si2 0.004662 0.911566 0.174561
Si Si3 0.726851 0.085717 0.912938
Si Si4 0.331353 0.770371 0.274601
Si Si5 0.634624 0.668727 0.950732
Si Si6 0.264501 0.913306 0.737861
Si Si7 0.363596 0.671451 0.542286
O O1 0.756546 0.255397 0.255536
O O2 0.684239 0.149924 0.263865
O O3 0.676771 0.286013 0.381415
O O4 0.628858 0.275233 0.075812
O O5 0.071261 0.870353 0.315827
O O6 0.935835 0.874957 0.155442
O O7 0.007856 0.000000 0.209615
O O8 0.000000 0.903468 0.000000
O O9 0.672938 0.144142 0.781462
O O10 0.712361 0.000000 0.859023
O O11 0.802998 0.109977 0.951383
O O12 0.729175 0.092395 0.085350
O O13 0.341924 0.719444 0.151181
O O14 0.382096 0.736580 0.452045
O O15 0.188540 0.887252 0.595075
O O16 0.276874 0.000000 0.713514
#
# Coordination Sequence:
#
# PCOD9174131 Si02
#       7
#     8   8   8   8   8   8   8
#     4  10  18  34  54  76 104 144 178 219 273 323
#     4  11  24  39  53  78 112 152 188 216 257 321
#     4  10  18  31  53  82 109 136 168 221 279 316
#     4  10  19  34  54  80 105 136 184 223 267 325
#     4  11  18  36  55  75 109 146 183 216 258 327
#     4  10  18  31  52  82 110 134 171 223 273 316
#     4  11  21  36  53  76 110 147 179 218 263 319
#
# _framework density 16.985621999999999
#
# number of rings (size 3 to 8) (size 9 to 14) (size 15 to 20)
#    0.000    1.571    5.714    3.429    0.000    0.571 
#    0.000    5.000    0.000    0.000    0.000    6.000 
#    0.000    0.000    0.000    0.000    0.000    0.000 
#
# Total GULP energy -156008.836290 kJ/mol
# GULP energy per Si atom -5571.744153 kJ/mol
# Density = 1.694696 g / cm^3
# Si number density = 16.985622 Si / 1000 Ang^3
#
#
#
# Elastic Constant Matrix: (Units=GPa)
#
#
# Indices 1 2 3 4 5 6 
#
# 1 32.2855 38.5604 18.8362 0.0000 2.0237 0.0000
# 2 38.5604 173.0409 65.1698 0.0000 5.9116 0.0000
# 3 18.8362 65.1698 96.1460 0.0000 1.5749 0.0000
# 4 0.0000 0.0000 0.0000 26.5587 0.0000 1.6111
# 5 2.0237 5.9116 1.5749 0.0000 24.7963 0.0000
# 6 0.0000 0.0000 0.0000 1.6111 0.0000 19.0235
#
#
#
# Elastic Compliance Matrix: (Units=1/GPa)
#
#
# Indices 1 2 3 4 5 6 
#
# 1 0.042716 -0.008501 -0.002585 0.000000 -0.001295 0.000000
# 2 -0.008501 0.009509 -0.004759 0.000000 -0.001271 0.000000
# 3 -0.002585 -0.004759 0.014126 0.000000 0.000448 0.000000
# 4 0.000000 0.000000 0.000000 0.037847 0.000000 -0.003205
# 5 -0.001295 -0.001271 0.000448 0.000000 0.040709 0.000000
# 6 0.000000 0.000000 0.000000 -0.003205 0.000000 0.052838
#
#
# Mechanical properties :
#
#
# Convention : Reuss Voigt Hill
#
# Bulk Modulus (GPa) = 28.85136 60.73390 44.79263
# Shear Modulus (GPa) = 20.74777 26.00277 23.37527
#
# Velocity S-wave (km/s) = 3.49877 3.91688 3.71371
# Velocity P-wave (km/s) = 5.77447 7.50264 6.69455
#
# Compressibility (1/GPa) = 0.03466041
#
# Stress axis : x y z
#
# Youngs Moduli (GPa) = 23.41020 105.16165 70.79192
#
# Poissons Ratio (x) = 0.89398 0.18302
# Poissons Ratio (y) = 0.19901 0.33692
# Poissons Ratio (z) = 0.06052 0.50049
#
# Static dielectric constant tensor:
#      x y z
#    x 1.565450 0.000000 -0.011710 
#    y 0.000000 1.602810 0.000000 
#    z -0.011710 0.000000 1.624330 
# 
# From -- ./inp_files/88091.got.cif
#   From: 2010.05.17/outbox.cif.g08.bks.cpg/sg12_45_cif.got.tgz:88091.got - 2010.06.03 13:09:07.
