data_PCOD9174117
_publ_section_title
;
Structure prediction by ZEFSAII (Michael W. Deem and Ramdas Pophale) SiO2 
 PCOD9174117
Probable space group: C 2/M
;
_chemical_formula_sum "Si O2"
_cell_formula_units_Z 40
_cell_length_a 18.789534
_cell_length_b 11.240951
_cell_length_c 8.297413
_cell_angle_alpha 90.000000
_cell_angle_beta 92.786930
_cell_angle_gamma 90.000000
_cell_volume 1750.442332
_symmetry_space_group_name_H-M "C 2/M"
_symmetry_group_IT_number 12
_symmetry_cell_setting 'monoclinic'
loop_
_space_group_symop_operation_xyz
x,y,z
-x,y,-z
-x,-y,-z
x,-y,z
1/2+x,1/2+y,z
1/2-x,1/2+y,-z
1/2-x,1/2-y,-z
1/2+x,1/2-y,z
loop_
_atom_site_type_symbol
_atom_site_label
_atom_site_fract_x
_atom_site_fract_y
_atom_site_fract_z
Si Si1 0.753950 0.000000 0.288881
Si Si2 0.757873 0.758062 0.692917
Si Si3 0.102708 0.000000 0.116002
Si Si4 0.923513 0.249689 0.813220
Si Si5 0.267668 0.000000 0.145986
Si Si6 0.000000 0.196386 0.500000
Si Si7 0.110256 0.000000 0.502829
Si Si8 0.116280 0.500000 0.119704
O O1 0.769532 0.134782 0.229513
O O2 0.807065 0.000000 0.447893
O O3 0.667273 0.000000 0.287832
O O4 0.750000 0.750000 0.500000
O O5 0.841472 0.763682 0.743948
O O6 0.722978 0.878212 0.754080
O O7 0.068687 0.129482 0.079108
O O8 0.100011 0.000000 0.311015
O O9 0.185478 0.000000 0.075951
O O10 0.925959 0.377716 0.896532
O O11 0.972847 0.257294 0.659801
O O12 0.322549 0.000000 0.007371
O O13 0.066546 0.113116 0.560151
#
# Coordination Sequence:
#
# PCOD9174117 Si02
#       8
#     4   8   4   8   4   4   4   4
#     4  10  19  30  49  77 108 130 168 220 252 306
#     4  10  18  31  52  80 106 127 163 217 272 316
#     4   8  15  28  48  72  98 129 168 215 261 305
#     4   9  18  30  48  76 107 139 176 215 254 306
#     4  10  20  33  50  73 110 145 160 199 273 328
#     4   9  16  29  52  78 106 140 182 226 260 292
#     4   9  16  30  52  83 106 127 171 230 278 292
#     4  10  22  34  45  75 112 144 173 202 259 329
#
# _framework density 22.851367
#
# number of rings (size 3 to 8) (size 9 to 14) (size 15 to 20)
#    0.000    2.600    0.000    4.800    0.000    7.600 
#    0.000    0.000    0.000    1.200    0.000   63.000 
#    0.000    0.000    0.000    0.000    0.000    0.000 
#
# Total GULP energy -111422.522908 kJ/mol
# GULP energy per Si atom -5571.126145 kJ/mol
# Density = 2.279936 g / cm^3
# Si number density = 22.851367 Si / 1000 Ang^3
#
#
#
# Elastic Constant Matrix: (Units=GPa)
#
#
# Indices 1 2 3 4 5 6 
#
# 1 66.1557 27.2794 34.4885 0.0000 -0.5421 0.0000
# 2 27.2794 263.6075 54.1568 0.0000 -30.7791 0.0000
# 3 34.4885 54.1568 63.4921 0.0000 -33.3847 0.0000
# 4 0.0000 0.0000 0.0000 -23.7940 0.0000 -66.7158
# 5 -0.5421 -30.7791 -33.3847 0.0000 52.3342 0.0000
# 6 0.0000 0.0000 0.0000 -66.7158 0.0000 -31.7677
#
#
#
# Elastic Compliance Matrix: (Units=1/GPa)
#
#
# Indices 1 2 3 4 5 6 
#
# 1 0.025961 0.000116 -0.021102 0.000000 -0.013124 0.000000
# 2 0.000116 0.004603 -0.003860 0.000000 0.000246 0.000000
# 3 -0.021102 -0.003860 0.043932 0.000000 0.025536 0.000000
# 4 0.000000 0.000000 0.000000 0.008597 0.000000 -0.018055
# 5 -0.013124 0.000246 0.025536 0.000000 0.035406 0.000000
# 6 0.000000 0.000000 0.000000 -0.018055 0.000000 0.006439
#
#
# Mechanical properties :
#
#
# Convention : Reuss Voigt Hill
#
# Bulk Modulus (GPa) = 40.31439 69.45611 54.88525
# Shear Modulus (GPa) = 27.33742 17.84320 22.59031
#
# Velocity S-wave (km/s) = 3.46253 2.79738 3.14757
# Velocity P-wave (km/s) = 5.80222 6.39488 6.10575
#
# Compressibility (1/GPa) = 0.02480504
#
# Stress axis : x y z
#
# Youngs Moduli (GPa) = 38.51901 217.23631 22.76238
#
# Poissons Ratio (x) = -0.02527 0.48033
# Poissons Ratio (y) = -0.00448 0.08787
# Poissons Ratio (z) = 0.81282 0.83860
#
# Static dielectric constant tensor:
#      x y z
#    x 1.840610 0.000000 0.035060 
#    y 0.000000 1.997450 0.000000 
#    z 0.035060 0.000000 1.962120 
# 
# From -- ./inp_files/83547.got.cif
#   From: 2010.05.17/outbox.cif.g08.bks.cpg/sg12_42_cif.got.tgz:83547.got - 2010.06.03 13:09:07.
