data_PCOD9174288
_publ_section_title
;
Structure prediction by ZEFSAII (Michael W. Deem and Ramdas Pophale) SiO2 
 PCOD9174288
Probable space group: C 2/M
;
_chemical_formula_sum "Si O2"
_cell_formula_units_Z 56
_cell_length_a 15.033389
_cell_length_b 13.243855
_cell_length_c 18.141486
_cell_angle_alpha 90.000000
_cell_angle_beta 47.980482
_cell_angle_gamma 90.000000
_cell_volume 2683.393564
_symmetry_space_group_name_H-M "C 2/M"
_symmetry_group_IT_number 12
_symmetry_cell_setting 'monoclinic'
loop_
_space_group_symop_operation_xyz
x,y,z
-x,y,-z
-x,-y,-z
x,-y,z
1/2+x,1/2+y,z
1/2-x,1/2+y,-z
1/2-x,1/2-y,-z
1/2+x,1/2-y,z
loop_
_atom_site_type_symbol
_atom_site_label
_atom_site_fract_x
_atom_site_fract_y
_atom_site_fract_z
Si Si1 0.711984 0.808295 0.637687
Si Si2 0.086008 0.115527 0.380517
Si Si3 0.857582 0.118191 0.415106
Si Si4 0.449165 0.827223 0.819915
Si Si5 0.883721 0.332021 0.028239
Si Si6 0.630425 0.606626 0.133817
Si Si7 0.305560 0.390021 0.076223
O O1 0.800187 0.817885 0.659116
O O2 0.775477 0.862991 0.533370
O O3 0.689666 0.694330 0.621093
O O4 0.583427 0.857725 0.726704
O O5 0.000000 0.115731 0.500000
O O6 0.993403 0.143662 0.367280
O O7 0.126238 0.000000 0.346226
O O8 0.850330 0.000000 0.400942
O O9 0.414758 0.837653 0.924586
O O10 0.441253 0.707195 0.812886
O O11 0.338314 0.877381 0.838284
O O12 0.755604 0.383846 0.107689
O O13 0.864613 0.215995 0.067364
O O14 0.000000 0.377649 0.000000
O O15 0.571205 0.500000 0.182913
O O16 0.663720 0.607553 0.028272
O O17 0.342396 0.500000 0.086930
#
# Coordination Sequence:
#
# PCOD9174288 Si02
#       7
#     8   8   8   8   8   8   8
#     4  10  18  31  54  78 102 137 171 215 268 305
#     4   8  15  31  53  75 100 131 170 211 253 313
#     4   9  19  35  55  78 103 136 177 213 258 322
#     4   9  18  30  46  73  95 125 165 207 245 291
#     4   9  17  30  46  68  99 129 164 199 240 296
#     4   8  15  30  48  63  90 128 159 193 242 291
#     4   8  15  29  47  64  88 126 164 195 235 288
#
# _framework density 20.869095999999999
#
# number of rings (size 3 to 8) (size 9 to 14) (size 15 to 20)
#    0.000    3.286    0.000    3.000    0.000    2.286 
#    5.143    0.000    0.000   11.571    0.000    0.000 
#    0.000    0.000    0.000    0.000    0.000    0.000 
#
# Total GULP energy -156028.348696 kJ/mol
# GULP energy per Si atom -5572.441025 kJ/mol
# Density = 2.082160 g / cm^3
# Si number density = 20.869096 Si / 1000 Ang^3
#
#
#
# Elastic Constant Matrix: (Units=GPa)
#
#
# Indices 1 2 3 4 5 6 
#
# 1 67.4701 29.4854 14.3127 0.0000 -22.7973 0.0000
# 2 29.4854 94.7455 9.9175 0.0000 -5.9814 0.0000
# 3 14.3127 9.9175 88.9259 0.0000 -20.5594 0.0000
# 4 0.0000 0.0000 0.0000 -6.0697 0.0000 -0.1479
# 5 -22.7973 -5.9814 -20.5594 0.0000 30.7534 0.0000
# 6 0.0000 0.0000 0.0000 -0.1479 0.0000 14.4514
#
#
#
# Elastic Compliance Matrix: (Units=1/GPa)
#
#
# Indices 1 2 3 4 5 6 
#
# 1 0.022841 -0.006163 0.000767 0.000000 0.016246 0.000000
# 2 -0.006163 0.012402 -0.001052 0.000000 -0.002860 0.000000
# 3 0.000767 -0.001052 0.013393 0.000000 0.009318 0.000000
# 4 0.000000 0.000000 0.000000 -0.164713 0.000000 -0.001686
# 5 0.016246 -0.002860 0.009318 0.000000 0.050233 0.000000
# 6 0.000000 0.000000 0.000000 -0.001686 0.000000 0.069180
#
#
# Mechanical properties :
#
#
# Convention : Reuss Voigt Hill
#
# Bulk Modulus (GPa) = 27.97965 39.84141 33.91053
# Shear Modulus (GPa) = 177.63691 20.98877 99.31284
#
# Velocity S-wave (km/s) = 9.23604 3.17477 6.90592
# Velocity P-wave (km/s) = 11.27721 5.70714 8.93720
#
# Compressibility (1/GPa) = 0.03574025
#
# Stress axis : x y z
#
# Youngs Moduli (GPa) = 43.78019 80.63105 74.66320
#
# Poissons Ratio (x) = 0.49693 -0.05727
# Poissons Ratio (y) = 0.26982 0.07858
# Poissons Ratio (z) = -0.03358 0.08486
#
# Static dielectric constant tensor:
#      x y z
#    x 1.758710 0.000000 0.009170 
#    y 0.000000 1.761740 0.000000 
#    z 0.009170 0.000000 1.774630 
# 
# From -- ./inp_files/339911.got.cif
#   From: 2010.05.17/outbox.cif.g08.bks.cpg/sg12_170_cif.got.tgz:339911.got - 2010.06.03 13:09:07.
