data_PCOD9174126
_publ_section_title
;
Structure prediction by ZEFSAII (Michael W. Deem and Ramdas Pophale) SiO2 
 PCOD9174126
Probable space group: C 2/M
;
_chemical_formula_sum "Si O2"
_cell_formula_units_Z 40
_cell_length_a 7.382484
_cell_length_b 24.784346
_cell_length_c 15.277530
_cell_angle_alpha 90.000000
_cell_angle_beta 143.315539
_cell_angle_gamma 90.000000
_cell_volume 1669.951749
_symmetry_space_group_name_H-M "C 2/M"
_symmetry_group_IT_number 12
_symmetry_cell_setting 'monoclinic'
loop_
_space_group_symop_operation_xyz
x,y,z
-x,y,-z
-x,-y,-z
x,-y,z
1/2+x,1/2+y,z
1/2-x,1/2+y,-z
1/2-x,1/2-y,-z
1/2+x,1/2-y,z
loop_
_atom_site_type_symbol
_atom_site_label
_atom_site_fract_x
_atom_site_fract_y
_atom_site_fract_z
Si Si1 0.725171 0.212274 0.294265
Si Si2 0.584966 0.060477 0.136268
Si Si3 0.837971 0.329792 0.309563
Si Si4 0.769312 0.834307 0.985858
Si Si5 0.388164 0.608756 0.554748
O O1 0.819294 0.272583 0.350722
O O2 0.526455 0.187895 0.295938
O O3 0.994962 0.170375 0.386496
O O4 0.508173 0.207679 0.124619
O O5 0.926511 0.074129 0.302104
O O6 0.511552 0.000000 0.137874
O O7 0.500000 0.062628 0.000000
O O8 0.381856 0.108377 0.096785
O O9 0.486132 0.342058 0.152655
O O10 0.026871 0.381334 0.415987
O O11 0.000000 0.817952 0.000000
O O12 0.500000 0.591781 0.500000
#
# Coordination Sequence:
#
# PCOD9174126 Si02
#       5
#     8   8   8   8   8
#     4   9  18  31  50  79 115 152 184 218 263 323
#     4  10  22  41  61  81 107 141 185 238 292 339
#     4  10  18  31  52  81 113 145 185 226 264 317
#     4   9  19  35  54  80 114 149 187 226 268 330
#     4   9  19  36  56  81 113 147 185 228 274 331
#
# _framework density 23.952788000000002
#
# number of rings (size 3 to 8) (size 9 to 14) (size 15 to 20)
#    0.000    2.600    0.000    2.400    0.000    4.000 
#    0.000    5.000    0.000    2.400    0.000    0.000 
#    0.000    0.000    0.000    0.000    0.000    0.000 
#
# Total GULP energy -111565.920779 kJ/mol
# GULP energy per Si atom -5578.296039 kJ/mol
# Density = 2.389827 g / cm^3
# Si number density = 23.952788 Si / 1000 Ang^3
#
#
#
# Elastic Constant Matrix: (Units=GPa)
#
#
# Indices 1 2 3 4 5 6 
#
# 1 39.4119 7.9199 10.2363 0.0000 -13.0033 0.0000
# 2 7.9199 93.1755 35.9364 0.0000 -3.5372 0.0000
# 3 10.2363 35.9364 194.2948 0.0000 -2.6248 0.0000
# 4 0.0000 0.0000 0.0000 21.0961 0.0000 -2.1834
# 5 -13.0033 -3.5372 -2.6248 0.0000 28.1339 0.0000
# 6 0.0000 0.0000 0.0000 -2.1834 0.0000 17.2229
#
#
#
# Elastic Compliance Matrix: (Units=1/GPa)
#
#
# Indices 1 2 3 4 5 6 
#
# 1 0.030550 -0.001641 -0.001119 0.000000 0.013809 0.000000
# 2 -0.001641 0.011689 -0.002069 0.000000 0.000518 0.000000
# 3 -0.001119 -0.002069 0.005585 0.000000 -0.000256 0.000000
# 4 0.000000 0.000000 0.000000 0.048032 0.000000 0.006089
# 5 0.013809 0.000518 -0.000256 0.000000 0.041968 0.000000
# 6 0.000000 0.000000 0.000000 0.006089 0.000000 0.058834
#
#
# Mechanical properties :
#
#
# Convention : Reuss Voigt Hill
#
# Bulk Modulus (GPa) = 26.20111 48.34081 37.27096
# Shear Modulus (GPa) = 22.82709 31.47657 27.15183
#
# Velocity S-wave (km/s) = 3.09042 3.62900 3.37049
# Velocity P-wave (km/s) = 4.86792 6.14695 5.54444
#
# Compressibility (1/GPa) = 0.03816632
#
# Stress axis : x y z
#
# Youngs Moduli (GPa) = 32.73369 85.54759 179.05299
#
# Poissons Ratio (x) = 0.14036 0.20044
# Poissons Ratio (y) = 0.05371 0.37039
# Poissons Ratio (z) = 0.03664 0.17696
#
# Static dielectric constant tensor:
#      x y z
#    x 1.960960 0.000000 -0.090190 
#    y 0.000000 1.852430 0.000000 
#    z -0.090190 0.000000 2.152120 
# 
# From -- ./inp_files/39237.got.cif
#   From: 2010.05.17/outbox.cif.g08.bks.cpg/sg12_20_cif.got.tgz:39237.got - 2010.06.03 13:09:07.
