data_PCOD9174449
_publ_section_title
;
Structure prediction by ZEFSAII (Michael W. Deem and Ramdas Pophale) SiO2 
 PCOD9174449
Probable space group: C 2/M
;
_chemical_formula_sum "Si O2"
_cell_formula_units_Z 64
_cell_length_a 29.134781
_cell_length_b 11.719689
_cell_length_c 9.792979
_cell_angle_alpha 90.000000
_cell_angle_beta 86.056789
_cell_angle_gamma 90.000000
_cell_volume 3335.902463
_symmetry_space_group_name_H-M "C 2/M"
_symmetry_group_IT_number 12
_symmetry_cell_setting 'monoclinic'
loop_
_space_group_symop_operation_xyz
x,y,z
-x,y,-z
-x,-y,-z
x,-y,z
1/2+x,1/2+y,z
1/2-x,1/2+y,-z
1/2-x,1/2-y,-z
1/2+x,1/2-y,z
loop_
_atom_site_type_symbol
_atom_site_label
_atom_site_fract_x
_atom_site_fract_y
_atom_site_fract_z
Si Si1 0.358018 0.124881 0.386205
Si Si2 0.791150 0.871923 0.660038
Si Si3 0.053440 0.369708 0.823714
Si Si4 0.872244 0.693396 0.682529
Si Si5 0.628736 0.866864 0.004365
Si Si6 0.026459 0.637182 0.350607
Si Si7 0.779590 0.743982 0.130188
Si Si8 0.810429 0.872626 0.355092
O O1 0.407996 0.126844 0.304073
O O2 0.360478 0.122564 0.549414
O O3 0.338029 0.251819 0.357292
O O4 0.337033 0.000000 0.349200
O O5 0.835997 0.796331 0.681234
O O6 0.748224 0.834065 0.758144
O O7 0.780565 0.867266 0.499926
O O8 0.803191 0.000000 0.692820
O O9 0.041425 0.500000 0.862387
O O10 0.007438 0.323071 0.763965
O O11 0.080899 0.321191 0.948530
O O12 0.867274 0.642262 0.834313
O O13 0.927025 0.709837 0.656993
O O14 0.631058 0.000000 0.966724
O O15 0.671138 0.803525 0.925215
O O16 0.037352 0.500000 0.330323
O O17 0.000000 0.645634 0.500000
O O18 0.784799 0.860061 0.216069
O O19 0.750000 0.750000 0.000000
O O20 0.832943 0.000000 0.355719
#
# Coordination Sequence:
#
# PCOD9174449 Si02
#       8
#     8   8   8   8   8   8   8   8
#     4  10  18  34  61  87 116 158 203 246 299 359
#     4  10  23  43  63  86 121 164 209 259 309 361
#     4   9  18  32  53  83 117 156 194 240 305 365
#     4  11  21  36  57  88 121 160 201 248 305 367
#     4  11  22  36  55  86 124 156 196 251 308 368
#     4  10  18  31  55  88 121 153 196 251 307 363
#     4  12  23  41  60  88 118 159 210 251 310 371
#     4  10  23  41  61  89 123 160 208 257 305 365
#
# _framework density 19.185213000000001
#
# number of rings (size 3 to 8) (size 9 to 14) (size 15 to 20)
#    0.000    1.625    3.750    1.875    0.000    2.000 
#    0.000    3.750    0.000    1.125    0.000    0.875 
#    0.000    0.000    0.000    0.000    0.000    0.000 
#
# Total GULP energy -178157.047587 kJ/mol
# GULP energy per Si atom -5567.407737 kJ/mol
# Density = 1.914155 g / cm^3
# Si number density = 19.185213 Si / 1000 Ang^3
#
#
#
# Elastic Constant Matrix: (Units=GPa)
#
#
# Indices 1 2 3 4 5 6 
#
# 1 74.0618 29.9269 28.3246 0.0000 9.9663 0.0000
# 2 29.9269 86.3355 26.4194 0.0000 8.9986 0.0000
# 3 28.3246 26.4194 116.3145 0.0000 3.0576 0.0000
# 4 0.0000 0.0000 0.0000 5.1368 0.0000 -0.1776
# 5 9.9663 8.9986 3.0576 0.0000 33.9418 0.0000
# 6 0.0000 0.0000 0.0000 -0.1776 0.0000 2.0885
#
#
#
# Elastic Compliance Matrix: (Units=1/GPa)
#
#
# Indices 1 2 3 4 5 6 
#
# 1 0.016979 -0.004604 -0.002997 0.000000 -0.003495 0.000000
# 2 -0.004604 0.014020 -0.002006 0.000000 -0.002184 0.000000
# 3 -0.002997 -0.002006 0.009769 0.000000 0.000532 0.000000
# 4 0.000000 0.000000 0.000000 0.195246 0.000000 0.016604
# 5 -0.003495 -0.002184 0.000532 0.000000 0.031020 0.000000
# 6 0.000000 0.000000 0.000000 0.016604 0.000000 0.480228
#
#
# Mechanical properties :
#
#
# Convention : Reuss Voigt Hill
#
# Bulk Modulus (GPa) = 46.39522 49.56153 47.97838
# Shear Modulus (GPa) = 6.46278 21.03614 13.74946
#
# Velocity S-wave (km/s) = 1.83737 3.31490 2.67997
# Velocity P-wave (km/s) = 5.36065 6.36716 5.88546
#
# Compressibility (1/GPa) = 0.02155394
#
# Stress axis : x y z
#
# Youngs Moduli (GPa) = 58.89551 71.32572 102.36612
#
# Poissons Ratio (x) = 0.32840 0.30680
# Poissons Ratio (y) = 0.27117 0.20534
# Poissons Ratio (z) = 0.17651 0.14307
#
# Static dielectric constant tensor:
#      x y z
#    x 1.718270 0.000000 0.054640 
#    y 0.000000 1.663970 0.000000 
#    z 0.054640 0.000000 1.736490 
# 
# From -- ./inp_files/110501.got.cif
#   From: 2010.05.17/outbox.cif.g08.bks.cpg/sg12_56_cif.got.tgz:110501.got - 2010.06.03 13:09:07.
