data_PCOD9174073
_publ_section_title
;
Structure prediction by ZEFSAII (Michael W. Deem and Ramdas Pophale) SiO2 
 PCOD9174073
Probable space group: C 2/M
;
_chemical_formula_sum "Si O2"
_cell_formula_units_Z 64
_cell_length_a 18.499667
_cell_length_b 18.449165
_cell_length_c 13.932337
_cell_angle_alpha 90.000000
_cell_angle_beta 53.410307
_cell_angle_gamma 90.000000
_cell_volume 3818.030774
_symmetry_space_group_name_H-M "C 2/M"
_symmetry_group_IT_number 12
_symmetry_cell_setting 'monoclinic'
loop_
_space_group_symop_operation_xyz
x,y,z
-x,y,-z
-x,-y,-z
x,-y,z
1/2+x,1/2+y,z
1/2-x,1/2+y,-z
1/2-x,1/2-y,-z
1/2+x,1/2-y,z
loop_
_atom_site_type_symbol
_atom_site_label
_atom_site_fract_x
_atom_site_fract_y
_atom_site_fract_z
Si Si1 0.571722 0.861567 0.101817
Si Si2 0.467297 0.272590 0.738146
Si Si3 0.180899 0.716358 0.291811
Si Si4 0.374393 0.083361 0.296960
Si Si5 0.212615 0.362642 0.823784
Si Si6 0.778443 0.582775 0.871125
Si Si7 0.863726 0.082682 0.848651
Si Si8 0.341635 0.213857 0.464332
O O1 0.559010 0.779920 0.152206
O O2 0.474952 0.898932 0.179706
O O3 0.636510 0.902243 0.126396
O O4 0.623700 0.862505 0.960266
O O5 0.407815 0.242097 0.696381
O O6 0.437498 0.354679 0.780765
O O7 0.571862 0.261899 0.633141
O O8 0.252557 0.780999 0.220236
O O9 0.216244 0.642930 0.215028
O O10 0.161537 0.706390 0.418822
O O11 0.308214 0.101144 0.261152
O O12 0.355067 0.137621 0.399603
O O13 0.367793 0.000000 0.330180
O O14 0.290160 0.403209 0.822956
O O15 0.780832 0.500000 0.834690
O O16 0.691642 0.592286 0.008374
O O17 0.896536 0.000000 0.817276
O O18 0.250000 0.250000 0.500000
#
# Coordination Sequence:
#
# PCOD9174073 Si02
#       8
#     8   8   8   8   8   8   8   8
#     4   9  18  31  50  79 108 138 166 206 260 322
#     4   9  19  34  55  77 102 134 179 215 257 305
#     4  10  19  34  56  76 102 138 178 216 253 304
#     4  11  22  34  50  75 107 138 171 212 260 312
#     4  10  18  31  52  77 108 139 170 205 259 317
#     4   9  17  30  52  82 109 132 165 213 262 310
#     4   9  17  31  53  81 109 132 165 215 264 306
#     4  11  22  39  54  71 100 140 181 218 251 299
#
# _framework density 16.762568999999999
#
# number of rings (size 3 to 8) (size 9 to 14) (size 15 to 20)
#    0.000    2.250    1.250    2.250    0.000    5.500 
#    0.000    0.625    0.000    6.000    0.000    1.750 
#    0.000    0.000    0.000    0.000    0.000    0.000 
#
# Total GULP energy -178540.180069 kJ/mol
# GULP energy per Si atom -5579.380627 kJ/mol
# Density = 1.672442 g / cm^3
# Si number density = 16.762569 Si / 1000 Ang^3
#
#
#
# Elastic Constant Matrix: (Units=GPa)
#
#
# Indices 1 2 3 4 5 6 
#
# 1 40.1535 43.5915 28.2847 0.0000 -8.6454 0.0000
# 2 43.5915 163.9521 67.7857 0.0000 -11.3242 0.0000
# 3 28.2847 67.7857 73.1337 0.0000 -4.3369 0.0000
# 4 0.0000 0.0000 0.0000 14.1026 0.0000 2.8641
# 5 -8.6454 -11.3242 -4.3369 0.0000 20.9305 0.0000
# 6 0.0000 0.0000 0.0000 2.8641 0.0000 16.1799
#
#
#
# Elastic Compliance Matrix: (Units=1/GPa)
#
#
# Indices 1 2 3 4 5 6 
#
# 1 0.040636 -0.006150 -0.009333 0.000000 0.011524 0.000000
# 2 -0.006150 0.011079 -0.007781 0.000000 0.001842 0.000000
# 3 -0.009333 -0.007781 0.024315 0.000000 -0.003026 0.000000
# 4 0.000000 0.000000 0.000000 0.073553 0.000000 -0.013020
# 5 0.011524 0.001842 -0.003026 0.000000 0.052906 0.000000
# 6 0.000000 0.000000 0.000000 -0.013020 0.000000 0.064110
#
#
# Mechanical properties :
#
#
# Convention : Reuss Voigt Hill
#
# Bulk Modulus (GPa) = 33.89434 61.84037 47.86735
# Shear Modulus (GPa) = 15.48176 19.41442 17.44809
#
# Velocity S-wave (km/s) = 3.04236 3.40693 3.22979
# Velocity P-wave (km/s) = 5.71012 7.24212 6.52126
#
# Compressibility (1/GPa) = 0.02950345
#
# Stress axis : x y z
#
# Youngs Moduli (GPa) = 24.60873 90.26419 41.12615
#
# Poissons Ratio (x) = 0.55510 0.38382
# Poissons Ratio (y) = 0.15134 0.32000
# Poissons Ratio (z) = 0.22967 0.70233
#
# Static dielectric constant tensor:
#      x y z
#    x 1.559400 0.000000 -0.004520 
#    y 0.000000 1.550590 0.000000 
#    z -0.004520 0.000000 1.543340 
# 
# From -- ./inp_files/226844.got.cif
#   From: 2010.05.17/outbox.cif.g08.bks.cpg/sg12_114_cif.got.tgz:226844.got - 2010.06.03 13:09:07.
