data_PCOD9174014
_publ_section_title
;
Structure prediction by ZEFSAII (Michael W. Deem and Ramdas Pophale) SiO2 
 PCOD9174014
Probable space group: C 2/M
;
_chemical_formula_sum "Si O2"
_cell_formula_units_Z 48
_cell_length_a 20.755483
_cell_length_b 10.057563
_cell_length_c 11.357748
_cell_angle_alpha 90.000000
_cell_angle_beta 69.882330
_cell_angle_gamma 90.000000
_cell_volume 2226.270747
_symmetry_space_group_name_H-M "C 2/M"
_symmetry_group_IT_number 12
_symmetry_cell_setting 'monoclinic'
loop_
_space_group_symop_operation_xyz
x,y,z
-x,y,-z
-x,-y,-z
x,-y,z
1/2+x,1/2+y,z
1/2-x,1/2+y,-z
1/2-x,1/2-y,-z
1/2+x,1/2-y,z
loop_
_atom_site_type_symbol
_atom_site_label
_atom_site_fract_x
_atom_site_fract_y
_atom_site_fract_z
Si Si1 0.606731 0.847299 0.018736
Si Si2 0.575356 0.854206 0.397787
Si Si3 0.144484 0.241154 0.564261
Si Si4 0.747313 0.644909 0.329675
Si Si5 0.846781 0.160039 0.818336
Si Si6 0.550508 0.153803 0.796958
O O1 0.650604 0.737636 0.060025
O O2 0.528729 0.836337 0.117711
O O3 0.630458 0.000000 0.022461
O O4 0.595545 0.826476 0.886668
O O5 0.500000 0.837632 0.500000
O O6 0.627946 0.851121 0.474820
O O7 0.596097 0.736509 0.296987
O O8 0.578882 0.000000 0.337730
O O9 0.200734 0.266829 0.629330
O O10 0.179419 0.136399 0.455484
O O11 0.074829 0.241272 0.683628
O O12 0.778986 0.500000 0.301340
O O13 0.721748 0.684263 0.216623
O O14 0.856207 0.000000 0.821142
O O15 0.561016 0.000000 0.749939
#
# Coordination Sequence:
#
# PCOD9174014 Si02
#       6
#     8   8   8   8   8   8
#     4   9  18  34  54  76 100 125 162 208 250 292
#     4  10  19  30  50  78 100 122 159 207 253 296
#     4  10  18  31  52  74  98 128 164 203 246 295
#     4   9  19  33  48  69  99 134 166 199 241 290
#     4  10  20  33  47  67 100 136 166 198 240 289
#     4   9  17  31  54  78  97 122 159 207 253 290
#
# _framework density 21.560718999999999
#
# number of rings (size 3 to 8) (size 9 to 14) (size 15 to 20)
#    0.000    2.500    0.000    4.000    0.000    3.000 
#    0.000    8.333    0.000    0.000    0.000    0.000 
#    0.000    0.000    0.000    0.000    0.000    0.000 
#
# Total GULP energy -133627.278696 kJ/mol
# GULP energy per Si atom -5567.803279 kJ/mol
# Density = 2.151165 g / cm^3
# Si number density = 21.560719 Si / 1000 Ang^3
#
#
#
# Elastic Constant Matrix: (Units=GPa)
#
#
# Indices 1 2 3 4 5 6 
#
# 1 66.0102 41.4255 20.8018 0.0000 31.1773 0.0000
# 2 41.4255 89.4390 30.2526 0.0000 22.4669 0.0000
# 3 20.8018 30.2526 86.6204 0.0000 10.8635 0.0000
# 4 0.0000 0.0000 0.0000 16.8876 0.0000 -4.7436
# 5 31.1773 22.4669 10.8635 0.0000 50.3623 0.0000
# 6 0.0000 0.0000 0.0000 -4.7436 0.0000 -8.3300
#
#
#
# Elastic Compliance Matrix: (Units=1/GPa)
#
#
# Indices 1 2 3 4 5 6 
#
# 1 0.027167 -0.008811 -0.001881 0.000000 -0.012481 0.000000
# 2 -0.008811 0.016794 -0.003591 0.000000 -0.001263 0.000000
# 3 -0.001881 -0.003591 0.013262 0.000000 -0.000094 0.000000
# 4 0.000000 0.000000 0.000000 0.051049 0.000000 -0.029071
# 5 -0.012481 -0.001263 -0.000094 0.000000 0.028166 0.000000
# 6 0.000000 0.000000 0.000000 -0.029071 0.000000 -0.103493
#
#
# Mechanical properties :
#
#
# Convention : Reuss Voigt Hill
#
# Bulk Modulus (GPa) = 34.89703 47.44774 41.17239
# Shear Modulus (GPa) = 70.35948 21.75663 46.05805
#
# Velocity S-wave (km/s) = 5.71874 3.18006 4.62692
# Velocity P-wave (km/s) = 7.73472 5.96138 6.90522
#
# Compressibility (1/GPa) = 0.02865573
#
# Stress axis : x y z
#
# Youngs Moduli (GPa) = 36.80994 59.54639 75.40120
#
# Poissons Ratio (x) = 0.52467 0.14186
# Poissons Ratio (y) = 0.32434 0.27076
# Poissons Ratio (z) = 0.06925 0.21383
#
# Static dielectric constant tensor:
#      x y z
#    x 1.856690 0.000000 -0.008180 
#    y 0.000000 1.759700 0.000000 
#    z -0.008180 0.000000 1.829020 
# 
# From -- ./inp_files/172917.got.cif
#   From: 2010.05.17/outbox.cif.g08.bks.cpg/sg12_87_cif.got.tgz:172917.got - 2010.06.03 13:09:07.
