data_PCOD9174444
_publ_section_title
;
Structure prediction by ZEFSAII (Michael W. Deem and Ramdas Pophale) SiO2 
 PCOD9174444
Probable space group: C 2/M
;
_chemical_formula_sum "Si O2"
_cell_formula_units_Z 56
_cell_length_a 18.584990
_cell_length_b 15.225649
_cell_length_c 15.330298
_cell_angle_alpha 90.000000
_cell_angle_beta 136.659255
_cell_angle_gamma 90.000000
_cell_volume 2977.318849
_symmetry_space_group_name_H-M "C 2/M"
_symmetry_group_IT_number 12
_symmetry_cell_setting 'monoclinic'
loop_
_space_group_symop_operation_xyz
x,y,z
-x,y,-z
-x,-y,-z
x,-y,z
1/2+x,1/2+y,z
1/2-x,1/2+y,-z
1/2-x,1/2-y,-z
1/2+x,1/2-y,z
loop_
_atom_site_type_symbol
_atom_site_label
_atom_site_fract_x
_atom_site_fract_y
_atom_site_fract_z
Si Si1 0.529217 0.781224 0.118312
Si Si2 0.045194 0.844220 0.798450
Si Si3 0.809130 0.103364 0.566784
Si Si4 0.179469 0.767720 0.764476
Si Si5 0.745984 0.904781 0.925229
Si Si6 0.231976 0.756613 0.620977
Si Si7 0.644734 0.096636 0.020548
O O1 0.475128 0.733978 0.151786
O O2 0.651128 0.777699 0.242469
O O3 0.500000 0.737271 0.000000
O O4 0.473792 0.875213 0.067418
O O5 0.085314 0.806045 0.741173
O O6 0.934320 0.893552 0.696196
O O7 0.141440 0.895525 0.927756
O O8 0.797264 0.164512 0.470318
O O9 0.745216 0.162871 0.581965
O O10 0.777694 0.000000 0.533004
O O11 0.219099 0.675588 0.839226
O O12 0.161180 0.756521 0.645354
O O13 0.275352 0.834974 0.866107
O O14 0.739846 0.000000 0.876208
O O15 0.666532 0.901492 0.936496
O O16 0.668568 0.000000 0.074565
#
# Coordination Sequence:
#
# PCOD9174444 Si02
#       7
#     8   8   8   8   8   8   8
#     4  11  18  34  55  83 114 148 183 225 280 340
#     4  10  19  35  60  81 114 155 185 234 281 329
#     4  10  23  43  60  82 111 150 199 241 281 341
#     4  11  19  37  56  83 119 147 184 238 286 339
#     4  10  18  31  55  87 116 148 181 222 284 341
#     4  10  23  38  60  83 110 151 191 235 292 339
#     4  10  19  30  49  81 115 147 180 218 277 337
#
# _framework density 18.808869000000001
#
# number of rings (size 3 to 8) (size 9 to 14) (size 15 to 20)
#    0.000    1.714    4.286    1.286    0.000    3.143 
#    0.000    0.714    0.000    4.714    0.000    4.000 
#    0.000    0.000    0.000    0.000    0.000    0.000 
#
# Total GULP energy -156001.244945 kJ/mol
# GULP energy per Si atom -5571.473034 kJ/mol
# Density = 1.876606 g / cm^3
# Si number density = 18.808869 Si / 1000 Ang^3
#
#
#
# Elastic Constant Matrix: (Units=GPa)
#
#
# Indices 1 2 3 4 5 6 
#
# 1 70.2902 32.5382 7.1941 0.0000 -28.8740 0.0000
# 2 32.5382 153.1561 19.5309 0.0000 -18.4441 0.0000
# 3 7.1941 19.5309 39.9637 0.0000 -16.6833 0.0000
# 4 0.0000 0.0000 0.0000 7.3665 0.0000 10.5876
# 5 -28.8740 -18.4441 -16.6833 0.0000 31.9598 0.0000
# 6 0.0000 0.0000 0.0000 10.5876 0.0000 -20.1927
#
#
#
# Elastic Compliance Matrix: (Units=1/GPa)
#
#
# Indices 1 2 3 4 5 6 
#
# 1 0.025128 -0.003312 0.007383 0.000000 0.024644 0.000000
# 2 -0.003312 0.007612 -0.003247 0.000000 -0.000294 0.000000
# 3 0.007383 -0.003247 0.034885 0.000000 0.023007 0.000000
# 4 0.000000 0.000000 0.000000 0.077412 0.000000 0.040589
# 5 0.024644 -0.000294 0.023007 0.000000 0.065394 0.000000
# 6 0.000000 0.000000 0.000000 0.040589 0.000000 -0.028241
#
#
# Mechanical properties :
#
#
# Convention : Reuss Voigt Hill
#
# Bulk Modulus (GPa) = 14.43554 42.43738 28.43646
# Shear Modulus (GPa) = 24.55415 17.43650 20.99532
#
# Velocity S-wave (km/s) = 3.61703 3.04803 3.34465
# Velocity P-wave (km/s) = 5.01352 5.91597 5.48334
#
# Compressibility (1/GPa) = 0.06927347
#
# Stress axis : x y z
#
# Youngs Moduli (GPa) = 39.79658 131.37999 28.66580
#
# Poissons Ratio (x) = 0.43515 -0.21165
# Poissons Ratio (y) = 0.13181 0.09307
# Poissons Ratio (z) = -0.29383 0.42653
#
# Static dielectric constant tensor:
#      x y z
#    x 1.707160 0.000000 -0.003520 
#    y 0.000000 1.668870 0.000000 
#    z -0.003520 0.000000 1.657340 
# 
# From -- ./inp_files/225360.got.cif
#   From: 2010.05.17/outbox.cif.g08.bks.cpg/sg12_113_cif.got.tgz:225360.got - 2010.06.03 13:09:07.
