data_PCOD9174233
_publ_section_title
;
Structure prediction by ZEFSAII (Michael W. Deem and Ramdas Pophale) SiO2 
 PCOD9174233
Probable space group: C 2/M
;
_chemical_formula_sum "Si O2"
_cell_formula_units_Z 48
_cell_length_a 10.969864
_cell_length_b 27.559914
_cell_length_c 16.547585
_cell_angle_alpha 90.000000
_cell_angle_beta 23.075219
_cell_angle_gamma 90.000000
_cell_volume 1960.796292
_symmetry_space_group_name_H-M "C 2/M"
_symmetry_group_IT_number 12
_symmetry_cell_setting 'monoclinic'
loop_
_space_group_symop_operation_xyz
x,y,z
-x,y,-z
-x,-y,-z
x,-y,z
1/2+x,1/2+y,z
1/2-x,1/2+y,-z
1/2-x,1/2-y,-z
1/2+x,1/2-y,z
loop_
_atom_site_type_symbol
_atom_site_label
_atom_site_fract_x
_atom_site_fract_y
_atom_site_fract_z
Si Si1 0.330597 0.802662 0.751127
Si Si2 0.831768 0.191584 0.750455
Si Si3 0.228959 0.447440 0.598811
Si Si4 0.148520 0.055701 0.183574
Si Si5 0.570952 0.154157 0.755178
Si Si6 0.052775 0.849166 0.775379
O O1 0.354424 0.747151 0.709292
O O2 0.579613 0.812724 0.670252
O O3 0.306968 0.838294 0.688627
O O4 0.000000 0.807743 0.000000
O O5 0.814691 0.158034 0.680700
O O6 0.062375 0.177171 0.682688
O O7 0.500000 0.186457 0.000000
O O8 0.500000 0.449762 0.500000
O O9 0.064431 0.500000 0.699925
O O10 0.409529 0.442208 0.404179
O O11 0.038258 0.400183 0.740136
O O12 0.020446 0.094689 0.198807
O O13 0.164426 0.000000 0.144739
O O14 0.500000 0.068291 0.000000
O O15 0.259387 0.170189 0.991200
#
# Coordination Sequence:
#
# PCOD9174233 Si02
#       6
#     8   8   8   8   8   8
#     4   9  18  31  50  79 113 145 178 216 260 309
#     4   9  16  29  52  80 108 143 185 221 255 302
#     4  10  20  34  54  79 106 136 171 217 269 315
#     4  10  20  35  56  80 103 131 172 219 265 317
#     4  10  19  32  53  81 110 140 174 217 265 309
#     4  10  18  31  53  80 108 141 179 217 258 307
#
# _framework density 24.479849999999999
#
# number of rings (size 3 to 8) (size 9 to 14) (size 15 to 20)
#    0.000    2.333    0.000    4.500    0.000    6.000 
#    0.000    1.667    0.000   16.500    0.000    0.000 
#    0.000    0.000    0.000    0.000    0.000    0.000 
#
# Total GULP energy -134164.193934 kJ/mol
# GULP energy per Si atom -5590.174747 kJ/mol
# Density = 2.442413 g / cm^3
# Si number density = 24.479850 Si / 1000 Ang^3
#
#
#
# Elastic Constant Matrix: (Units=GPa)
#
#
# Indices 1 2 3 4 5 6 
#
# 1 161.0513 68.2870 45.3380 0.0598 11.6610 -0.0339
# 2 68.2870 149.2871 10.3960 -0.0002 37.6906 -0.0508
# 3 45.3380 10.3960 81.0402 -0.2826 31.5196 -0.3367
# 4 0.0598 -0.0002 -0.2826 137.7866 0.0964 135.4382
# 5 11.6610 37.6906 31.5196 0.0964 47.8227 0.1750
# 6 -0.0339 -0.0508 -0.3367 135.4382 0.1750 96.4111
#
#
#
# Elastic Compliance Matrix: (Units=1/GPa)
#
#
# Indices 1 2 3 4 5 6 
#
# 1 0.010558 -0.006194 -0.008081 -0.000038 0.007633 0.000012
# 2 -0.006194 0.012245 0.006805 0.000065 -0.012626 -0.000040
# 3 -0.008081 0.006805 0.023273 0.000130 -0.018732 -0.000067
# 4 -0.000038 0.000065 0.000130 -0.019055 -0.000187 0.026769
# 5 0.007633 -0.012626 -0.018732 -0.000187 0.041346 0.000118
# 6 0.000012 -0.000040 -0.000067 0.026769 0.000118 -0.027234
#
#
# Mechanical properties :
#
#
# Convention : Reuss Voigt Hill
#
# Bulk Modulus (GPa) = 32.11633 71.04674 51.58154
# Shear Modulus (GPa) = 75.24341 74.22792 74.73566
#
# Velocity S-wave (km/s) = 5.55010 5.51252 5.53134
# Velocity P-wave (km/s) = 7.36339 8.34282 7.86836
#
# Compressibility (1/GPa) = 0.03113681
#
# Stress axis : x y z
#
# Youngs Moduli (GPa) = 94.71930 81.66396 42.96816
#
# Poissons Ratio (x) = 0.50579 0.34721
# Poissons Ratio (y) = 0.58665 -0.29239
# Poissons Ratio (z) = 0.76540 -0.55571
#
# Static dielectric constant tensor:
#      x y z
#    x 1.934290 0.000000 -0.053930 
#    y 0.000000 1.920860 0.000010 
#    z -0.053930 0.000010 2.051990 
# 
# From -- ./inp_files/209269.got.cif
#   From: 2010.05.17/outbox.cif.g08.bks.cpg/sg12_105_cif.got.tgz:209269.got - 2010.06.03 13:09:07.
