data_PCOD9174630
_publ_section_title
;
Structure prediction by ZEFSAII (Michael W. Deem and Ramdas Pophale) SiO2 
 PCOD9174630
Probable space group: C 2/M
;
_chemical_formula_sum "Si O2"
_cell_formula_units_Z 52
_cell_length_a 14.163762
_cell_length_b 22.573656
_cell_length_c 8.167077
_cell_angle_alpha 90.000000
_cell_angle_beta 60.675034
_cell_angle_gamma 90.000000
_cell_volume 2276.627132
_symmetry_space_group_name_H-M "C 2/M"
_symmetry_group_IT_number 12
_symmetry_cell_setting 'monoclinic'
loop_
_space_group_symop_operation_xyz
x,y,z
-x,y,-z
-x,-y,-z
x,-y,z
1/2+x,1/2+y,z
1/2-x,1/2+y,-z
1/2-x,1/2-y,-z
1/2+x,1/2-y,z
loop_
_atom_site_type_symbol
_atom_site_label
_atom_site_fract_x
_atom_site_fract_y
_atom_site_fract_z
Si Si1 0.658738 0.000000 0.547098
Si Si2 0.316523 0.565411 0.813989
Si Si3 0.048387 0.609932 0.779677
Si Si4 0.380144 0.205773 0.520653
Si Si5 0.451799 0.435081 0.222616
Si Si6 0.879555 0.840355 0.518861
Si Si7 0.830685 0.596915 0.755733
O O1 0.623224 0.052701 0.706579
O O2 0.671814 0.051798 0.392095
O O3 0.291220 0.500000 0.769262
O O4 0.443410 0.562236 0.751443
O O5 0.306684 0.620520 0.701764
O O6 0.253506 0.577727 0.034617
O O7 0.104579 0.668342 0.658068
O O8 0.948173 0.595128 0.741982
O O9 0.000000 0.619699 0.000000
O O10 0.500000 0.209132 0.500000
O O11 0.343348 0.273030 0.528688
O O12 0.314270 0.163356 0.700472
O O13 0.394359 0.500000 0.286056
O O14 0.387132 0.379367 0.346638
O O15 0.500000 0.429074 0.000000
O O16 0.000000 0.837513 0.500000
#
# Coordination Sequence:
#
# PCOD9174630 Si02
#       7
#     4   8   8   8   8   8   8
#     4  10  18  32  51  68  97 140 165 194 238 294
#     4  10  19  31  53  76  97 126 164 209 246 291
#     4  10  19  31  51  75 101 132 170 204 238 285
#     4   8  17  32  50  71  97 136 170 198 237 296
#     4   9  18  33  53  74  97 125 162 204 252 300
#     4   9  17  32  52  73  96 128 171 204 241 294
#     4  10  18  32  51  72 103 131 166 202 244 293
#
# _framework density 22.840807000000002
#
# number of rings (size 3 to 8) (size 9 to 14) (size 15 to 20)
#    0.000    2.615    0.769    3.000    0.000    3.077 
#    0.000    3.077    0.000    1.846    0.000    0.000 
#    0.000    0.000    0.000    0.000    0.000    0.000 
#
# Total GULP energy -144898.536579 kJ/mol
# GULP energy per Si atom -5573.020638 kJ/mol
# Density = 2.278882 g / cm^3
# Si number density = 22.840807 Si / 1000 Ang^3
#
#
#
# Elastic Constant Matrix: (Units=GPa)
#
#
# Indices 1 2 3 4 5 6 
#
# 1 91.7379 34.0429 -1.5679 0.0000 -0.3750 0.0000
# 2 34.0429 248.8586 64.9592 0.0000 10.5936 0.0000
# 3 -1.5679 64.9592 85.7897 0.0000 13.8154 0.0000
# 4 0.0000 0.0000 0.0000 28.7211 0.0000 -3.9581
# 5 -0.3750 10.5936 13.8154 0.0000 16.6331 0.0000
# 6 0.0000 0.0000 0.0000 -3.9581 0.0000 22.1585
#
#
#
# Elastic Compliance Matrix: (Units=1/GPa)
#
#
# Indices 1 2 3 4 5 6 
#
# 1 0.011697 -0.002064 0.001757 0.000000 0.000118 0.000000
# 2 -0.002064 0.005372 -0.004095 0.000000 -0.000067 0.000000
# 3 0.001757 -0.004095 0.016581 0.000000 -0.011124 0.000000
# 4 0.000000 0.000000 0.000000 0.035696 0.000000 0.006376
# 5 0.000118 -0.000067 -0.011124 0.000000 0.069406 0.000000
# 6 0.000000 0.000000 0.000000 0.006376 0.000000 0.046268
#
#
# Mechanical properties :
#
#
# Convention : Reuss Voigt Hill
#
# Bulk Modulus (GPa) = 40.24568 69.02829 54.63698
# Shear Modulus (GPa) = 24.73948 35.43267 30.08608
#
# Velocity S-wave (km/s) = 3.29466 3.94291 3.63327
# Velocity P-wave (km/s) = 5.66845 7.14254 6.44776
#
# Compressibility (1/GPa) = 0.02484739
#
# Stress axis : x y z
#
# Youngs Moduli (GPa) = 85.49177 186.13627 60.31164
#
# Poissons Ratio (x) = 0.38417 -0.10600
# Poissons Ratio (y) = 0.17645 0.24697
# Poissons Ratio (z) = -0.15025 0.76220
#
# Static dielectric constant tensor:
#      x y z
#    x 2.007070 0.000000 -0.045410 
#    y 0.000000 1.813690 0.000000 
#    z -0.045410 0.000000 1.811810 
# 
# From -- ./inp_files/77950.got.cif
#   From: 2010.05.17/outbox.cif.g08.bks.cpg/sg12_39_cif.got.tgz:77950.got - 2010.06.03 13:09:07.
