data_PCOD9174430
_publ_section_title
;
Structure prediction by ZEFSAII (Michael W. Deem and Ramdas Pophale) SiO2 
 PCOD9174430
Probable space group: C 2/M
;
_chemical_formula_sum "Si O2"
_cell_formula_units_Z 40
_cell_length_a 7.986315
_cell_length_b 19.180825
_cell_length_c 15.641712
_cell_angle_alpha 90.000000
_cell_angle_beta 126.236388
_cell_angle_gamma 90.000000
_cell_volume 1932.627604
_symmetry_space_group_name_H-M "C 2/M"
_symmetry_group_IT_number 12
_symmetry_cell_setting 'monoclinic'
loop_
_space_group_symop_operation_xyz
x,y,z
-x,y,-z
-x,-y,-z
x,-y,z
1/2+x,1/2+y,z
1/2-x,1/2+y,-z
1/2-x,1/2-y,-z
1/2+x,1/2-y,z
loop_
_atom_site_type_symbol
_atom_site_label
_atom_site_fract_x
_atom_site_fract_y
_atom_site_fract_z
Si Si1 0.794296 0.710693 0.778868
Si Si2 0.167377 0.329622 0.974826
Si Si3 0.032587 0.853096 0.185648
Si Si4 0.058849 0.420573 0.618824
Si Si5 0.227553 0.808151 0.567305
O O1 0.613608 0.677246 0.781564
O O2 0.736764 0.724196 0.663938
O O3 0.006154 0.664758 0.847893
O O4 0.850443 0.788685 0.825191
O O5 0.250000 0.250000 0.000000
O O6 0.363707 0.376499 0.062459
O O7 0.000000 0.335931 0.000000
O O8 0.205930 0.901359 0.281573
O O9 0.017574 0.500000 0.632673
O O10 0.000000 0.415751 0.500000
O O11 0.905459 0.364639 0.613141
O O12 0.250000 0.750000 0.500000
O O13 0.000000 0.842124 0.500000
#
# Coordination Sequence:
#
# PCOD9174430 Si02
#       5
#     8   8   8   8   8
#     4  10  18  31  55  85 112 139 179 233 280 324
#     4   8  16  28  48  79 110 139 173 221 280 328
#     4  10  18  33  55  81 112 144 180 225 280 331
#     4  11  24  40  56  77 110 151 189 226 275 333
#     4  12  23  36  57  84 112 142 182 229 277 329
#
# _framework density 20.697209999999998
#
# number of rings (size 3 to 8) (size 9 to 14) (size 15 to 20)
#    0.000    1.800    0.000    6.600    0.000    2.000 
#    0.000    1.000    0.000    7.800    0.000    0.000 
#    0.000    0.000    0.000    0.000    0.000    0.000 
#
# Total GULP energy -111354.716811 kJ/mol
# GULP energy per Si atom -5567.735841 kJ/mol
# Density = 2.065010 g / cm^3
# Si number density = 20.697210 Si / 1000 Ang^3
#
#
#
# Elastic Constant Matrix: (Units=GPa)
#
#
# Indices 1 2 3 4 5 6 
#
# 1 97.3928 30.1040 33.6236 0.0000 20.6760 0.0000
# 2 30.1040 59.7620 13.1415 0.0000 18.3460 0.0000
# 3 33.6236 13.1415 120.2222 0.0000 30.4629 0.0000
# 4 0.0000 0.0000 0.0000 13.0545 0.0000 3.4318
# 5 20.6760 18.3460 30.4629 0.0000 43.5695 0.0000
# 6 0.0000 0.0000 0.0000 3.4318 0.0000 10.6681
#
#
#
# Elastic Compliance Matrix: (Units=1/GPa)
#
#
# Indices 1 2 3 4 5 6 
#
# 1 0.013312 -0.005459 -0.002562 0.000000 -0.002228 0.000000
# 2 -0.005459 0.021456 0.000989 0.000000 -0.007136 0.000000
# 3 -0.002562 0.000989 0.010602 0.000000 -0.006614 0.000000
# 4 0.000000 0.000000 0.000000 0.083679 0.000000 -0.026919
# 5 -0.002228 -0.007136 -0.006614 0.000000 0.031638 0.000000
# 6 0.000000 0.000000 0.000000 -0.026919 0.000000 0.102397
#
#
# Mechanical properties :
#
#
# Convention : Reuss Voigt Hill
#
# Bulk Modulus (GPa) = 31.94088 47.90168 39.92128
# Shear Modulus (GPa) = 17.38635 26.82562 22.10599
#
# Velocity S-wave (km/s) = 2.90148 3.60404 3.27167
# Velocity P-wave (km/s) = 5.16631 6.36499 5.79672
#
# Compressibility (1/GPa) = 0.03130785
#
# Stress axis : x y z
#
# Youngs Moduli (GPa) = 75.11808 46.60759 94.32061
#
# Poissons Ratio (x) = 0.25441 0.24166
# Poissons Ratio (y) = 0.41004 -0.09333
# Poissons Ratio (z) = 0.19246 -0.04612
#
# Static dielectric constant tensor:
#      x y z
#    x 1.781220 0.000000 0.005800 
#    y 0.000000 1.683610 0.000000 
#    z 0.005800 0.000000 1.941640 
# 
# From -- ./inp_files/256777.got.cif
#   From: 2010.05.17/outbox.cif.g08.bks.cpg/sg12_129_cif.got.tgz:256777.got - 2010.06.03 13:09:07.
