data_PCOD9174797
_publ_section_title
;
Structure prediction by ZEFSAII (Michael W. Deem and Ramdas Pophale) SiO2 
 PCOD9174797
Probable space group: C 2/M
;
_chemical_formula_sum "Si O2"
_cell_formula_units_Z 56
_cell_length_a 30.573644
_cell_length_b 7.582811
_cell_length_c 12.406322
_cell_angle_alpha 90.000000
_cell_angle_beta 61.991127
_cell_angle_gamma 90.000000
_cell_volume 2539.332927
_symmetry_space_group_name_H-M "C 2/M"
_symmetry_group_IT_number 12
_symmetry_cell_setting 'monoclinic'
loop_
_space_group_symop_operation_xyz
x,y,z
-x,y,-z
-x,-y,-z
x,-y,z
1/2+x,1/2+y,z
1/2-x,1/2+y,-z
1/2-x,1/2-y,-z
1/2+x,1/2-y,z
loop_
_atom_site_type_symbol
_atom_site_label
_atom_site_fract_x
_atom_site_fract_y
_atom_site_fract_z
Si Si1 0.747633 0.797656 0.629657
Si Si2 0.442965 0.783690 0.584858
Si Si3 0.012541 0.795628 0.104078
Si Si4 0.356821 0.787492 0.521192
Si Si5 0.602671 0.800770 0.139886
Si Si6 0.405969 0.787559 0.251100
Si Si7 0.656973 0.216735 0.876005
O O1 0.750000 0.750000 0.500000
O O2 0.802409 0.776065 0.614945
O O3 0.706423 0.718491 0.757911
O O4 0.733059 0.000000 0.643077
O O5 0.500000 0.726425 0.500000
O O6 0.403776 0.732518 0.537998
O O7 0.418003 0.720577 0.725651
O O8 0.444852 0.000000 0.585896
O O9 0.054223 0.694933 0.119948
O O10 0.959310 0.783587 0.221970
O O11 0.027302 0.000000 0.077902
O O12 0.000000 0.723420 0.000000
O O13 0.366867 0.732720 0.386536
O O14 0.355236 0.000000 0.526247
O O15 0.618812 0.000000 0.148546
O O16 0.644133 0.721368 0.011847
O O17 0.387050 0.732129 0.155694
O O18 0.408824 0.000000 0.248495
O O19 0.656770 0.000000 0.882672
#
# Coordination Sequence:
#
# PCOD9174797 Si02
#       7
#     8   8   8   8   8   8   8
#     4  11  21  36  56  82 113 145 183 226 276 327
#     4   9  18  34  58  84 107 138 183 230 266 311
#     4  11  22  32  45  75 113 140 169 218 279 332
#     4  10  20  36  57  83 111 139 181 229 273 320
#     4  10  19  35  57  76 101 143 187 224 265 316
#     4  10  18  32  53  75 103 140 179 218 261 320
#     4   9  18  32  52  78 104 135 179 223 262 315
#
# _framework density 22.053034
#
# number of rings (size 3 to 8) (size 9 to 14) (size 15 to 20)
#    0.000    2.000    2.857    1.714    0.000    3.429 
#    0.000    2.857    0.000    1.714    0.000    0.000 
#    0.000    0.000    0.000    0.000    0.000    0.000 
#
# Total GULP energy -156209.089536 kJ/mol
# GULP energy per Si atom -5578.896055 kJ/mol
# Density = 2.200284 g / cm^3
# Si number density = 22.053034 Si / 1000 Ang^3
#
#
#
# Elastic Constant Matrix: (Units=GPa)
#
#
# Indices 1 2 3 4 5 6 
#
# 1 68.4499 -6.0219 44.9508 0.0000 -16.6397 0.0000
# 2 -6.0219 50.1162 8.0956 0.0000 1.4029 0.0000
# 3 44.9508 8.0956 176.2297 0.0000 -15.8091 0.0000
# 4 0.0000 0.0000 0.0000 5.5514 0.0000 -5.0219
# 5 -16.6397 1.4029 -15.8091 0.0000 42.9782 0.0000
# 6 0.0000 0.0000 0.0000 -5.0219 0.0000 6.1563
#
#
#
# Elastic Compliance Matrix: (Units=1/GPa)
#
#
# Indices 1 2 3 4 5 6 
#
# 1 0.019214 0.002880 -0.004524 0.000000 0.005681 0.000000
# 2 0.002880 0.020579 -0.001696 0.000000 -0.000180 0.000000
# 3 -0.004524 -0.001696 0.006985 0.000000 0.000873 0.000000
# 4 0.000000 0.000000 0.000000 0.687358 0.000000 0.560701
# 5 0.005681 -0.000180 0.000873 0.000000 0.025794 0.000000
# 6 0.000000 0.000000 0.000000 0.560701 0.000000 0.619819
#
#
# Mechanical properties :
#
#
# Convention : Reuss Voigt Hill
#
# Bulk Modulus (GPa) = 24.93843 43.20499 34.07171
# Shear Modulus (GPa) = 3.57195 27.45525 15.51360
#
# Velocity S-wave (km/s) = 1.27406 3.53223 2.65517
# Velocity P-wave (km/s) = 3.67386 6.02242 4.98832
#
# Compressibility (1/GPa) = 0.04009875
#
# Stress axis : x y z
#
# Youngs Moduli (GPa) = 52.04446 48.59369 143.17386
#
# Poissons Ratio (x) = -0.13997 0.64767
# Poissons Ratio (y) = -0.14991 0.24286
# Poissons Ratio (z) = 0.23543 0.08243
#
# Static dielectric constant tensor:
#      x y z
#    x 1.770240 0.000000 -0.036420 
#    y 0.000000 1.839340 0.000000 
#    z -0.036420 0.000000 1.907150 
# 
# From -- ./inp_files/180672.got.cif
#   From: 2010.05.17/outbox.cif.g08.bks.cpg/sg12_91_cif.got.tgz:180672.got - 2010.06.03 13:09:07.
