data_PCOD9174512
_publ_section_title
;
Structure prediction by ZEFSAII (Michael W. Deem and Ramdas Pophale) SiO2 
 PCOD9174512
Probable space group: C 2/M
;
_chemical_formula_sum "Si O2"
_cell_formula_units_Z 56
_cell_length_a 23.748792
_cell_length_b 15.428219
_cell_length_c 9.016842
_cell_angle_alpha 90.000000
_cell_angle_beta 119.254263
_cell_angle_gamma 90.000000
_cell_volume 2882.419113
_symmetry_space_group_name_H-M "C 2/M"
_symmetry_group_IT_number 12
_symmetry_cell_setting 'monoclinic'
loop_
_space_group_symop_operation_xyz
x,y,z
-x,y,-z
-x,-y,-z
x,-y,z
1/2+x,1/2+y,z
1/2-x,1/2+y,-z
1/2-x,1/2-y,-z
1/2+x,1/2-y,z
loop_
_atom_site_type_symbol
_atom_site_label
_atom_site_fract_x
_atom_site_fract_y
_atom_site_fract_z
Si Si1 0.165245 0.651114 0.711568
Si Si2 0.439611 0.226876 0.839390
Si Si3 0.688780 0.403191 0.027858
Si Si4 0.684576 0.290208 0.485481
Si Si5 0.645308 0.210930 0.013149
Si Si6 0.265288 0.594603 0.238064
Si Si7 0.039619 0.597592 0.404224
O O1 0.236086 0.610428 0.827107
O O2 0.172051 0.735450 0.618293
O O3 0.113655 0.594964 0.556184
O O4 0.137148 0.678122 0.835265
O O5 0.379502 0.281039 0.695116
O O6 0.406161 0.177862 0.934502
O O7 0.462468 0.164065 0.735739
O O8 0.500000 0.272071 0.000000
O O9 0.667736 0.500000 0.049380
O O10 0.651342 0.315737 0.025052
O O11 0.690289 0.402745 0.850347
O O12 0.750000 0.250000 0.500000
O O13 0.698998 0.385988 0.562660
O O14 0.712646 0.168900 0.148722
O O15 0.233824 0.500000 0.198845
O O16 0.018392 0.500000 0.336780
O O17 0.000000 0.625894 0.500000
#
# Coordination Sequence:
#
# PCOD9174512 Si02
#       7
#     8   8   8   8   8   8   8
#     4  10  18  33  57  81 117 158 194 239 290 344
#     4  11  24  38  59  85 116 159 200 237 304 357
#     4  10  18  31  57  90 119 151 192 241 306 353
#     4  11  19  37  57  84 119 154 198 251 285 343
#     4  11  19  37  58  85 128 151 195 249 295 355
#     4  10  19  33  58  91 120 157 196 243 303 353
#     4  10  22  39  56  80 117 158 202 240 283 354
#
# _framework density 19.428125000000001
#
# number of rings (size 3 to 8) (size 9 to 14) (size 15 to 20)
#    0.000    1.571    4.286    2.143    0.000    1.429 
#    0.000    2.857    0.000    1.714    0.000    2.000 
#    0.000    0.000    0.000    0.000    0.000    0.000 
#
# Total GULP energy -155944.441174 kJ/mol
# GULP energy per Si atom -5569.444328 kJ/mol
# Density = 1.938391 g / cm^3
# Si number density = 19.428125 Si / 1000 Ang^3
#
#
#
# Elastic Constant Matrix: (Units=GPa)
#
#
# Indices 1 2 3 4 5 6 
#
# 1 50.6433 1.0152 24.7576 0.0000 -10.9596 0.0000
# 2 1.0152 85.7042 19.7528 0.0000 -4.2022 0.0000
# 3 24.7576 19.7528 119.1906 0.0000 9.2358 0.0000
# 4 0.0000 0.0000 0.0000 5.9140 0.0000 -3.1662
# 5 -10.9596 -4.2022 9.2358 0.0000 38.1405 0.0000
# 6 0.0000 0.0000 0.0000 -3.1662 0.0000 11.9346
#
#
#
# Elastic Compliance Matrix: (Units=1/GPa)
#
#
# Indices 1 2 3 4 5 6 
#
# 1 0.024537 0.001523 -0.006021 0.000000 0.008676 0.000000
# 2 0.001523 0.012357 -0.002551 0.000000 0.002417 0.000000
# 3 -0.006021 -0.002551 0.010415 0.000000 -0.004533 0.000000
# 4 0.000000 0.000000 0.000000 0.197083 0.000000 0.052285
# 5 0.008676 0.002417 -0.004533 0.000000 0.030076 0.000000
# 6 0.000000 0.000000 0.000000 0.052285 0.000000 0.097661
#
#
# Mechanical properties :
#
#
# Convention : Reuss Voigt Hill
#
# Bulk Modulus (GPa) = 30.11338 38.50990 34.31164
# Shear Modulus (GPa) = 12.58505 25.19864 18.89184
#
# Velocity S-wave (km/s) = 2.54790 3.60532 3.12171
# Velocity P-wave (km/s) = 4.91826 6.09884 5.54009
#
# Compressibility (1/GPa) = 0.03320783
#
# Stress axis : x y z
#
# Youngs Moduli (GPa) = 40.75538 80.92903 96.01814
#
# Poissons Ratio (x) = -0.12321 0.57815
# Poissons Ratio (y) = -0.06205 0.24497
# Poissons Ratio (z) = 0.24540 0.20647
#
# Static dielectric constant tensor:
#      x y z
#    x 1.721930 0.000000 0.006720 
#    y 0.000000 1.742450 0.000000 
#    z 0.006720 0.000000 1.743120 
# 
# From -- ./inp_files/104719.got.cif
#   From: 2010.05.17/outbox.cif.g08.bks.cpg/sg12_53_cif.got.tgz:104719.got - 2010.06.03 13:09:07.
