data_PCOD9174383
_publ_section_title
;
Structure prediction by ZEFSAII (Michael W. Deem and Ramdas Pophale) SiO2 
 PCOD9174383
Probable space group: C 2/M
;
_chemical_formula_sum "Si O2"
_cell_formula_units_Z 48
_cell_length_a 26.406302
_cell_length_b 22.738873
_cell_length_c 12.439675
_cell_angle_alpha 90.000000
_cell_angle_beta 22.396782
_cell_angle_gamma 90.000000
_cell_volume 2845.978145
_symmetry_space_group_name_H-M "C 2/M"
_symmetry_group_IT_number 12
_symmetry_cell_setting 'monoclinic'
loop_
_space_group_symop_operation_xyz
x,y,z
-x,y,-z
-x,-y,-z
x,-y,z
1/2+x,1/2+y,z
1/2-x,1/2+y,-z
1/2-x,1/2-y,-z
1/2+x,1/2-y,z
loop_
_atom_site_type_symbol
_atom_site_label
_atom_site_fract_x
_atom_site_fract_y
_atom_site_fract_z
Si Si1 0.756638 0.805919 0.564311
Si Si2 0.884618 0.000000 0.314888
Si Si3 0.282308 0.232193 0.711995
Si Si4 0.375221 0.000000 0.321991
Si Si5 0.979523 0.191700 0.664153
Si Si6 0.705754 0.876757 0.469528
Si Si7 0.487671 0.381412 0.194531
O O1 0.750000 0.750000 0.500000
O O2 0.716355 0.780298 0.759356
O O3 0.681917 0.854835 0.639374
O O4 0.904046 0.830928 0.297646
O O5 0.907149 0.058741 0.338382
O O6 0.750182 0.000000 0.512382
O O7 0.000000 0.000000 0.000000
O O8 0.410296 0.260373 0.516450
O O9 0.322989 0.176013 0.557880
O O10 0.168653 0.214165 0.018568
O O11 0.364629 0.939190 0.409019
O O12 0.500000 0.000000 0.000000
O O13 0.000476 0.137907 0.705464
O O14 0.000000 0.177156 0.500000
O O15 0.864991 0.886397 0.143485
#
# Coordination Sequence:
#
# PCOD9174383 Si02
#       7
#     8   4   8   4   8   8   8
#     4   9  16  27  47  77 107 130 164 209 249 305
#     4  12  18  34  59  74 103 143 176 201 249 325
#     4   9  20  32  53  75 101 135 171 210 264 312
#     4  12  24  32  48  78 113 143 168 206 254 305
#     4  10  20  36  53  75 103 132 176 225 264 304
#     4  10  18  33  49  75 107 139 172 207 249 317
#     4  10  18  31  55  77  96 140 185 209 250 308
#
# _framework density 16.865905999999999
#
# number of rings (size 3 to 8) (size 9 to 14) (size 15 to 20)
#    0.000    2.000    3.333    1.000    0.000    2.667 
#    0.000    5.417    0.000    0.000    0.000    0.583 
#    0.000    0.000    0.000    0.000    0.000    0.000 
#
# Total GULP energy -133730.886538 kJ/mol
# GULP energy per Si atom -5572.120272 kJ/mol
# Density = 1.682752 g / cm^3
# Si number density = 16.865906 Si / 1000 Ang^3
#
#
#
# Elastic Constant Matrix: (Units=GPa)
#
#
# Indices 1 2 3 4 5 6 
#
# 1 66.4153 29.5926 25.0018 0.0000 14.5474 0.0000
# 2 29.5926 87.4199 23.5582 0.0005 7.1630 -0.0002
# 3 25.0018 23.5582 71.4302 0.0007 9.8900 -0.0001
# 4 0.0000 0.0005 0.0007 18.0277 -0.0005 -1.7196
# 5 14.5474 7.1630 9.8900 -0.0005 27.8125 0.0001
# 6 0.0000 -0.0002 -0.0001 -1.7196 0.0001 15.3543
#
#
#
# Elastic Compliance Matrix: (Units=1/GPa)
#
#
# Indices 1 2 3 4 5 6 
#
# 1 0.020789 -0.005182 -0.004466 0.000000 -0.007951 0.000000
# 2 -0.005182 0.013938 -0.002799 0.000000 0.000116 0.000000
# 3 -0.004466 -0.002799 0.016895 -0.000001 -0.002951 0.000000
# 4 0.000000 0.000000 -0.000001 0.056069 0.000001 0.006279
# 5 -0.007951 0.000116 -0.002951 0.000001 0.041133 0.000000
# 6 0.000000 0.000000 0.000000 0.006279 0.000000 0.065832
#
#
# Mechanical properties :
#
#
# Convention : Reuss Voigt Hill
#
# Bulk Modulus (GPa) = 37.41671 42.39672 39.90671
# Shear Modulus (GPa) = 20.12405 22.04643 21.08524
#
# Velocity S-wave (km/s) = 3.45799 3.61939 3.53961
# Velocity P-wave (km/s) = 6.17872 6.53136 6.35749
#
# Compressibility (1/GPa) = 0.02672603
#
# Stress axis : x y z
#
# Youngs Moduli (GPa) = 48.10332 71.74613 59.19007
#
# Poissons Ratio (x) = 0.37179 0.26437
# Poissons Ratio (y) = 0.24927 0.16568
# Poissons Ratio (z) = 0.21485 0.20083
#
# Static dielectric constant tensor:
#      x y z
#    x 1.557040 0.000000 0.001510 
#    y 0.000000 1.617390 0.000000 
#    z 0.001510 0.000000 1.559590 
# 
# From -- ./inp_files/185030.got.cif
#   From: 2010.05.17/outbox.cif.g08.bks.cpg/sg12_93_cif.got.tgz:185030.got - 2010.06.03 13:09:07.
