data_PCOD9174789
_publ_section_title
;
Structure prediction by ZEFSAII (Michael W. Deem and Ramdas Pophale) SiO2 
 PCOD9174789
Probable space group: C 2/M
;
_chemical_formula_sum "Si O2"
_cell_formula_units_Z 48
_cell_length_a 15.042611
_cell_length_b 19.390977
_cell_length_c 9.884015
_cell_angle_alpha 90.000000
_cell_angle_beta 104.364039
_cell_angle_gamma 90.000000
_cell_volume 2792.949749
_symmetry_space_group_name_H-M "C 2/M"
_symmetry_group_IT_number 12
_symmetry_cell_setting 'monoclinic'
loop_
_space_group_symop_operation_xyz
x,y,z
-x,y,-z
-x,-y,-z
x,-y,z
1/2+x,1/2+y,z
1/2-x,1/2+y,-z
1/2-x,1/2-y,-z
1/2+x,1/2-y,z
loop_
_atom_site_type_symbol
_atom_site_label
_atom_site_fract_x
_atom_site_fract_y
_atom_site_fract_z
Si Si1 0.080775 0.715767 0.791023
Si Si2 0.711038 0.419596 0.856921
Si Si3 0.090963 0.579870 0.946509
Si Si4 0.373188 0.266727 0.679067
Si Si5 0.686178 0.309106 0.623056
Si Si6 0.393142 0.672225 0.972300
O O1 0.095165 0.635883 0.829232
O O2 0.138861 0.747199 0.690169
O O3 0.973853 0.733332 0.726611
O O4 0.110452 0.758695 0.936526
O O5 0.689617 0.500000 0.836216
O O6 0.680784 0.376086 0.715001
O O7 0.819594 0.411835 0.925698
O O8 0.661791 0.385462 0.967675
O O9 0.088303 0.500000 0.900018
O O10 0.000000 0.593983 0.000000
O O11 0.362913 0.312142 0.540168
O O12 0.292538 0.210377 0.641250
O O13 0.358264 0.309998 0.810281
O O14 0.500000 0.652946 0.000000
#
# Coordination Sequence:
#
# PCOD9174789 Si02
#       6
#     8   8   8   8   8   8
#     4  10  18  32  53  74  99 129 166 209 249 291
#     4  10  20  34  51  74 104 134 165 203 248 297
#     4  10  19  30  49  77 104 131 165 205 249 295
#     4  10  19  32  51  76  99 126 168 210 248 292
#     4  10  20  32  51  74 101 133 167 205 249 296
#     4   9  18  32  53  74  95 126 168 211 249 289
#
# _framework density 17.186132000000001
#
# number of rings (size 3 to 8) (size 9 to 14) (size 15 to 20)
#    0.000    2.167    0.000    5.000    0.000    3.000 
#    0.000    0.833    0.000   19.000    0.000    0.000 
#    0.000    0.000    0.000    0.000    0.000    0.000 
#
# Total GULP energy -133931.912258 kJ/mol
# GULP energy per Si atom -5580.496344 kJ/mol
# Density = 1.714702 g / cm^3
# Si number density = 17.186132 Si / 1000 Ang^3
#
#
#
# Elastic Constant Matrix: (Units=GPa)
#
#
# Indices 1 2 3 4 5 6 
#
# 1 39.2180 12.5589 14.9164 0.0000 -6.5156 0.0000
# 2 12.5589 77.1119 41.4307 0.0000 9.3548 0.0000
# 3 14.9164 41.4307 133.8056 0.0000 1.8307 0.0000
# 4 0.0000 0.0000 0.0000 10.1106 0.0000 1.4147
# 5 -6.5156 9.3548 1.8307 0.0000 13.4279 0.0000
# 6 0.0000 0.0000 0.0000 1.4147 0.0000 19.3053
#
#
#
# Elastic Compliance Matrix: (Units=1/GPa)
#
#
# Indices 1 2 3 4 5 6 
#
# 1 0.031664 -0.006680 -0.001739 0.000000 0.020255 0.000000
# 2 -0.006680 0.018497 -0.004771 0.000000 -0.015477 0.000000
# 3 -0.001739 -0.004771 0.009128 0.000000 0.001236 0.000000
# 4 0.000000 0.000000 0.000000 0.099930 0.000000 -0.007323
# 5 0.020255 -0.015477 0.001236 0.000000 0.094914 0.000000
# 6 0.000000 0.000000 0.000000 -0.007323 0.000000 0.052336
#
#
# Mechanical properties :
#
#
# Convention : Reuss Voigt Hill
#
# Bulk Modulus (GPa) = 30.38624 43.10526 36.74575
# Shear Modulus (GPa) = 14.54257 20.65074 17.59666
#
# Velocity S-wave (km/s) = 2.91207 3.47016 3.20329
# Velocity P-wave (km/s) = 5.38757 6.41809 5.92528
#
# Compressibility (1/GPa) = 0.03290964
#
# Stress axis : x y z
#
# Youngs Moduli (GPa) = 31.58150 54.06268 109.55719
#
# Poissons Ratio (x) = 0.36115 0.19047
# Poissons Ratio (y) = 0.21097 0.52268
# Poissons Ratio (z) = 0.05491 0.25793
#
# Static dielectric constant tensor:
#      x y z
#    x 1.600690 0.000000 0.004840 
#    y 0.000000 1.561670 0.000000 
#    z 0.004840 0.000000 1.577740 
# 
# From -- ./inp_files/63573.got.cif
#   From: 2010.05.17/outbox.cif.g08.bks.cpg/sg12_32_cif.got.tgz:63573.got - 2010.06.03 13:09:07.
