data_PCOD9174057
_publ_section_title
;
Structure prediction by ZEFSAII (Michael W. Deem and Ramdas Pophale) SiO2 
 PCOD9174057
Probable space group: C 2/M
;
_chemical_formula_sum "Si O2"
_cell_formula_units_Z 48
_cell_length_a 28.912931
_cell_length_b 7.641435
_cell_length_c 17.861391
_cell_angle_alpha 90.000000
_cell_angle_beta 144.429976
_cell_angle_gamma 90.000000
_cell_volume 2295.511709
_symmetry_space_group_name_H-M "C 2/M"
_symmetry_group_IT_number 12
_symmetry_cell_setting 'monoclinic'
loop_
_space_group_symop_operation_xyz
x,y,z
-x,y,-z
-x,-y,-z
x,-y,z
1/2+x,1/2+y,z
1/2-x,1/2+y,-z
1/2-x,1/2-y,-z
1/2+x,1/2-y,z
loop_
_atom_site_type_symbol
_atom_site_label
_atom_site_fract_x
_atom_site_fract_y
_atom_site_fract_z
Si Si1 0.998893 0.797476 0.281991
Si Si2 0.679730 0.791339 0.964808
Si Si3 0.934715 0.785380 0.474685
Si Si4 0.493253 0.297246 0.873776
Si Si5 0.627625 0.200455 0.165948
Si Si6 0.753632 0.214246 0.218685
O O1 0.904053 0.789476 0.168988
O O2 0.041311 0.722776 0.410899
O O3 0.014188 0.722039 0.219381
O O4 0.024586 0.000000 0.311523
O O5 0.668487 0.000000 0.952995
O O6 0.750000 0.750000 0.000000
O O7 0.706932 0.729599 0.082798
O O8 0.845246 0.732164 0.336985
O O9 0.000000 0.728998 0.500000
O O10 0.936343 0.000000 0.477135
O O11 0.518315 0.500000 0.900969
O O12 0.412705 0.289909 0.816003
O O13 0.560737 0.205340 0.012296
O O14 0.706452 0.273317 0.230507
O O15 0.641995 0.000000 0.206181
O O16 0.751722 0.000000 0.216741
#
# Coordination Sequence:
#
# PCOD9174057 Si02
#       6
#     8   8   8   8   8   8
#     4  10  20  34  54  79 105 137 174 216 265 314
#     4  11  21  34  53  78 106 134 173 222 266 309
#     4   9  17  32  54  76 102 137 179 219 256 308
#     4  10  19  31  49  77 109 136 167 210 268 321
#     4  10  18  31  52  77 103 135 177 216 258 307
#     4   9  18  32  52  78 103 134 177 221 258 303
#
# _framework density 20.910368999999999
#
# number of rings (size 3 to 8) (size 9 to 14) (size 15 to 20)
#    0.000    2.167    1.667    3.500    0.000    3.333 
#    0.000    0.833    0.000    7.500    0.000    0.000 
#    0.000    0.000    0.000    0.000    0.000    0.000 
#
# Total GULP energy -134008.073611 kJ/mol
# GULP energy per Si atom -5583.669734 kJ/mol
# Density = 2.086278 g / cm^3
# Si number density = 20.910369 Si / 1000 Ang^3
#
#
#
# Elastic Constant Matrix: (Units=GPa)
#
#
# Indices 1 2 3 4 5 6 
#
# 1 95.0602 -5.5380 -11.4017 0.0000 8.2729 0.0000
# 2 -5.5380 46.3254 -5.6177 0.0000 -3.6892 0.0000
# 3 -11.4017 -5.6177 47.2311 0.0000 3.7366 0.0000
# 4 0.0000 0.0000 0.0000 5.1434 0.0000 5.0818
# 5 8.2729 -3.6892 3.7366 0.0000 38.0000 0.0000
# 6 0.0000 0.0000 0.0000 5.0818 0.0000 5.8974
#
#
#
# Elastic Compliance Matrix: (Units=1/GPa)
#
#
# Indices 1 2 3 4 5 6 
#
# 1 0.011204 0.001507 0.003089 0.000000 -0.002597 0.000000
# 2 0.001507 0.022240 0.002887 0.000000 0.001547 0.000000
# 3 0.003089 0.002887 0.022467 0.000000 -0.002602 0.000000
# 4 0.000000 0.000000 0.000000 1.308372 0.000000 -1.127433
# 5 -0.002597 0.001547 -0.002602 0.000000 0.027287 0.000000
# 6 0.000000 0.000000 0.000000 -1.127433 0.000000 1.141083
#
#
# Mechanical properties :
#
#
# Convention : Reuss Voigt Hill
#
# Bulk Modulus (GPa) = 14.10881 15.94468 15.02674
# Shear Modulus (GPa) = 1.96749 23.88642 12.92695
#
# Velocity S-wave (km/s) = 0.97106 3.38350 2.48908
# Velocity P-wave (km/s) = 2.83182 4.78601 3.93224
#
# Compressibility (1/GPa) = 0.07087771
#
# Stress axis : x y z
#
# Youngs Moduli (GPa) = 89.25397 44.96428 44.50889
#
# Poissons Ratio (x) = -0.06777 -0.13750
# Poissons Ratio (y) = -0.13453 -0.12848
# Poissons Ratio (z) = -0.27574 -0.12980
#
# Static dielectric constant tensor:
#      x y z
#    x 1.763100 0.000000 -0.011000 
#    y 0.000000 1.795100 0.000000 
#    z -0.011000 0.000000 1.709240 
# 
# From -- ./inp_files/274041.got.cif
#   From: 2010.05.17/outbox.cif.g08.bks.cpg/sg12_138_cif.got.tgz:274041.got - 2010.06.03 13:09:07.
