data_PCOD9174960
_publ_section_title
;
Structure prediction by ZEFSAII (Michael W. Deem and Ramdas Pophale) SiO2 
 PCOD9174960
Probable space group: C 2/M
;
_chemical_formula_sum "Si O2"
_cell_formula_units_Z 56
_cell_length_a 24.950861
_cell_length_b 9.381351
_cell_length_c 11.965958
_cell_angle_alpha 90.000000
_cell_angle_beta 101.900174
_cell_angle_gamma 90.000000
_cell_volume 2740.709064
_symmetry_space_group_name_H-M "C 2/M"
_symmetry_group_IT_number 12
_symmetry_cell_setting 'monoclinic'
loop_
_space_group_symop_operation_xyz
x,y,z
-x,y,-z
-x,-y,-z
x,-y,z
1/2+x,1/2+y,z
1/2-x,1/2+y,-z
1/2-x,1/2-y,-z
1/2+x,1/2-y,z
loop_
_atom_site_type_symbol
_atom_site_label
_atom_site_fract_x
_atom_site_fract_y
_atom_site_fract_z
Si Si1 0.708062 0.670652 0.697180
Si Si2 0.523433 0.331218 0.802824
Si Si3 0.355945 0.670597 0.107865
Si Si4 0.589100 0.833102 0.238750
Si Si5 0.049651 0.653835 0.607275
Si Si6 0.187309 0.665417 0.112689
Si Si7 0.152811 0.663604 0.487895
O O1 0.705755 0.500000 0.680541
O O2 0.663884 0.709392 0.775455
O O3 0.765732 0.708465 0.779529
O O4 0.697552 0.745945 0.574435
O O5 0.515802 0.500000 0.811060
O O6 0.580498 0.289985 0.887742
O O7 0.467167 0.250656 0.805331
O O8 0.538260 0.284551 0.683230
O O9 0.351928 0.500000 0.098554
O O10 0.317241 0.742592 0.000382
O O11 0.629658 0.824996 0.151918
O O12 0.624715 0.781874 0.361606
O O13 0.576236 0.000000 0.255989
O O14 0.050824 0.500000 0.670052
O O15 0.103303 0.662083 0.555603
O O16 0.000000 0.649300 0.500000
O O17 0.198029 0.500000 0.088412
O O18 0.171239 0.500000 0.475220
#
# Coordination Sequence:
#
# PCOD9174960 Si02
#       7
#     8   8   8   8   8   8   8
#     4  10  21  39  60  87 117 146 186 241 292 332
#     4  11  22  35  56  87 117 150 186 231 290 343
#     4  10  22  39  59  84 117 146 183 242 295 336
#     4  10  22  41  58  82 119 155 191 232 277 337
#     4  10  18  32  54  82 115 152 187 230 282 335
#     4  10  23  41  62  82 109 153 200 238 278 334
#     4  10  20  34  57  86 116 151 188 228 281 340
#
# _framework density 20.432669000000001
#
# number of rings (size 3 to 8) (size 9 to 14) (size 15 to 20)
#    0.000    1.857    2.857    0.857    0.000    4.857 
#    0.000    2.857    0.000    0.000    0.000    0.000 
#    0.000    0.000    0.000    0.000    0.000    0.000 
#
# Total GULP energy -156237.496370 kJ/mol
# GULP energy per Si atom -5579.910585 kJ/mol
# Density = 2.038616 g / cm^3
# Si number density = 20.432669 Si / 1000 Ang^3
#
#
#
# Elastic Constant Matrix: (Units=GPa)
#
#
# Indices 1 2 3 4 5 6 
#
# 1 68.7800 26.4043 33.8496 0.0000 17.8105 0.0000
# 2 26.4043 31.3674 29.9641 0.0000 15.8067 0.0000
# 3 33.8496 29.9641 43.4250 0.0000 22.4886 0.0000
# 4 0.0000 0.0000 0.0000 26.8023 0.0000 9.8157
# 5 17.8105 15.8067 22.4886 0.0000 27.4516 0.0000
# 6 0.0000 0.0000 0.0000 9.8157 0.0000 19.1811
#
#
#
# Elastic Compliance Matrix: (Units=1/GPa)
#
#
# Indices 1 2 3 4 5 6 
#
# 1 0.024083 -0.006856 -0.013885 0.000000 -0.000302 0.000000
# 2 -0.006856 0.095530 -0.059731 0.000000 -0.001625 0.000000
# 3 -0.013885 -0.059731 0.091342 0.000000 -0.031427 0.000000
# 4 0.000000 0.000000 0.000000 0.045915 0.000000 -0.023497
# 5 -0.000302 -0.001625 -0.031427 0.000000 0.063305 0.000000
# 6 0.000000 0.000000 0.000000 -0.023497 0.000000 0.064159
#
#
# Mechanical properties :
#
#
# Convention : Reuss Voigt Hill
#
# Bulk Modulus (GPa) = 19.99602 36.00094 27.99848
# Shear Modulus (GPa) = 8.89759 18.24394 13.57077
#
# Velocity S-wave (km/s) = 2.08903 2.99135 2.57995
# Velocity P-wave (km/s) = 3.95301 5.43953 4.75472
#
# Compressibility (1/GPa) = 0.05000994
#
# Stress axis : x y z
#
# Youngs Moduli (GPa) = 41.52321 10.46792 10.94782
#
# Poissons Ratio (x) = 0.07177 0.15201
# Poissons Ratio (y) = 0.28469 0.65393
# Poissons Ratio (z) = 0.57656 0.62526
#
# Static dielectric constant tensor:
#      x y z
#    x 1.768130 0.000000 0.013890 
#    y 0.000000 1.725850 0.000000 
#    z 0.013890 0.000000 1.720050 
# 
# From -- ./inp_files/181007.got.cif
#   From: 2010.05.17/outbox.cif.g08.bks.cpg/sg12_91_cif.got.tgz:181007.got - 2010.06.03 13:09:07.
