data_PCOD9174539
_publ_section_title
;
Structure prediction by ZEFSAII (Michael W. Deem and Ramdas Pophale) SiO2 
 PCOD9174539
Probable space group: C 2/M
;
_chemical_formula_sum "Si O2"
_cell_formula_units_Z 40
_cell_length_a 9.601091
_cell_length_b 28.264257
_cell_length_c 6.737345
_cell_angle_alpha 90.000000
_cell_angle_beta 133.806291
_cell_angle_gamma 90.000000
_cell_volume 1319.453714
_symmetry_space_group_name_H-M "C 2/M"
_symmetry_group_IT_number 12
_symmetry_cell_setting 'monoclinic'
loop_
_space_group_symop_operation_xyz
x,y,z
-x,y,-z
-x,-y,-z
x,-y,z
1/2+x,1/2+y,z
1/2-x,1/2+y,-z
1/2-x,1/2-y,-z
1/2+x,1/2-y,z
loop_
_atom_site_type_symbol
_atom_site_label
_atom_site_fract_x
_atom_site_fract_y
_atom_site_fract_z
Si Si1 0.235637 0.393705 0.069551
Si Si2 0.718936 0.702603 0.736009
Si Si3 0.684275 0.400584 0.384315
Si Si4 0.271888 0.694494 0.717756
Si Si5 0.167717 0.000000 0.396051
Si Si6 0.208560 0.500000 0.037825
O O1 0.184276 0.336269 0.022650
O O2 0.454091 0.395315 0.196286
O O3 0.237994 0.397658 0.314682
O O4 0.143536 0.445368 0.921763
O O5 0.500000 0.685623 0.500000
O O6 0.784019 0.702554 0.570274
O O7 0.704271 0.758644 0.763839
O O8 0.774276 0.361483 0.328751
O O9 0.715087 0.452433 0.333003
O O10 0.500000 0.695889 0.000000
O O11 0.285840 0.000000 0.716455
O O12 0.939951 0.000000 0.217917
#
# Coordination Sequence:
#
# PCOD9174539 Si02
#       6
#     8   8   8   8   4   4
#     4   8  11  22  39  60  84 109 136 174 218 254
#     4  10  18  32  46  62  89 120 146 181 216 253
#     4   8  12  23  37  59  85 110 136 174 214 256
#     4  10  20  30  44  65  90 117 149 180 213 257
#     4   7  10  16  35  56  81 108 132 165 218 257
#     4   7  10  14  34  62  81 100 134 172 214 260
#
# _framework density 30.315577999999999
#
# number of rings (size 3 to 8) (size 9 to 14) (size 15 to 20)
#    0.000    3.400    4.000    2.400    0.000    0.800 
#    0.000    0.500    0.000    0.000    0.000    1.400 
#    0.000    0.000    0.000    0.000    0.000    0.000 
#
# Total GULP energy -111472.266688 kJ/mol
# GULP energy per Si atom -5573.613334 kJ/mol
# Density = 3.024658 g / cm^3
# Si number density = 30.315578 Si / 1000 Ang^3
#
#
#
# Elastic Constant Matrix: (Units=GPa)
#
#
# Indices 1 2 3 4 5 6 
#
# 1 92.6548 52.7643 62.7552 0.0000 0.6419 0.0000
# 2 52.7643 421.5968 42.9904 0.0000 -17.9699 0.0000
# 3 62.7552 42.9904 71.6712 0.0000 -16.6178 0.0000
# 4 0.0000 0.0000 0.0000 21.5630 0.0000 -5.1202
# 5 0.6419 -17.9699 -16.6178 0.0000 60.0917 0.0000
# 6 0.0000 0.0000 0.0000 -5.1202 0.0000 38.3219
#
#
#
# Elastic Compliance Matrix: (Units=1/GPa)
#
#
# Indices 1 2 3 4 5 6 
#
# 1 0.030446 -0.001333 -0.027810 0.000000 -0.008414 0.000000
# 2 -0.001333 0.002592 -0.000218 0.000000 0.000729 0.000000
# 3 -0.027810 -0.000218 0.041124 0.000000 0.011604 0.000000
# 4 0.000000 0.000000 0.000000 0.047895 0.000000 0.006399
# 5 -0.008414 0.000729 0.011604 0.000000 0.020158 0.000000
# 6 0.000000 0.000000 0.000000 0.006399 0.000000 0.026950
#
#
# Mechanical properties :
#
#
# Convention : Reuss Voigt Hill
#
# Bulk Modulus (GPa) = 64.76807 100.32696 82.54751
# Shear Modulus (GPa) = 21.45607 52.48952 36.97279
#
# Velocity S-wave (km/s) = 2.66326 4.16557 3.49606
# Velocity P-wave (km/s) = 5.55592 7.50346 6.60190
#
# Compressibility (1/GPa) = 0.01543971
#
# Stress axis : x y z
#
# Youngs Moduli (GPa) = 32.84527 385.78136 24.31656
#
# Poissons Ratio (x) = 0.51436 0.67623
# Poissons Ratio (y) = 0.04379 0.00531
# Poissons Ratio (z) = 0.91341 0.08425
#
# Static dielectric constant tensor:
#      x y z
#    x 2.374610 0.000000 -0.035590 
#    y 0.000000 2.452750 0.000000 
#    z -0.035590 0.000000 2.412130 
# 
# From -- ./inp_files/51890.got.cif
#   From: 2010.05.17/outbox.cif.g08.bks.cpg/sg12_26_cif.got.tgz:51890.got - 2010.06.03 13:09:07.
