data_PCOD9174021
_publ_section_title
;
Structure prediction by ZEFSAII (Michael W. Deem and Ramdas Pophale) SiO2 
 PCOD9174021
Probable space group: C 2/M
;
_chemical_formula_sum "Si O2"
_cell_formula_units_Z 48
_cell_length_a 21.286658
_cell_length_b 17.390943
_cell_length_c 6.895231
_cell_angle_alpha 90.000000
_cell_angle_beta 48.523225
_cell_angle_gamma 90.000000
_cell_volume 1912.455165
_symmetry_space_group_name_H-M "C 2/M"
_symmetry_group_IT_number 12
_symmetry_cell_setting 'monoclinic'
loop_
_space_group_symop_operation_xyz
x,y,z
-x,y,-z
-x,-y,-z
x,-y,z
1/2+x,1/2+y,z
1/2-x,1/2+y,-z
1/2-x,1/2-y,-z
1/2+x,1/2-y,z
loop_
_atom_site_type_symbol
_atom_site_label
_atom_site_fract_x
_atom_site_fract_y
_atom_site_fract_z
Si Si1 0.762631 0.916456 0.498560
Si Si2 0.914210 0.623370 0.289641
Si Si3 0.915205 0.235653 0.787331
Si Si4 0.381230 0.915657 0.785467
Si Si5 0.347141 0.724406 0.348823
Si Si6 0.191307 0.086245 0.054980
O O1 0.663071 0.900318 0.692430
O O2 0.826966 0.859058 0.467971
O O3 0.777379 0.000000 0.543812
O O4 0.785883 0.913606 0.222421
O O5 0.913282 0.581962 0.496318
O O6 0.890260 0.711654 0.390105
O O7 0.000000 0.615513 0.000000
O O8 0.904301 0.328933 0.803288
O O9 0.852202 0.169858 0.833120
O O10 0.000000 0.219263 0.500000
O O11 0.904432 0.220977 0.040339
O O12 0.405050 0.000000 0.822073
O O13 0.280467 0.913312 0.979929
O O14 0.250000 0.750000 0.500000
O O15 0.151724 0.000000 0.168935
#
# Coordination Sequence:
#
# PCOD9174021 Si02
#       6
#     8   8   8   8   8   8
#     4   8  15  29  49  72  98 129 167 209 251 304
#     4  10  18  31  52  75 101 134 174 216 258 307
#     4  11  21  34  54  81 111 137 168 222 274 306
#     4  10  21  36  53  74 104 143 180 214 257 315
#     4   9  19  35  53  75 102 139 178 209 254 312
#     4   8  16  32  53  74  97 133 177 210 248 309
#
# _framework density 25.098628999999999
#
# number of rings (size 3 to 8) (size 9 to 14) (size 15 to 20)
#    0.000    2.667    0.000    4.000    0.000    2.000 
#    0.000    4.167    0.000    1.500    0.000    0.000 
#    0.000    0.000    0.000    0.000    0.000    0.000 
#
# Total GULP energy -134007.274420 kJ/mol
# GULP energy per Si atom -5583.636434 kJ/mol
# Density = 2.504150 g / cm^3
# Si number density = 25.098629 Si / 1000 Ang^3
#
#
#
# Elastic Constant Matrix: (Units=GPa)
#
#
# Indices 1 2 3 4 5 6 
#
# 1 47.3044 37.2079 23.9412 0.0000 6.3436 0.0000
# 2 37.2079 236.3111 75.5535 0.0000 -24.6960 0.0000
# 3 23.9412 75.5535 156.4554 0.0000 -7.6206 0.0000
# 4 0.0000 0.0000 0.0000 29.3776 0.0000 4.1491
# 5 6.3436 -24.6960 -7.6206 0.0000 26.5680 0.0000
# 6 0.0000 0.0000 0.0000 4.1491 0.0000 37.1251
#
#
#
# Elastic Compliance Matrix: (Units=1/GPa)
#
#
# Indices 1 2 3 4 5 6 
#
# 1 0.027773 -0.004807 -0.002504 0.000000 -0.011818 0.000000
# 2 -0.004807 0.006298 -0.001992 0.000000 0.006430 0.000000
# 3 -0.002504 -0.001992 0.007785 0.000000 0.000979 0.000000
# 4 0.000000 0.000000 0.000000 0.034585 0.000000 -0.003865
# 5 -0.011818 0.006430 0.000979 0.000000 0.046719 0.000000
# 6 0.000000 0.000000 0.000000 -0.003865 0.000000 0.027368
#
#
# Mechanical properties :
#
#
# Convention : Reuss Voigt Hill
#
# Bulk Modulus (GPa) = 43.01480 79.27510 61.14495
# Shear Modulus (GPa) = 28.26696 38.83868 33.55282
#
# Velocity S-wave (km/s) = 3.35958 3.93802 3.66025
# Velocity P-wave (km/s) = 5.67667 7.23404 6.50215
#
# Compressibility (1/GPa) = 0.02324781
#
# Stress axis : x y z
#
# Youngs Moduli (GPa) = 36.00588 158.78911 128.45950
#
# Poissons Ratio (x) = 0.76338 0.32166
# Poissons Ratio (y) = 0.17310 0.25593
# Poissons Ratio (z) = 0.09016 0.31636
#
# Static dielectric constant tensor:
#      x y z
#    x 2.039410 0.000000 0.043130 
#    y 0.000000 2.047890 0.000000 
#    z 0.043130 0.000000 1.969540 
# 
# From -- ./inp_files/112748.got.cif
#   From: 2010.05.17/outbox.cif.g08.bks.cpg/sg12_57_cif.got.tgz:112748.got - 2010.06.03 13:09:07.
