data_PCOD9174834
_publ_section_title
;
Structure prediction by ZEFSAII (Michael W. Deem and Ramdas Pophale) SiO2 
 PCOD9174834
Probable space group: C 2/M
;
_chemical_formula_sum "Si O2"
_cell_formula_units_Z 56
_cell_length_a 31.291728
_cell_length_b 7.574514
_cell_length_c 12.185006
_cell_angle_alpha 90.000000
_cell_angle_beta 57.201760
_cell_angle_gamma 90.000000
_cell_volume 2427.676390
_symmetry_space_group_name_H-M "C 2/M"
_symmetry_group_IT_number 12
_symmetry_cell_setting 'monoclinic'
loop_
_space_group_symop_operation_xyz
x,y,z
-x,y,-z
-x,-y,-z
x,-y,z
1/2+x,1/2+y,z
1/2-x,1/2+y,-z
1/2-x,1/2-y,-z
1/2+x,1/2-y,z
loop_
_atom_site_type_symbol
_atom_site_label
_atom_site_fract_x
_atom_site_fract_y
_atom_site_fract_z
Si Si1 0.114000 0.285630 0.823190
Si Si2 0.902386 0.705078 0.917788
Si Si3 0.921295 0.792033 0.369357
Si Si4 0.190292 0.209700 0.085009
Si Si5 0.229654 0.288781 0.649691
Si Si6 0.174011 0.784232 0.350913
Si Si7 0.980725 0.298876 0.640403
O O1 0.114613 0.500000 0.825099
O O2 0.087442 0.233103 0.747475
O O3 0.172454 0.221352 0.739800
O O4 0.090071 0.221655 0.970901
O O5 0.917997 0.500000 0.901342
O O6 0.843287 0.712234 0.966027
O O7 0.934988 0.785882 0.773196
O O8 0.871668 0.728739 0.505886
O O9 0.971274 0.700330 0.345498
O O10 0.926946 0.000000 0.383753
O O11 0.168785 0.272761 0.232540
O O12 0.184319 0.000000 0.087060
O O13 0.250000 0.250000 0.000000
O O14 0.227249 0.500000 0.666588
O O15 0.250000 0.250000 0.500000
O O16 0.271899 0.222872 0.676174
O O17 0.174583 0.000000 0.350912
O O18 0.964853 0.500000 0.633471
O O19 0.000000 0.215097 0.500000
#
# Coordination Sequence:
#
# PCOD9174834 Si02
#       7
#     8   8   8   8   8   8   8
#     4  10  21  37  58  83 116 156 193 235 290 350
#     4  10  22  41  62  84 116 156 193 237 292 345
#     4  11  22  37  60  87 116 150 193 243 289 341
#     4  11  22  38  60  86 118 154 193 236 285 345
#     4  10  18  32  53  78 111 148 187 229 276 333
#     4   9  19  35  55  81 116 153 188 235 291 341
#     4  10  22  41  64  88 115 148 192 243 292 346
#
# _framework density 23.067326999999999
#
# number of rings (size 3 to 8) (size 9 to 14) (size 15 to 20)
#    0.000    1.857    1.429    2.571    0.000    4.286 
#    0.000    7.857    0.000    0.000    0.000    0.000 
#    0.000    0.000    0.000    0.000    0.000    0.000 
#
# Total GULP energy -156542.224450 kJ/mol
# GULP energy per Si atom -5590.793730 kJ/mol
# Density = 2.301482 g / cm^3
# Si number density = 23.067327 Si / 1000 Ang^3
#
#
#
# Elastic Constant Matrix: (Units=GPa)
#
#
# Indices 1 2 3 4 5 6 
#
# 1 100.8149 -10.8876 32.2416 0.0000 9.6621 0.0000
# 2 -10.8876 63.8085 0.4565 0.0000 -2.8548 0.0000
# 3 32.2416 0.4565 150.9937 0.0000 15.1643 0.0000
# 4 0.0000 0.0000 0.0000 13.3391 0.0000 3.2414
# 5 9.6621 -2.8548 15.1643 0.0000 39.1145 0.0000
# 6 0.0000 0.0000 0.0000 3.2414 0.0000 7.7531
#
#
#
# Elastic Compliance Matrix: (Units=1/GPa)
#
#
# Indices 1 2 3 4 5 6 
#
# 1 0.010977 0.001811 -0.002175 0.000000 -0.001736 0.000000
# 2 0.001811 0.016026 -0.000528 0.000000 0.000927 0.000000
# 3 -0.002175 -0.000528 0.007324 0.000000 -0.002341 0.000000
# 4 0.000000 0.000000 0.000000 0.083445 0.000000 -0.034887
# 5 -0.001736 0.000927 -0.002341 0.000000 0.026970 0.000000
# 6 0.000000 0.000000 0.000000 -0.034887 0.000000 0.143565
#
#
# Mechanical properties :
#
#
# Convention : Reuss Voigt Hill
#
# Bulk Modulus (GPa) = 30.72955 39.91535 35.32245
# Shear Modulus (GPa) = 16.61465 31.62845 24.12155
#
# Velocity S-wave (km/s) = 2.68669 3.70690 3.23724
# Velocity P-wave (km/s) = 4.79323 5.97184 5.41470
#
# Compressibility (1/GPa) = 0.03254197
#
# Stress axis : x y z
#
# Youngs Moduli (GPa) = 91.10216 62.39813 136.53958
#
# Poissons Ratio (x) = -0.11299 0.29697
# Poissons Ratio (y) = -0.16497 0.07212
# Poissons Ratio (z) = 0.19814 0.03296
#
# Static dielectric constant tensor:
#      x y z
#    x 1.813750 0.000000 -0.011270 
#    y 0.000000 1.836900 0.000000 
#    z -0.011270 0.000000 1.882950 
# 
# From -- ./inp_files/187159.got.cif
#   From: 2010.05.17/outbox.cif.g08.bks.cpg/sg12_94_cif.got.tgz:187159.got - 2010.06.03 13:09:07.
