data_PCOD9174815
_publ_section_title
;
Structure prediction by ZEFSAII (Michael W. Deem and Ramdas Pophale) SiO2 
 PCOD9174815
Probable space group: C 2/M
;
_chemical_formula_sum "Si O2"
_cell_formula_units_Z 56
_cell_length_a 19.013640
_cell_length_b 13.978382
_cell_length_c 8.830972
_cell_angle_alpha 90.000000
_cell_angle_beta 91.650133
_cell_angle_gamma 90.000000
_cell_volume 2346.121722
_symmetry_space_group_name_H-M "C 2/M"
_symmetry_group_IT_number 12
_symmetry_cell_setting 'monoclinic'
loop_
_space_group_symop_operation_xyz
x,y,z
-x,y,-z
-x,-y,-z
x,-y,z
1/2+x,1/2+y,z
1/2-x,1/2+y,-z
1/2-x,1/2-y,-z
1/2+x,1/2-y,z
loop_
_atom_site_type_symbol
_atom_site_label
_atom_site_fract_x
_atom_site_fract_y
_atom_site_fract_z
Si Si1 0.821187 0.168030 0.001553
Si Si2 0.888460 0.898284 0.506146
Si Si3 0.950956 0.103036 0.180178
Si Si4 0.811056 0.649784 0.186834
Si Si5 0.475049 0.826873 0.157900
Si Si6 0.767611 0.639206 0.520072
Si Si7 0.114669 0.712783 0.280768
O O1 0.752190 0.116640 0.928900
O O2 0.855848 0.239148 0.874352
O O3 0.881862 0.102103 0.070235
O O4 0.802935 0.236870 0.143723
O O5 0.933259 0.891281 0.357185
O O6 0.807384 0.903744 0.449057
O O7 0.894888 0.805223 0.610539
O O8 0.904466 0.000000 0.584586
O O9 0.978619 0.209860 0.150489
O O10 0.987461 0.000000 0.159205
O O11 0.895508 0.638244 0.178706
O O12 0.792296 0.613740 0.352442
O O13 0.540829 0.843097 0.271162
O O14 0.500000 0.866624 0.000000
O O15 0.750000 0.750000 0.500000
O O16 0.828051 0.639761 0.647913
#
# Coordination Sequence:
#
# PCOD9174815 Si02
#       7
#     8   8   8   8   8   8   8
#     4  10  18  32  53  76  98 138 178 222 259 297
#     4  10  22  37  53  77 108 140 181 223 261 312
#     4  10  22  36  50  71 110 152 180 207 254 316
#     4  10  19  31  51  74 104 131 169 221 267 298
#     4  11  21  34  48  80 111 139 172 218 264 308
#     4  10  18  33  53  78 100 134 176 225 268 302
#     4  11  20  33  56  79 104 143 177 218 263 320
#
# _framework density 23.869178000000002
#
# number of rings (size 3 to 8) (size 9 to 14) (size 15 to 20)
#    0.000    1.714    5.714    3.429    2.000    3.714 
#    0.000    1.429    0.000    0.000    0.000    3.000 
#    0.000    5.143    0.000    0.000    0.000    0.000 
#
# Total GULP energy -156007.439233 kJ/mol
# GULP energy per Si atom -5571.694258 kJ/mol
# Density = 2.381485 g / cm^3
# Si number density = 23.869178 Si / 1000 Ang^3
#
#
#
# Elastic Constant Matrix: (Units=GPa)
#
#
# Indices 1 2 3 4 5 6 
#
# 1 137.6523 -14.8637 16.6075 0.0000 32.4136 0.0000
# 2 -14.8637 35.3682 7.1796 0.0000 -0.5375 0.0000
# 3 16.6075 7.1796 77.2527 0.0000 4.2349 0.0000
# 4 0.0000 0.0000 0.0000 -8.2119 0.0000 4.9435
# 5 32.4136 -0.5375 4.2349 0.0000 57.7438 0.0000
# 6 0.0000 0.0000 0.0000 4.9435 0.0000 -66.9836
#
#
#
# Elastic Compliance Matrix: (Units=1/GPa)
#
#
# Indices 1 2 3 4 5 6 
#
# 1 0.009129 0.004184 -0.002081 0.000000 -0.004933 0.000000
# 2 0.004184 0.030748 -0.003659 0.000000 -0.001794 0.000000
# 3 -0.002081 -0.003659 0.013725 0.000000 0.000127 0.000000
# 4 0.000000 0.000000 0.000000 -0.127436 0.000000 -0.009405
# 5 -0.004933 -0.001794 0.000127 0.000000 0.020061 0.000000
# 6 0.000000 0.000000 0.000000 -0.009405 0.000000 -0.015623
#
#
# Mechanical properties :
#
#
# Convention : Reuss Voigt Hill
#
# Bulk Modulus (GPa) = 19.80571 29.79112 24.79842
# Shear Modulus (GPa) = -101.10133 12.59966 -44.25084
#
# Velocity S-wave (km/s) = -6.51524 2.30002 -4.31035
# Velocity P-wave (km/s) = 6.94854 4.42284 3.78950
#
# Compressibility (1/GPa) = 0.05049050
#
# Stress axis : x y z
#
# Youngs Moduli (GPa) = 109.53963 32.52267 72.86008
#
# Poissons Ratio (x) = -0.13608 0.15162
# Poissons Ratio (y) = -0.45832 0.26657
# Poissons Ratio (z) = 0.22795 0.11899
#
# Static dielectric constant tensor:
#      x y z
#    x 2.005440 0.000000 0.045960 
#    y 0.000000 2.017740 0.000000 
#    z 0.045960 0.000000 1.936540 
# 
# From -- ./inp_files/87281.got.cif
#   From: 2010.05.17/outbox.cif.g08.bks.cpg/sg12_44_cif.got.tgz:87281.got - 2010.06.03 13:09:07.
