data_PCOD9174885
_publ_section_title
;
Structure prediction by ZEFSAII (Michael W. Deem and Ramdas Pophale) SiO2 
 PCOD9174885
Probable space group: C 2/M
;
_chemical_formula_sum "Si O2"
_cell_formula_units_Z 56
_cell_length_a 19.944706
_cell_length_b 8.624203
_cell_length_c 22.331619
_cell_angle_alpha 90.000000
_cell_angle_beta 124.713020
_cell_angle_gamma 90.000000
_cell_volume 3157.521961
_symmetry_space_group_name_H-M "C 2/M"
_symmetry_group_IT_number 12
_symmetry_cell_setting 'monoclinic'
loop_
_space_group_symop_operation_xyz
x,y,z
-x,y,-z
-x,-y,-z
x,-y,z
1/2+x,1/2+y,z
1/2-x,1/2+y,-z
1/2-x,1/2-y,-z
1/2+x,1/2-y,z
loop_
_atom_site_type_symbol
_atom_site_label
_atom_site_fract_x
_atom_site_fract_y
_atom_site_fract_z
Si Si1 0.620829 0.314543 0.448641
Si Si2 0.009191 0.312032 0.809318
Si Si3 0.788599 0.186010 0.202406
Si Si4 0.037570 0.685829 0.685731
Si Si5 0.309664 0.186052 0.080676
Si Si6 0.666616 0.812444 0.242248
Si Si7 0.242552 0.185557 0.401811
O O1 0.617389 0.500000 0.449595
O O2 0.531046 0.246326 0.394109
O O3 0.671722 0.250059 0.530443
O O4 0.674727 0.269557 0.417389
O O5 0.008603 0.500000 0.810958
O O6 0.009523 0.269289 0.739151
O O7 0.926809 0.257096 0.798976
O O8 0.096036 0.261580 0.880127
O O9 0.785302 0.257454 0.134544
O O10 0.713268 0.234326 0.205826
O O11 0.872906 0.242391 0.275550
O O12 0.789849 0.000000 0.198208
O O13 0.043000 0.500000 0.685950
O O14 0.308321 0.000000 0.079027
O O15 0.250000 0.250000 0.000000
O O16 0.715530 0.752974 0.324791
O O17 0.666228 0.000000 0.243945
O O18 0.245620 0.000000 0.400869
#
# Coordination Sequence:
#
# PCOD9174885 Si02
#       7
#     8   8   8   8   8   8   8
#     4  10  19  31  49  75 105 139 182 228 272 317
#     4   8  16  31  54  79 101 134 178 214 254 307
#     4  10  21  35  55  81 110 141 174 215 266 321
#     4  10  18  32  54  76 104 140 181 227 266 314
#     4  10  20  37  60  84 109 139 175 217 260 312
#     4  10  19  35  55  77 107 142 178 219 265 319
#     4  10  20  31  48  76 107 140 177 225 275 316
#
# _framework density 17.735427000000001
#
# number of rings (size 3 to 8) (size 9 to 14) (size 15 to 20)
#    0.000    2.286    1.429    3.000    0.000    2.286 
#    0.000    2.143    0.000    8.571    0.000    0.000 
#    0.000    0.000    0.000    0.000    0.000    0.000 
#
# Total GULP energy -156221.748243 kJ/mol
# GULP energy per Si atom -5579.348152 kJ/mol
# Density = 1.769506 g / cm^3
# Si number density = 17.735427 Si / 1000 Ang^3
#
#
#
# Elastic Constant Matrix: (Units=GPa)
#
#
# Indices 1 2 3 4 5 6 
#
# 1 131.6383 30.7810 68.5332 0.0000 14.7653 0.0000
# 2 30.7810 33.9365 26.7666 0.0000 2.8093 0.0000
# 3 68.5332 26.7666 133.0813 0.0000 24.3511 0.0000
# 4 0.0000 0.0000 0.0000 31.9193 0.0000 2.4834
# 5 14.7653 2.8093 24.3511 0.0000 21.5134 0.0000
# 6 0.0000 0.0000 0.0000 2.4834 0.0000 20.5430
#
#
#
# Elastic Compliance Matrix: (Units=1/GPa)
#
#
# Indices 1 2 3 4 5 6 
#
# 1 0.011694 -0.007136 -0.004148 0.000000 -0.002399 0.000000
# 2 -0.007136 0.039694 -0.005368 0.000000 0.005791 0.000000
# 3 -0.004148 -0.005368 0.012714 0.000000 -0.010843 0.000000
# 4 0.000000 0.000000 0.000000 0.031626 0.000000 -0.003823
# 5 -0.002399 0.005791 -0.010843 0.000000 0.059646 0.000000
# 6 0.000000 0.000000 0.000000 -0.003823 0.000000 0.049141
#
#
# Mechanical properties :
#
#
# Convention : Reuss Voigt Hill
#
# Bulk Modulus (GPa) = 32.47025 61.20194 46.83610
# Shear Modulus (GPa) = 20.15430 26.30016 23.22723
#
# Velocity S-wave (km/s) = 3.37469 3.85504 3.62284
# Velocity P-wave (km/s) = 5.79073 7.37552 6.63065
#
# Compressibility (1/GPa) = 0.03079743
#
# Stress axis : x y z
#
# Youngs Moduli (GPa) = 85.51614 25.19243 78.65407
#
# Poissons Ratio (x) = 0.17979 0.32622
# Poissons Ratio (y) = 0.61028 0.42224
# Poissons Ratio (z) = 0.35468 0.13524
#
# Static dielectric constant tensor:
#      x y z
#    x 1.622590 0.000000 0.012380 
#    y 0.000000 1.596670 0.000000 
#    z 0.012380 0.000000 1.575020 
# 
# From -- ./inp_files/313801.got.cif
#   From: 2010.05.17/outbox.cif.g08.bks.cpg/sg12_157_cif.got.tgz:313801.got - 2010.06.03 13:09:07.
