data_PCOD9174410
_publ_section_title
;
Structure prediction by ZEFSAII (Michael W. Deem and Ramdas Pophale) SiO2 
 PCOD9174410
Probable space group: C 2/M
;
_chemical_formula_sum "Si O2"
_cell_formula_units_Z 56
_cell_length_a 19.834279
_cell_length_b 14.803183
_cell_length_c 14.644200
_cell_angle_alpha 90.000000
_cell_angle_beta 36.750921
_cell_angle_gamma 90.000000
_cell_volume 2572.665874
_symmetry_space_group_name_H-M "C 2/M"
_symmetry_group_IT_number 12
_symmetry_cell_setting 'monoclinic'
loop_
_space_group_symop_operation_xyz
x,y,z
-x,y,-z
-x,-y,-z
x,-y,z
1/2+x,1/2+y,z
1/2-x,1/2+y,-z
1/2-x,1/2-y,-z
1/2+x,1/2-y,z
loop_
_atom_site_type_symbol
_atom_site_label
_atom_site_fract_x
_atom_site_fract_y
_atom_site_fract_z
Si Si1 0.538721 0.895518 0.638304
Si Si2 0.311259 0.889144 0.972769
Si Si3 0.383570 0.895944 0.090746
Si Si4 0.135889 0.110408 0.019933
Si Si5 0.793821 0.640545 0.377671
Si Si6 0.720940 0.897396 0.304935
Si Si7 0.621706 0.654858 0.708919
O O1 0.614697 0.895065 0.647991
O O2 0.613949 0.854917 0.474468
O O3 0.520274 0.000000 0.633963
O O4 0.418046 0.857113 0.796569
O O5 0.331958 0.858107 0.053916
O O6 0.195415 0.863787 0.050075
O O7 0.312941 0.000000 0.969623
O O8 0.304452 0.896323 0.264706
O O9 0.412455 0.000000 0.035747
O O10 0.500000 0.851759 0.000000
O O11 0.011515 0.149220 0.143720
O O12 0.126615 0.000000 0.024361
O O13 0.220859 0.141793 0.847657
O O14 0.674014 0.624689 0.555284
O O15 0.827420 0.745368 0.333717
O O16 0.819413 0.900042 0.274038
O O17 0.688617 0.000000 0.315423
#
# Coordination Sequence:
#
# PCOD9174410 Si02
#       7
#     8   8   8   8   8   8   8
#     4   9  16  31  54  79 103 133 175 219 263 308
#     4   9  18  32  52  81 112 137 170 215 267 322
#     4  10  18  31  55  83 104 130 174 222 265 311
#     4  10  20  35  53  78 112 143 171 214 266 321
#     4  10  20  34  54  76 102 135 178 226 261 302
#     4   9  18  32  54  78 102 137 180 220 259 308
#     4  10  21  35  52  75 104 140 181 216 262 315
#
# _framework density 21.767303999999999
#
# number of rings (size 3 to 8) (size 9 to 14) (size 15 to 20)
#    0.000    2.429    1.429    1.286    0.000    4.571 
#    0.000    4.286    0.000    2.571    0.000    0.000 
#    0.000    0.000    0.000    0.000    0.000    0.000 
#
# Total GULP energy -156226.669363 kJ/mol
# GULP energy per Si atom -5579.523906 kJ/mol
# Density = 2.171776 g / cm^3
# Si number density = 21.767304 Si / 1000 Ang^3
#
#
#
# Elastic Constant Matrix: (Units=GPa)
#
#
# Indices 1 2 3 4 5 6 
#
# 1 78.5801 6.0554 34.0691 0.0000 15.4894 0.0000
# 2 6.0554 43.4593 -0.2742 0.0000 0.7272 0.0000
# 3 34.0691 -0.2742 73.8789 0.0000 20.7318 0.0000
# 4 0.0000 0.0000 0.0000 -4.9070 0.0000 -57.2113
# 5 15.4894 0.7272 20.7318 0.0000 24.2404 0.0000
# 6 0.0000 0.0000 0.0000 -57.2113 0.0000 -138.8129
#
#
#
# Elastic Compliance Matrix: (Units=1/GPa)
#
#
# Indices 1 2 3 4 5 6 
#
# 1 0.016624 -0.002268 -0.006201 0.000000 -0.005251 0.000000
# 2 -0.002268 0.023339 0.001213 0.000000 -0.000289 0.000000
# 3 -0.006201 0.001213 0.020129 0.000000 -0.013290 0.000000
# 4 0.000000 0.000000 0.000000 0.053555 0.000000 -0.022072
# 5 -0.005251 -0.000289 -0.013290 0.000000 0.055984 0.000000
# 6 0.000000 0.000000 0.000000 -0.022072 0.000000 0.001893
#
#
# Mechanical properties :
#
#
# Convention : Reuss Voigt Hill
#
# Bulk Modulus (GPa) = 21.93880 30.62431 26.28156
# Shear Modulus (GPa) = 24.84748 -13.49138 5.67805
#
# Velocity S-wave (km/s) = 3.38228 -2.49228 1.61684
# Velocity P-wave (km/s) = 5.03525 2.41196 3.94787
#
# Compressibility (1/GPa) = 0.04558135
#
# Stress axis : x y z
#
# Youngs Moduli (GPa) = 60.15319 42.84766 49.67930
#
# Poissons Ratio (x) = 0.09716 0.30806
# Poissons Ratio (y) = 0.13640 -0.06028
# Poissons Ratio (z) = 0.37301 -0.05199
#
# Static dielectric constant tensor:
#      x y z
#    x 1.782630 0.000000 0.023730 
#    y 0.000000 1.878670 0.000000 
#    z 0.023730 0.000000 1.821920 
# 
# From -- ./inp_files/158204.got.cif
#   From: 2010.05.17/outbox.cif.g08.bks.cpg/sg12_80_cif.got.tgz:158204.got - 2010.06.03 13:09:07.
