data_PCOD9174697
_publ_section_title
;
Structure prediction by ZEFSAII (Michael W. Deem and Ramdas Pophale) SiO2 
 PCOD9174697
Probable space group: C 2/M
;
_chemical_formula_sum "Si O2"
_cell_formula_units_Z 56
_cell_length_a 25.530234
_cell_length_b 17.086464
_cell_length_c 12.737213
_cell_angle_alpha 90.000000
_cell_angle_beta 143.950720
_cell_angle_gamma 90.000000
_cell_volume 3269.744000
_symmetry_space_group_name_H-M "C 2/M"
_symmetry_group_IT_number 12
_symmetry_cell_setting 'monoclinic'
loop_
_space_group_symop_operation_xyz
x,y,z
-x,y,-z
-x,-y,-z
x,-y,z
1/2+x,1/2+y,z
1/2-x,1/2+y,-z
1/2-x,1/2-y,-z
1/2+x,1/2-y,z
loop_
_atom_site_type_symbol
_atom_site_label
_atom_site_fract_x
_atom_site_fract_y
_atom_site_fract_z
Si Si1 0.341018 0.288410 0.372273
Si Si2 0.015838 0.793934 0.778562
Si Si3 0.791775 0.223392 0.676630
Si Si4 0.586692 0.590072 0.066424
Si Si5 0.809136 0.590761 0.949047
Si Si6 0.556822 0.840131 0.996796
Si Si7 0.350529 0.218169 0.170837
O O1 0.424230 0.317606 0.575086
O O2 0.279442 0.235010 0.346389
O O3 0.276892 0.358352 0.227280
O O4 0.376280 0.236790 0.331826
O O5 0.086135 0.765512 0.805465
O O6 0.059757 0.862244 0.918556
O O7 0.001068 0.718980 0.831451
O O8 0.750000 0.250000 0.500000
O O9 0.834048 0.137340 0.748754
O O10 0.872142 0.282014 0.834250
O O11 0.608910 0.500000 0.081743
O O12 0.500000 0.593114 0.000000
O O13 0.788384 0.500000 0.927300
O O14 0.885793 0.603813 0.985190
O O15 0.844957 0.631031 0.114224
O O16 0.500000 0.875501 0.000000
O O17 0.250000 0.250000 0.000000
#
# Coordination Sequence:
#
# PCOD9174697 Si02
#       7
#     8   8   8   8   8   8   8
#     4  10  19  32  53  77  99 131 173 208 242 299
#     4  10  18  32  54  75 100 131 168 207 247 296
#     4  10  18  32  52  73 100 135 174 206 241 296
#     4  10  20  33  50  76 108 136 163 204 258 302
#     4   9  19  33  50  74 103 133 164 207 260 300
#     4   9  17  30  50  74  97 131 174 209 244 293
#     4   9  18  34  53  73  97 131 174 209 242 294
#
# _framework density 17.126722999999998
#
# number of rings (size 3 to 8) (size 9 to 14) (size 15 to 20)
#    0.000    2.429    0.000    6.429    0.000    0.857 
#    0.000   10.714    0.000   18.000    0.000    0.000 
#    0.000    0.000    0.000    0.000    0.000    0.000 
#
# Total GULP energy -156036.814216 kJ/mol
# GULP energy per Si atom -5572.743365 kJ/mol
# Density = 1.708774 g / cm^3
# Si number density = 17.126723 Si / 1000 Ang^3
#
#
#
# Elastic Constant Matrix: (Units=GPa)
#
#
# Indices 1 2 3 4 5 6 
#
# 1 108.3169 37.7408 23.9668 0.0000 -9.9063 0.0000
# 2 37.7408 117.4865 45.1577 0.0000 -6.6297 0.0000
# 3 23.9668 45.1577 90.0663 0.0000 -14.8317 0.0000
# 4 0.0000 0.0000 0.0000 13.4880 0.0000 1.9034
# 5 -9.9063 -6.6297 -14.8317 0.0000 27.2317 0.0000
# 6 0.0000 0.0000 0.0000 1.9034 0.0000 11.1995
#
#
#
# Elastic Compliance Matrix: (Units=1/GPa)
#
#
# Indices 1 2 3 4 5 6 
#
# 1 0.010704 -0.002926 -0.000942 0.000000 0.002669 0.000000
# 2 -0.002926 0.011346 -0.005087 0.000000 -0.001073 0.000000
# 3 -0.000942 -0.005087 0.014988 0.000000 0.006582 0.000000
# 4 0.000000 0.000000 0.000000 0.075962 0.000000 -0.012910
# 5 0.002669 -0.001073 0.006582 0.000000 0.041016 0.000000
# 6 0.000000 0.000000 0.000000 -0.012910 0.000000 0.091484
#
#
# Mechanical properties :
#
#
# Convention : Reuss Voigt Hill
#
# Bulk Modulus (GPa) = 52.27690 58.84448 55.56069
# Shear Modulus (GPa) = 18.53320 24.31746 21.42533
#
# Velocity S-wave (km/s) = 3.29313 3.77218 3.54077
# Velocity P-wave (km/s) = 6.71189 7.30790 7.01623
#
# Compressibility (1/GPa) = 0.01912891
#
# Stress axis : x y z
#
# Youngs Moduli (GPa) = 93.42198 88.13535 66.72025
#
# Poissons Ratio (x) = 0.25788 0.06285
# Poissons Ratio (y) = 0.27334 0.33939
# Poissons Ratio (z) = 0.08800 0.44833
#
# Static dielectric constant tensor:
#      x y z
#    x 1.608520 0.000000 -0.010120 
#    y 0.000000 1.556980 0.000000 
#    z -0.010120 0.000000 1.602990 
# 
# From -- ./inp_files/177195.got.cif
#   From: 2010.05.17/outbox.cif.g08.bks.cpg/sg12_89_cif.got.tgz:177195.got - 2010.06.03 13:09:07.
