data_PCOD9174112
_publ_section_title
;
Structure prediction by ZEFSAII (Michael W. Deem and Ramdas Pophale) SiO2 
 PCOD9174112
Probable space group: C 2/M
;
_chemical_formula_sum "Si O2"
_cell_formula_units_Z 64
_cell_length_a 14.996717
_cell_length_b 8.283434
_cell_length_c 24.466463
_cell_angle_alpha 90.000000
_cell_angle_beta 76.975216
_cell_angle_gamma 90.000000
_cell_volume 2961.135777
_symmetry_space_group_name_H-M "C 2/M"
_symmetry_group_IT_number 12
_symmetry_cell_setting 'monoclinic'
loop_
_space_group_symop_operation_xyz
x,y,z
-x,y,-z
-x,-y,-z
x,-y,z
1/2+x,1/2+y,z
1/2-x,1/2+y,-z
1/2-x,1/2-y,-z
1/2+x,1/2-y,z
loop_
_atom_site_type_symbol
_atom_site_label
_atom_site_fract_x
_atom_site_fract_y
_atom_site_fract_z
Si Si1 0.855504 0.690535 0.984164
Si Si2 0.856016 0.809617 0.868841
Si Si3 0.955350 0.197595 0.196856
Si Si4 0.627405 0.195774 0.365387
Si Si5 0.843316 0.690098 0.514621
Si Si6 0.851984 0.808401 0.101431
Si Si7 0.565700 0.309641 0.600756
Si Si8 0.323509 0.696933 0.311643
O O1 0.859480 0.500000 0.974121
O O2 0.889153 0.729756 0.040354
O O3 0.750000 0.750000 0.000000
O O4 0.892922 0.780348 0.925698
O O5 0.756860 0.727802 0.877127
O O6 0.938522 0.751264 0.818841
O O7 0.841599 0.000000 0.863386
O O8 0.904827 0.247560 0.148014
O O9 0.893671 0.252966 0.255912
O O10 0.956104 0.000000 0.197253
O O11 0.641053 0.252924 0.426450
O O12 0.532405 0.270831 0.360097
O O13 0.717907 0.243713 0.319722
O O14 0.619961 0.000000 0.365569
O O15 0.835454 0.500000 0.521764
O O16 0.750000 0.750000 0.500000
O O17 0.921583 0.728992 0.459818
O O18 0.862656 0.000000 0.094267
O O19 0.576894 0.500000 0.591421
O O20 0.641463 0.252271 0.633461
O O21 0.325667 0.500000 0.311168
#
# Coordination Sequence:
#
# PCOD9174112 Si02
#       8
#     8   8   8   8   8   8   8   8
#     4  10  18  31  52  79 110 144 175 216 274 329
#     4  10  19  34  55  81 109 141 180 224 274 325
#     4   9  20  36  57  79 105 147 189 224 269 333
#     4  10  21  38  59  83 113 150 186 227 279 333
#     4  11  21  36  59  87 118 152 185 226 281 335
#     4  10  19  34  55  81 108 140 181 224 271 324
#     4  11  22  37  59  87 115 149 188 231 278 330
#     4   9  19  39  58  77 110 148 188 228 277 329
#
# _framework density 21.613327999999999
#
# number of rings (size 3 to 8) (size 9 to 14) (size 15 to 20)
#    0.000    2.000    1.250    4.500    0.000    4.000 
#    0.000    5.000    0.000    7.500    0.000    0.000 
#    0.000    0.000    0.000    0.000    0.000    0.000 
#
# Total GULP energy -178726.565654 kJ/mol
# GULP energy per Si atom -5585.205177 kJ/mol
# Density = 2.156414 g / cm^3
# Si number density = 21.613328 Si / 1000 Ang^3
#
#
#
# Elastic Constant Matrix: (Units=GPa)
#
#
# Indices 1 2 3 4 5 6 
#
# 1 62.3677 -7.8315 -0.7043 0.0000 -18.2023 0.0000
# 2 -7.8315 23.2219 -11.6273 0.0000 3.0363 0.0000
# 3 -0.7043 -11.6273 53.0396 0.0000 -24.7706 0.0000
# 4 0.0000 0.0000 0.0000 16.6004 0.0000 -4.1059
# 5 -18.2023 3.0363 -24.7706 0.0000 34.5380 0.0000
# 6 0.0000 0.0000 0.0000 -4.1059 0.0000 21.6263
#
#
#
# Elastic Compliance Matrix: (Units=1/GPa)
#
#
# Indices 1 2 3 4 5 6 
#
# 1 0.023478 0.011401 0.012212 0.000000 0.020130 0.000000
# 2 0.011401 0.054499 0.019047 0.000000 0.014878 0.000000
# 3 0.012212 0.019047 0.038215 0.000000 0.032170 0.000000
# 4 0.000000 0.000000 0.000000 0.063207 0.000000 0.012000
# 5 0.020130 0.014878 0.032170 0.000000 0.061327 0.000000
# 6 0.000000 0.000000 0.000000 0.012000 0.000000 0.048518
#
#
# Mechanical properties :
#
#
# Convention : Reuss Voigt Hill
#
# Bulk Modulus (GPa) = 4.96250 10.92258 7.94254
# Shear Modulus (GPa) = 18.44360 25.13910 21.79135
#
# Velocity S-wave (km/s) = 2.92437 3.41417 3.17872
# Velocity P-wave (km/s) = 3.70184 4.53946 4.14188
#
# Compressibility (1/GPa) = 0.20151146
#
# Stress axis : x y z
#
# Youngs Moduli (GPa) = 42.59235 18.34896 26.16755
#
# Poissons Ratio (x) = -0.20919 -0.31956
# Poissons Ratio (y) = -0.48558 -0.49841
# Poissons Ratio (z) = -0.52014 -0.34949
#
# Static dielectric constant tensor:
#      x y z
#    x 1.787910 0.000000 -0.007850 
#    y 0.000000 1.740840 0.000000 
#    z -0.007850 0.000000 1.825750 
# 
# From -- ./inp_files/359732.got.cif
#   From: 2010.05.17/outbox.cif.g08.bks.cpg/sg12_180_cif.got.tgz:359732.got - 2010.06.03 13:09:07.
