data_PCOD9174978
_publ_section_title
;
Structure prediction by ZEFSAII (Michael W. Deem and Ramdas Pophale) SiO2 
 PCOD9174978
Probable space group: C 2/M
;
_chemical_formula_sum "Si O2"
_cell_formula_units_Z 52
_cell_length_a 28.475547
_cell_length_b 9.163778
_cell_length_c 19.911212
_cell_angle_alpha 90.000000
_cell_angle_beta 32.805087
_cell_angle_gamma 90.000000
_cell_volume 2814.942804
_symmetry_space_group_name_H-M "C 2/M"
_symmetry_group_IT_number 12
_symmetry_cell_setting 'monoclinic'
loop_
_space_group_symop_operation_xyz
x,y,z
-x,y,-z
-x,-y,-z
x,-y,z
1/2+x,1/2+y,z
1/2-x,1/2+y,-z
1/2-x,1/2-y,-z
1/2+x,1/2-y,z
loop_
_atom_site_type_symbol
_atom_site_label
_atom_site_fract_x
_atom_site_fract_y
_atom_site_fract_z
Si Si1 0.000000 0.237561 0.000000
Si Si2 0.945374 0.676033 0.347420
Si Si3 0.615074 0.673432 0.188947
Si Si4 0.764062 0.827351 0.084232
Si Si5 0.909924 0.669954 0.243088
Si Si6 0.267373 0.675541 0.604997
Si Si7 0.187807 0.836507 0.821699
O O1 0.033563 0.317135 0.892297
O O2 0.087150 0.159973 0.920807
O O3 0.947771 0.500000 0.349306
O O4 0.952423 0.726019 0.260430
O O5 0.854293 0.740650 0.481607
O O6 0.024049 0.744876 0.294208
O O7 0.603682 0.500000 0.209003
O O8 0.678776 0.735267 0.169437
O O9 0.665453 0.704300 0.058210
O O10 0.801356 0.799309 0.113222
O O11 0.743641 0.000000 0.103861
O O12 0.896080 0.500000 0.272118
O O13 0.813738 0.729624 0.343430
O O14 0.277146 0.500000 0.587658
O O15 0.236697 0.720842 0.716339
O O16 0.223692 0.000000 0.767479
#
# Coordination Sequence:
#
# PCOD9174978 Si02
#       7
#     4   8   8   8   8   8   8
#     4  10  18  32  54  84 115 142 175 214 259 314
#     4  11  21  35  55  79 107 142 182 221 265 315
#     4  10  20  35  56  82 109 138 176 221 266 316
#     4   9  19  36  56  80 110 142 175 215 266 317
#     4   9  19  33  52  79 111 145 178 217 264 314
#     4  10  21  37  54  76 107 143 183 223 264 312
#     4  10  20  35  55  80 111 144 177 216 264 316
#
# _framework density 18.472845
#
# number of rings (size 3 to 8) (size 9 to 14) (size 15 to 20)
#    0.000    2.154    0.000    3.231    0.000    1.846 
#    0.000    8.462    0.000    4.615    0.000    0.000 
#    0.000    0.000    0.000    0.000    0.000    0.000 
#
# Total GULP energy -144921.730860 kJ/mol
# GULP energy per Si atom -5573.912725 kJ/mol
# Density = 1.843080 g / cm^3
# Si number density = 18.472845 Si / 1000 Ang^3
#
#
#
# Elastic Constant Matrix: (Units=GPa)
#
#
# Indices 1 2 3 4 5 6 
#
# 1 103.4351 30.5459 32.3061 -0.0002 -5.3740 0.0001
# 2 30.5459 46.5229 25.4536 -0.0016 -12.4652 0.0005
# 3 32.3061 25.4536 77.0902 -0.0014 -18.3052 0.0003
# 4 -0.0002 -0.0016 -0.0014 30.0428 0.0002 -0.4230
# 5 -5.3740 -12.4652 -18.3052 0.0002 25.9607 0.0001
# 6 0.0001 0.0005 0.0003 -0.4230 0.0001 24.8352
#
#
#
# Elastic Compliance Matrix: (Units=1/GPa)
#
#
# Indices 1 2 3 4 5 6 
#
# 1 0.012824 -0.007282 -0.003807 0.000000 -0.003526 0.000000
# 2 -0.007282 0.031751 -0.005008 0.000001 0.010207 -0.000001
# 3 -0.003807 -0.005008 0.018572 0.000000 0.009903 0.000000
# 4 0.000000 0.000001 0.000000 0.033294 0.000001 0.000567
# 5 -0.003526 0.010207 0.009903 0.000001 0.049673 0.000000
# 6 0.000000 -0.000001 0.000000 0.000567 0.000000 0.040275
#
#
# Mechanical properties :
#
#
# Convention : Reuss Voigt Hill
#
# Bulk Modulus (GPa) = 32.30753 44.85104 38.57928
# Shear Modulus (GPa) = 21.84343 25.41725 23.63034
#
# Velocity S-wave (km/s) = 3.44242 3.71337 3.58046
# Velocity P-wave (km/s) = 5.77300 6.53587 6.16625
#
# Compressibility (1/GPa) = 0.03095254
#
# Stress axis : x y z
#
# Youngs Moduli (GPa) = 77.97718 31.49537 53.84348
#
# Poissons Ratio (x) = 0.22935 0.20499
# Poissons Ratio (y) = 0.56782 0.26966
# Poissons Ratio (z) = 0.29688 0.15774
#
# Static dielectric constant tensor:
#      x y z
#    x 1.646220 0.000000 0.006950 
#    y 0.000000 1.631090 0.000000 
#    z 0.006950 0.000000 1.620740 
# 
# From -- ./inp_files/329225.got.cif
#   From: 2010.05.17/outbox.cif.g08.bks.cpg/sg12_165_cif.got.tgz:329225.got - 2010.06.03 13:09:07.
