data_PCOD9174034
_publ_section_title
;
Structure prediction by ZEFSAII (Michael W. Deem and Ramdas Pophale) SiO2 
 PCOD9174034
Probable space group: C 2/M
;
_chemical_formula_sum "Si O2"
_cell_formula_units_Z 56
_cell_length_a 34.702628
_cell_length_b 8.026175
_cell_length_c 12.996787
_cell_angle_alpha 90.000000
_cell_angle_beta 60.108192
_cell_angle_gamma 90.000000
_cell_volume 3138.412791
_symmetry_space_group_name_H-M "C 2/M"
_symmetry_group_IT_number 12
_symmetry_cell_setting 'monoclinic'
loop_
_space_group_symop_operation_xyz
x,y,z
-x,y,-z
-x,-y,-z
x,-y,z
1/2+x,1/2+y,z
1/2-x,1/2+y,-z
1/2-x,1/2-y,-z
1/2+x,1/2-y,z
loop_
_atom_site_type_symbol
_atom_site_label
_atom_site_fract_x
_atom_site_fract_y
_atom_site_fract_z
Si Si1 0.949495 0.296489 0.184288
Si Si2 0.950993 0.700979 0.943862
Si Si3 0.193421 0.798167 0.744412
Si Si4 0.357997 0.199577 0.392818
Si Si5 0.294202 0.795677 0.656698
Si Si6 0.859089 0.802802 0.982860
Si Si7 0.203753 0.696846 0.113358
O O1 0.949302 0.500000 0.185227
O O2 0.907937 0.236506 0.306290
O O3 0.999038 0.244124 0.150945
O O4 0.942999 0.246631 0.073401
O O5 0.950453 0.500000 0.943374
O O6 0.910785 0.762445 0.927959
O O7 0.170302 0.734955 0.672064
O O8 0.244858 0.747718 0.685070
O O9 0.191760 0.000000 0.745294
O O10 0.166930 0.737819 0.881053
O O11 0.331435 0.263623 0.527172
O O12 0.361330 0.000000 0.399532
O O13 0.300843 0.735452 0.764695
O O14 0.295122 0.000000 0.655136
O O15 0.836160 0.738274 0.910376
O O16 0.853032 0.000000 0.990884
O O17 0.206129 0.500000 0.121001
O O18 0.250000 0.750000 0.000000
#
# Coordination Sequence:
#
# PCOD9174034 Si02
#       7
#     8   8   8   8   8   8   8
#     4   8  15  27  48  75 101 125 160 204 245 294
#     4   9  16  30  49  73 101 129 161 203 250 292
#     4  10  19  32  46  69 106 135 156 199 249 289
#     4  10  18  31  52  75  98 131 167 197 241 302
#     4   9  19  34  50  70 100 131 164 206 245 284
#     4  11  21  33  50  74 103 132 166 206 246 292
#     4  11  21  36  54  73  98 132 169 209 250 286
#
# _framework density 17.843413000000002
#
# number of rings (size 3 to 8) (size 9 to 14) (size 15 to 20)
#    0.000    2.286    2.857    2.143    0.000    0.571 
#    0.000    3.571    0.000    0.857    0.000    6.000 
#    0.000    0.000    0.000    0.000    0.000    0.000 
#
# Total GULP energy -156206.323318 kJ/mol
# GULP energy per Si atom -5578.797261 kJ/mol
# Density = 1.780280 g / cm^3
# Si number density = 17.843413 Si / 1000 Ang^3
#
#
#
# Elastic Constant Matrix: (Units=GPa)
#
#
# Indices 1 2 3 4 5 6 
#
# 1 122.2793 -1.0554 78.9487 0.0000 -21.7107 0.0000
# 2 -1.0554 11.2470 5.9304 0.0000 -3.5832 0.0000
# 3 78.9487 5.9304 144.0737 0.0000 -16.1448 0.0000
# 4 0.0000 0.0000 0.0000 12.3982 0.0000 1.5710
# 5 -21.7107 -3.5832 -16.1448 0.0000 23.1661 0.0000
# 6 0.0000 0.0000 0.0000 1.5710 0.0000 23.1236
#
#
#
# Elastic Compliance Matrix: (Units=1/GPa)
#
#
# Indices 1 2 3 4 5 6 
#
# 1 0.014749 0.008433 -0.007304 0.000000 0.010036 0.000000
# 2 0.008433 0.099125 -0.006614 0.000000 0.018626 0.000000
# 3 -0.007304 -0.006614 0.011209 0.000000 -0.000057 0.000000
# 4 0.000000 0.000000 0.000000 0.081357 0.000000 -0.005527
# 5 0.010036 0.018626 -0.000057 0.000000 0.055414 0.000000
# 6 0.000000 0.000000 0.000000 -0.005527 0.000000 0.043621
#
#
# Mechanical properties :
#
#
# Convention : Reuss Voigt Hill
#
# Bulk Modulus (GPa) = 8.76328 49.47193 29.11760
# Shear Modulus (GPa) = 14.10498 24.65599 19.38049
#
# Velocity S-wave (km/s) = 2.81461 3.72129 3.29924
# Velocity P-wave (km/s) = 3.93505 6.80072 5.55582
#
# Compressibility (1/GPa) = 0.11411252
#
# Stress axis : x y z
#
# Youngs Moduli (GPa) = 67.80256 10.08823 89.21057
#
# Poissons Ratio (x) = -0.08507 0.65163
# Poissons Ratio (y) = -0.57177 0.59004
# Poissons Ratio (z) = 0.49526 0.06672
#
# Static dielectric constant tensor:
#      x y z
#    x 1.595050 0.000000 -0.017420 
#    y 0.000000 1.624020 0.000000 
#    z -0.017420 0.000000 1.618280 
# 
# From -- ./inp_files/186374.got.cif
#   From: 2010.05.17/outbox.cif.g08.bks.cpg/sg12_94_cif.got.tgz:186374.got - 2010.06.03 13:09:07.
