data_PCOD9174357
_publ_section_title
;
Structure prediction by ZEFSAII (Michael W. Deem and Ramdas Pophale) SiO2 
 PCOD9174357
Probable space group: C 2/M
;
_chemical_formula_sum "Si O2"
_cell_formula_units_Z 48
_cell_length_a 16.205402
_cell_length_b 8.339692
_cell_length_c 14.852614
_cell_angle_alpha 90.000000
_cell_angle_beta 102.123697
_cell_angle_gamma 90.000000
_cell_volume 1962.532043
_symmetry_space_group_name_H-M "C 2/M"
_symmetry_group_IT_number 12
_symmetry_cell_setting 'monoclinic'
loop_
_space_group_symop_operation_xyz
x,y,z
-x,y,-z
-x,-y,-z
x,-y,z
1/2+x,1/2+y,z
1/2-x,1/2+y,-z
1/2-x,1/2-y,-z
1/2+x,1/2-y,z
loop_
_atom_site_type_symbol
_atom_site_label
_atom_site_fract_x
_atom_site_fract_y
_atom_site_fract_z
Si Si1 0.967316 0.189906 0.719948
Si Si2 0.158364 0.689719 0.943496
Si Si3 0.093715 0.812782 0.107797
Si Si4 0.112966 0.313206 0.626736
Si Si5 0.269617 0.682656 0.208009
Si Si6 0.340007 0.809782 0.555786
O O1 0.961428 0.251822 0.821448
O O2 0.877812 0.219280 0.649890
O O3 0.032751 0.277750 0.670057
O O4 0.985257 0.000000 0.725967
O O5 0.158767 0.500000 0.930078
O O6 0.156389 0.778397 0.847426
O O7 0.250000 0.750000 0.000000
O O8 0.095087 0.734521 0.009469
O O9 0.189842 0.792399 0.166813
O O10 0.075434 0.000000 0.092569
O O11 0.135765 0.500000 0.640586
O O12 0.189427 0.211526 0.686262
O O13 0.101590 0.280174 0.518945
O O14 0.241692 0.500000 0.189639
O O15 0.250000 0.750000 0.500000
O O16 0.338468 0.000000 0.573965
#
# Coordination Sequence:
#
# PCOD9174357 Si02
#       6
#     8   8   8   8   8   8
#     4  11  24  40  60  86 117 153 190 233 285 340
#     4  10  18  31  54  83 114 149 190 236 285 334
#     4  10  20  36  57  84 117 150 190 238 285 335
#     4  11  24  41  59  83 117 153 190 234 285 339
#     4  11  21  35  58  86 115 150 193 238 285 337
#     4  11  24  41  63  89 116 149 189 236 284 334
#
# _framework density 24.458200999999999
#
# number of rings (size 3 to 8) (size 9 to 14) (size 15 to 20)
#    0.000    1.333    0.000    8.500    0.000   11.333 
#    0.000    0.833    0.000    5.000    0.000    0.000 
#    0.000    0.000    0.000    0.000    0.000    0.000 
#
# Total GULP energy -134373.027152 kJ/mol
# GULP energy per Si atom -5598.876131 kJ/mol
# Density = 2.440253 g / cm^3
# Si number density = 24.458201 Si / 1000 Ang^3
#
#
#
# Elastic Constant Matrix: (Units=GPa)
#
#
# Indices 1 2 3 4 5 6 
#
# 1 78.2565 -17.6046 12.4395 0.0000 -17.1204 0.0000
# 2 -17.6046 77.6463 25.4704 0.0000 -9.6447 0.0000
# 3 12.4395 25.4704 140.8065 0.0000 -17.8858 0.0000
# 4 0.0000 0.0000 0.0000 32.1574 0.0000 -3.7137
# 5 -17.1204 -9.6447 -17.8858 0.0000 47.4828 0.0000
# 6 0.0000 0.0000 0.0000 -3.7137 0.0000 25.0614
#
#
#
# Elastic Compliance Matrix: (Units=1/GPa)
#
#
# Indices 1 2 3 4 5 6 
#
# 1 0.015368 0.004700 -0.001452 0.000000 0.005949 0.000000
# 2 0.004700 0.015301 -0.002702 0.000000 0.003785 0.000000
# 3 -0.001452 -0.002702 0.007964 0.000000 0.001927 0.000000
# 4 0.000000 0.000000 0.000000 0.031638 0.000000 0.004688
# 5 0.005949 0.003785 0.001927 0.000000 0.024700 0.000000
# 6 0.000000 0.000000 0.000000 0.004688 0.000000 0.040597
#
#
# Mechanical properties :
#
#
# Convention : Reuss Voigt Hill
#
# Bulk Modulus (GPa) = 25.17422 37.47999 31.32711
# Shear Modulus (GPa) = 33.84819 39.36726 36.60773
#
# Velocity S-wave (km/s) = 3.72414 4.01630 3.87298
# Velocity P-wave (km/s) = 5.36725 6.07165 5.73029
#
# Compressibility (1/GPa) = 0.03972318
#
# Stress axis : x y z
#
# Youngs Moduli (GPa) = 65.07043 65.35538 125.56716
#
# Poissons Ratio (x) = -0.30714 0.18234
# Poissons Ratio (y) = -0.30581 0.33931
# Poissons Ratio (z) = 0.09449 0.17661
#
# Static dielectric constant tensor:
#      x y z
#    x 2.300640 0.000000 0.198600 
#    y 0.000000 1.827580 0.000000 
#    z 0.198600 0.000000 2.176140 
# 
# From -- ./inp_files/273653.got.cif
#   From: 2010.05.17/outbox.cif.g08.bks.cpg/sg12_137_cif.got.tgz:273653.got - 2010.06.03 13:09:07.
