data_PCOD9174475
_publ_section_title
;
Structure prediction by ZEFSAII (Michael W. Deem and Ramdas Pophale) SiO2 
 PCOD9174475
Probable space group: C 2/M
;
_chemical_formula_sum "Si O2"
_cell_formula_units_Z 58
_cell_length_a 17.366318
_cell_length_b 17.673381
_cell_length_c 17.812906
_cell_angle_alpha 90.000000
_cell_angle_beta 149.009051
_cell_angle_gamma 90.000000
_cell_volume 2815.057710
_symmetry_space_group_name_H-M "C 2/M"
_symmetry_group_IT_number 12
_symmetry_cell_setting 'monoclinic'
loop_
_space_group_symop_operation_xyz
x,y,z
-x,y,-z
-x,-y,-z
x,-y,z
1/2+x,1/2+y,z
1/2-x,1/2+y,-z
1/2-x,1/2-y,-z
1/2+x,1/2-y,z
loop_
_atom_site_type_symbol
_atom_site_label
_atom_site_fract_x
_atom_site_fract_y
_atom_site_fract_z
Si Si1 0.098087 0.741539 0.420362
Si Si2 0.500000 0.000000 0.000000
Si Si3 0.004440 0.582549 0.713910
Si Si4 0.000965 0.631069 0.121675
Si Si5 0.741451 0.253118 0.689432
Si Si6 0.168050 0.083472 0.227455
Si Si7 0.780313 0.780431 0.153261
Si Si8 0.335251 0.386667 0.953832
O O1 0.250000 0.750000 0.500000
O O2 0.132540 0.775889 0.530936
O O3 0.051844 0.652738 0.382845
O O4 0.948269 0.779754 0.261245
O O5 0.460824 0.066390 0.905337
O O6 0.945468 0.500000 0.643034
O O7 0.966520 0.603053 0.767595
O O8 0.184450 0.579962 0.861328
O O9 0.100744 0.705218 0.190610
O O10 0.826980 0.653018 0.963628
O O11 0.753372 0.162589 0.688247
O O12 0.701055 0.274632 0.740778
O O13 0.163390 0.089908 0.132781
O O14 0.229549 0.000000 0.297930
O O15 0.998742 0.089635 0.117635
O O16 0.693415 0.702831 0.061541
#
# Coordination Sequence:
#
# PCOD9174475 Si02
#       8
#     8   2   8   8   8   8   8   8
#     4  11  24  40  60  87 123 164 209 252 310 384
#     4  12  24  40  68 106 122 158 214 282 312 364
#     4  11  23  38  60  90 125 164 203 258 318 370
#     4  12  22  40  69  92 124 160 216 265 320 366
#     4  11  21  39  62  89 123 165 206 255 309 380
#     4  10  18  31  56  87 122 156 196 251 307 362
#     4  10  21  38  63  89 117 160 210 262 302 374
#     4   9  18  33  54  87 120 154 196 246 310 373
#
# _framework density 20.603484999999999
#
# number of rings (size 3 to 8) (size 9 to 14) (size 15 to 20)
#    0.000    1.379    4.828    2.069    0.000    3.862 
#    0.000    0.000    1.517    5.793    0.000    0.000 
#    0.000    0.000    0.000    0.000    0.000    0.000 
#
# Total GULP energy -161481.256272 kJ/mol
# GULP energy per Si atom -5568.319182 kJ/mol
# Density = 2.055659 g / cm^3
# Si number density = 20.603485 Si / 1000 Ang^3
#
#
#
# Elastic Constant Matrix: (Units=GPa)
#
#
# Indices 1 2 3 4 5 6 
#
# 1 40.4638 -9.4924 3.7565 -0.0006 10.9980 0.0015
# 2 -9.4924 65.8199 10.1252 -0.0015 2.5572 0.0016
# 3 3.7565 10.1252 60.3778 -0.0006 3.8745 -0.0011
# 4 -0.0006 -0.0015 -0.0006 20.6074 -0.0007 -36.4751
# 5 10.9980 2.5572 3.8745 -0.0007 33.9694 0.0011
# 6 0.0015 0.0016 -0.0011 -36.4751 0.0011 81.5850
#
#
#
# Elastic Compliance Matrix: (Units=1/GPa)
#
#
# Indices 1 2 3 4 5 6 
#
# 1 0.028572 0.004790 -0.001979 0.000000 -0.009385 -0.000001
# 2 0.004790 0.016424 -0.002895 0.000002 -0.002457 0.000001
# 3 -0.001979 -0.002895 0.017242 0.000004 -0.001108 0.000002
# 4 0.000000 0.000002 0.000004 0.232558 0.000001 0.103972
# 5 -0.009385 -0.002457 -0.001108 0.000001 0.032788 0.000000
# 6 -0.000001 0.000001 0.000002 0.103972 0.000000 0.058741
#
#
# Mechanical properties :
#
#
# Convention : Reuss Voigt Hill
#
# Bulk Modulus (GPa) = 16.11064 19.49333 17.80199
# Shear Modulus (GPa) = 12.27949 38.05049 25.16499
#
# Velocity S-wave (km/s) = 2.44394 4.30210 3.49864
# Velocity P-wave (km/s) = 3.97494 5.84458 4.99796
#
# Compressibility (1/GPa) = 0.06207077
#
# Stress axis : x y z
#
# Youngs Moduli (GPa) = 34.99973 60.88479 57.99787
#
# Poissons Ratio (x) = -0.29161 0.11475
# Poissons Ratio (y) = -0.16763 0.16788
# Poissons Ratio (z) = 0.06925 0.17624
#
# Static dielectric constant tensor:
#      x y z
#    x 1.779200 0.000000 0.008950 
#    y 0.000000 1.748090 0.000000 
#    z 0.008950 0.000000 1.749830 
# 
# From -- ./inp_files/278850.got.cif
#   From: 2010.05.17/outbox.cif.g08.bks.cpg/sg12_140_cif.got.tgz:278850.got - 2010.06.03 13:09:07.
