data_PCOD9174814
_publ_section_title
;
Structure prediction by ZEFSAII (Michael W. Deem and Ramdas Pophale) SiO2 
 PCOD9174814
Probable space group: C 2/M
;
_chemical_formula_sum "Si O2"
_cell_formula_units_Z 64
_cell_length_a 12.261462
_cell_length_b 25.804328
_cell_length_c 11.691248
_cell_angle_alpha 90.000000
_cell_angle_beta 102.582858
_cell_angle_gamma 90.000000
_cell_volume 3610.251722
_symmetry_space_group_name_H-M "C 2/M"
_symmetry_group_IT_number 12
_symmetry_cell_setting 'monoclinic'
loop_
_space_group_symop_operation_xyz
x,y,z
-x,y,-z
-x,-y,-z
x,-y,z
1/2+x,1/2+y,z
1/2-x,1/2+y,-z
1/2-x,1/2-y,-z
1/2+x,1/2-y,z
loop_
_atom_site_type_symbol
_atom_site_label
_atom_site_fract_x
_atom_site_fract_y
_atom_site_fract_z
Si Si1 0.871913 0.663682 0.991115
Si Si2 0.092378 0.903667 0.112404
Si Si3 0.685353 0.800689 0.264334
Si Si4 0.081022 0.168051 0.626021
Si Si5 0.027166 0.717344 0.640972
Si Si6 0.085169 0.942085 0.754344
Si Si7 0.753608 0.310808 0.197224
Si Si8 0.224399 0.443775 0.013691
O O1 0.811905 0.669766 0.855545
O O2 0.861823 0.602954 0.017348
O O3 0.806259 0.691343 0.080356
O O4 0.000000 0.680602 0.000000
O O5 0.163759 0.856661 0.181025
O O6 0.020640 0.936515 0.184928
O O7 0.183132 0.936914 0.064457
O O8 0.000000 0.883116 0.000000
O O9 0.789360 0.817953 0.365860
O O10 0.572373 0.806401 0.308246
O O11 0.696455 0.741664 0.225432
O O12 0.043533 0.221731 0.681129
O O13 0.079195 0.111504 0.682783
O O14 0.000000 0.165156 0.500000
O O15 0.138936 0.685764 0.695866
O O16 0.000000 0.717098 0.500000
O O17 0.198913 0.940237 0.855070
O O18 0.081219 0.000000 0.698819
O O19 0.171252 0.500000 0.996231
#
# Coordination Sequence:
#
# PCOD9174814 Si02
#       8
#     8   8   8   8   8   8   8   8
#     4  11  20  34  54  79 110 140 176 218 267 318
#     4   9  18  31  51  79 110 140 172 212 260 318
#     4  11  21  37  54  77 113 140 174 222 269 313
#     4  10  22  36  54  78 105 137 181 219 260 314
#     4  10  22  38  57  78 104 144 184 222 263 312
#     4  10  18  32  53  76 107 140 172 217 269 310
#     4  10  21  34  54  80 108 144 178 212 265 324
#     4   9  18  32  50  76 107 138 174 215 262 316
#
# _framework density 17.727295999999999
#
# number of rings (size 3 to 8) (size 9 to 14) (size 15 to 20)
#    0.000    2.000    2.500    1.500    0.000    8.000 
#    0.000    0.000    0.000    0.000    0.000    0.000 
#    0.000    5.000    0.000    0.000    0.000    0.000 
#
# Total GULP energy -178190.617683 kJ/mol
# GULP energy per Si atom -5568.456803 kJ/mol
# Density = 1.768695 g / cm^3
# Si number density = 17.727296 Si / 1000 Ang^3
#
#
#
# Elastic Constant Matrix: (Units=GPa)
#
#
# Indices 1 2 3 4 5 6 
#
# 1 45.9812 9.3614 -0.0502 0.0000 5.7869 0.0000
# 2 9.3614 74.7693 25.5562 0.0000 17.3403 0.0000
# 3 -0.0502 25.5562 35.5216 0.0000 5.6260 0.0000
# 4 0.0000 0.0000 0.0000 28.6376 0.0000 22.3280
# 5 5.7869 17.3403 5.6260 0.0000 16.8249 0.0000
# 6 0.0000 0.0000 0.0000 22.3280 0.0000 35.0568
#
#
#
# Elastic Compliance Matrix: (Units=1/GPa)
#
#
# Indices 1 2 3 4 5 6 
#
# 1 0.023034 -0.002321 0.002722 0.000000 -0.006441 0.000000
# 2 -0.002321 0.022312 -0.013241 0.000000 -0.017770 0.000000
# 3 0.002722 -0.013241 0.037664 0.000000 0.000116 0.000000
# 4 0.000000 0.000000 0.000000 0.069364 0.000000 -0.044179
# 5 -0.006441 -0.017770 0.000116 0.000000 0.079926 0.000000
# 6 0.000000 0.000000 0.000000 -0.044179 0.000000 0.056663
#
#
# Mechanical properties :
#
#
# Convention : Reuss Voigt Hill
#
# Bulk Modulus (GPa) = 17.44270 25.11187 21.27729
# Shear Modulus (GPa) = 14.98114 24.19751 19.58933
#
# Velocity S-wave (km/s) = 2.91020 3.69858 3.32782
# Velocity P-wave (km/s) = 4.59925 5.69524 5.17633
#
# Compressibility (1/GPa) = 0.05733057
#
# Stress axis : x y z
#
# Youngs Moduli (GPa) = 43.41390 44.81879 26.55061
#
# Poissons Ratio (x) = 0.10401 -0.07228
# Poissons Ratio (y) = 0.10075 0.35157
# Poissons Ratio (z) = -0.11819 0.59346
#
# Static dielectric constant tensor:
#      x y z
#    x 1.603240 0.000000 0.002520 
#    y 0.000000 1.625670 0.000000 
#    z 0.002520 0.000000 1.621700 
# 
# From -- ./inp_files/135413.got.cif
#   From: 2010.05.17/outbox.cif.g08.bks.cpg/sg12_68_cif.got.tgz:135413.got - 2010.06.03 13:09:07.
