data_PCOD9174377
_publ_section_title
;
Structure prediction by ZEFSAII (Michael W. Deem and Ramdas Pophale) SiO2 
 PCOD9174377
Probable space group: C 2/M
;
_chemical_formula_sum "Si O2"
_cell_formula_units_Z 60
_cell_length_a 25.786999
_cell_length_b 14.786312
_cell_length_c 12.235621
_cell_angle_alpha 90.000000
_cell_angle_beta 135.651192
_cell_angle_gamma 90.000000
_cell_volume 3261.213328
_symmetry_space_group_name_H-M "C 2/M"
_symmetry_group_IT_number 12
_symmetry_cell_setting 'monoclinic'
loop_
_space_group_symop_operation_xyz
x,y,z
-x,y,-z
-x,-y,-z
x,-y,z
1/2+x,1/2+y,z
1/2-x,1/2+y,-z
1/2-x,1/2-y,-z
1/2+x,1/2-y,z
loop_
_atom_site_type_symbol
_atom_site_label
_atom_site_fract_x
_atom_site_fract_y
_atom_site_fract_z
Si Si1 0.713115 0.890448 0.648020
Si Si2 0.424637 0.391580 0.646233
Si Si3 0.771739 0.240551 0.907612
Si Si4 0.062908 0.807134 0.910582
Si Si5 0.852008 0.606544 0.668706
Si Si6 0.627639 0.396882 0.201855
Si Si7 0.238942 0.891932 0.687056
Si Si8 0.500000 0.173560 0.000000
O O1 0.719250 0.833949 0.768243
O O2 0.654535 0.860905 0.466783
O O3 0.791344 0.864629 0.708187
O O4 0.710793 0.000000 0.663391
O O5 0.439572 0.500000 0.667215
O O6 0.499064 0.337230 0.731002
O O7 0.407089 0.354934 0.742962
O O8 0.348272 0.377605 0.467304
O O9 0.761900 0.333251 0.825334
O O10 0.750000 0.250000 0.000000
O O11 0.858156 0.212952 0.024821
O O12 0.077436 0.888154 0.019591
O O13 0.037666 0.729193 0.956954
O O14 0.836732 0.500000 0.635806
O O15 0.788498 0.639529 0.657373
O O16 0.931756 0.621124 0.842303
O O17 0.638389 0.500000 0.249721
O O18 0.250931 0.000000 0.718980
#
# Coordination Sequence:
#
# PCOD9174377 Si02
#       8
#     8   8   8   8   8   8   8   4
#     4   9  19  35  60  87 113 149 194 242 293 356
#     4  10  18  31  54  86 121 149 177 230 303 367
#     4  11  25  42  59  81 115 164 210 243 282 343
#     4  11  21  32  50  84 118 148 192 233 292 346
#     4  10  20  36  56  86 121 151 188 241 308 366
#     4   9  15  27  48  80 119 147 168 211 281 360
#     4  10  21  38  61  88 119 157 196 240 300 362
#     4  12  21  30  53  90 120 148 182 246 313 352
#
# _framework density 18.398060999999998
#
# number of rings (size 3 to 8) (size 9 to 14) (size 15 to 20)
#    0.000    1.867    4.000    0.600    1.867    2.667 
#    0.000    0.667    0.000    1.600    0.000    1.867 
#    0.000    0.000    0.000    0.000    0.000    0.000 
#
# Total GULP energy -167169.911194 kJ/mol
# GULP energy per Si atom -5572.330373 kJ/mol
# Density = 1.835619 g / cm^3
# Si number density = 18.398061 Si / 1000 Ang^3
#
#
#
# Elastic Constant Matrix: (Units=GPa)
#
#
# Indices 1 2 3 4 5 6 
#
# 1 80.7493 27.7843 54.0051 0.0000 -12.9652 0.0000
# 2 27.7843 55.4191 34.5278 0.0000 -12.9927 0.0000
# 3 54.0051 34.5278 120.4481 0.0000 1.6624 0.0000
# 4 0.0000 0.0000 0.0000 29.2788 0.0000 3.3796
# 5 -12.9652 -12.9927 1.6624 0.0000 29.4591 0.0000
# 6 0.0000 0.0000 0.0000 3.3796 0.0000 13.5294
#
#
#
# Elastic Compliance Matrix: (Units=1/GPa)
#
#
# Indices 1 2 3 4 5 6 
#
# 1 0.020315 -0.003112 -0.008327 0.000000 0.008038 0.000000
# 2 -0.003112 0.025884 -0.006168 0.000000 0.010395 0.000000
# 3 -0.008327 -0.006168 0.013903 0.000000 -0.007170 0.000000
# 4 0.000000 0.000000 0.000000 0.035168 0.000000 -0.008785
# 5 0.008038 0.010395 -0.007170 0.000000 0.042472 0.000000
# 6 0.000000 0.000000 0.000000 -0.008785 0.000000 0.076107
#
#
# Mechanical properties :
#
#
# Convention : Reuss Voigt Hill
#
# Bulk Modulus (GPa) = 40.18131 54.36123 47.27127
# Shear Modulus (GPa) = 19.42795 23.80675 21.61735
#
# Velocity S-wave (km/s) = 3.25311 3.60110 3.43152
# Velocity P-wave (km/s) = 5.99980 6.84850 6.43815
#
# Compressibility (1/GPa) = 0.02488719
#
# Stress axis : x y z
#
# Youngs Moduli (GPa) = 49.22545 38.63316 71.92613
#
# Poissons Ratio (x) = 0.12023 0.59895
# Poissons Ratio (y) = 0.15320 0.44365
# Poissons Ratio (z) = 0.40991 0.23830
#
# Static dielectric constant tensor:
#      x y z
#    x 1.630620 0.000000 0.022530 
#    y 0.000000 1.691310 0.000000 
#    z 0.022530 0.000000 1.674520 
# 
# From -- ./inp_files/176491.got.cif
#   From: 2010.05.17/outbox.cif.g08.bks.cpg/sg12_89_cif.got.tgz:176491.got - 2010.06.03 13:09:07.
