data_PCOD9174389
_publ_section_title
;
Structure prediction by ZEFSAII (Michael W. Deem and Ramdas Pophale) SiO2 
 PCOD9174389
Probable space group: C 2/M
;
_chemical_formula_sum "Si O2"
_cell_formula_units_Z 64
_cell_length_a 22.746809
_cell_length_b 18.973128
_cell_length_c 17.217743
_cell_angle_alpha 90.000000
_cell_angle_beta 30.573778
_cell_angle_gamma 90.000000
_cell_volume 3779.657937
_symmetry_space_group_name_H-M "C 2/M"
_symmetry_group_IT_number 12
_symmetry_cell_setting 'monoclinic'
loop_
_space_group_symop_operation_xyz
x,y,z
-x,y,-z
-x,-y,-z
x,-y,z
1/2+x,1/2+y,z
1/2-x,1/2+y,-z
1/2-x,1/2-y,-z
1/2+x,1/2-y,z
loop_
_atom_site_type_symbol
_atom_site_label
_atom_site_fract_x
_atom_site_fract_y
_atom_site_fract_z
Si Si1 0.881066 0.082693 0.824567
Si Si2 0.499366 0.225280 0.149211
Si Si3 0.114638 0.157799 0.909897
Si Si4 0.303050 0.796994 0.260958
Si Si5 0.571759 0.703131 0.618738
Si Si6 0.426557 0.787722 0.661848
Si Si7 0.275082 0.918709 0.843874
Si Si8 0.765254 0.332232 0.129485
O O1 0.808470 0.109199 0.831986
O O2 0.992440 0.132956 0.708221
O O3 0.909882 0.000000 0.785369
O O4 0.801218 0.092682 0.991638
O O5 0.418936 0.187016 0.177554
O O6 0.424170 0.260428 0.302037
O O7 0.562000 0.289765 0.034280
O O8 0.608312 0.178521 0.052211
O O9 0.182541 0.213327 0.777199
O O10 0.197605 0.103421 0.857779
O O11 0.000000 0.126587 0.000000
O O12 0.194075 0.809674 0.439614
O O13 0.287161 0.837882 0.197377
O O14 0.504166 0.759066 0.642486
O O15 0.500000 0.778610 0.500000
O O16 0.383206 0.866622 0.721592
O O17 0.312612 0.738368 0.789615
O O18 0.307535 0.000000 0.803260
#
# Coordination Sequence:
#
# PCOD9174389 Si02
#       8
#     8   8   8   8   8   8   8   8
#     4  10  22  35  53  78 106 141 183 218 260 319
#     4  10  18  31  55  80 101 134 173 219 263 312
#     4   9  17  32  49  72 104 136 168 215 255 310
#     4  10  19  32  52  80 107 128 173 221 265 311
#     4  11  19  32  54  78 107 136 173 220 273 305
#     4  11  19  32  51  76 106 136 170 216 268 319
#     4  11  20  33  49  74 106 140 178 215 257 317
#     4  10  18  35  55  74 104 138 169 221 266 306
#
# _framework density 16.932749999999999
#
# number of rings (size 3 to 8) (size 9 to 14) (size 15 to 20)
#    0.000    1.750    5.000    2.250    0.000    2.500 
#    0.000    1.250    0.000    2.250    0.000    1.750 
#    0.000    0.000    0.000    0.000    0.000    0.000 
#
# Total GULP energy -178358.560536 kJ/mol
# GULP energy per Si atom -5573.705017 kJ/mol
# Density = 1.689421 g / cm^3
# Si number density = 16.932750 Si / 1000 Ang^3
#
#
#
# Elastic Constant Matrix: (Units=GPa)
#
#
# Indices 1 2 3 4 5 6 
#
# 1 50.7956 19.7743 10.8764 0.0001 -2.8960 -0.0001
# 2 19.7743 58.5213 10.2175 0.0001 -3.3068 0.0000
# 3 10.8764 10.2175 49.9883 0.0001 3.5080 -0.0001
# 4 0.0001 0.0001 0.0001 13.9085 -0.0001 0.9018
# 5 -2.8960 -3.3068 3.5080 -0.0001 25.9693 0.0001
# 6 -0.0001 0.0000 -0.0001 0.9018 0.0001 18.0501
#
#
#
# Elastic Compliance Matrix: (Units=1/GPa)
#
#
# Indices 1 2 3 4 5 6 
#
# 1 0.023396 -0.007118 -0.003791 0.000000 0.002215 0.000000
# 2 -0.007118 0.020086 -0.002706 0.000000 0.002129 0.000000
# 3 -0.003791 -0.002706 0.021642 0.000000 -0.003691 0.000000
# 4 0.000000 0.000000 0.000000 0.072132 0.000000 -0.003604
# 5 0.002215 0.002129 -0.003691 0.000000 0.039524 0.000000
# 6 0.000000 0.000000 0.000000 -0.003604 0.000000 0.055581
#
#
# Mechanical properties :
#
#
# Convention : Reuss Voigt Hill
#
# Bulk Modulus (GPa) = 26.39044 26.78242 26.58643
# Shear Modulus (GPa) = 18.36733 19.48137 18.92435
#
# Velocity S-wave (km/s) = 3.29708 3.39560 3.34671
# Velocity P-wave (km/s) = 5.48759 5.58791 5.53798
#
# Compressibility (1/GPa) = 0.03789251
#
# Stress axis : x y z
#
# Youngs Moduli (GPa) = 42.74262 49.78616 46.20722
#
# Poissons Ratio (x) = 0.35440 0.17517
# Poissons Ratio (y) = 0.30426 0.12504
# Poissons Ratio (z) = 0.16203 0.13473
#
# Static dielectric constant tensor:
#      x y z
#    x 1.612680 0.000000 0.003750 
#    y 0.000000 1.550040 0.000000 
#    z 0.003750 0.000000 1.600520 
# 
# From -- ./inp_files/290425.got.cif
#   From: 2010.05.17/outbox.cif.g08.bks.cpg/sg12_146_cif.got.tgz:290425.got - 2010.06.03 13:09:07.
