data_PCOD9174219
_publ_section_title
;
Structure prediction by ZEFSAII (Michael W. Deem and Ramdas Pophale) SiO2 
 PCOD9174219
Probable space group: C 2/M
;
_chemical_formula_sum "Si O2"
_cell_formula_units_Z 60
_cell_length_a 19.835510
_cell_length_b 11.580793
_cell_length_c 25.660067
_cell_angle_alpha 90.000000
_cell_angle_beta 148.942743
_cell_angle_gamma 90.000000
_cell_volume 3040.886943
_symmetry_space_group_name_H-M "C 2/M"
_symmetry_group_IT_number 12
_symmetry_cell_setting 'monoclinic'
loop_
_space_group_symop_operation_xyz
x,y,z
-x,y,-z
-x,-y,-z
x,-y,z
1/2+x,1/2+y,z
1/2-x,1/2+y,-z
1/2-x,1/2-y,-z
1/2+x,1/2-y,z
loop_
_atom_site_type_symbol
_atom_site_label
_atom_site_fract_x
_atom_site_fract_y
_atom_site_fract_z
Si Si1 0.935530 0.246071 0.346522
Si Si2 0.500000 0.222488 0.500000
Si Si3 0.258908 0.131251 0.652108
Si Si4 0.665258 0.869218 0.151994
Si Si5 0.652106 0.865014 0.817218
Si Si6 0.386751 0.219978 0.988840
Si Si7 0.703969 0.631839 0.498418
Si Si8 0.952530 0.360366 0.141218
O O1 0.973072 0.322734 0.422679
O O2 0.799645 0.177324 0.264344
O O3 0.911701 0.315024 0.277327
O O4 0.052607 0.156110 0.413073
O O5 0.368353 0.295005 0.421204
O O6 0.279407 0.129786 0.603264
O O7 0.395506 0.172343 0.765900
O O8 0.233313 0.000000 0.651558
O O9 0.541986 0.787218 0.082098
O O10 0.634743 0.000000 0.148305
O O11 0.673851 0.866473 0.094510
O O12 0.592932 0.818067 0.832229
O O13 0.631029 0.000000 0.802586
O O14 0.806058 0.834589 0.922432
O O15 0.370821 0.184851 0.038238
O O16 0.717666 0.500000 0.484648
O O17 0.750000 0.750000 0.500000
O O18 0.946912 0.500000 0.137422
#
# Coordination Sequence:
#
# PCOD9174219 Si02
#       8
#     8   4   8   8   8   8   8   8
#     4  10  21  36  55  81 110 142 183 234 286 337
#     4  10  19  32  51  78 110 138 175 232 289 336
#     4   9  18  30  50  80 111 142 179 225 279 337
#     4  10  19  33  53  81 114 142 172 221 280 329
#     4  10  22  38  55  76 107 147 188 229 277 338
#     4  10  19  32  52  79 107 139 179 224 272 328
#     4  10  20  35  56  83 115 152 191 233 282 338
#     4  10  18  31  53  79 106 142 184 224 269 329
#
# _framework density 19.731085
#
# number of rings (size 3 to 8) (size 9 to 14) (size 15 to 20)
#    0.000    2.133    0.000    4.200    0.000    4.267 
#    0.000    5.667    0.000    5.600    0.000    0.000 
#    0.000    0.000    0.000    0.000    0.000    0.000 
#
# Total GULP energy -167008.227928 kJ/mol
# GULP energy per Si atom -5566.940931 kJ/mol
# Density = 1.968618 g / cm^3
# Si number density = 19.731085 Si / 1000 Ang^3
#
#
#
# Elastic Constant Matrix: (Units=GPa)
#
#
# Indices 1 2 3 4 5 6 
#
# 1 76.4545 18.1627 37.4300 0.0000 -25.0694 0.0000
# 2 18.1627 42.2172 18.2807 0.0000 -11.4218 0.0000
# 3 37.4300 18.2807 138.4122 0.0001 -24.7344 -0.0001
# 4 0.0000 0.0000 0.0001 11.9778 0.0001 -6.6278
# 5 -25.0694 -11.4218 -24.7344 0.0001 49.1552 0.0000
# 6 0.0000 0.0000 -0.0001 -6.6278 0.0000 -3.0432
#
#
#
# Elastic Compliance Matrix: (Units=1/GPa)
#
#
# Indices 1 2 3 4 5 6 
#
# 1 0.017781 -0.004580 -0.003047 0.000000 0.006471 0.000000
# 2 -0.004580 0.027278 -0.001812 0.000000 0.003091 0.000000
# 3 -0.003047 -0.001812 0.008719 0.000000 0.002412 0.000000
# 4 0.000000 0.000000 0.000000 0.037861 0.000000 -0.082457
# 5 0.006471 0.003091 0.002412 0.000000 0.025576 0.000000
# 6 0.000000 0.000000 0.000000 -0.082457 0.000000 -0.149016
#
#
# Mechanical properties :
#
#
# Convention : Reuss Voigt Hill
#
# Bulk Modulus (GPa) = 28.65245 44.98120 36.81682
# Shear Modulus (GPa) = -3878.80364 23.83199 -1927.48583
#
# Velocity S-wave (km/s) = -44.38583 3.47917 -31.28895
# Velocity P-wave (km/s) = 51.11017 6.24389 35.86965
#
# Compressibility (1/GPa) = 0.03490103
#
# Stress axis : x y z
#
# Youngs Moduli (GPa) = 56.23876 36.65940 114.68896
#
# Poissons Ratio (x) = 0.16789 0.34949
# Poissons Ratio (y) = 0.25755 0.20781
# Poissons Ratio (z) = 0.17137 0.06642
#
# Static dielectric constant tensor:
#      x y z
#    x 1.806290 0.000000 -0.037160 
#    y 0.000000 1.667090 0.000000 
#    z -0.037160 0.000000 1.704610 
# 
# From -- ./inp_files/347191.got.cif
#   From: 2010.05.17/outbox.cif.g08.bks.cpg/sg12_174_cif.got.tgz:347191.got - 2010.06.03 13:09:07.
