data_PCOD9174773
_publ_section_title
;
Structure prediction by ZEFSAII (Michael W. Deem and Ramdas Pophale) SiO2 
 PCOD9174773
Probable space group: C 2/M
;
_chemical_formula_sum "Si O2"
_cell_formula_units_Z 56
_cell_length_a 29.557380
_cell_length_b 7.374568
_cell_length_c 17.871180
_cell_angle_alpha 90.000000
_cell_angle_beta 38.314748
_cell_angle_gamma 90.000000
_cell_volume 2415.094554
_symmetry_space_group_name_H-M "C 2/M"
_symmetry_group_IT_number 12
_symmetry_cell_setting 'monoclinic'
loop_
_space_group_symop_operation_xyz
x,y,z
-x,y,-z
-x,-y,-z
x,-y,z
1/2+x,1/2+y,z
1/2-x,1/2+y,-z
1/2-x,1/2-y,-z
1/2+x,1/2-y,z
loop_
_atom_site_type_symbol
_atom_site_label
_atom_site_fract_x
_atom_site_fract_y
_atom_site_fract_z
Si Si1 0.301303 0.295974 0.712686
Si Si2 0.563271 0.791229 0.365306
Si Si3 0.964788 0.715839 0.759159
Si Si4 0.026383 0.721238 0.089291
Si Si5 0.860168 0.284249 0.475185
Si Si6 0.661351 0.777786 0.822145
Si Si7 0.143478 0.720524 0.683416
O O1 0.293267 0.500000 0.751636
O O2 0.361576 0.208599 0.687051
O O3 0.331201 0.299958 0.588770
O O4 0.221303 0.215462 0.804041
O O5 0.500000 0.708791 0.500000
O O6 0.568091 0.712261 0.275622
O O7 0.539852 0.000000 0.383402
O O8 0.949909 0.500000 0.782074
O O9 0.943703 0.783637 0.868681
O O10 0.052233 0.740836 0.640028
O O11 0.025417 0.500000 0.089186
O O12 0.941736 0.773080 0.195519
O O13 0.081031 0.776924 0.953045
O O14 0.847442 0.500000 0.497027
O O15 0.831886 0.216907 0.430852
O O16 0.679960 0.719586 0.713429
O O17 0.663422 0.000000 0.819061
O O18 0.145943 0.500000 0.677367
#
# Coordination Sequence:
#
# PCOD9174773 Si02
#       7
#     8   8   8   8   8   8   8
#     4  11  22  31  42  67 104 132 151 180 233 294
#     4  10  18  32  53  70  89 118 158 201 234 268
#     4   8  14  26  47  72  88 109 152 203 239 262
#     4   8  13  24  45  69  93 119 154 196 234 269
#     4   9  16  30  49  70  93 119 158 200 231 265
#     4   9  17  28  40  64 102 132 149 184 237 279
#     4   8  14  25  47  71  89 118 163 201 227 264
#
# _framework density 23.187497
#
# number of rings (size 3 to 8) (size 9 to 14) (size 15 to 20)
#    0.000    3.000    1.429    2.571    0.000    2.571 
#    0.000    0.714    0.000    0.857    0.000    9.000 
#    0.000    9.143    0.000    0.000    0.000    0.000 
#
# Total GULP energy -156240.676998 kJ/mol
# GULP energy per Si atom -5580.024179 kJ/mol
# Density = 2.313472 g / cm^3
# Si number density = 23.187497 Si / 1000 Ang^3
#
#
#
# Elastic Constant Matrix: (Units=GPa)
#
#
# Indices 1 2 3 4 5 6 
#
# 1 131.0118 -2.8471 8.8413 0.0065 20.4604 0.0049
# 2 -2.8471 72.0110 -3.8901 0.0107 -1.9427 -0.0238
# 3 8.8413 -3.8901 51.5004 -0.0097 11.8075 -0.0061
# 4 0.0065 0.0107 -0.0097 -0.3370 -0.0108 1.5769
# 5 20.4604 -1.9427 11.8075 -0.0108 30.5959 0.0053
# 6 0.0049 -0.0238 -0.0061 1.5769 0.0053 7.6229
#
#
#
# Elastic Compliance Matrix: (Units=1/GPa)
#
#
# Indices 1 2 3 4 5 6 
#
# 1 0.008527 0.000177 -0.000160 0.000177 -0.005629 -0.000038
# 2 0.000177 0.013955 0.000930 0.000312 0.000409 -0.000021
# 3 -0.000160 0.000930 0.021368 -0.000106 -0.008080 0.000048
# 4 0.000177 0.000312 -0.000106 -1.507857 -0.000645 0.311927
# 5 -0.005629 0.000409 -0.008080 -0.000645 0.039592 0.000104
# 6 -0.000038 -0.000021 0.000048 0.311927 0.000104 0.066656
#
#
# Mechanical properties :
#
#
# Convention : Reuss Voigt Hill
#
# Bulk Modulus (GPa) = 21.86146 28.74793 25.30469
# Shear Modulus (GPa) = -3.71912 24.40431 10.34260
#
# Velocity S-wave (km/s) = -1.26784 3.24771 2.11426
# Velocity P-wave (km/s) = 2.70285 5.14669 4.11058
#
# Compressibility (1/GPa) = 0.04574261
#
# Stress axis : x y z
#
# Youngs Moduli (GPa) = 117.27986 71.65903 46.79992
#
# Poissons Ratio (x) = -0.01265 0.00748
# Poissons Ratio (y) = -0.02071 -0.04352
# Poissons Ratio (z) = 0.01875 -0.06664
#
# Static dielectric constant tensor:
#      x y z
#    x 1.881610 -0.000010 0.014210 
#    y -0.000010 1.894620 0.000020 
#    z 0.014210 0.000020 1.850620 
# 
# From -- ./inp_files/295051.got.cif
#   From: 2010.05.17/outbox.cif.g08.bks.cpg/sg12_148_cif.got.tgz:295051.got - 2010.06.03 13:09:07.
