data_PCOD9174782
_publ_section_title
;
Structure prediction by ZEFSAII (Michael W. Deem and Ramdas Pophale) SiO2 
 PCOD9174782
Probable space group: C 2/M
;
_chemical_formula_sum "Si O2"
_cell_formula_units_Z 36
_cell_length_a 21.102953
_cell_length_b 16.700476
_cell_length_c 10.419467
_cell_angle_alpha 90.000000
_cell_angle_beta 22.769589
_cell_angle_gamma 90.000000
_cell_volume 1421.209126
_symmetry_space_group_name_H-M "C 2/M"
_symmetry_group_IT_number 12
_symmetry_cell_setting 'monoclinic'
loop_
_space_group_symop_operation_xyz
x,y,z
-x,y,-z
-x,-y,-z
x,-y,z
1/2+x,1/2+y,z
1/2-x,1/2+y,-z
1/2-x,1/2-y,-z
1/2+x,1/2-y,z
loop_
_atom_site_type_symbol
_atom_site_label
_atom_site_fract_x
_atom_site_fract_y
_atom_site_fract_z
Si Si1 0.043125 0.665594 0.709990
Si Si2 0.009992 0.500000 0.830069
Si Si3 0.693235 0.665373 0.441399
Si Si4 0.378820 0.500000 0.416191
Si Si5 0.350045 0.500000 0.879297
Si Si6 0.781083 0.339107 0.994085
O O1 0.109267 0.577122 0.599169
O O2 0.138521 0.744717 0.563951
O O3 0.886710 0.664653 0.095484
O O4 0.961350 0.666869 0.721232
O O5 0.811837 0.500000 0.160227
O O6 0.000000 0.500000 0.000000
O O7 0.624046 0.587916 0.641473
O O8 0.667453 0.650903 0.335241
O O9 0.546246 0.500000 0.183984
O O10 0.500000 0.500000 0.500000
O O11 0.251523 0.417142 0.032365
O O12 0.750000 0.250000 0.000000
#
# Coordination Sequence:
#
# PCOD9174782 Si02
#       6
#     8   4   8   4   4   8
#     4   9  19  35  52  82 109 143 186 224 267 327
#     4  10  20  40  60  77 102 146 186 234 281 328
#     4   9  18  33  52  76 115 142 182 224 258 316
#     4  10  18  32  53  74 100 138 188 215 256 331
#     4  12  16  28  49  71 101 143 188 207 245 323
#     4  10  20  28  51  80 114 146 181 214 263 317
#
# _framework density 25.330542999999999
#
# number of rings (size 3 to 8) (size 9 to 14) (size 15 to 20)
#    1.333    0.889    2.222    2.000    0.000    0.000 
#    0.000    6.667    0.000    2.667    0.000    7.000 
#    0.000    0.000    0.000    0.000    0.000    0.000 
#
# Total GULP energy -100300.805462 kJ/mol
# GULP energy per Si atom -5572.266970 kJ/mol
# Density = 2.527289 g / cm^3
# Si number density = 25.330543 Si / 1000 Ang^3
#
#
#
# Elastic Constant Matrix: (Units=GPa)
#
#
# Indices 1 2 3 4 5 6 
#
# 1 85.5601 40.9201 22.4726 -0.0001 -17.9335 -0.0001
# 2 40.9201 311.0444 53.8634 0.0000 -20.7427 -0.0002
# 3 22.4726 53.8634 52.2768 0.0012 -9.3990 0.0005
# 4 -0.0001 0.0000 0.0012 39.8814 0.0000 2.2418
# 5 -17.9335 -20.7427 -9.3990 0.0000 27.1668 0.0004
# 6 -0.0001 -0.0002 0.0005 2.2418 0.0004 8.7803
#
#
#
# Elastic Compliance Matrix: (Units=1/GPa)
#
#
# Indices 1 2 3 4 5 6 
#
# 1 0.014755 -0.000691 -0.004239 0.000000 0.007746 0.000000
# 2 -0.000691 0.004020 -0.003600 0.000000 0.001369 0.000000
# 3 -0.004239 -0.003600 0.025232 -0.000001 0.003183 -0.000002
# 4 0.000000 0.000000 -0.000001 0.025439 0.000000 -0.006495
# 5 0.007746 0.001369 0.003183 0.000000 0.044069 -0.000002
# 6 0.000000 0.000000 -0.000002 -0.006495 -0.000002 0.115550
#
#
# Mechanical properties :
#
#
# Convention : Reuss Voigt Hill
#
# Bulk Modulus (GPa) = 37.10548 75.93260 56.51904
# Shear Modulus (GPa) = 19.59964 37.27403 28.43684
#
# Velocity S-wave (km/s) = 2.78466 3.84018 3.35420
# Velocity P-wave (km/s) = 5.00194 7.05014 6.11244
#
# Compressibility (1/GPa) = 0.02695020
#
# Stress axis : x y z
#
# Youngs Moduli (GPa) = 67.77434 248.73057 39.63200
#
# Poissons Ratio (x) = 0.17176 0.16798
# Poissons Ratio (y) = 0.04680 0.14266
# Poissons Ratio (z) = 0.28726 0.89532
#
# Static dielectric constant tensor:
#      x y z
#    x 2.100100 0.000000 0.064950 
#    y 0.000000 2.166780 0.000000 
#    z 0.064950 0.000000 2.066030 
# 
# From -- ./inp_files/246266.got.cif
#   From: 2010.05.17/outbox.cif.g08.bks.cpg/sg12_124_cif.got.tgz:246266.got - 2010.06.03 13:09:07.
