data_PCOD9174202
_publ_section_title
;
Structure prediction by ZEFSAII (Michael W. Deem and Ramdas Pophale) SiO2 
 PCOD9174202
Probable space group: C 2/M
;
_chemical_formula_sum "Si O2"
_cell_formula_units_Z 64
_cell_length_a 24.024896
_cell_length_b 12.709525
_cell_length_c 11.889023
_cell_angle_alpha 90.000000
_cell_angle_beta 83.380062
_cell_angle_gamma 90.000000
_cell_volume 3606.049964
_symmetry_space_group_name_H-M "C 2/M"
_symmetry_group_IT_number 12
_symmetry_cell_setting 'monoclinic'
loop_
_space_group_symop_operation_xyz
x,y,z
-x,y,-z
-x,-y,-z
x,-y,z
1/2+x,1/2+y,z
1/2-x,1/2+y,-z
1/2-x,1/2-y,-z
1/2+x,1/2-y,z
loop_
_atom_site_type_symbol
_atom_site_label
_atom_site_fract_x
_atom_site_fract_y
_atom_site_fract_z
Si Si1 0.188959 0.268875 0.767267
Si Si2 0.083391 0.875816 0.394329
Si Si3 0.611155 0.379685 0.650572
Si Si4 0.698112 0.625414 0.235701
Si Si5 0.075209 0.621617 0.846169
Si Si6 0.320078 0.619408 0.020114
Si Si7 0.056693 0.810580 0.025959
Si Si8 0.501463 0.267734 0.734024
O O1 0.161095 0.193429 0.681418
O O2 0.248331 0.318247 0.723452
O O3 0.140153 0.355092 0.801129
O O4 0.197083 0.199501 0.878490
O O5 0.097976 0.866126 0.522041
O O6 0.139368 0.850828 0.310005
O O7 0.033059 0.799481 0.368416
O O8 0.068190 0.000000 0.376554
O O9 0.625012 0.500000 0.670251
O O10 0.554206 0.347474 0.728482
O O11 0.705325 0.500000 0.242512
O O12 0.696760 0.650698 0.102659
O O13 0.066737 0.500000 0.876407
O O14 0.033683 0.658655 0.754387
O O15 0.062169 0.703654 0.950397
O O16 0.300933 0.500000 0.046160
O O17 0.387592 0.624280 0.003484
O O18 0.044050 0.783285 0.157443
O O19 0.000000 0.866175 0.000000
#
# Coordination Sequence:
#
# PCOD9174202 Si02
#       8
#     8   8   8   8   8   8   8   8
#     4  10  20  34  53  77 105 136 176 216 255 303
#     4  10  20  35  55  79 105 135 173 214 261 313
#     4  10  21  35  54  79 105 137 173 213 262 310
#     4  10  20  34  55  76 100 137 175 213 257 306
#     4   9  19  34  52  75 106 141 176 212 252 305
#     4  10  19  32  50  76 109 137 165 209 263 314
#     4   9  18  29  47  77 106 137 167 203 253 310
#     4  10  18  31  53  78 105 133 170 212 258 307
#
# _framework density 17.747949999999999
#
# number of rings (size 3 to 8) (size 9 to 14) (size 15 to 20)
#    0.000    2.250    1.250    2.625    0.000    4.500 
#    0.000    1.875    0.000    9.000    0.000    0.000 
#    0.000    0.000    0.000    0.000    0.000    0.000 
#
# Total GULP energy -178322.831020 kJ/mol
# GULP energy per Si atom -5572.588469 kJ/mol
# Density = 1.770756 g / cm^3
# Si number density = 17.747950 Si / 1000 Ang^3
#
#
#
# Elastic Constant Matrix: (Units=GPa)
#
#
# Indices 1 2 3 4 5 6 
#
# 1 90.8077 32.4029 17.6791 0.0000 12.6477 0.0000
# 2 32.4029 55.8263 33.7651 0.0000 11.1947 0.0000
# 3 17.6791 33.7651 54.0762 0.0000 7.4823 0.0000
# 4 0.0000 0.0000 0.0000 12.7957 0.0000 5.4352
# 5 12.6477 11.1947 7.4823 0.0000 17.2976 0.0000
# 6 0.0000 0.0000 0.0000 5.4352 0.0000 15.8952
#
#
#
# Elastic Compliance Matrix: (Units=1/GPa)
#
#
# Indices 1 2 3 4 5 6 
#
# 1 0.014421 -0.007753 0.000948 0.000000 -0.005937 0.000000
# 2 -0.007753 0.035295 -0.018217 0.000000 -0.009293 0.000000
# 3 0.000948 -0.018217 0.029806 0.000000 -0.001796 0.000000
# 4 0.000000 0.000000 0.000000 0.091431 0.000000 -0.031264
# 5 -0.005937 -0.009293 -0.001796 0.000000 0.068943 0.000000
# 6 0.000000 0.000000 0.000000 -0.031264 0.000000 0.073603
#
#
# Mechanical properties :
#
#
# Convention : Reuss Voigt Hill
#
# Bulk Modulus (GPa) = 33.92556 40.93383 37.42970
# Shear Modulus (GPa) = 13.39155 16.98856 15.19005
#
# Velocity S-wave (km/s) = 2.74987 3.09724 2.92871
# Velocity P-wave (km/s) = 5.40732 5.99204 5.70717
#
# Compressibility (1/GPa) = 0.02947630
#
# Stress axis : x y z
#
# Youngs Moduli (GPa) = 69.34235 28.33300 33.55037
#
# Poissons Ratio (x) = 0.21967 -0.03180
# Poissons Ratio (y) = 0.53762 0.61120
# Poissons Ratio (z) = -0.06572 0.51615
#
# Static dielectric constant tensor:
#      x y z
#    x 1.606910 0.000000 0.012870 
#    y 0.000000 1.582010 0.000000 
#    z 0.012870 0.000000 1.641620 
# 
# From -- ./inp_files/174689.got.cif
#   From: 2010.05.17/outbox.cif.g08.bks.cpg/sg12_88_cif.got.tgz:174689.got - 2010.06.03 13:09:07.
