data_PCOD9174864
_publ_section_title
;
Structure prediction by ZEFSAII (Michael W. Deem and Ramdas Pophale) SiO2 
 PCOD9174864
Probable space group: C 2/M
;
_chemical_formula_sum "Si O2"
_cell_formula_units_Z 60
_cell_length_a 10.299886
_cell_length_b 29.659533
_cell_length_c 9.446132
_cell_angle_alpha 90.000000
_cell_angle_beta 58.338914
_cell_angle_gamma 90.000000
_cell_volume 2456.212421
_symmetry_space_group_name_H-M "C 2/M"
_symmetry_group_IT_number 12
_symmetry_cell_setting 'monoclinic'
loop_
_space_group_symop_operation_xyz
x,y,z
-x,y,-z
-x,-y,-z
x,-y,z
1/2+x,1/2+y,z
1/2-x,1/2+y,-z
1/2-x,1/2-y,-z
1/2+x,1/2-y,z
loop_
_atom_site_type_symbol
_atom_site_label
_atom_site_fract_x
_atom_site_fract_y
_atom_site_fract_z
Si Si1 0.186211 0.856797 0.086105
Si Si2 0.500000 0.191631 0.000000
Si Si3 0.830247 0.638060 0.734628
Si Si4 0.696393 0.593985 0.529058
Si Si5 0.060643 0.718546 0.651571
Si Si6 0.898706 0.816517 0.410221
Si Si7 0.056180 0.051563 0.132530
Si Si8 0.005517 0.450417 0.669724
O O1 0.344395 0.836493 0.055953
O O2 0.177475 0.910728 0.104113
O O3 0.024595 0.839170 0.235611
O O4 0.194784 0.847004 0.913479
O O5 0.545382 0.218706 0.831852
O O6 0.775352 0.620826 0.615116
O O7 0.946796 0.679032 0.670403
O O8 0.907012 0.593555 0.758658
O O9 0.641406 0.638047 0.473194
O O10 0.577457 0.561815 0.677002
O O11 0.823252 0.563126 0.385254
O O12 0.016084 0.768144 0.625667
O O13 0.227812 0.704348 0.499806
O O14 0.104934 0.000000 0.114371
O O15 0.000000 0.058499 0.000000
O O16 0.958647 0.500000 0.747981
O O17 0.000000 0.453085 0.500000
#
# Coordination Sequence:
#
# PCOD9174864 Si02
#       8
#     8   4   8   8   8   8   8   8
#     4  10  22  39  57  87 118 166 200 254 300 363
#     4  10  24  42  61  80 122 166 215 246 296 356
#     4  10  19  33  53  80 124 151 196 238 303 363
#     4  10  18  32  53  85 118 156 182 247 311 375
#     4  10  22  40  58  87 116 160 208 256 291 365
#     4  10  22  37  61  87 119 152 207 253 314 351
#     4  10  19  33  57  90 123 155 197 252 317 376
#     4   9  17  28  47  77 112 150 187 229 292 364
#
# _framework density 24.427855000000001
#
# number of rings (size 3 to 8) (size 9 to 14) (size 15 to 20)
#    0.000    2.133    2.667    0.400    0.000    5.867 
#    0.000    3.000    0.000    0.800    0.000    1.867 
#    0.000    0.000    0.000    0.000    0.000    0.000 
#
# Total GULP energy -167042.019449 kJ/mol
# GULP energy per Si atom -5568.067315 kJ/mol
# Density = 2.437226 g / cm^3
# Si number density = 24.427855 Si / 1000 Ang^3
#
#
#
# Elastic Constant Matrix: (Units=GPa)
#
#
# Indices 1 2 3 4 5 6 
#
# 1 66.0497 33.4858 18.4957 0.0000 0.7510 0.0000
# 2 33.4858 196.3319 35.8792 0.0000 -7.7154 0.0000
# 3 18.4957 35.8792 106.4639 0.0000 -19.3533 0.0000
# 4 0.0000 0.0000 0.0000 8.4932 0.0000 24.5542
# 5 0.7510 -7.7154 -19.3533 0.0000 35.6626 0.0000
# 6 0.0000 0.0000 0.0000 24.5542 0.0000 -1.6723
#
#
#
# Elastic Compliance Matrix: (Units=1/GPa)
#
#
# Indices 1 2 3 4 5 6 
#
# 1 0.017172 -0.002555 -0.002539 0.000000 -0.002292 0.000000
# 2 -0.002555 0.005809 -0.001415 0.000000 0.000543 0.000000
# 3 -0.002539 -0.001415 0.011388 0.000000 0.005928 0.000000
# 4 0.000000 0.000000 0.000000 0.002710 0.000000 0.039789
# 5 -0.002292 0.000543 0.005928 0.000000 0.031423 0.000000
# 6 0.000000 0.000000 0.000000 0.039789 0.000000 -0.013763
#
#
# Mechanical properties :
#
#
# Convention : Reuss Voigt Hill
#
# Bulk Modulus (GPa) = 46.83472 60.50742 53.67107
# Shear Modulus (GPa) = 66.77731 27.22901 47.00316
#
# Velocity S-wave (km/s) = 5.23411 3.34229 4.39129
# Velocity P-wave (km/s) = 7.46607 6.30223 6.90870
#
# Compressibility (1/GPa) = 0.02135168
#
# Stress axis : x y z
#
# Youngs Moduli (GPa) = 58.23272 172.14264 87.80862
#
# Poissons Ratio (x) = 0.43982 0.22294
# Poissons Ratio (y) = 0.14878 0.12427
# Poissons Ratio (z) = 0.14785 0.24362
#
# Static dielectric constant tensor:
#      x y z
#    x 2.221110 0.000000 0.068780 
#    y 0.000000 1.964120 0.000000 
#    z 0.068780 0.000000 1.999060 
# 
# From -- ./inp_files/137604.got.cif
#   From: 2010.05.17/outbox.cif.g08.bks.cpg/sg12_69_cif.got.tgz:137604.got - 2010.06.03 13:09:07.
