data_PCOD9174325
_publ_section_title
;
Structure prediction by ZEFSAII (Michael W. Deem and Ramdas Pophale) SiO2 
 PCOD9174325
Probable space group: C 2/M
;
_chemical_formula_sum "Si O2"
_cell_formula_units_Z 64
_cell_length_a 18.550779
_cell_length_b 14.854771
_cell_length_c 25.023539
_cell_angle_alpha 90.000000
_cell_angle_beta 149.964573
_cell_angle_gamma 90.000000
_cell_volume 3451.529796
_symmetry_space_group_name_H-M "C 2/M"
_symmetry_group_IT_number 12
_symmetry_cell_setting 'monoclinic'
loop_
_space_group_symop_operation_xyz
x,y,z
-x,y,-z
-x,-y,-z
x,-y,z
1/2+x,1/2+y,z
1/2-x,1/2+y,-z
1/2-x,1/2-y,-z
1/2+x,1/2-y,z
loop_
_atom_site_type_symbol
_atom_site_label
_atom_site_fract_x
_atom_site_fract_y
_atom_site_fract_z
Si Si1 0.837651 0.107982 0.638126
Si Si2 0.153661 0.235903 0.572755
Si Si3 0.159802 0.899127 0.870292
Si Si4 0.958707 0.306680 0.033835
Si Si5 0.813895 0.172769 0.002739
Si Si6 0.646567 0.101448 0.237965
Si Si7 0.244322 0.892180 0.538386
Si Si8 0.957078 0.397247 0.222638
O O1 0.736624 0.173676 0.607898
O O2 0.798400 0.118814 0.550435
O O3 0.003253 0.137523 0.753854
O O4 0.825688 0.000000 0.642995
O O5 0.241734 0.177138 0.672648
O O6 0.152698 0.169178 0.520223
O O7 0.000000 0.255613 0.500000
O O8 0.297796 0.846909 0.936497
O O9 0.162418 0.901380 0.936844
O O10 0.169127 0.000000 0.855044
O O11 0.953023 0.214177 0.064025
O O12 0.000000 0.291771 0.000000
O O13 0.068091 0.374057 0.132943
O O14 0.750000 0.250000 0.000000
O O15 0.695209 0.150208 0.882096
O O16 0.525226 0.103806 0.206681
O O17 0.706733 0.000000 0.275864
O O18 0.411493 0.864005 0.656202
O O19 0.234405 0.000000 0.545532
O O20 0.929478 0.500000 0.220666
#
# Coordination Sequence:
#
# PCOD9174325 Si02
#       8
#     8   8   8   8   8   8   8   8
#     4  10  22  40  60  86 118 153 197 243 287 340
#     4  11  23  38  58  88 114 153 195 241 293 342
#     4  10  20  35  60  83 106 147 194 235 277 335
#     4  11  23  35  51  85 123 152 179 227 299 355
#     4  10  18  31  54  80 109 147 189 233 268 335
#     4  10  20  36  57  82 116 151 192 237 285 348
#     4   9  20  37  59  85 115 150 193 241 291 342
#     4   9  16  31  57  82 102 142 197 241 274 322
#
# _framework density 18.542501999999999
#
# number of rings (size 3 to 8) (size 9 to 14) (size 15 to 20)
#    0.000    2.000    2.500    3.000    5.250    3.250 
#    2.250    1.250    0.000    1.500    0.000    0.000 
#    0.000    0.000    0.000    0.000    0.000    0.000 
#
# Total GULP energy -178339.361108 kJ/mol
# GULP energy per Si atom -5573.105035 kJ/mol
# Density = 1.850030 g / cm^3
# Si number density = 18.542502 Si / 1000 Ang^3
#
#
#
# Elastic Constant Matrix: (Units=GPa)
#
#
# Indices 1 2 3 4 5 6 
#
# 1 84.7531 35.8228 41.0856 -0.0003 1.1211 0.0002
# 2 35.8228 68.2880 25.9341 0.0001 8.5205 0.0007
# 3 41.0856 25.9341 85.5154 0.0001 -6.7636 0.0003
# 4 -0.0003 0.0001 0.0001 25.3481 0.0000 4.3197
# 5 1.1211 8.5205 -6.7636 0.0000 18.9294 0.0001
# 6 0.0002 0.0007 0.0003 4.3197 0.0001 6.0971
#
#
#
# Elastic Compliance Matrix: (Units=1/GPa)
#
#
# Indices 1 2 3 4 5 6 
#
# 1 0.017865 -0.006854 -0.006529 0.000000 -0.000306 0.000000
# 2 -0.006854 0.021030 -0.003912 0.000000 -0.010458 -0.000002
# 3 -0.006529 -0.003912 0.016657 0.000000 0.008099 0.000000
# 4 0.000000 0.000000 0.000000 0.044868 0.000000 -0.031788
# 5 -0.000306 -0.010458 0.008099 0.000000 0.060447 -0.000001
# 6 0.000000 -0.000002 0.000000 -0.031788 -0.000001 0.186533
#
#
# Mechanical properties :
#
#
# Convention : Reuss Voigt Hill
#
# Bulk Modulus (GPa) = 47.70300 49.36017 48.53159
# Shear Modulus (GPa) = 12.85423 19.12254 15.98838
#
# Velocity S-wave (km/s) = 2.63578 3.21484 2.93961
# Velocity P-wave (km/s) = 5.91991 6.36067 6.14424
#
# Compressibility (1/GPa) = 0.02096304
#
# Stress axis : x y z
#
# Youngs Moduli (GPa) = 55.97549 47.55146 60.03339
#
# Poissons Ratio (x) = 0.32592 0.39194
# Poissons Ratio (y) = 0.38366 0.23484
# Poissons Ratio (z) = 0.36545 0.18601
#
# Static dielectric constant tensor:
#      x y z
#    x 1.604920 0.000000 -0.015460 
#    y 0.000000 1.705960 0.000000 
#    z -0.015460 0.000000 1.684370 
# 
# From -- ./inp_files/344063.got.cif
#   From: 2010.05.17/outbox.cif.g08.bks.cpg/sg12_173_cif.got.tgz:344063.got - 2010.06.03 13:09:07.
