data_PCOD9174914
_publ_section_title
;
Structure prediction by ZEFSAII (Michael W. Deem and Ramdas Pophale) SiO2 
 PCOD9174914
Probable space group: C 2/M
;
_chemical_formula_sum "Si O2"
_cell_formula_units_Z 64
_cell_length_a 25.542872
_cell_length_b 7.617019
_cell_length_c 15.004011
_cell_angle_alpha 90.000000
_cell_angle_beta 90.461427
_cell_angle_gamma 90.000000
_cell_volume 2919.093837
_symmetry_space_group_name_H-M "C 2/M"
_symmetry_group_IT_number 12
_symmetry_cell_setting 'monoclinic'
loop_
_space_group_symop_operation_xyz
x,y,z
-x,y,-z
-x,-y,-z
x,-y,z
1/2+x,1/2+y,z
1/2-x,1/2+y,-z
1/2-x,1/2-y,-z
1/2+x,1/2-y,z
loop_
_atom_site_type_symbol
_atom_site_label
_atom_site_fract_x
_atom_site_fract_y
_atom_site_fract_z
Si Si1 0.557905 0.714600 0.286266
Si Si2 0.308408 0.806404 0.524503
Si Si3 0.336141 0.711659 0.231004
Si Si4 0.724214 0.706469 0.290624
Si Si5 0.690803 0.288772 0.967647
Si Si6 0.579927 0.698770 0.485274
Si Si7 0.056672 0.214715 0.677000
Si Si8 0.643333 0.286647 0.144935
O O1 0.562747 0.500000 0.287247
O O2 0.572772 0.776938 0.386622
O O3 0.497024 0.760291 0.274235
O O4 0.596075 0.775148 0.207628
O O5 0.250000 0.750000 0.500000
O O6 0.305707 0.802675 0.631241
O O7 0.357710 0.694384 0.495416
O O8 0.317753 0.000000 0.489405
O O9 0.338760 0.500000 0.227833
O O10 0.285663 0.758241 0.289354
O O11 0.323548 0.777817 0.130960
O O12 0.390650 0.774737 0.273264
O O13 0.715191 0.500000 0.305355
O O14 0.697103 0.756485 0.197739
O O15 0.686731 0.500000 0.963947
O O16 0.750000 0.250000 0.000000
O O17 0.651107 0.224786 0.044201
O O18 0.559931 0.500000 0.477710
O O19 0.554918 0.777355 0.574027
O O20 0.058871 0.000000 0.672920
O O21 0.639751 0.500000 0.141631
#
# Coordination Sequence:
#
# PCOD9174914 Si02
#       8
#     8   8   8   8   8   8   8   8
#     4   9  16  30  53  78 103 137 181 226 267 314
#     4  12  24  36  51  76 111 147 181 219 268 322
#     4  10  20  33  50  78 112 142 176 224 275 326
#     4  11  20  34  55  78 106 141 177 219 272 323
#     4  10  19  32  51  76 106 140 177 221 271 326
#     4  10  18  32  54  79 104 137 182 225 264 315
#     4   9  18  31  50  77 107 137 177 225 270 316
#     4   9  17  30  50  77 104 130 173 223 266 315
#
# _framework density 21.924613000000001
#
# number of rings (size 3 to 8) (size 9 to 14) (size 15 to 20)
#    0.000    2.000    2.500    2.625    0.000    2.500 
#    0.000    0.625    0.000    6.000    0.000    0.000 
#    0.000    2.000    0.000    0.000    0.000    0.000 
#
# Total GULP energy -178700.906169 kJ/mol
# GULP energy per Si atom -5584.403318 kJ/mol
# Density = 2.187471 g / cm^3
# Si number density = 21.924613 Si / 1000 Ang^3
#
#
#
# Elastic Constant Matrix: (Units=GPa)
#
#
# Indices 1 2 3 4 5 6 
#
# 1 146.2324 0.0345 40.5755 0.0000 -22.9115 0.0000
# 2 0.0345 52.6405 0.1082 0.0000 2.0131 0.0000
# 3 40.5755 0.1082 98.9827 0.0000 -21.5156 0.0000
# 4 0.0000 0.0000 0.0000 5.5998 0.0000 0.6070
# 5 -22.9115 2.0131 -21.5156 0.0000 32.3119 0.0000
# 6 0.0000 0.0000 0.0000 0.6070 0.0000 12.8224
#
#
#
# Elastic Compliance Matrix: (Units=1/GPa)
#
#
# Indices 1 2 3 4 5 6 
#
# 1 0.008170 -0.000160 -0.002441 0.000000 0.004178 0.000000
# 2 -0.000160 0.019054 -0.000278 0.000000 -0.001486 0.000000
# 3 -0.002441 -0.000278 0.012547 0.000000 0.006641 0.000000
# 4 0.000000 0.000000 0.000000 0.179498 0.000000 -0.008498
# 5 0.004178 -0.001486 0.006641 0.000000 0.038426 0.000000
# 6 0.000000 0.000000 0.000000 -0.008498 0.000000 0.078391
#
#
# Mechanical properties :
#
#
# Convention : Reuss Voigt Hill
#
# Bulk Modulus (GPa) = 29.40004 42.14358 35.77181
# Shear Modulus (GPa) = 14.15697 27.28932 20.72314
#
# Velocity S-wave (km/s) = 2.54384 3.53184 3.07775
# Velocity P-wave (km/s) = 4.69754 5.99130 5.38343
#
# Compressibility (1/GPa) = 0.03401355
#
# Stress axis : x y z
#
# Youngs Moduli (GPa) = 122.39369 52.48163 79.69839
#
# Poissons Ratio (x) = 0.00840 0.19454
# Poissons Ratio (y) = 0.01960 0.02217
# Poissons Ratio (z) = 0.29875 0.01460
#
# Static dielectric constant tensor:
#      x y z
#    x 1.795100 0.000000 0.011260 
#    y 0.000000 1.844050 0.000000 
#    z 0.011260 0.000000 1.825800 
# 
# From -- ./inp_files/238650.got.cif
#   From: 2010.05.17/outbox.cif.g08.bks.cpg/sg12_120_cif.got.tgz:238650.got - 2010.06.03 13:09:07.
