data_PCOD9174499
_publ_section_title
;
Structure prediction by ZEFSAII (Michael W. Deem and Ramdas Pophale) SiO2 
 PCOD9174499
Probable space group: C 2/M
;
_chemical_formula_sum "Si O2"
_cell_formula_units_Z 50
_cell_length_a 10.231024
_cell_length_b 28.280707
_cell_length_c 9.731700
_cell_angle_alpha 90.000000
_cell_angle_beta 54.665502
_cell_angle_gamma 90.000000
_cell_volume 2297.080398
_symmetry_space_group_name_H-M "C 2/M"
_symmetry_group_IT_number 12
_symmetry_cell_setting 'monoclinic'
loop_
_space_group_symop_operation_xyz
x,y,z
-x,y,-z
-x,-y,-z
x,-y,z
1/2+x,1/2+y,z
1/2-x,1/2+y,-z
1/2-x,1/2-y,-z
1/2+x,1/2-y,z
loop_
_atom_site_type_symbol
_atom_site_label
_atom_site_fract_x
_atom_site_fract_y
_atom_site_fract_z
Si Si1 0.874703 0.399011 0.264375
Si Si2 0.806758 0.277807 0.829517
Si Si3 0.251135 0.886105 0.882700
Si Si4 0.614095 0.205637 0.793285
Si Si5 0.500000 0.500000 0.500000
Si Si6 0.316541 0.448797 0.840917
Si Si7 0.691533 0.945969 0.413098
O O1 0.813611 0.346237 0.270332
O O2 0.831188 0.431794 0.163098
O O3 0.797460 0.421969 0.445792
O O4 0.063980 0.393607 0.179551
O O5 0.731555 0.330237 0.874562
O O6 0.742110 0.246328 0.744545
O O7 0.996649 0.283650 0.736925
O O8 0.750000 0.250000 0.000000
O O9 0.233719 0.914939 0.752931
O O10 0.149203 0.909932 0.065406
O O11 0.500000 0.202476 0.000000
O O12 0.449458 0.459785 0.646234
O O13 0.280186 0.500000 0.931034
O O14 0.500000 0.947787 0.500000
O O15 0.750366 0.000000 0.379978
#
# Coordination Sequence:
#
# PCOD9174499 Si02
#       7
#     8   8   8   8   2   8   8
#     4  10  18  31  57  87 111 145 188 244 305 344
#     4   9  17  31  54  81 119 147 194 247 302 350
#     4  10  19  32  57  90 108 145 193 244 298 356
#     4   9  17  31  54  84 116 152 195 244 304 358
#     4   8  24  36  50  78 108 168 184 240 294 334
#     4  10  19  34  55  76 114 147 196 237 283 356
#     4   9  18  31  49  82 123 146 174 234 303 354
#
# _framework density 21.766760999999999
#
# number of rings (size 3 to 8) (size 9 to 14) (size 15 to 20)
#    0.480    2.080    0.000    4.320    0.000    2.560 
#    0.000    0.800   14.080    0.960    6.240    0.000 
#    0.000    0.000    0.000    0.000    0.000    0.000 
#
# Total GULP energy -139288.712755 kJ/mol
# GULP energy per Si atom -5571.548510 kJ/mol
# Density = 2.171722 g / cm^3
# Si number density = 21.766761 Si / 1000 Ang^3
#
#
#
# Elastic Constant Matrix: (Units=GPa)
#
#
# Indices 1 2 3 4 5 6 
#
# 1 64.7855 40.6577 11.6512 0.0000 4.7972 0.0000
# 2 40.6577 183.6784 58.1200 0.0000 14.7978 0.0000
# 3 11.6512 58.1200 107.5824 0.0000 14.6886 0.0000
# 4 0.0000 0.0000 0.0000 16.6497 0.0000 11.3800
# 5 4.7972 14.7978 14.6886 0.0000 18.4021 0.0000
# 6 0.0000 0.0000 0.0000 11.3800 0.0000 20.7126
#
#
#
# Elastic Compliance Matrix: (Units=1/GPa)
#
#
# Indices 1 2 3 4 5 6 
#
# 1 0.017986 -0.003975 0.000453 0.000000 -0.001853 0.000000
# 2 -0.003975 0.007572 -0.003333 0.000000 -0.002392 0.000000
# 3 0.000453 -0.003333 0.012006 0.000000 -0.007020 0.000000
# 4 0.000000 0.000000 0.000000 0.096180 0.000000 -0.052844
# 5 -0.001853 -0.002392 -0.007020 0.000000 0.062352 0.000000
# 6 0.000000 0.000000 0.000000 -0.052844 0.000000 0.077314
#
#
# Mechanical properties :
#
#
# Convention : Reuss Voigt Hill
#
# Bulk Modulus (GPa) = 41.92617 64.10045 53.01331
# Shear Modulus (GPa) = 16.94509 27.52735 22.23622
#
# Velocity S-wave (km/s) = 2.79316 3.56005 3.19966
# Velocity P-wave (km/s) = 5.45029 6.81259 6.16916
#
# Compressibility (1/GPa) = 0.02385145
#
# Stress axis : x y z
#
# Youngs Moduli (GPa) = 55.59841 132.07107 83.29500
#
# Poissons Ratio (x) = 0.52501 -0.03771
# Poissons Ratio (y) = 0.22102 0.27766
# Poissons Ratio (z) = -0.02517 0.44025
#
# Static dielectric constant tensor:
#      x y z
#    x 1.904660 0.000000 -0.025420 
#    y 0.000000 1.784980 0.000000 
#    z -0.025420 0.000000 1.790950 
# 
# From -- ./inp_files/52508.got.cif
#   From: 2010.05.17/outbox.cif.g08.bks.cpg/sg12_27_cif.got.tgz:52508.got - 2010.06.03 13:09:07.
