data_PCOD9174809
_publ_section_title
;
Structure prediction by ZEFSAII (Michael W. Deem and Ramdas Pophale) SiO2 
 PCOD9174809
Probable space group: C 2/M
;
_chemical_formula_sum "Si O2"
_cell_formula_units_Z 64
_cell_length_a 14.808102
_cell_length_b 8.319964
_cell_length_c 26.737520
_cell_angle_alpha 90.000000
_cell_angle_beta 113.580141
_cell_angle_gamma 90.000000
_cell_volume 3019.083449
_symmetry_space_group_name_H-M "C 2/M"
_symmetry_group_IT_number 12
_symmetry_cell_setting 'monoclinic'
loop_
_space_group_symop_operation_xyz
x,y,z
-x,y,-z
-x,-y,-z
x,-y,z
1/2+x,1/2+y,z
1/2-x,1/2+y,-z
1/2-x,1/2-y,-z
1/2+x,1/2-y,z
loop_
_atom_site_type_symbol
_atom_site_label
_atom_site_fract_x
_atom_site_fract_y
_atom_site_fract_z
Si Si1 0.931098 0.809518 0.909806
Si Si2 0.596924 0.185545 0.879071
Si Si3 0.955844 0.190685 0.761103
Si Si4 0.849109 0.306300 0.495376
Si Si5 0.280554 0.693535 0.790401
Si Si6 0.208556 0.685121 0.043069
Si Si7 0.060078 0.304041 0.586492
Si Si8 0.077532 0.694679 0.703572
O O1 0.846446 0.752299 0.851736
O O2 0.884209 0.775589 0.953250
O O3 0.030032 0.723542 0.912997
O O4 0.946798 0.000000 0.906863
O O5 0.528819 0.223308 0.816501
O O6 0.695306 0.289935 0.900828
O O7 0.627045 0.000000 0.885482
O O8 0.981642 0.246101 0.711486
O O9 0.846187 0.226225 0.755912
O O10 0.970338 0.000000 0.769547
O O11 0.848055 0.500000 0.494854
O O12 0.750000 0.250000 0.500000
O O13 0.866711 0.252159 0.441792
O O14 0.948831 0.256568 0.546615
O O15 0.273099 0.500000 0.794881
O O16 0.171371 0.754543 0.756445
O O17 0.182751 0.500000 0.032887
O O18 0.250000 0.750000 0.000000
O O19 0.062045 0.500000 0.587155
O O20 0.083938 0.250695 0.647787
O O21 0.078449 0.500000 0.704113
#
# Coordination Sequence:
#
# PCOD9174809 Si02
#       8
#     8   8   8   8   8   8   8   8
#     4  10  20  38  60  84 113 147 184 229 278 332
#     4  11  22  39  61  85 112 149 191 231 274 328
#     4  10  20  35  53  79 111 142 175 220 271 322
#     4   9  17  33  53  73  98 136 179 222 267 319
#     4   8  17  32  52  75 103 136 172 209 258 318
#     4  12  25  41  60  86 115 147 186 232 283 337
#     4   8  17  32  50  72 103 139 177 215 266 329
#     4  10  18  32  53  76 103 141 180 218 263 324
#
# _framework density 21.198487
#
# number of rings (size 3 to 8) (size 9 to 14) (size 15 to 20)
#    0.000    2.250    0.000    5.250    0.000    2.500 
#    0.000    9.375    0.000    0.000    0.000    0.000 
#    0.000    0.000    0.000    0.000    0.000    0.000 
#
# Total GULP energy -178719.818323 kJ/mol
# GULP energy per Si atom -5584.994323 kJ/mol
# Density = 2.115024 g / cm^3
# Si number density = 21.198487 Si / 1000 Ang^3
#
#
#
# Elastic Constant Matrix: (Units=GPa)
#
#
# Indices 1 2 3 4 5 6 
#
# 1 119.4178 1.1511 22.9785 0.0000 -25.2637 0.0000
# 2 1.1511 32.7928 3.4389 0.0000 -1.6176 0.0000
# 3 22.9785 3.4389 49.5949 0.0000 -21.3122 0.0000
# 4 0.0000 0.0000 0.0000 16.2366 0.0000 -6.7840
# 5 -25.2637 -1.6176 -21.3122 0.0000 27.1293 0.0000
# 6 0.0000 0.0000 0.0000 -6.7840 0.0000 31.7283
#
#
#
# Elastic Compliance Matrix: (Units=1/GPa)
#
#
# Indices 1 2 3 4 5 6 
#
# 1 0.010462 0.000181 -0.001009 0.000000 0.008961 0.000000
# 2 0.000181 0.030722 -0.002045 0.000000 0.000394 0.000000
# 3 -0.001009 -0.002045 0.030670 0.000000 0.023032 0.000000
# 4 0.000000 0.000000 0.000000 0.067631 0.000000 0.014461
# 5 0.008961 0.000394 0.023032 0.000000 0.063322 0.000000
# 6 0.000000 0.000000 0.000000 0.014461 0.000000 0.034610
#
#
# Mechanical properties :
#
#
# Convention : Reuss Voigt Hill
#
# Bulk Modulus (GPa) = 15.12689 28.54917 21.83803
# Shear Modulus (GPa) = 18.85373 26.63465 22.74419
#
# Velocity S-wave (km/s) = 2.98550 3.54848 3.27909
# Velocity P-wave (km/s) = 4.36298 5.50324 4.96595
#
# Compressibility (1/GPa) = 0.06610742
#
# Stress axis : x y z
#
# Youngs Moduli (GPa) = 95.58325 32.54995 32.60489
#
# Poissons Ratio (x) = -0.00588 0.03291
# Poissons Ratio (y) = -0.01726 0.06667
# Poissons Ratio (z) = 0.09647 0.06656
#
# Static dielectric constant tensor:
#      x y z
#    x 1.781150 0.000000 -0.005490 
#    y 0.000000 1.731520 0.000000 
#    z -0.005490 0.000000 1.807970 
# 
# From -- ./inp_files/359939.got.cif
#   From: 2010.05.17/outbox.cif.g08.bks.cpg/sg12_180_cif.got.tgz:359939.got - 2010.06.03 13:09:07.
