data_PCOD9174892
_publ_section_title
;
Structure prediction by ZEFSAII (Michael W. Deem and Ramdas Pophale) SiO2 
 PCOD9174892
Probable space group: C 2/M
;
_chemical_formula_sum "Si O2"
_cell_formula_units_Z 56
_cell_length_a 13.042184
_cell_length_b 13.873706
_cell_length_c 17.962116
_cell_angle_alpha 90.000000
_cell_angle_beta 117.641176
_cell_angle_gamma 90.000000
_cell_volume 2879.191140
_symmetry_space_group_name_H-M "C 2/M"
_symmetry_group_IT_number 12
_symmetry_cell_setting 'monoclinic'
loop_
_space_group_symop_operation_xyz
x,y,z
-x,y,-z
-x,-y,-z
x,-y,z
1/2+x,1/2+y,z
1/2-x,1/2+y,-z
1/2-x,1/2-y,-z
1/2+x,1/2-y,z
loop_
_atom_site_type_symbol
_atom_site_label
_atom_site_fract_x
_atom_site_fract_y
_atom_site_fract_z
Si Si1 0.580559 0.779566 0.247471
Si Si2 0.081400 0.107688 0.769247
Si Si3 0.433641 0.800727 0.594987
Si Si4 0.561423 0.194434 0.943287
Si Si5 0.155599 0.803811 0.640165
Si Si6 0.197521 0.889093 0.491379
Si Si7 0.809024 0.110045 0.042205
O O1 0.516545 0.678780 0.235807
O O2 0.549264 0.834279 0.314006
O O3 0.526619 0.822598 0.154537
O O4 0.717674 0.767369 0.295408
O O5 0.118239 0.133145 0.698402
O O6 0.183155 0.118036 0.864816
O O7 0.038458 0.000000 0.757627
O O8 0.557410 0.778727 0.600037
O O9 0.334568 0.867997 0.526817
O O10 0.371220 0.694547 0.575274
O O11 0.605825 0.306304 0.958811
O O12 0.500000 0.171927 0.000000
O O13 0.679386 0.134327 0.973270
O O14 0.166872 0.863560 0.567470
O O15 0.168905 0.000000 0.465470
O O16 0.841073 0.000000 0.033513
#
# Coordination Sequence:
#
# PCOD9174892 Si02
#       7
#     8   8   8   8   8   8   8
#     4   9  19  33  50  73 104 135 164 204 255 300
#     4   9  17  31  51  75 103 133 168 208 247 293
#     4   9  20  35  52  76 107 133 161 207 256 298
#     4  10  19  33  54  76  99 133 175 213 250 296
#     4  10  18  32  54  77 103 134 167 203 245 296
#     4  10  20  35  56  79 101 130 169 208 247 296
#     4   9  19  34  51  74 104 136 170 210 255 298
#
# _framework density 19.449907
#
# number of rings (size 3 to 8) (size 9 to 14) (size 15 to 20)
#    0.000    2.571    0.000    1.714    0.000    5.143 
#    0.000    4.286    0.000   11.143    0.000    0.000 
#    0.000    0.000    0.000    0.000    0.000    0.000 
#
# Total GULP energy -156035.222045 kJ/mol
# GULP energy per Si atom -5572.686502 kJ/mol
# Density = 1.940564 g / cm^3
# Si number density = 19.449907 Si / 1000 Ang^3
#
#
#
# Elastic Constant Matrix: (Units=GPa)
#
#
# Indices 1 2 3 4 5 6 
#
# 1 0.9782 -17.0652 -7.1017 0.0000 30.2911 0.0000
# 2 -17.0652 33.8658 -4.1141 0.0000 3.2535 0.0000
# 3 -7.1017 -4.1141 95.2350 0.0000 15.5564 0.0000
# 4 0.0000 0.0000 0.0000 13.4166 0.0000 -1.8774
# 5 30.2911 3.2535 15.5564 0.0000 26.4259 0.0000
# 6 0.0000 0.0000 0.0000 -1.8774 0.0000 7.2039
#
#
#
# Elastic Compliance Matrix: (Units=1/GPa)
#
#
# Indices 1 2 3 4 5 6 
#
# 1 -0.017748 -0.012108 -0.005989 0.000000 0.025361 0.000000
# 2 -0.012108 0.022004 -0.001966 0.000000 0.012327 0.000000
# 3 -0.005989 -0.001966 0.009745 0.000000 0.001371 0.000000
# 4 0.000000 0.000000 0.000000 0.077356 0.000000 0.020160
# 5 0.025361 0.012327 0.001371 0.000000 0.006447 0.000000
# 6 0.000000 0.000000 0.000000 0.020160 0.000000 0.144067
#
#
# Mechanical properties :
#
#
# Convention : Reuss Voigt Hill
#
# Bulk Modulus (GPa) = -38.27815 8.16853 -15.05481
# Shear Modulus (GPa) = 18.29577 19.96661 19.13119
#
# Velocity S-wave (km/s) = 3.07035 3.20748 3.13966
# Velocity P-wave (km/s) = 2.67464 4.23393 2.32082
#
# Compressibility (1/GPa) = -0.02612456
#
# Stress axis : x y z
#
# Youngs Moduli (GPa) = -56.34302 45.44594 102.61748
#
# Poissons Ratio (x) = 0.55024 0.61459
# Poissons Ratio (y) = -0.68218 0.20173
# Poissons Ratio (z) = -0.33745 0.08934
#
# Static dielectric constant tensor:
#      x y z
#    x 1.694170 0.000000 0.011260 
#    y 0.000000 1.664320 0.000000 
#    z 0.011260 0.000000 1.740990 
# 
# From -- ./inp_files/262982.got.cif
#   From: 2010.05.17/outbox.cif.g08.bks.cpg/sg12_132_cif.got.tgz:262982.got - 2010.06.03 13:09:07.
