data_PCOD9174070
_publ_section_title
;
Structure prediction by ZEFSAII (Michael W. Deem and Ramdas Pophale) SiO2 
 PCOD9174070
Probable space group: C 2/M
;
_chemical_formula_sum "Si O2"
_cell_formula_units_Z 64
_cell_length_a 12.939415
_cell_length_b 23.122558
_cell_length_c 11.924548
_cell_angle_alpha 90.000000
_cell_angle_beta 78.154493
_cell_angle_gamma 90.000000
_cell_volume 3491.757717
_symmetry_space_group_name_H-M "C 2/M"
_symmetry_group_IT_number 12
_symmetry_cell_setting 'monoclinic'
loop_
_space_group_symop_operation_xyz
x,y,z
-x,y,-z
-x,-y,-z
x,-y,z
1/2+x,1/2+y,z
1/2-x,1/2+y,-z
1/2-x,1/2-y,-z
1/2+x,1/2-y,z
loop_
_atom_site_type_symbol
_atom_site_label
_atom_site_fract_x
_atom_site_fract_y
_atom_site_fract_z
Si Si1 0.118517 0.725459 0.154743
Si Si2 0.052787 0.931381 0.612168
Si Si3 0.772683 0.832862 0.972823
Si Si4 0.173277 0.433920 0.692803
Si Si5 0.367917 0.565576 0.826052
Si Si6 0.114812 0.744986 0.417356
Si Si7 0.734092 0.650553 0.510216
Si Si8 0.936123 0.644905 0.118546
O O1 0.149786 0.780246 0.072370
O O2 0.111934 0.744245 0.284163
O O3 0.008038 0.697170 0.144928
O O4 0.211507 0.679248 0.102751
O O5 0.150886 0.888156 0.596927
O O6 0.000000 0.923548 0.500000
O O7 0.969535 0.918019 0.729092
O O8 0.080392 0.000000 0.612512
O O9 0.835310 0.891426 0.932654
O O10 0.675974 0.833020 0.903765
O O11 0.149889 0.500000 0.667648
O O12 0.272740 0.434614 0.756234
O O13 0.204204 0.394408 0.581781
O O14 0.081919 0.401762 0.781476
O O15 0.381346 0.500000 0.863634
O O16 0.185906 0.690477 0.438700
O O17 0.169311 0.803790 0.448393
O O18 0.000000 0.740823 0.500000
O O19 0.000000 0.618292 0.000000
#
# Coordination Sequence:
#
# PCOD9174070 Si02
#       8
#     8   8   8   8   8   8   8   8
#     4  10  20  36  54  75 110 141 180 216 263 318
#     4  10  18  31  54  84 112 136 174 224 275 322
#     4   9  19  35  56  80 107 138 172 221 268 320
#     4  10  18  31  52  77 107 136 170 217 266 319
#     4   9  17  30  53  84 110 133 167 219 277 321
#     4  11  24  36  53  78 110 144 181 221 263 317
#     4  11  22  35  52  80 107 145 178 218 270 319
#     4   9  18  33  54  79 106 134 173 220 268 320
#
# _framework density 18.328878
#
# number of rings (size 3 to 8) (size 9 to 14) (size 15 to 20)
#    0.000    2.125    1.250    3.000    1.750    1.250 
#    0.000    1.875    0.000    8.250    0.000    1.750 
#    0.000    0.000    0.000    0.000    0.000    0.000 
#
# Total GULP energy -178497.089763 kJ/mol
# GULP energy per Si atom -5578.034055 kJ/mol
# Density = 1.828716 g / cm^3
# Si number density = 18.328878 Si / 1000 Ang^3
#
#
#
# Elastic Constant Matrix: (Units=GPa)
#
#
# Indices 1 2 3 4 5 6 
#
# 1 61.6498 35.3309 19.6808 0.0000 -21.8079 0.0000
# 2 35.3309 87.1778 11.4704 0.0000 -18.8864 0.0000
# 3 19.6808 11.4704 46.2890 0.0000 -19.6029 0.0000
# 4 0.0000 0.0000 0.0000 1.6056 0.0000 -3.8247
# 5 -21.8079 -18.8864 -19.6029 0.0000 18.6445 0.0000
# 6 0.0000 0.0000 0.0000 -3.8247 0.0000 25.2522
#
#
#
# Elastic Compliance Matrix: (Units=1/GPa)
#
#
# Indices 1 2 3 4 5 6 
#
# 1 0.029887 -0.005574 0.001960 0.000000 0.031372 0.000000
# 2 -0.005574 0.016352 0.004636 0.000000 0.014919 0.000000
# 3 0.001960 0.004636 0.040705 0.000000 0.049786 0.000000
# 4 0.000000 0.000000 0.000000 0.974364 0.000000 0.147578
# 5 0.031372 0.014919 0.049786 0.000000 0.157787 0.000000
# 6 0.000000 0.000000 0.000000 0.147578 0.000000 0.061953
#
#
# Mechanical properties :
#
#
# Convention : Reuss Voigt Hill
#
# Bulk Modulus (GPa) = 11.23755 36.45342 23.84548
# Shear Modulus (GPa) = 3.82069 17.67611 10.74840
#
# Velocity S-wave (km/s) = 1.44535 3.10883 2.42424
# Velocity P-wave (km/s) = 2.98827 5.72871 4.56880
#
# Compressibility (1/GPa) = 0.08898736
#
# Stress axis : x y z
#
# Youngs Moduli (GPa) = 33.45979 61.15573 24.56692
#
# Poissons Ratio (x) = 0.34086 -0.04815
# Poissons Ratio (y) = 0.18649 -0.11388
# Poissons Ratio (z) = -0.06558 -0.28350
#
# Static dielectric constant tensor:
#      x y z
#    x 1.637160 0.000000 -0.015530 
#    y 0.000000 1.636180 0.000000 
#    z -0.015530 0.000000 1.627010 
# 
# From -- ./inp_files/135354.got.cif
#   From: 2010.05.17/outbox.cif.g08.bks.cpg/sg12_68_cif.got.tgz:135354.got - 2010.06.03 13:09:07.
