data_PCOD9174897
_publ_section_title
;
Structure prediction by ZEFSAII (Michael W. Deem and Ramdas Pophale) SiO2 
 PCOD9174897
Probable space group: C 2/M
;
_chemical_formula_sum "Si O2"
_cell_formula_units_Z 56
_cell_length_a 21.395522
_cell_length_b 7.551674
_cell_length_c 18.234090
_cell_angle_alpha 90.000000
_cell_angle_beta 69.940475
_cell_angle_gamma 90.000000
_cell_volume 2767.397504
_symmetry_space_group_name_H-M "C 2/M"
_symmetry_group_IT_number 12
_symmetry_cell_setting 'monoclinic'
loop_
_space_group_symop_operation_xyz
x,y,z
-x,y,-z
-x,-y,-z
x,-y,z
1/2+x,1/2+y,z
1/2-x,1/2+y,-z
1/2-x,1/2-y,-z
1/2+x,1/2-y,z
loop_
_atom_site_type_symbol
_atom_site_label
_atom_site_fract_x
_atom_site_fract_y
_atom_site_fract_z
Si Si1 0.056782 0.783722 0.077393
Si Si2 0.317558 0.791979 0.265980
Si Si3 0.331512 0.711571 0.675739
Si Si4 0.923143 0.789514 0.770053
Si Si5 0.927437 0.286721 0.502976
Si Si6 0.574138 0.214293 0.662108
Si Si7 0.092754 0.213682 0.903881
O O1 0.084197 0.719972 0.144116
O O2 0.979338 0.730868 0.099129
O O3 0.057077 0.000000 0.077865
O O4 0.094238 0.728291 0.988099
O O5 0.243333 0.716374 0.298687
O O6 0.371036 0.717917 0.302499
O O7 0.349462 0.775878 0.172706
O O8 0.311820 0.000000 0.285956
O O9 0.326448 0.500000 0.688573
O O10 0.374460 0.783243 0.726986
O O11 0.372496 0.739684 0.584879
O O12 0.999625 0.764151 0.715543
O O13 0.911593 0.000000 0.778544
O O14 0.930854 0.500000 0.498975
O O15 0.913288 0.224771 0.426139
O O16 0.000000 0.222039 0.500000
O O17 0.576088 0.000000 0.662001
O O18 0.093420 0.000000 0.903038
#
# Coordination Sequence:
#
# PCOD9174897 Si02
#       7
#     8   8   8   8   8   8   8
#     4   8  15  28  50  78 102 125 166 216 249 283
#     4  10  21  36  50  73 109 139 163 201 256 306
#     4  10  22  36  52  75 105 137 166 204 254 304
#     4  10  18  32  54  77  99 130 172 210 245 293
#     4  10  20  35  54  76 101 130 168 212 254 295
#     4  10  20  34  53  74 101 134 166 207 253 297
#     4   9  16  30  52  76 101 131 169 210 248 291
#
# _framework density 20.235620000000001
#
# number of rings (size 3 to 8) (size 9 to 14) (size 15 to 20)
#    0.000    2.429    2.857    0.857    0.000    2.000 
#    0.000    2.857    0.000    0.000    0.000    0.000 
#    0.000    0.000    0.000    0.000    0.000    0.000 
#
# Total GULP energy -156277.534840 kJ/mol
# GULP energy per Si atom -5581.340530 kJ/mol
# Density = 2.018956 g / cm^3
# Si number density = 20.235620 Si / 1000 Ang^3
#
#
#
# Elastic Constant Matrix: (Units=GPa)
#
#
# Indices 1 2 3 4 5 6 
#
# 1 139.4375 2.3742 84.7472 0.0000 -0.1966 0.0000
# 2 2.3742 46.9506 -9.5437 -0.0001 4.2261 -0.0001
# 3 84.7472 -9.5437 140.3802 0.0000 11.5253 0.0000
# 4 0.0000 -0.0001 0.0000 39.4282 0.0000 -6.9833
# 5 -0.1966 4.2261 11.5253 0.0000 36.0156 0.0000
# 6 0.0000 -0.0001 0.0000 -6.9833 0.0000 9.0904
#
#
#
# Elastic Compliance Matrix: (Units=1/GPa)
#
#
# Indices 1 2 3 4 5 6 
#
# 1 0.011768 -0.002364 -0.007490 0.000000 0.002738 0.000000
# 2 -0.002364 0.022411 0.003253 0.000000 -0.003684 0.000000
# 3 -0.007490 0.003253 0.012222 0.000000 -0.004334 0.000000
# 4 0.000000 0.000000 0.000000 0.029357 0.000000 0.022552
# 5 0.002738 -0.003684 -0.004334 0.000000 0.029600 0.000000
# 6 0.000000 0.000000 0.000000 0.022552 0.000000 0.127331
#
#
# Mechanical properties :
#
#
# Convention : Reuss Voigt Hill
#
# Bulk Modulus (GPa) = 30.12037 53.54709 41.83373
# Shear Modulus (GPa) = 19.45847 33.51954 26.48900
#
# Velocity S-wave (km/s) = 3.10432 4.07438 3.62197
# Velocity P-wave (km/s) = 5.26937 6.97520 6.18141
#
# Compressibility (1/GPa) = 0.03320013
#
# Stress axis : x y z
#
# Youngs Moduli (GPa) = 84.97665 44.62020 81.81915
#
# Poissons Ratio (x) = 0.10548 0.61281
# Poissons Ratio (y) = 0.20089 -0.26618
# Poissons Ratio (z) = 0.63646 -0.14516
#
# Static dielectric constant tensor:
#      x y z
#    x 1.712080 0.000000 0.032020 
#    y 0.000000 1.766130 0.000000 
#    z 0.032020 0.000000 1.697300 
# 
# From -- ./inp_files/280914.got.cif
#   From: 2010.05.17/outbox.cif.g08.bks.cpg/sg12_141_cif.got.tgz:280914.got - 2010.06.03 13:09:07.
