data_PCOD9174510
_publ_section_title
;
Structure prediction by ZEFSAII (Michael W. Deem and Ramdas Pophale) SiO2 
 PCOD9174510
Probable space group: C 2/M
;
_chemical_formula_sum "Si O2"
_cell_formula_units_Z 64
_cell_length_a 8.969522
_cell_length_b 18.256750
_cell_length_c 20.438838
_cell_angle_alpha 90.000000
_cell_angle_beta 87.607843
_cell_angle_gamma 90.000000
_cell_volume 3344.031346
_symmetry_space_group_name_H-M "C 2/M"
_symmetry_group_IT_number 12
_symmetry_cell_setting 'monoclinic'
loop_
_space_group_symop_operation_xyz
x,y,z
-x,y,-z
-x,-y,-z
x,-y,z
1/2+x,1/2+y,z
1/2-x,1/2+y,-z
1/2-x,1/2-y,-z
1/2+x,1/2-y,z
loop_
_atom_site_type_symbol
_atom_site_label
_atom_site_fract_x
_atom_site_fract_y
_atom_site_fract_z
Si Si1 0.404455 0.235090 0.737759
Si Si2 0.156288 0.918188 0.534294
Si Si3 0.650797 0.701001 0.648844
Si Si4 0.348841 0.815155 0.174267
Si Si5 0.349339 0.189323 0.462256
Si Si6 0.668596 0.916672 0.022367
Si Si7 0.356683 0.419275 0.885988
Si Si8 0.093464 0.192404 0.930538
O O1 0.513776 0.294550 0.701805
O O2 0.307391 0.196300 0.683461
O O3 0.508128 0.185112 0.781638
O O4 0.280900 0.272602 0.785004
O O5 0.143063 0.862729 0.595431
O O6 0.271862 0.887195 0.478640
O O7 0.000000 0.918330 0.500000
O O8 0.194821 0.000000 0.554988
O O9 0.640660 0.779392 0.610855
O O10 0.276815 0.892289 0.157568
O O11 0.380510 0.768134 0.107962
O O12 0.500000 0.190018 0.500000
O O13 0.250000 0.250000 0.500000
O O14 0.750106 0.851517 0.061089
O O15 0.666354 0.000000 0.052070
O O16 0.500000 0.901657 0.000000
O O17 0.779954 0.921752 0.958579
O O18 0.412907 0.500000 0.868548
O O19 0.488371 0.360055 0.888327
O O20 0.000000 0.203258 0.000000
#
# Coordination Sequence:
#
# PCOD9174510 Si02
#       8
#     8   8   8   8   8   8   8   8
#     4  10  22  36  58  78 110 150 208 243 281 323
#     4  10  20  34  56  90 127 153 186 239 293 344
#     4  10  18  36  58  80 111 158 197 236 277 344
#     4  11  22  39  56  86 111 148 197 259 289 347
#     4  10  18  31  57  89 115 147 188 235 285 342
#     4   9  19  33  54  87 117 143 177 222 294 372
#     4  10  21  38  58  80 113 148 181 230 297 367
#     4  10  21  37  61  85 113 150 185 241 309 374
#
# _framework density 19.138576
#
# number of rings (size 3 to 8) (size 9 to 14) (size 15 to 20)
#    0.000    2.000    1.250    4.125    1.750    4.250 
#    0.000    1.250    0.000    3.000    0.000    0.000 
#    0.000    0.000    0.000    0.000    0.000    0.000 
#
# Total GULP energy -178459.510718 kJ/mol
# GULP energy per Si atom -5576.859710 kJ/mol
# Density = 1.909502 g / cm^3
# Si number density = 19.138576 Si / 1000 Ang^3
#
#
#
# Elastic Constant Matrix: (Units=GPa)
#
#
# Indices 1 2 3 4 5 6 
#
# 1 104.3922 17.3743 18.2648 0.0000 14.1381 0.0000
# 2 17.3743 66.9238 21.7556 0.0000 5.4547 0.0000
# 3 18.2648 21.7556 63.9072 0.0000 10.8219 0.0000
# 4 0.0000 0.0000 0.0000 -21.3259 0.0000 3.2001
# 5 14.1381 5.4547 10.8219 0.0000 36.5086 0.0000
# 6 0.0000 0.0000 0.0000 3.2001 0.0000 19.6620
#
#
#
# Elastic Compliance Matrix: (Units=1/GPa)
#
#
# Indices 1 2 3 4 5 6 
#
# 1 0.010665 -0.001901 -0.001842 0.000000 -0.003300 0.000000
# 2 -0.001901 0.017166 -0.005255 0.000000 -0.000271 0.000000
# 3 -0.001842 -0.005255 0.018645 0.000000 -0.004028 0.000000
# 4 0.000000 0.000000 0.000000 -0.045773 0.000000 0.007450
# 5 -0.003300 -0.000271 -0.004028 0.000000 0.029903 0.000000
# 6 0.000000 0.000000 0.000000 0.007450 0.000000 0.049647
#
#
# Mechanical properties :
#
#
# Convention : Reuss Voigt Hill
#
# Bulk Modulus (GPa) = 35.11129 38.89027 37.00078
# Shear Modulus (GPa) = 46.40711 18.82415 32.61563
#
# Velocity S-wave (km/s) = 4.92956 3.13960 4.13265
# Velocity P-wave (km/s) = 7.12646 5.78854 6.49206
#
# Compressibility (1/GPa) = 0.02848087
#
# Stress axis : x y z
#
# Youngs Moduli (GPa) = 93.76584 58.25426 53.63332
#
# Poissons Ratio (x) = 0.11074 0.09880
# Poissons Ratio (y) = 0.17824 0.28182
# Poissons Ratio (z) = 0.17273 0.30610
#
# Static dielectric constant tensor:
#      x y z
#    x 1.683030 0.000000 0.001340 
#    y 0.000000 1.686190 0.000000 
#    z 0.001340 0.000000 1.703540 
# 
# From -- ./inp_files/300785.got.cif
#   From: 2010.05.17/outbox.cif.g08.bks.cpg/sg12_151_cif.got.tgz:300785.got - 2010.06.03 13:09:07.
