data_PCOD9174620
_publ_section_title
;
Structure prediction by ZEFSAII (Michael W. Deem and Ramdas Pophale) SiO2 
 PCOD9174620
Probable space group: C 2/M
;
_chemical_formula_sum "Si O2"
_cell_formula_units_Z 46
_cell_length_a 32.750803
_cell_length_b 15.807592
_cell_length_c 16.141307
_cell_angle_alpha 90.000000
_cell_angle_beta 16.836953
_cell_angle_gamma 90.000000
_cell_volume 2420.464091
_symmetry_space_group_name_H-M "C 2/M"
_symmetry_group_IT_number 12
_symmetry_cell_setting 'monoclinic'
loop_
_space_group_symop_operation_xyz
x,y,z
-x,y,-z
-x,-y,-z
x,-y,z
1/2+x,1/2+y,z
1/2-x,1/2+y,-z
1/2-x,1/2-y,-z
1/2+x,1/2-y,z
loop_
_atom_site_type_symbol
_atom_site_label
_atom_site_fract_x
_atom_site_fract_y
_atom_site_fract_z
Si Si1 0.567763 0.000000 0.778207
Si Si2 0.613261 0.665380 0.969198
Si Si3 0.500000 0.000000 0.500000
Si Si4 0.950014 0.666955 0.294107
Si Si5 0.643000 0.404093 0.091293
Si Si6 0.962659 0.361403 0.457037
Si Si7 0.097131 0.000000 0.891547
Si Si8 0.500000 0.708059 0.500000
O O1 0.526804 0.084519 0.807132
O O2 0.737766 0.000000 0.453286
O O3 0.500000 0.000000 0.000000
O O4 0.781098 0.680021 0.631019
O O5 0.573164 0.583730 0.993016
O O6 0.526116 0.748585 0.115186
O O7 0.589057 0.641587 0.112758
O O8 0.558447 0.924434 0.324001
O O9 0.005955 0.649757 0.278466
O O10 0.589264 0.500000 0.201037
O O11 0.607055 0.351197 0.242600
O O12 0.811493 0.407662 0.753143
O O13 0.942602 0.271796 0.541289
O O14 0.000000 0.000000 0.000000
#
# Coordination Sequence:
#
# PCOD9174620 Si02
#       8
#     4   8   2   8   8   8   4   4
#     4  10  23  41  66  92 118 153 194 243 297 359
#     4  10  21  39  62  89 115 162 194 242 293 360
#     4  10  18  32  50  78 104 144 196 234 280 328
#     4  10  21  40  63  85 121 154 199 238 300 349
#     4  11  20  36  55  79 117 152 198 238 294 340
#     4  10  20  34  55  80 111 151 198 239 285 341
#     4  10  22  41  66  90 120 155 194 238 296 361
#     4  11  21  33  55  84 116 150 197 247 287 325
#
# _framework density 19.004621
#
# number of rings (size 3 to 8) (size 9 to 14) (size 15 to 20)
#    0.000    1.739    3.478    1.304    2.435    2.087 
#    0.000    3.478    0.000    0.000    0.000    0.000 
#    0.000    0.000    0.000    0.000    0.000    0.000 
#
# Total GULP energy -128074.401944 kJ/mol
# GULP energy per Si atom -5568.452258 kJ/mol
# Density = 1.896137 g / cm^3
# Si number density = 19.004621 Si / 1000 Ang^3
#
#
#
# Elastic Constant Matrix: (Units=GPa)
#
#
# Indices 1 2 3 4 5 6 
#
# 1 111.7615 62.4467 29.1007 0.0000 19.3512 0.0000
# 2 62.4467 185.7102 53.2882 0.0000 16.3201 0.0000
# 3 29.1007 53.2882 32.1051 -0.0001 22.1851 0.0000
# 4 0.0000 0.0000 -0.0001 28.1084 0.0000 -2.5514
# 5 19.3512 16.3201 22.1851 0.0000 30.6380 0.0000
# 6 0.0000 0.0000 0.0000 -2.5514 0.0000 22.5034
#
#
#
# Elastic Compliance Matrix: (Units=1/GPa)
#
#
# Indices 1 2 3 4 5 6 
#
# 1 0.012066 -0.002270 -0.005482 0.000000 -0.002443 0.000000
# 2 -0.002270 0.014753 -0.036008 0.000000 0.019648 0.000000
# 3 -0.005482 -0.036008 0.160589 0.000000 -0.093641 0.000000
# 4 0.000000 0.000000 0.000000 0.035946 0.000000 0.004076
# 5 -0.002443 0.019648 -0.093641 0.000000 0.091522 0.000000
# 6 0.000000 0.000000 0.000000 0.004076 0.000000 0.044900
#
#
# Mechanical properties :
#
#
# Convention : Reuss Voigt Hill
#
# Bulk Modulus (GPa) = 10.01093 68.80534 39.40813
# Shear Modulus (GPa) = 10.40384 28.56604 19.48494
#
# Velocity S-wave (km/s) = 2.34228 3.88120 3.20546
# Velocity P-wave (km/s) = 3.54881 7.50787 5.87206
#
# Compressibility (1/GPa) = 0.09989086
#
# Stress axis : x y z
#
# Youngs Moduli (GPa) = 82.87660 67.78091 6.22706
#
# Poissons Ratio (x) = 0.15385 0.03413
# Poissons Ratio (y) = 0.18811 0.22422
# Poissons Ratio (z) = 0.45430 2.44063
#
# Static dielectric constant tensor:
#      x y z
#    x 1.737720 0.000000 -0.037800 
#    y 0.000000 1.675480 0.000000 
#    z -0.037800 0.000000 1.668610 
# 
# From -- ./inp_files/251479.got.cif
#   From: 2010.05.17/outbox.cif.g08.bks.cpg/sg12_126_cif.got.tgz:251479.got - 2010.06.03 13:09:07.
