data_PCOD9174713
_publ_section_title
;
Structure prediction by ZEFSAII (Michael W. Deem and Ramdas Pophale) SiO2 
 PCOD9174713
Probable space group: C 2/M
;
_chemical_formula_sum "Si O2"
_cell_formula_units_Z 56
_cell_length_a 24.672445
_cell_length_b 17.625133
_cell_length_c 6.920932
_cell_angle_alpha 90.000000
_cell_angle_beta 134.645731
_cell_angle_gamma 90.000000
_cell_volume 2141.228196
_symmetry_space_group_name_H-M "C 2/M"
_symmetry_group_IT_number 12
_symmetry_cell_setting 'monoclinic'
loop_
_space_group_symop_operation_xyz
x,y,z
-x,y,-z
-x,-y,-z
x,-y,z
1/2+x,1/2+y,z
1/2-x,1/2+y,-z
1/2-x,1/2-y,-z
1/2+x,1/2-y,z
loop_
_atom_site_type_symbol
_atom_site_label
_atom_site_fract_x
_atom_site_fract_y
_atom_site_fract_z
Si Si1 0.262537 0.581998 0.749602
Si Si2 0.980565 0.086418 0.678549
Si Si3 0.718325 0.916133 0.181509
Si Si4 0.616557 0.308668 0.047665
Si Si5 0.841401 0.803218 0.419054
Si Si6 0.605686 0.139242 0.457170
Si Si7 0.561781 0.145258 0.888993
O O1 0.299192 0.500000 0.881336
O O2 0.243846 0.584691 0.472450
O O3 0.320753 0.651145 0.929394
O O4 0.181144 0.588444 0.649383
O O5 0.907309 0.137194 0.534117
O O6 0.000000 0.086454 0.500000
O O7 0.970098 0.000000 0.715507
O O8 0.054441 0.128120 0.949450
O O9 0.762769 0.847271 0.193123
O O10 0.739111 0.000000 0.162286
O O11 0.628299 0.901991 0.954611
O O12 0.658050 0.286088 0.348888
O O13 0.573328 0.234223 0.866641
O O14 0.865616 0.721783 0.401122
O O15 0.525356 0.120579 0.355286
O O16 0.581443 0.140993 0.168512
#
# Coordination Sequence:
#
# PCOD9174713 Si02
#       7
#     8   8   8   8   8   8   8
#     4   9  17  27  43  71 104 134 164 203 248 291
#     4  11  23  35  49  73 104 133 160 200 253 299
#     4   9  17  27  43  71 104 134 164 203 248 291
#     4  10  18  32  52  74  99 130 169 204 241 293
#     4  10  18  32  52  74  99 130 169 204 241 293
#     4   9  16  27  45  71 100 132 167 203 245 289
#     4   9  16  27  45  71 100 132 167 203 245 289
#
# _framework density 26.153213999999998
#
# number of rings (size 3 to 8) (size 9 to 14) (size 15 to 20)
#    0.000    2.429    1.429    2.143    0.000    6.286 
#    0.000    2.857    0.000    3.429    0.000    0.000 
#    0.000    1.143    0.000    0.000    0.000    0.000 
#
# Total GULP energy -156788.278773 kJ/mol
# GULP energy per Si atom -5599.581385 kJ/mol
# Density = 2.609369 g / cm^3
# Si number density = 26.153214 Si / 1000 Ang^3
#
#
#
# Elastic Constant Matrix: (Units=GPa)
#
#
# Indices 1 2 3 4 5 6 
#
# 1 117.4313 -18.6933 24.5545 0.0000 12.0655 0.0000
# 2 -18.6933 26.0255 -7.1367 0.0000 -3.4287 0.0000
# 3 24.5545 -7.1367 95.8684 0.0000 6.2734 0.0000
# 4 0.0000 0.0000 0.0000 19.5357 0.0000 16.4869
# 5 12.0655 -3.4287 6.2734 0.0000 50.4309 0.0000
# 6 0.0000 0.0000 0.0000 16.4869 0.0000 28.0867
#
#
#
# Elastic Compliance Matrix: (Units=1/GPa)
#
#
# Indices 1 2 3 4 5 6 
#
# 1 0.010149 0.006512 -0.002001 0.000000 -0.001736 0.000000
# 2 0.006512 0.043675 0.001503 0.000000 0.001224 0.000000
# 3 -0.002001 0.001503 0.011108 0.000000 -0.000801 0.000000
# 4 0.000000 0.000000 0.000000 0.101441 0.000000 -0.059546
# 5 -0.001736 0.001224 -0.000801 0.000000 0.020427 0.000000
# 6 0.000000 0.000000 0.000000 -0.059546 0.000000 0.070557
#
#
# Mechanical properties :
#
#
# Convention : Reuss Voigt Hill
#
# Bulk Modulus (GPa) = 12.99364 26.30822 19.65093
# Shear Modulus (GPa) = 18.45138 35.65073 27.05105
#
# Velocity S-wave (km/s) = 2.65903 3.69609 3.21959
# Velocity P-wave (km/s) = 3.79556 5.31939 4.62072
#
# Compressibility (1/GPa) = 0.07696074
#
# Stress axis : x y z
#
# Youngs Moduli (GPa) = 98.53088 22.89645 90.02689
#
# Poissons Ratio (x) = -0.14911 0.18015
# Poissons Ratio (y) = -0.64166 -0.13533
# Poissons Ratio (z) = 0.19716 -0.03442
#
# Static dielectric constant tensor:
#      x y z
#    x 2.069060 0.000000 -0.095200 
#    y 0.000000 1.965290 0.000000 
#    z -0.095200 0.000000 2.064820 
# 
# From -- ./inp_files/98196.got.cif
#   From: 2010.05.17/outbox.cif.g08.bks.cpg/sg12_50_cif.got.tgz:98196.got - 2010.06.03 13:09:07.
