data_PCOD9174645
_publ_section_title
;
Structure prediction by ZEFSAII (Michael W. Deem and Ramdas Pophale) SiO2 
 PCOD9174645
Probable space group: C 2/M
;
_chemical_formula_sum "Si O2"
_cell_formula_units_Z 64
_cell_length_a 33.960315
_cell_length_b 9.088517
_cell_length_c 14.696403
_cell_angle_alpha 90.000000
_cell_angle_beta 64.810494
_cell_angle_gamma 90.000000
_cell_volume 4104.675075
_symmetry_space_group_name_H-M "C 2/M"
_symmetry_group_IT_number 12
_symmetry_cell_setting 'monoclinic'
loop_
_space_group_symop_operation_xyz
x,y,z
-x,y,-z
-x,-y,-z
x,-y,z
1/2+x,1/2+y,z
1/2-x,1/2+y,-z
1/2-x,1/2-y,-z
1/2+x,1/2-y,z
loop_
_atom_site_type_symbol
_atom_site_label
_atom_site_fract_x
_atom_site_fract_y
_atom_site_fract_z
Si Si1 0.576576 0.665897 0.683251
Si Si2 0.297122 0.324861 0.344698
Si Si3 0.453351 0.322312 0.000045
Si Si4 0.972685 0.170247 0.776987
Si Si5 0.042261 0.324126 0.398698
Si Si6 0.795120 0.176433 0.561192
Si Si7 0.614650 0.327398 0.444245
Si Si8 0.381287 0.826298 0.195706
O O1 0.590360 0.500000 0.699813
O O2 0.524758 0.673033 0.738518
O O3 0.591467 0.683656 0.565328
O O4 0.597085 0.785479 0.728650
O O5 0.297776 0.500000 0.331683
O O6 0.249357 0.259783 0.373390
O O7 0.306108 0.294766 0.443719
O O8 0.333887 0.247699 0.248279
O O9 0.449859 0.500000 0.011083
O O10 0.413723 0.246516 0.091035
O O11 0.500000 0.282342 0.000000
O O12 0.453594 0.282919 0.893083
O O13 0.961369 0.264425 0.700021
O O14 0.960227 0.000000 0.772403
O O15 0.042329 0.500000 0.398790
O O16 0.085851 0.263431 0.402649
O O17 0.000000 0.274500 0.500000
O O18 0.835690 0.218822 0.584838
O O19 0.788957 0.000000 0.574555
O O20 0.614486 0.500000 0.418637
O O21 0.378120 0.000000 0.185869
#
# Coordination Sequence:
#
# PCOD9174645 Si02
#       8
#     8   8   8   8   8   8   8   8
#     4  10  18  32  51  72  99 135 177 214 249 294
#     4  10  19  33  51  72 102 137 171 206 251 306
#     4  10  20  36  55  74  98 132 176 216 253 302
#     4  10  20  35  55  72  95 135 178 216 251 296
#     4  11  23  34  47  73 107 137 170 213 256 298
#     4   9  18  32  50  75 102 130 168 214 258 298
#     4  10  19  33  53  73  99 137 177 211 248 302
#     4  12  23  32  48  75 106 139 172 209 255 305
#
# _framework density 15.591977
#
# number of rings (size 3 to 8) (size 9 to 14) (size 15 to 20)
#    0.000    1.750    3.750    1.875    0.000    3.250 
#    0.000    0.000    0.000    0.000    0.000    0.875 
#    0.000    0.000    0.000    0.000    0.000    0.000 
#
# Total GULP energy -178572.800165 kJ/mol
# GULP energy per Si atom -5580.400005 kJ/mol
# Density = 1.555649 g / cm^3
# Si number density = 15.591977 Si / 1000 Ang^3
#
#
#
# Elastic Constant Matrix: (Units=GPa)
#
#
# Indices 1 2 3 4 5 6 
#
# 1 93.6057 49.5050 56.3910 0.0000 -9.3693 0.0000
# 2 49.5050 61.3821 55.4764 0.0000 -6.2388 0.0000
# 3 56.3910 55.4764 106.2225 0.0000 -13.7247 0.0000
# 4 0.0000 0.0000 0.0000 20.8061 0.0000 -2.1453
# 5 -9.3693 -6.2388 -13.7247 0.0000 26.0011 0.0000
# 6 0.0000 0.0000 0.0000 -2.1453 0.0000 26.3129
#
#
#
# Elastic Compliance Matrix: (Units=1/GPa)
#
#
# Indices 1 2 3 4 5 6 
#
# 1 0.019620 -0.012202 -0.003764 0.000000 0.002155 0.000000
# 2 -0.012202 0.038479 -0.013945 0.000000 -0.002525 0.000000
# 3 -0.003764 -0.013945 0.019412 0.000000 0.005544 0.000000
# 4 0.000000 0.000000 0.000000 0.048470 0.000000 0.003952
# 5 0.002155 -0.002525 0.005544 0.000000 0.041557 0.000000
# 6 0.000000 0.000000 0.000000 0.003952 0.000000 0.038326
#
#
# Mechanical properties :
#
#
# Convention : Reuss Voigt Hill
#
# Bulk Modulus (GPa) = 56.53553 64.88391 60.70972
# Shear Modulus (GPa) = 18.41054 21.27988 19.84521
#
# Velocity S-wave (km/s) = 3.43996 3.69832 3.57148
# Velocity P-wave (km/s) = 7.21913 7.74214 7.48521
#
# Compressibility (1/GPa) = 0.01768799
#
# Stress axis : x y z
#
# Youngs Moduli (GPa) = 50.96810 25.98817 51.51505
#
# Poissons Ratio (x) = 0.31712 0.19393
# Poissons Ratio (y) = 0.62193 0.71836
# Poissons Ratio (z) = 0.19187 0.36239
#
# Static dielectric constant tensor:
#      x y z
#    x 1.513140 0.000000 -0.008910 
#    y 0.000000 1.523260 0.000000 
#    z -0.008910 0.000000 1.510820 
# 
# From -- ./inp_files/249037.got.cif
#   From: 2010.05.17/outbox.cif.g08.bks.cpg/sg12_125_cif.got.tgz:249037.got - 2010.06.03 13:09:07.
