data_PCOD9174423
_publ_section_title
;
Structure prediction by ZEFSAII (Michael W. Deem and Ramdas Pophale) SiO2 
 PCOD9174423
Probable space group: C 2/M
;
_chemical_formula_sum "Si O2"
_cell_formula_units_Z 56
_cell_length_a 17.793457
_cell_length_b 16.490216
_cell_length_c 24.899222
_cell_angle_alpha 90.000000
_cell_angle_beta 159.367035
_cell_angle_gamma 90.000000
_cell_volume 2574.446617
_symmetry_space_group_name_H-M "C 2/M"
_symmetry_group_IT_number 12
_symmetry_cell_setting 'monoclinic'
loop_
_space_group_symop_operation_xyz
x,y,z
-x,y,-z
-x,-y,-z
x,-y,z
1/2+x,1/2+y,z
1/2-x,1/2+y,-z
1/2-x,1/2-y,-z
1/2+x,1/2-y,z
loop_
_atom_site_type_symbol
_atom_site_label
_atom_site_fract_x
_atom_site_fract_y
_atom_site_fract_z
Si Si1 0.204387 0.241946 0.061510
Si Si2 0.359120 0.829127 0.451773
Si Si3 0.345734 0.411111 0.511771
Si Si4 0.545322 0.594829 0.762095
Si Si5 0.752227 0.738342 0.218673
Si Si6 0.718090 0.089061 0.243198
Si Si7 0.086613 0.676143 0.259090
O O1 0.272393 0.338290 0.103090
O O2 0.262543 0.222159 0.162374
O O3 0.347154 0.200958 0.111318
O O4 0.964410 0.207032 0.898159
O O5 0.500000 0.870222 0.500000
O O6 0.169778 0.882846 0.349167
O O7 0.530194 0.792887 0.608967
O O8 0.237399 0.751576 0.344972
O O9 0.248702 0.500000 0.452602
O O10 0.466156 0.393518 0.647562
O O11 0.523944 0.413741 0.584110
O O12 0.172654 0.350022 0.375028
O O13 0.605355 0.500000 0.809125
O O14 0.692980 0.833767 0.187842
O O15 0.620061 0.110409 0.235220
O O16 0.648624 0.000000 0.177326
#
# Coordination Sequence:
#
# PCOD9174423 Si02
#       7
#     8   8   8   8   8   8   8
#     4  10  23  36  60  80 115 154 187 237 277 341
#     4  11  20  36  59  82 109 149 192 243 282 328
#     4  10  18  31  55  84 113 143 181 235 283 337
#     4  10  21  37  57  83 112 149 197 238 283 338
#     4  11  21  39  56  86 114 150 193 228 287 342
#     4  11  21  33  55  85 118 144 174 230 291 345
#     4  11  19  35  54  86 110 147 190 231 283 335
#
# _framework density 21.752248000000002
#
# number of rings (size 3 to 8) (size 9 to 14) (size 15 to 20)
#    0.000    1.429    4.286    1.714    0.000    4.857 
#    0.000    1.429    0.000    1.714    0.000    7.000 
#    0.000    0.000    0.000    0.000    0.000    0.000 
#
# Total GULP energy -156080.080873 kJ/mol
# GULP energy per Si atom -5574.288603 kJ/mol
# Density = 2.170274 g / cm^3
# Si number density = 21.752248 Si / 1000 Ang^3
#
#
#
# Elastic Constant Matrix: (Units=GPa)
#
#
# Indices 1 2 3 4 5 6 
#
# 1 72.7456 10.3627 30.9746 0.0234 17.3903 -0.0032
# 2 10.3627 27.1755 -5.3337 -0.0129 3.8957 0.0105
# 3 30.9746 -5.3337 80.1328 0.0397 17.8801 0.0062
# 4 0.0234 -0.0129 0.0397 11.3475 -0.0068 2.7914
# 5 17.3903 3.8957 17.8801 -0.0068 41.2907 -0.0076
# 6 -0.0032 0.0105 0.0062 2.7914 -0.0076 18.3301
#
#
#
# Elastic Compliance Matrix: (Units=1/GPa)
#
#
# Indices 1 2 3 4 5 6 
#
# 1 0.018797 -0.007911 -0.006855 -0.000029 -0.004202 0.000013
# 2 -0.007911 0.041604 0.006597 0.000047 -0.003450 -0.000036
# 3 -0.006855 0.006597 0.016674 -0.000038 -0.004956 -0.000007
# 4 -0.000029 0.000047 -0.000038 0.091555 0.000037 -0.013943
# 5 -0.004202 -0.003450 -0.004956 0.000037 0.028460 0.000009
# 6 0.000013 -0.000036 -0.000007 -0.013943 0.000009 0.056678
#
#
# Mechanical properties :
#
#
# Convention : Reuss Voigt Hill
#
# Bulk Modulus (GPa) = 16.46438 28.00676 22.23557
# Shear Modulus (GPa) = 17.22061 23.79702 20.50881
#
# Velocity S-wave (km/s) = 2.81672 3.31116 3.07390
# Velocity P-wave (km/s) = 4.26192 5.24611 4.77942
#
# Compressibility (1/GPa) = 0.06073717
#
# Stress axis : x y z
#
# Youngs Moduli (GPa) = 53.20123 24.03635 59.97455
#
# Poissons Ratio (x) = 0.19014 0.41110
# Poissons Ratio (y) = 0.42085 -0.39564
# Poissons Ratio (z) = 0.36467 -0.15856
#
# Static dielectric constant tensor:
#      x y z
#    x 1.821380 -0.000010 0.006020 
#    y -0.000010 1.831520 -0.000020 
#    z 0.006020 -0.000020 1.865830 
# 
# From -- ./inp_files/158188.got.cif
#   From: 2010.05.17/outbox.cif.g08.bks.cpg/sg12_80_cif.got.tgz:158188.got - 2010.06.03 13:09:07.
