data_PCOD9174685
_publ_section_title
;
Structure prediction by ZEFSAII (Michael W. Deem and Ramdas Pophale) SiO2 
 PCOD9174685
Probable space group: C 2/M
;
_chemical_formula_sum "Si O2"
_cell_formula_units_Z 56
_cell_length_a 18.268203
_cell_length_b 14.676292
_cell_length_c 20.826267
_cell_angle_alpha 90.000000
_cell_angle_beta 29.867078
_cell_angle_gamma 90.000000
_cell_volume 2780.633984
_symmetry_space_group_name_H-M "C 2/M"
_symmetry_group_IT_number 12
_symmetry_cell_setting 'monoclinic'
loop_
_space_group_symop_operation_xyz
x,y,z
-x,y,-z
-x,-y,-z
x,-y,z
1/2+x,1/2+y,z
1/2-x,1/2+y,-z
1/2-x,1/2-y,-z
1/2+x,1/2-y,z
loop_
_atom_site_type_symbol
_atom_site_label
_atom_site_fract_x
_atom_site_fract_y
_atom_site_fract_z
Si Si1 0.856170 0.598687 0.688706
Si Si2 0.142233 0.105029 0.973350
Si Si3 0.658591 0.277253 0.389182
Si Si4 0.252772 0.893462 0.035273
Si Si5 0.953314 0.810913 0.295814
Si Si6 0.526823 0.769581 0.860891
Si Si7 0.136007 0.329740 0.533882
O O1 0.824738 0.500000 0.682783
O O2 0.752181 0.610345 0.829799
O O3 0.844044 0.682157 0.649012
O O4 0.021991 0.601643 0.589648
O O5 0.085219 0.000000 0.019516
O O6 0.223505 0.122515 0.980593
O O7 0.020488 0.183860 0.059367
O O8 0.500000 0.324204 0.500000
O O9 0.815396 0.317275 0.247800
O O10 0.658072 0.250016 0.464190
O O11 0.105630 0.864230 0.185557
O O12 0.278708 0.000000 0.022819
O O13 0.390255 0.836856 0.956773
O O14 0.953191 0.779679 0.222563
O O15 0.940821 0.720767 0.348436
O O16 0.799827 0.863573 0.425013
#
# Coordination Sequence:
#
# PCOD9174685 Si02
#       7
#     8   8   8   8   8   8   8
#     4  10  19  31  47  72 108 141 171 204 240 299
#     4   9  18  31  50  79 110 138 166 199 247 307
#     4   9  20  33  46  68  94 131 175 207 243 294
#     4  10  19  31  51  79 106 131 166 212 261 308
#     4   9  17  31  51  74 101 130 167 211 256 306
#     4  10  18  32  52  71 100 135 167 210 258 303
#     4   9  17  30  49  70  96 136 172 201 246 297
#
# _framework density 20.139292000000001
#
# number of rings (size 3 to 8) (size 9 to 14) (size 15 to 20)
#    0.000    2.571    0.000    3.429    0.000    4.286 
#    0.000    7.143    0.000    5.571    0.000   17.000 
#    0.000    0.000    0.000    0.000    0.000    0.000 
#
# Total GULP energy -155972.387702 kJ/mol
# GULP energy per Si atom -5570.442418 kJ/mol
# Density = 2.009345 g / cm^3
# Si number density = 20.139292 Si / 1000 Ang^3
#
#
#
# Elastic Constant Matrix: (Units=GPa)
#
#
# Indices 1 2 3 4 5 6 
#
# 1 40.7906 8.3264 20.8789 0.0003 -4.5798 0.0000
# 2 8.3264 32.3429 21.9230 0.0010 -0.9828 -0.0005
# 3 20.8789 21.9230 99.7654 0.0010 -12.9544 -0.0007
# 4 0.0003 0.0010 0.0010 8.6047 -0.0007 6.0781
# 5 -4.5798 -0.9828 -12.9544 -0.0007 40.2262 0.0003
# 6 0.0000 -0.0005 -0.0007 6.0781 0.0003 10.8298
#
#
#
# Elastic Compliance Matrix: (Units=1/GPa)
#
#
# Indices 1 2 3 4 5 6 
#
# 1 0.027936 -0.003899 -0.004789 0.000001 0.001543 -0.000001
# 2 -0.003899 0.036993 -0.007570 -0.000007 -0.001978 0.000006
# 3 -0.004789 -0.007570 0.013144 -0.000001 0.003503 0.000001
# 4 0.000001 -0.000007 -0.000001 0.192548 0.000004 -0.108064
# 5 0.001543 -0.001978 0.003503 0.000004 0.026115 -0.000003
# 6 -0.000001 0.000006 0.000001 -0.108064 -0.000003 0.152987
#
#
# Mechanical properties :
#
#
# Convention : Reuss Voigt Hill
#
# Bulk Modulus (GPa) = 21.95030 30.57283 26.26157
# Shear Modulus (GPa) = 10.05177 20.05019 15.05098
#
# Velocity S-wave (km/s) = 2.23651 3.15870 2.73673
# Velocity P-wave (km/s) = 4.19430 5.34011 4.80151
#
# Compressibility (1/GPa) = 0.04555746
#
# Stress axis : x y z
#
# Youngs Moduli (GPa) = 35.79617 27.03186 76.07952
#
# Poissons Ratio (x) = 0.10539 0.36438
# Poissons Ratio (y) = 0.13955 0.57593
# Poissons Ratio (z) = 0.17144 0.20463
#
# Static dielectric constant tensor:
#      x y z
#    x 1.762420 0.000000 -0.065650 
#    y 0.000000 1.692480 0.000000 
#    z -0.065650 0.000000 1.791740 
# 
# From -- ./inp_files/316698.got.cif
#   From: 2010.05.17/outbox.cif.g08.bks.cpg/sg12_159_cif.got.tgz:316698.got - 2010.06.03 13:09:07.
