data_PCOD9174942
_publ_section_title
;
Structure prediction by ZEFSAII (Michael W. Deem and Ramdas Pophale) SiO2 
 PCOD9174942
Probable space group: C 2/M
;
_chemical_formula_sum "Si O2"
_cell_formula_units_Z 56
_cell_length_a 21.251341
_cell_length_b 7.760898
_cell_length_c 22.987057
_cell_angle_alpha 90.000000
_cell_angle_beta 131.453590
_cell_angle_gamma 90.000000
_cell_volume 2841.507503
_symmetry_space_group_name_H-M "C 2/M"
_symmetry_group_IT_number 12
_symmetry_cell_setting 'monoclinic'
loop_
_space_group_symop_operation_xyz
x,y,z
-x,y,-z
-x,-y,-z
x,-y,z
1/2+x,1/2+y,z
1/2-x,1/2+y,-z
1/2-x,1/2-y,-z
1/2+x,1/2-y,z
loop_
_atom_site_type_symbol
_atom_site_label
_atom_site_fract_x
_atom_site_fract_y
_atom_site_fract_z
Si Si1 0.758980 0.711299 0.335707
Si Si2 0.696435 0.206763 0.767354
Si Si3 0.867383 0.293438 0.923665
Si Si4 0.496262 0.791438 0.903485
Si Si5 0.427901 0.210398 0.501849
Si Si6 0.508746 0.795864 0.669744
Si Si7 0.923500 0.202253 0.737367
O O1 0.757417 0.500000 0.333899
O O2 0.776446 0.768825 0.280264
O O3 0.836904 0.765862 0.423477
O O4 0.668959 0.772791 0.303525
O O5 0.770777 0.247161 0.857543
O O6 0.604048 0.273575 0.726859
O O7 0.691816 0.000000 0.761016
O O8 0.873448 0.500000 0.927055
O O9 0.920012 0.232850 0.899137
O O10 0.918590 0.234377 0.011842
O O11 0.480961 0.729755 0.829201
O O12 0.495360 0.000000 0.901719
O O13 0.500000 0.260393 0.500000
O O14 0.454834 0.271840 0.582224
O O15 0.425838 0.000000 0.500576
O O16 0.464352 0.773562 0.704107
O O17 0.516069 0.000000 0.663677
O O18 0.913665 0.000000 0.721680
#
# Coordination Sequence:
#
# PCOD9174942 Si02
#       7
#     8   8   8   8   8   8   8
#     4   9  17  30  51  79 106 134 174 221 261 302
#     4  10  18  32  54  81 107 135 177 222 260 307
#     4   9  18  32  54  82 108 135 170 218 267 311
#     4   9  18  34  54  78 108 139 174 214 259 315
#     4   9  15  29  54  80 103 133 178 223 259 303
#     4  10  21  35  55  79 106 142 181 219 260 313
#     4  11  22  35  52  77 112 145 172 215 271 317
#
# _framework density 19.707850000000001
#
# number of rings (size 3 to 8) (size 9 to 14) (size 15 to 20)
#    0.000    2.429    2.857    1.286    0.000    1.714 
#    0.000    2.143    0.000    2.143    0.000    0.000 
#    0.000    0.000    0.000    0.000    0.000    0.000 
#
# Total GULP energy -156235.738330 kJ/mol
# GULP energy per Si atom -5579.847797 kJ/mol
# Density = 1.966299 g / cm^3
# Si number density = 19.707850 Si / 1000 Ang^3
#
#
#
# Elastic Constant Matrix: (Units=GPa)
#
#
# Indices 1 2 3 4 5 6 
#
# 1 122.4612 -4.4646 84.0979 0.0000 9.6040 0.0000
# 2 -4.4646 20.7175 -6.6084 0.0001 4.9878 0.0001
# 3 84.0979 -6.6084 172.4339 0.0000 13.0814 0.0000
# 4 0.0000 0.0001 0.0000 76.0295 0.0000 27.5060
# 5 9.6040 4.9878 13.0814 0.0000 30.3686 0.0000
# 6 0.0000 0.0001 0.0000 27.5060 0.0000 18.2163
#
#
#
# Elastic Compliance Matrix: (Units=1/GPa)
#
#
# Indices 1 2 3 4 5 6 
#
# 1 0.012358 0.001172 -0.005863 0.000000 -0.001575 0.000000
# 2 0.001172 0.051556 0.002145 0.000000 -0.009762 0.000000
# 3 -0.005863 0.002145 0.008918 0.000000 -0.002340 0.000000
# 4 0.000000 0.000000 0.000000 0.028989 0.000000 -0.043772
# 5 -0.001575 -0.009762 -0.002340 0.000000 0.036038 0.000000
# 6 0.000000 0.000000 0.000000 -0.043772 0.000000 0.120990
#
#
# Mechanical properties :
#
#
# Convention : Reuss Voigt Hill
#
# Bulk Modulus (GPa) = 14.76220 51.29582 33.02901
# Shear Modulus (GPa) = 17.45071 41.09538 29.27305
#
# Velocity S-wave (km/s) = 2.97891 4.57139 3.85820
# Velocity P-wave (km/s) = 4.39758 7.34493 6.05338
#
# Compressibility (1/GPa) = 0.06774060
#
# Stress axis : x y z
#
# Youngs Moduli (GPa) = 80.91692 19.39657 112.12776
#
# Poissons Ratio (x) = -0.02274 0.65739
# Poissons Ratio (y) = -0.09487 -0.24047
# Poissons Ratio (z) = 0.47440 -0.04160
#
# Static dielectric constant tensor:
#      x y z
#    x 1.669600 0.000000 0.022060 
#    y 0.000000 1.737710 0.000000 
#    z 0.022060 0.000000 1.692290 
# 
# From -- ./inp_files/280898.got.cif
#   From: 2010.05.17/outbox.cif.g08.bks.cpg/sg12_141_cif.got.tgz:280898.got - 2010.06.03 13:09:07.
