data_PCOD9174918
_publ_section_title
;
Structure prediction by ZEFSAII (Michael W. Deem and Ramdas Pophale) SiO2 
 PCOD9174918
Probable space group: C 2/M
;
_chemical_formula_sum "Si O2"
_cell_formula_units_Z 64
_cell_length_a 24.120970
_cell_length_b 12.782260
_cell_length_c 12.705560
_cell_angle_alpha 90.000000
_cell_angle_beta 78.942799
_cell_angle_gamma 90.000000
_cell_volume 3844.663196
_symmetry_space_group_name_H-M "C 2/M"
_symmetry_group_IT_number 12
_symmetry_cell_setting 'monoclinic'
loop_
_space_group_symop_operation_xyz
x,y,z
-x,y,-z
-x,-y,-z
x,-y,z
1/2+x,1/2+y,z
1/2-x,1/2+y,-z
1/2-x,1/2-y,-z
1/2+x,1/2-y,z
loop_
_atom_site_type_symbol
_atom_site_label
_atom_site_fract_x
_atom_site_fract_y
_atom_site_fract_z
Si Si1 0.434686 0.203805 0.511457
Si Si2 0.348106 0.264445 0.251964
Si Si3 0.651197 0.622268 0.527751
Si Si4 0.795305 0.875221 0.073251
Si Si5 0.921565 0.378756 0.746931
Si Si6 0.182542 0.755844 0.148137
Si Si7 0.761409 0.123576 0.681477
Si Si8 0.053664 0.379809 0.723104
O O1 0.500000 0.235828 0.500000
O O2 0.395142 0.303684 0.509601
O O3 0.418639 0.141319 0.622246
O O4 0.431310 0.135621 0.406217
O O5 0.345577 0.341690 0.352804
O O6 0.333734 0.326338 0.151381
O O7 0.298954 0.178863 0.288359
O O8 0.407271 0.202646 0.230627
O O9 0.636835 0.500000 0.525123
O O10 0.709418 0.638490 0.442709
O O11 0.732204 0.830076 0.115437
O O12 0.795729 0.000000 0.075443
O O13 0.815204 0.830288 0.954002
O O14 0.908469 0.500000 0.773622
O O15 0.876760 0.302186 0.816356
O O16 0.986609 0.359411 0.756565
O O17 0.198957 0.822435 0.245340
O O18 0.756773 0.000000 0.703211
O O19 0.064723 0.500000 0.749518
#
# Coordination Sequence:
#
# PCOD9174918 Si02
#       8
#     8   8   8   8   8   8   8   8
#     4   9  17  30  49  75 108 141 172 207 250 306
#     4  10  20  34  52  73 105 140 177 208 250 308
#     4  10  19  31  48  73 107 139 171 211 255 304
#     4  10  21  37  56  76 102 137 175 215 258 304
#     4  10  18  32  54  79 107 133 168 214 260 308
#     4  10  20  35  56  80 103 130 171 218 264 305
#     4  10  19  32  52  76 104 134 168 215 262 308
#     4   9  18  32  52  78 107 140 171 206 254 307
#
# _framework density 16.646450000000002
#
# number of rings (size 3 to 8) (size 9 to 14) (size 15 to 20)
#    0.000    2.250    1.250    2.250    0.000    1.750 
#    0.000    2.500    0.000    4.500    0.000    0.000 
#    0.000    0.000    0.000    0.000    0.000    0.000 
#
# Total GULP energy -178491.320736 kJ/mol
# GULP energy per Si atom -5577.853773 kJ/mol
# Density = 1.660856 g / cm^3
# Si number density = 16.646450 Si / 1000 Ang^3
#
#
#
# Elastic Constant Matrix: (Units=GPa)
#
#
# Indices 1 2 3 4 5 6 
#
# 1 49.7685 35.5727 13.3206 0.0000 6.6960 0.0000
# 2 35.5727 97.2181 13.8752 0.0000 0.8674 0.0000
# 3 13.3206 13.8752 41.9195 0.0000 4.2376 0.0000
# 4 0.0000 0.0000 0.0000 14.7130 0.0000 -4.0084
# 5 6.6960 0.8674 4.2376 0.0000 22.7810 0.0000
# 6 0.0000 0.0000 0.0000 -4.0084 0.0000 22.2861
#
#
#
# Elastic Compliance Matrix: (Units=1/GPa)
#
#
# Indices 1 2 3 4 5 6 
#
# 1 0.029689 -0.010031 -0.005371 0.000000 -0.007345 0.000000
# 2 -0.010031 0.014187 -0.001785 0.000000 0.002740 0.000000
# 3 -0.005371 -0.001785 0.026485 0.000000 -0.003280 0.000000
# 4 0.000000 0.000000 0.000000 0.071469 0.000000 0.012854
# 5 -0.007345 0.002740 -0.003280 0.000000 0.046561 0.000000
# 6 0.000000 0.000000 0.000000 0.012854 0.000000 0.047183
#
#
# Mechanical properties :
#
#
# Convention : Reuss Voigt Hill
#
# Bulk Modulus (GPa) = 27.78948 34.93811 31.36380
# Shear Modulus (GPa) = 17.73402 20.36519 19.04961
#
# Velocity S-wave (km/s) = 3.26749 3.50150 3.38652
# Velocity P-wave (km/s) = 5.56466 6.11402 5.84580
#
# Compressibility (1/GPa) = 0.03598484
#
# Stress axis : x y z
#
# Youngs Moduli (GPa) = 33.68270 70.48715 37.75786
#
# Poissons Ratio (x) = 0.70707 0.20281
# Poissons Ratio (y) = 0.33788 0.06741
# Poissons Ratio (z) = 0.18092 0.12584
#
# Static dielectric constant tensor:
#      x y z
#    x 1.548500 0.000000 0.002720 
#    y 0.000000 1.528830 0.000000 
#    z 0.002720 0.000000 1.553140 
# 
# From -- ./inp_files/174581.got.cif
#   From: 2010.05.17/outbox.cif.g08.bks.cpg/sg12_88_cif.got.tgz:174581.got - 2010.06.03 13:09:07.
