data_PCOD9174953
_publ_section_title
;
Structure prediction by ZEFSAII (Michael W. Deem and Ramdas Pophale) SiO2 
 PCOD9174953
Probable space group: C 2/M
;
_chemical_formula_sum "Si O2"
_cell_formula_units_Z 64
_cell_length_a 32.397072
_cell_length_b 8.654424
_cell_length_c 15.050017
_cell_angle_alpha 90.000000
_cell_angle_beta 48.605803
_cell_angle_gamma 90.000000
_cell_volume 3165.521514
_symmetry_space_group_name_H-M "C 2/M"
_symmetry_group_IT_number 12
_symmetry_cell_setting 'monoclinic'
loop_
_space_group_symop_operation_xyz
x,y,z
-x,y,-z
-x,-y,-z
x,-y,z
1/2+x,1/2+y,z
1/2-x,1/2+y,-z
1/2-x,1/2-y,-z
1/2+x,1/2-y,z
loop_
_atom_site_type_symbol
_atom_site_label
_atom_site_fract_x
_atom_site_fract_y
_atom_site_fract_z
Si Si1 0.736646 0.684611 0.920907
Si Si2 0.375137 0.816826 0.875855
Si Si3 0.069999 0.184609 0.738598
Si Si4 0.348764 0.316549 0.720144
Si Si5 0.856904 0.186018 0.194998
Si Si6 0.130110 0.682607 0.490342
Si Si7 0.945082 0.814513 0.920487
Si Si8 0.256828 0.315384 0.590268
O O1 0.738320 0.500000 0.916597
O O2 0.786521 0.753316 0.793782
O O3 0.750000 0.750000 0.000000
O O4 0.675003 0.743019 0.995356
O O5 0.370424 0.752567 0.782359
O O6 0.429422 0.765794 0.850321
O O7 0.368422 0.000000 0.882779
O O8 0.113962 0.221290 0.752429
O O9 0.085314 0.273474 0.627689
O O10 0.007851 0.218560 0.857370
O O11 0.073649 0.000000 0.717053
O O12 0.346970 0.500000 0.730593
O O13 0.381676 0.262149 0.587287
O O14 0.797538 0.264944 0.278165
O O15 0.849281 0.000000 0.199777
O O16 0.900942 0.233240 0.057699
O O17 0.134125 0.500000 0.472409
O O18 0.187841 0.746923 0.446357
O O19 0.940232 0.000000 0.916834
O O20 0.261133 0.500000 0.580855
O O21 0.250000 0.250000 0.500000
#
# Coordination Sequence:
#
# PCOD9174953 Si02
#       8
#     8   8   8   8   8   8   8   8
#     4  10  18  32  54  81 115 154 195 242 300 362
#     4  11  22  38  58  86 124 163 206 257 309 365
#     4  10  21  41  66  91 123 164 210 258 309 368
#     4  11  22  39  62  88 120 160 206 256 309 372
#     4  10  21  39  65  94 127 163 205 254 309 373
#     4  12  25  41  63  92 127 167 207 253 311 377
#     4  10  22  40  64  93 124 164 211 258 310 368
#     4  12  24  40  62  92 129 167 207 256 310 369
#
# _framework density 20.217838
#
# number of rings (size 3 to 8) (size 9 to 14) (size 15 to 20)
#    0.000    1.250    1.250    7.500    1.750    2.500 
#    0.000    0.625    0.000    6.000    0.000    0.000 
#    0.000    0.000    0.000    0.000    0.000    0.000 
#
# Total GULP energy -178929.107575 kJ/mol
# GULP energy per Si atom -5591.534612 kJ/mol
# Density = 2.017182 g / cm^3
# Si number density = 20.217838 Si / 1000 Ang^3
#
#
#
# Elastic Constant Matrix: (Units=GPa)
#
#
# Indices 1 2 3 4 5 6 
#
# 1 37.7008 11.7680 9.1851 0.0000 -0.1088 0.0000
# 2 11.7680 108.4421 29.1080 0.0000 -0.5906 0.0000
# 3 9.1851 29.1080 94.7070 0.0000 5.7861 0.0000
# 4 0.0000 0.0000 0.0000 29.3290 0.0000 -1.3533
# 5 -0.1088 -0.5906 5.7861 0.0000 31.5275 0.0000
# 6 0.0000 0.0000 0.0000 -1.3533 0.0000 23.7130
#
#
#
# Elastic Compliance Matrix: (Units=1/GPa)
#
#
# Indices 1 2 3 4 5 6 
#
# 1 0.027778 -0.002488 -0.001954 0.000000 0.000408 0.000000
# 2 -0.002488 0.010292 -0.002966 0.000000 0.000729 0.000000
# 3 -0.001954 -0.002966 0.011796 0.000000 -0.002227 0.000000
# 4 0.000000 0.000000 0.000000 0.034186 0.000000 0.001951
# 5 0.000408 0.000729 -0.002227 0.000000 0.032142 0.000000
# 6 0.000000 0.000000 0.000000 0.001951 0.000000 0.042282
#
#
# Mechanical properties :
#
#
# Convention : Reuss Voigt Hill
#
# Bulk Modulus (GPa) = 28.53114 37.88579 33.20846
# Shear Modulus (GPa) = 27.03043 29.63317 28.33180
#
# Velocity S-wave (km/s) = 3.66041 3.83259 3.74749
# Velocity P-wave (km/s) = 5.65750 6.19391 5.93177
#
# Compressibility (1/GPa) = 0.03504942
#
# Stress axis : x y z
#
# Youngs Moduli (GPa) = 35.99914 97.16594 84.77300
#
# Poissons Ratio (x) = 0.24172 0.16568
# Poissons Ratio (y) = 0.08955 0.25147
# Poissons Ratio (z) = 0.07036 0.28823
#
# Static dielectric constant tensor:
#      x y z
#    x 1.703410 0.000000 -0.013260 
#    y 0.000000 1.655140 0.000000 
#    z -0.013260 0.000000 1.737380 
# 
# From -- ./inp_files/249770.got.cif
#   From: 2010.05.17/outbox.cif.g08.bks.cpg/sg12_125_cif.got.tgz:249770.got - 2010.06.03 13:09:07.
