data_PCOD9174446
_publ_section_title
;
Structure prediction by ZEFSAII (Michael W. Deem and Ramdas Pophale) SiO2 
 PCOD9174446
Probable space group: C 2/M
;
_chemical_formula_sum "Si O2"
_cell_formula_units_Z 48
_cell_length_a 12.646678
_cell_length_b 19.695238
_cell_length_c 21.052210
_cell_angle_alpha 90.000000
_cell_angle_beta 30.538963
_cell_angle_gamma 90.000000
_cell_volume 2664.435744
_symmetry_space_group_name_H-M "C 2/M"
_symmetry_group_IT_number 12
_symmetry_cell_setting 'monoclinic'
loop_
_space_group_symop_operation_xyz
x,y,z
-x,y,-z
-x,-y,-z
x,-y,z
1/2+x,1/2+y,z
1/2-x,1/2+y,-z
1/2-x,1/2-y,-z
1/2+x,1/2-y,z
loop_
_atom_site_type_symbol
_atom_site_label
_atom_site_fract_x
_atom_site_fract_y
_atom_site_fract_z
Si Si1 0.323330 0.817651 0.925750
Si Si2 0.778582 0.779439 0.692319
Si Si3 0.526587 0.420023 0.856629
Si Si4 0.703746 0.328219 0.506596
Si Si5 0.342247 0.832721 0.769336
Si Si6 0.756506 0.353248 0.621219
O O1 0.570451 0.822453 0.807047
O O2 0.289311 0.811591 0.867857
O O3 0.250000 0.750000 0.000000
O O4 0.186829 0.879803 0.021184
O O5 0.801924 0.729257 0.741146
O O6 0.749784 0.725641 0.649154
O O7 0.985846 0.824698 0.582801
O O8 0.502248 0.500000 0.872590
O O9 0.692756 0.392402 0.822329
O O10 0.621616 0.396083 0.740119
O O11 0.750000 0.250000 0.500000
O O12 0.685714 0.361536 0.585517
O O13 0.913725 0.352589 0.363371
O O14 0.000000 0.372044 0.500000
#
# Coordination Sequence:
#
# PCOD9174446 Si02
#       6
#     8   8   8   8   8   8
#     4  12  23  36  57  88 119 160 204 246 299 355
#     4  10  20  31  56  88 122 150 181 247 303 358
#     4  11  25  42  60  84 121 165 207 248 293 358
#     4  10  18  31  55  87 121 149 184 242 304 359
#     4  10  21  35  57  87 117 149 196 246 304 345
#     4  11  18  35  57  91 120 149 193 245 306 357
#
# _framework density 18.015070999999999
#
# number of rings (size 3 to 8) (size 9 to 14) (size 15 to 20)
#    0.000    1.333    8.333    2.500    0.000    1.667 
#    0.000    0.000    0.000    3.000    0.000    2.333 
#    0.000    0.000    0.000    0.000    0.000    0.000 
#
# Total GULP energy -133946.062232 kJ/mol
# GULP energy per Si atom -5581.085926 kJ/mol
# Density = 1.797407 g / cm^3
# Si number density = 18.015071 Si / 1000 Ang^3
#
#
#
# Elastic Constant Matrix: (Units=GPa)
#
#
# Indices 1 2 3 4 5 6 
#
# 1 83.6391 42.7174 58.4521 0.0007 13.9059 0.0014
# 2 42.7174 84.7417 56.5922 0.0311 -8.3025 0.0051
# 3 58.4521 56.5922 139.0139 0.0703 -13.4371 0.0121
# 4 0.0007 0.0311 0.0703 14.8331 0.0121 -3.1089
# 5 13.9059 -8.3025 -13.4371 0.0121 50.0081 -0.0084
# 6 0.0014 0.0051 0.0121 -3.1089 -0.0084 12.3444
#
#
#
# Elastic Compliance Matrix: (Units=1/GPa)
#
#
# Indices 1 2 3 4 5 6 
#
# 1 0.022386 -0.007297 -0.007352 0.000060 -0.009412 0.000016
# 2 -0.007297 0.018628 -0.004128 -0.000024 0.004013 -0.000006
# 3 -0.007352 -0.004128 0.012419 -0.000058 0.004696 -0.000021
# 4 0.000060 -0.000024 -0.000058 0.071174 -0.000050 0.017925
# 5 -0.009412 0.004013 0.004696 -0.000050 0.024542 -0.000001
# 6 0.000016 -0.000006 -0.000021 0.017925 -0.000001 0.085522
#
#
# Mechanical properties :
#
#
# Convention : Reuss Voigt Hill
#
# Bulk Modulus (GPa) = 62.96966 69.21312 66.09139
# Shear Modulus (GPa) = 18.01688 25.41267 21.71477
#
# Velocity S-wave (km/s) = 3.16587 3.75992 3.47561
# Velocity P-wave (km/s) = 6.95654 7.57313 7.27137
#
# Compressibility (1/GPa) = 0.01588066
#
# Stress axis : x y z
#
# Youngs Moduli (GPa) = 44.67156 53.68151 80.52097
#
# Poissons Ratio (x) = 0.39170 0.59198
# Poissons Ratio (y) = 0.32596 0.33236
# Poissons Ratio (z) = 0.32842 0.22157
#
# Static dielectric constant tensor:
#      x y z
#    x 1.675520 0.000000 -0.003480 
#    y 0.000000 1.579250 0.000000 
#    z -0.003480 0.000000 1.671430 
# 
# From -- ./inp_files/307082.got.cif
#   From: 2010.05.17/outbox.cif.g08.bks.cpg/sg12_154_cif.got.tgz:307082.got - 2010.06.03 13:09:07.
