data_PCOD9174461
_publ_section_title
;
Structure prediction by ZEFSAII (Michael W. Deem and Ramdas Pophale) SiO2 
 PCOD9174461
Probable space group: C 2/M
;
_chemical_formula_sum "Si O2"
_cell_formula_units_Z 58
_cell_length_a 28.471690
_cell_length_b 9.259379
_cell_length_c 9.599395
_cell_angle_alpha 90.000000
_cell_angle_beta 87.241014
_cell_angle_gamma 90.000000
_cell_volume 2527.756671
_symmetry_space_group_name_H-M "C 2/M"
_symmetry_group_IT_number 12
_symmetry_cell_setting 'monoclinic'
loop_
_space_group_symop_operation_xyz
x,y,z
-x,y,-z
-x,-y,-z
x,-y,z
1/2+x,1/2+y,z
1/2-x,1/2+y,-z
1/2-x,1/2-y,-z
1/2+x,1/2-y,z
loop_
_atom_site_type_symbol
_atom_site_label
_atom_site_fract_x
_atom_site_fract_y
_atom_site_fract_z
Si Si1 0.575289 0.835371 0.763707
Si Si2 0.681803 0.830418 0.393290
Si Si3 0.500000 0.500000 0.500000
Si Si4 0.513341 0.338684 0.162485
Si Si5 0.098397 0.841483 0.499808
Si Si6 0.701446 0.169528 0.989733
Si Si7 0.227154 0.667205 0.689231
Si Si8 0.897859 0.330990 0.912587
O O1 0.521472 0.780259 0.772964
O O2 0.599952 0.728909 0.652748
O O3 0.590395 0.829112 0.922850
O O4 0.580470 0.000000 0.714895
O O5 0.630499 0.757778 0.396293
O O6 0.726063 0.763172 0.305393
O O7 0.699943 0.807678 0.549969
O O8 0.678184 0.000000 0.365672
O O9 0.543109 0.374903 0.480471
O O10 0.505791 0.500000 0.228868
O O11 0.500000 0.351462 0.000000
O O12 0.565913 0.280128 0.160188
O O13 0.121360 0.000000 0.496521
O O14 0.692897 0.186377 0.825164
O O15 0.656333 0.215754 0.083981
O O16 0.707597 0.000000 0.016087
O O17 0.750000 0.250000 0.000000
O O18 0.242588 0.500000 0.687478
O O19 0.903512 0.500000 0.868814
#
# Coordination Sequence:
#
# PCOD9174461 Si02
#       8
#     8   8   2   8   8   8   8   8
#     4  10  18  31  56  84 106 135 179 233 286 330
#     4  10  19  34  61  92 116 141 188 246 295 344
#     4   8  24  40  54  72 106 148 186 208 280 354
#     4   9  17  29  47  77 111 138 170 218 270 321
#     4  10  20  37  56  76 108 146 184 223 281 346
#     4  10  21  37  55  75 111 155 191 227 273 336
#     4   9  19  36  57  87 120 150 184 235 301 350
#     4   9  18  33  52  76 108 144 182 228 281 329
#
# _framework density 22.945246000000001
#
# number of rings (size 3 to 8) (size 9 to 14) (size 15 to 20)
#    0.414    2.069    0.000    2.483    0.000    6.069 
#    0.000    4.138    0.000    0.000    0.000    0.000 
#    0.000    0.000    0.000    0.000    0.000    0.000 
#
# Total GULP energy -161765.803473 kJ/mol
# GULP energy per Si atom -5578.131154 kJ/mol
# Density = 2.289302 g / cm^3
# Si number density = 22.945246 Si / 1000 Ang^3
#
#
#
# Elastic Constant Matrix: (Units=GPa)
#
#
# Indices 1 2 3 4 5 6 
#
# 1 161.2323 57.8227 8.1128 0.0000 -4.5298 0.0000
# 2 57.8227 73.0178 3.1679 0.0000 0.6219 0.0000
# 3 8.1128 3.1679 46.3238 0.0000 8.4811 0.0000
# 4 0.0000 0.0000 0.0000 24.9796 0.0000 -4.8031
# 5 -4.5298 0.6219 8.4811 0.0000 36.4567 0.0000
# 6 0.0000 0.0000 0.0000 -4.8031 0.0000 41.0866
#
#
#
# Elastic Compliance Matrix: (Units=1/GPa)
#
#
# Indices 1 2 3 4 5 6 
#
# 1 0.008794 -0.006918 -0.001346 0.000000 0.001524 0.000000
# 2 -0.006918 0.019179 0.000123 0.000000 -0.001215 0.000000
# 3 -0.001346 0.000123 0.022817 0.000000 -0.005477 0.000000
# 4 0.000000 0.000000 0.000000 0.040953 0.000000 0.004787
# 5 0.001524 -0.001215 -0.005477 0.000000 0.028914 0.000000
# 6 0.000000 0.000000 0.000000 0.004787 0.000000 0.024898
#
#
# Mechanical properties :
#
#
# Convention : Reuss Voigt Hill
#
# Bulk Modulus (GPa) = 28.97995 46.53120 37.75558
# Shear Modulus (GPa) = 28.84472 34.60264 31.72368
#
# Velocity S-wave (km/s) = 3.54942 3.88758 3.72234
# Velocity P-wave (km/s) = 5.42728 6.36194 5.91310
#
# Compressibility (1/GPa) = 0.03450661
#
# Stress axis : x y z
#
# Youngs Moduli (GPa) = 113.71460 52.14020 43.82631
#
# Poissons Ratio (x) = 0.36073 0.05899
# Poissons Ratio (y) = 0.78673 -0.00537
# Poissons Ratio (z) = 0.15306 -0.00639
#
# Static dielectric constant tensor:
#      x y z
#    x 1.669150 0.000000 0.272220 
#    y 0.000000 1.792300 0.000000 
#    z 0.272220 0.000000 1.662240 
# 
# From -- ./inp_files/186768.got.cif
#   From: 2010.05.17/outbox.cif.g08.bks.cpg/sg12_94_cif.got.tgz:186768.got - 2010.06.03 13:09:07.
