data_PCOD9174038
_publ_section_title
;
Structure prediction by ZEFSAII (Michael W. Deem and Ramdas Pophale) SiO2 
 PCOD9174038
Probable space group: C 2/M
;
_chemical_formula_sum "Si O2"
_cell_formula_units_Z 56
_cell_length_a 31.490413
_cell_length_b 14.237629
_cell_length_c 10.314139
_cell_angle_alpha 90.000000
_cell_angle_beta 130.233339
_cell_angle_gamma 90.000000
_cell_volume 3530.309048
_symmetry_space_group_name_H-M "C 2/M"
_symmetry_group_IT_number 12
_symmetry_cell_setting 'monoclinic'
loop_
_space_group_symop_operation_xyz
x,y,z
-x,y,-z
-x,-y,-z
x,-y,z
1/2+x,1/2+y,z
1/2-x,1/2+y,-z
1/2-x,1/2-y,-z
1/2+x,1/2-y,z
loop_
_atom_site_type_symbol
_atom_site_label
_atom_site_fract_x
_atom_site_fract_y
_atom_site_fract_z
Si Si1 0.279505 0.393408 0.093514
Si Si2 0.372798 0.786448 0.553937
Si Si3 0.805788 0.892485 0.451175
Si Si4 0.105333 0.387841 0.937829
Si Si5 0.015126 0.392652 0.181310
Si Si6 0.311281 0.112999 0.663767
Si Si7 0.337454 0.203615 0.186492
O O1 0.290425 0.500000 0.071259
O O2 0.284975 0.392168 0.260668
O O3 0.320217 0.311609 0.124066
O O4 0.217851 0.359695 0.936195
O O5 0.356730 0.679467 0.558174
O O6 0.435700 0.819976 0.697079
O O7 0.334672 0.846978 0.576263
O O8 0.357709 0.801505 0.373974
O O9 0.752334 0.860705 0.429331
O O10 0.819961 0.000000 0.512830
O O11 0.113313 0.500000 0.935061
O O12 0.120022 0.334425 0.835615
O O13 0.041892 0.372791 0.855683
O O14 0.147557 0.358561 0.136852
O O15 0.033608 0.500000 0.249511
O O16 0.000000 0.391835 0.000000
O O17 0.313078 0.000000 0.662956
#
# Coordination Sequence:
#
# PCOD9174038 Si02
#       7
#     8   8   8   8   8   8   8
#     4   9  17  32  51  72 104 139 165 196 249 310
#     4  11  21  32  51  77 105 128 167 218 248 283
#     4   9  18  33  53  75 100 135 172 201 246 304
#     4  10  19  33  54  73 100 138 169 198 242 308
#     4  10  20  35  53  74  99 134 171 201 247 304
#     4  10  18  31  52  76 102 134 166 201 249 307
#     4  10  20  31  50  78 102 131 168 207 250 293
#
# _framework density 15.862634
#
# number of rings (size 3 to 8) (size 9 to 14) (size 15 to 20)
#    0.000    2.143    2.857    1.286    0.000    2.857 
#    0.000    1.429    0.000    1.286    0.000    4.000 
#    0.000    0.000    0.000    0.000    0.000    0.000 
#
# Total GULP energy -156098.956819 kJ/mol
# GULP energy per Si atom -5574.962744 kJ/mol
# Density = 1.582653 g / cm^3
# Si number density = 15.862634 Si / 1000 Ang^3
#
#
#
# Elastic Constant Matrix: (Units=GPa)
#
#
# Indices 1 2 3 4 5 6 
#
# 1 128.5292 67.9719 42.7890 0.0000 -4.3067 0.0000
# 2 67.9719 91.7857 46.9633 0.0000 7.7095 0.0000
# 3 42.7890 46.9633 51.8049 0.0000 7.0357 0.0000
# 4 0.0000 0.0000 0.0000 15.8155 0.0000 -1.1563
# 5 -4.3067 7.7095 7.0357 0.0000 23.6774 0.0000
# 6 0.0000 0.0000 0.0000 -1.1563 0.0000 24.5752
#
#
#
# Elastic Compliance Matrix: (Units=1/GPa)
#
#
# Indices 1 2 3 4 5 6 
#
# 1 0.014157 -0.008579 -0.004840 0.000000 0.006807 0.000000
# 2 -0.008579 0.025551 -0.015355 0.000000 -0.005317 0.000000
# 3 -0.004840 -0.015355 0.038204 0.000000 -0.007233 0.000000
# 4 0.000000 0.000000 0.000000 0.063447 0.000000 0.002985
# 5 0.006807 -0.005317 -0.007233 0.000000 0.047353 0.000000
# 6 0.000000 0.000000 0.000000 0.002985 0.000000 0.040832
#
#
# Mechanical properties :
#
#
# Convention : Reuss Voigt Hill
#
# Bulk Modulus (GPa) = 49.10940 65.28535 57.19737
# Shear Modulus (GPa) = 17.01372 20.44000 18.72686
#
# Velocity S-wave (km/s) = 3.27856 3.59355 3.43966
# Velocity P-wave (km/s) = 6.73486 7.64619 7.20495
#
# Compressibility (1/GPa) = 0.02036270
#
# Stress axis : x y z
#
# Youngs Moduli (GPa) = 70.63823 39.13666 26.17552
#
# Poissons Ratio (x) = 0.33575 0.12669
# Poissons Ratio (y) = 0.60600 0.40194
# Poissons Ratio (z) = 0.34190 0.60096
#
# Static dielectric constant tensor:
#      x y z
#    x 1.524700 0.000000 -0.001850 
#    y 0.000000 1.541730 0.000000 
#    z -0.001850 0.000000 1.519780 
# 
# From -- ./inp_files/104422.got.cif
#   From: 2010.05.17/outbox.cif.g08.bks.cpg/sg12_53_cif.got.tgz:104422.got - 2010.06.03 13:09:07.
