data_PCOD9174228
_publ_section_title
;
Structure prediction by ZEFSAII (Michael W. Deem and Ramdas Pophale) SiO2 
 PCOD9174228
Probable space group: C 2/M
;
_chemical_formula_sum "Si O2"
_cell_formula_units_Z 48
_cell_length_a 14.985199
_cell_length_b 9.441366
_cell_length_c 17.358409
_cell_angle_alpha 90.000000
_cell_angle_beta 81.822820
_cell_angle_gamma 90.000000
_cell_volume 2430.911656
_symmetry_space_group_name_H-M "C 2/M"
_symmetry_group_IT_number 12
_symmetry_cell_setting 'monoclinic'
loop_
_space_group_symop_operation_xyz
x,y,z
-x,y,-z
-x,-y,-z
x,-y,z
1/2+x,1/2+y,z
1/2-x,1/2+y,-z
1/2-x,1/2-y,-z
1/2+x,1/2-y,z
loop_
_atom_site_type_symbol
_atom_site_label
_atom_site_fract_x
_atom_site_fract_y
_atom_site_fract_z
Si Si1 0.400180 0.336316 0.166599
Si Si2 0.485066 0.830935 0.414502
Si Si3 0.866179 0.832242 0.698574
Si Si4 0.110219 0.337187 0.982415
Si Si5 0.881193 0.163292 0.869869
Si Si6 0.331020 0.166553 0.321934
O O1 0.371784 0.500000 0.167512
O O2 0.509450 0.333908 0.149701
O O3 0.369953 0.260941 0.248385
O O4 0.365537 0.250074 0.096846
O O5 0.500000 0.781896 0.500000
O O6 0.553549 0.754720 0.348510
O O7 0.385465 0.804640 0.393236
O O8 0.501083 0.000000 0.410406
O O9 0.847552 0.791290 0.789729
O O10 0.775451 0.810363 0.661351
O O11 0.888355 0.000000 0.697310
O O12 0.138672 0.500000 0.973924
O O13 0.144202 0.261387 0.055566
O O14 0.000000 0.335800 0.000000
O O15 0.854756 0.000000 0.887307
O O16 0.345023 0.000000 0.300518
#
# Coordination Sequence:
#
# PCOD9174228 Si02
#       6
#     8   8   8   8   8   8
#     4  10  18  31  53  79 110 147 190 235 280 327
#     4  10  22  40  61  86 116 148 182 227 283 339
#     4  10  21  38  59  85 114 149 189 231 279 333
#     4   9  17  28  47  77 110 146 189 231 278 329
#     4   9  17  31  51  76 108 144 186 234 279 324
#     4  10  21  37  58  83 115 150 187 231 280 334
#
# _framework density 19.745678000000002
#
# number of rings (size 3 to 8) (size 9 to 14) (size 15 to 20)
#    0.000    2.333    1.667    1.000    0.000    5.000 
#    0.000    0.833    0.000    0.000    0.000    0.000 
#    0.000    0.000    0.000    0.000    0.000    0.000 
#
# Total GULP energy -134060.897941 kJ/mol
# GULP energy per Si atom -5585.870748 kJ/mol
# Density = 1.970074 g / cm^3
# Si number density = 19.745678 Si / 1000 Ang^3
#
#
#
# Elastic Constant Matrix: (Units=GPa)
#
#
# Indices 1 2 3 4 5 6 
#
# 1 58.1741 22.2806 29.6667 0.0000 22.4348 0.0000
# 2 22.2806 51.6891 29.3477 0.0000 19.2087 0.0000
# 3 29.6667 29.3477 94.2844 0.0000 37.0712 0.0000
# 4 0.0000 0.0000 0.0000 30.3388 0.0000 0.3736
# 5 22.4348 19.2087 37.0712 0.0000 26.4397 0.0000
# 6 0.0000 0.0000 0.0000 0.3736 0.0000 10.4231
#
#
#
# Elastic Compliance Matrix: (Units=1/GPa)
#
#
# Indices 1 2 3 4 5 6 
#
# 1 0.026262 -0.004250 0.001353 0.000000 -0.021094 0.000000
# 2 -0.004250 0.027286 -0.001737 0.000000 -0.013782 0.000000
# 3 0.001353 -0.001737 0.023793 0.000000 -0.033247 0.000000
# 4 0.000000 0.000000 0.000000 0.032976 0.000000 -0.001182
# 5 -0.021094 -0.013782 -0.033247 0.000000 0.112349 0.000000
# 6 0.000000 0.000000 0.000000 -0.001182 0.000000 0.095983
#
#
# Mechanical properties :
#
#
# Convention : Reuss Voigt Hill
#
# Bulk Modulus (GPa) = 14.68980 40.74862 27.71921
# Shear Modulus (GPa) = 14.26091 21.63049 17.94570
#
# Velocity S-wave (km/s) = 2.69035 3.31336 3.01797
# Velocity P-wave (km/s) = 4.13597 5.94300 5.11984
#
# Compressibility (1/GPa) = 0.06807445
#
# Stress axis : x y z
#
# Youngs Moduli (GPa) = 38.07753 36.64844 42.02861
#
# Poissons Ratio (x) = 0.15574 -0.05688
# Poissons Ratio (y) = 0.16181 0.07302
# Poissons Ratio (z) = -0.05153 0.06367
#
# Static dielectric constant tensor:
#      x y z
#    x 1.719420 0.000000 0.029400 
#    y 0.000000 1.663910 0.000000 
#    z 0.029400 0.000000 1.664360 
# 
# From -- ./inp_files/221610.got.cif
#   From: 2010.05.17/outbox.cif.g08.bks.cpg/sg12_111_cif.got.tgz:221610.got - 2010.06.03 13:09:07.
