data_PCOD9174292
_publ_section_title
;
Structure prediction by ZEFSAII (Michael W. Deem and Ramdas Pophale) SiO2 
 PCOD9174292
Probable space group: C 2/M
;
_chemical_formula_sum "Si O2"
_cell_formula_units_Z 64
_cell_length_a 17.481063
_cell_length_b 16.495927
_cell_length_c 17.859536
_cell_angle_alpha 90.000000
_cell_angle_beta 133.390671
_cell_angle_gamma 90.000000
_cell_volume 3742.500337
_symmetry_space_group_name_H-M "C 2/M"
_symmetry_group_IT_number 12
_symmetry_cell_setting 'monoclinic'
loop_
_space_group_symop_operation_xyz
x,y,z
-x,y,-z
-x,-y,-z
x,-y,z
1/2+x,1/2+y,z
1/2-x,1/2+y,-z
1/2-x,1/2-y,-z
1/2+x,1/2-y,z
loop_
_atom_site_type_symbol
_atom_site_label
_atom_site_fract_x
_atom_site_fract_y
_atom_site_fract_z
Si Si1 0.597808 0.910548 0.229218
Si Si2 0.313684 0.272648 0.210817
Si Si3 0.712672 0.678378 0.418780
Si Si4 0.618882 0.757210 0.574564
Si Si5 0.090916 0.244623 0.002263
Si Si6 0.175111 0.089658 0.537598
Si Si7 0.494942 0.252665 0.213686
Si Si8 0.663770 0.907264 0.100400
O O1 0.711698 0.908275 0.345708
O O2 0.531845 0.838227 0.219594
O O3 0.622348 0.900414 0.157605
O O4 0.551363 0.000000 0.209265
O O5 0.335440 0.255767 0.311863
O O6 0.208475 0.225475 0.111157
O O7 0.413350 0.254697 0.226736
O O8 0.279414 0.367094 0.178922
O O9 0.750000 0.750000 0.500000
O O10 0.804321 0.682297 0.418744
O O11 0.695495 0.603635 0.463022
O O12 0.601636 0.700409 0.306333
O O13 0.500000 0.787580 0.500000
O O14 0.616301 0.669090 0.530654
O O15 0.098484 0.343523 0.007289
O O16 0.000000 0.221905 0.000000
O O17 0.061392 0.215722 0.899887
O O18 0.128227 0.000000 0.519639
O O19 0.658468 0.000000 0.073420
#
# Coordination Sequence:
#
# PCOD9174292 Si02
#       8
#     8   8   8   8   8   8   8   8
#     4  10  18  31  54  78 107 139 171 216 262 314
#     4  10  21  32  48  79 108 140 173 215 257 308
#     4  10  19  34  53  73 102 141 177 214 252 307
#     4  11  20  33  53  79 106 141 176 212 260 311
#     4  10  19  32  51  75 103 138 174 215 259 306
#     4  10  19  34  53  78 108 139 174 213 264 317
#     4  12  19  34  52  74 107 139 182 214 256 316
#     4   9  18  33  51  78 112 140 168 207 264 319
#
# _framework density 17.100867000000001
#
# number of rings (size 3 to 8) (size 9 to 14) (size 15 to 20)
#    0.750    1.000    5.000    2.625    0.000    1.000 
#    0.000    1.875    0.000    1.125    0.000    0.000 
#    0.000    2.500    0.000    0.000    0.000    0.000 
#
# Total GULP energy -178185.092674 kJ/mol
# GULP energy per Si atom -5568.284146 kJ/mol
# Density = 1.706194 g / cm^3
# Si number density = 17.100867 Si / 1000 Ang^3
#
#
#
# Elastic Constant Matrix: (Units=GPa)
#
#
# Indices 1 2 3 4 5 6 
#
# 1 85.7443 -2.7800 17.7395 0.0000 6.0317 0.0000
# 2 -2.7800 18.8103 -3.1242 0.0000 -0.5963 0.0000
# 3 17.7395 -3.1242 98.5597 0.0000 -0.1679 0.0000
# 4 0.0000 0.0000 0.0000 10.6988 0.0000 -3.0393
# 5 6.0317 -0.5963 -0.1679 0.0000 31.3295 0.0000
# 6 0.0000 0.0000 0.0000 -3.0393 0.0000 16.3539
#
#
#
# Elastic Compliance Matrix: (Units=1/GPa)
#
#
# Indices 1 2 3 4 5 6 
#
# 1 0.012324 0.001385 -0.002178 0.000000 -0.002358 0.000000
# 2 0.001385 0.053632 0.001452 0.000000 0.000762 0.000000
# 3 -0.002178 0.001452 0.010585 0.000000 0.000504 0.000000
# 4 0.000000 0.000000 0.000000 0.098678 0.000000 0.018339
# 5 -0.002358 0.000762 0.000504 0.000000 0.032390 0.000000
# 6 0.000000 0.000000 0.000000 0.018339 0.000000 0.064555
#
#
# Mechanical properties :
#
#
# Convention : Reuss Voigt Hill
#
# Bulk Modulus (GPa) = 12.84376 25.19832 19.02104
# Shear Modulus (GPa) = 16.84632 24.42838 20.63735
#
# Velocity S-wave (km/s) = 3.14206 3.78363 3.47767
# Velocity P-wave (km/s) = 4.54866 5.81850 5.22232
#
# Compressibility (1/GPa) = 0.07785882
#
# Stress axis : x y z
#
# Youngs Moduli (GPa) = 81.14241 18.64545 94.47250
#
# Poissons Ratio (x) = -0.02582 0.20579
# Poissons Ratio (y) = -0.11237 -0.13719
# Poissons Ratio (z) = 0.17675 -0.02708
#
# Static dielectric constant tensor:
#      x y z
#    x 1.581890 0.000000 0.009010 
#    y 0.000000 1.589050 0.000000 
#    z 0.009010 0.000000 1.613720 
# 
# From -- ./inp_files/278432.got.cif
#   From: 2010.05.17/outbox.cif.g08.bks.cpg/sg12_140_cif.got.tgz:278432.got - 2010.06.03 13:09:07.
