data_PCOD9174094
_publ_section_title
;
Structure prediction by ZEFSAII (Michael W. Deem and Ramdas Pophale) SiO2 
 PCOD9174094
Probable space group: C 2/M
;
_chemical_formula_sum "Si O2"
_cell_formula_units_Z 40
_cell_length_a 23.345082
_cell_length_b 13.334561
_cell_length_c 7.497072
_cell_angle_alpha 90.000000
_cell_angle_beta 70.307352
_cell_angle_gamma 90.000000
_cell_volume 2197.315879
_symmetry_space_group_name_H-M "C 2/M"
_symmetry_group_IT_number 12
_symmetry_cell_setting 'monoclinic'
loop_
_space_group_symop_operation_xyz
x,y,z
-x,y,-z
-x,-y,-z
x,-y,z
1/2+x,1/2+y,z
1/2-x,1/2+y,-z
1/2-x,1/2-y,-z
1/2+x,1/2-y,z
loop_
_atom_site_type_symbol
_atom_site_label
_atom_site_fract_x
_atom_site_fract_y
_atom_site_fract_z
Si Si1 0.204657 0.808137 0.277506
Si Si2 0.111449 0.216582 0.085094
Si Si3 0.992522 0.885889 0.295229
Si Si4 0.646054 0.618392 0.686995
Si Si5 0.307927 0.884488 0.915908
O O1 0.144428 0.834064 0.222201
O O2 0.191262 0.835022 0.493719
O O3 0.212440 0.689919 0.223227
O O4 0.260017 0.865849 0.125952
O O5 0.128752 0.333217 0.088915
O O6 0.041205 0.188367 0.157129
O O7 0.144676 0.173439 0.877019
O O8 0.922943 0.869567 0.314818
O O9 0.000000 0.877895 0.500000
O O10 0.009240 0.000000 0.224046
O O11 0.657982 0.500000 0.695120
O O12 0.311580 0.000000 0.865280
#
# Coordination Sequence:
#
# PCOD9174094 Si02
#       5
#     8   8   8   8   8
#     4   9  20  37  54  78 106 137 176 217 261 309
#     4  10  20  34  52  77 111 139 173 210 262 311
#     4  10  18  31  52  78 108 140 169 212 268 314
#     4  11  21  32  54  83 110 138 171 214 267 317
#     4   9  19  38  57  74 105 141 177 220 260 304
#
# _framework density 18.204028000000001
#
# number of rings (size 3 to 8) (size 9 to 14) (size 15 to 20)
#    1.200    1.000    2.000    1.800    0.000    4.800 
#    0.000    1.000    0.000    7.800    0.000    0.000 
#    0.000    0.000    0.000    0.000    0.000    0.000 
#
# Total GULP energy -111457.906458 kJ/mol
# GULP energy per Si atom -5572.895323 kJ/mol
# Density = 1.816259 g / cm^3
# Si number density = 18.204028 Si / 1000 Ang^3
#
#
#
# Elastic Constant Matrix: (Units=GPa)
#
#
# Indices 1 2 3 4 5 6 
#
# 1 31.1799 15.5665 -10.2095 0.0000 -5.3313 0.0000
# 2 15.5665 97.9848 22.2622 0.0000 -1.5912 0.0000
# 3 -10.2095 22.2622 70.1514 0.0000 11.9726 0.0000
# 4 0.0000 0.0000 0.0000 13.1621 0.0000 -5.7262
# 5 -5.3313 -1.5912 11.9726 0.0000 27.9796 0.0000
# 6 0.0000 0.0000 0.0000 -5.7262 0.0000 22.7219
#
#
#
# Elastic Compliance Matrix: (Units=1/GPa)
#
#
# Indices 1 2 3 4 5 6 
#
# 1 0.039116 -0.007867 0.007545 0.000000 0.003777 0.000000
# 2 -0.007867 0.012718 -0.005446 0.000000 0.001555 0.000000
# 3 0.007545 -0.005446 0.018219 0.000000 -0.006668 0.000000
# 4 0.000000 0.000000 0.000000 0.085331 0.000000 0.021505
# 5 0.003777 0.001555 -0.006668 0.000000 0.039402 0.000000
# 6 0.000000 0.000000 0.000000 0.021505 0.000000 0.049430
#
#
# Mechanical properties :
#
#
# Convention : Reuss Voigt Hill
#
# Bulk Modulus (GPa) = 17.08941 28.28384 22.68663
# Shear Modulus (GPa) = 18.16471 24.21917 21.19194
#
# Velocity S-wave (km/s) = 3.16229 3.65146 3.41564
# Velocity P-wave (km/s) = 4.76881 5.77481 5.29575
#
# Compressibility (1/GPa) = 0.05851578
#
# Stress axis : x y z
#
# Youngs Moduli (GPa) = 25.56512 78.62807 54.88684
#
# Poissons Ratio (x) = 0.61856 -0.41410
# Poissons Ratio (y) = 0.20112 0.29893
# Poissons Ratio (z) = -0.19288 0.42823
#
# Static dielectric constant tensor:
#      x y z
#    x 1.671080 0.000000 0.005330 
#    y 0.000000 1.609690 0.000000 
#    z 0.005330 0.000000 1.620880 
# 
# From -- ./inp_files/95274.got.cif
#   From: 2010.05.17/outbox.cif.g08.bks.cpg/sg12_48_cif.got.tgz:95274.got - 2010.06.03 13:09:07.
