data_PCOD9174533
_publ_section_title
;
Structure prediction by ZEFSAII (Michael W. Deem and Ramdas Pophale) SiO2 
 PCOD9174533
Probable space group: C 2/M
;
_chemical_formula_sum "Si O2"
_cell_formula_units_Z 48
_cell_length_a 14.132014
_cell_length_b 29.867109
_cell_length_c 7.954412
_cell_angle_alpha 90.000000
_cell_angle_beta 140.488005
_cell_angle_gamma 90.000000
_cell_volume 2136.122353
_symmetry_space_group_name_H-M "C 2/M"
_symmetry_group_IT_number 12
_symmetry_cell_setting 'monoclinic'
loop_
_space_group_symop_operation_xyz
x,y,z
-x,y,-z
-x,-y,-z
x,-y,z
1/2+x,1/2+y,z
1/2-x,1/2+y,-z
1/2-x,1/2-y,-z
1/2+x,1/2-y,z
loop_
_atom_site_type_symbol
_atom_site_label
_atom_site_fract_x
_atom_site_fract_y
_atom_site_fract_z
Si Si1 0.102343 0.948895 0.309165
Si Si2 0.322542 0.693685 0.767759
Si Si3 0.675816 0.791380 0.201998
Si Si4 0.893136 0.382595 0.015749
Si Si5 0.687222 0.447164 0.900162
Si Si6 0.320028 0.102613 0.390045
O O1 0.232467 0.915469 0.435615
O O2 0.154089 0.000000 0.411246
O O3 0.000000 0.950531 0.000000
O O4 0.982878 0.935246 0.286776
O O5 0.279789 0.741401 0.792351
O O6 0.258618 0.697021 0.489809
O O7 0.253407 0.650039 0.757497
O O8 0.500000 0.688487 0.000000
O O9 0.500000 0.787263 0.000000
O O10 0.685096 0.834066 0.094394
O O11 0.769187 0.420426 0.865966
O O12 0.011112 0.388473 0.327930
O O13 0.000000 0.385464 0.000000
O O14 0.691981 0.500000 0.880076
O O15 0.781931 0.433687 0.196351
#
# Coordination Sequence:
#
# PCOD9174533 Si02
#       6
#     8   8   8   8   8   8
#     4   8  16  33  57  86 119 152 199 257 299 348
#     4  10  18  31  63  92 115 160 210 254 301 375
#     4   9  18  36  55  89 127 160 198 253 319 369
#     4  11  22  39  59  86 129 168 201 254 317 373
#     4  10  22  39  61  92 126 164 213 261 304 366
#     4  11  19  35  64  94 121 162 209 255 307 371
#
# _framework density 22.470624000000001
#
# number of rings (size 3 to 8) (size 9 to 14) (size 15 to 20)
#    0.000    2.167    3.333    3.500    0.000    2.333 
#    0.000    1.667    0.000    2.000    0.000    0.000 
#    0.000    0.000    0.000    0.000    0.000    0.000 
#
# Total GULP energy -134054.080705 kJ/mol
# GULP energy per Si atom -5585.586696 kJ/mol
# Density = 2.241948 g / cm^3
# Si number density = 22.470624 Si / 1000 Ang^3
#
#
#
# Elastic Constant Matrix: (Units=GPa)
#
#
# Indices 1 2 3 4 5 6 
#
# 1 88.1343 49.4858 8.9793 0.0000 -0.7606 0.0000
# 2 49.4858 141.0001 23.1521 0.0000 22.6345 0.0000
# 3 8.9793 23.1521 121.0863 0.0000 11.6513 0.0000
# 4 0.0000 0.0000 0.0000 8.1020 0.0000 -27.9139
# 5 -0.7606 22.6345 11.6513 0.0000 30.7559 0.0000
# 6 0.0000 0.0000 0.0000 -27.9139 0.0000 0.3423
#
#
#
# Elastic Compliance Matrix: (Units=1/GPa)
#
#
# Indices 1 2 3 4 5 6 
#
# 1 0.014734 -0.005879 -0.000436 0.000000 0.004856 0.000000
# 2 -0.005879 0.010508 -0.000846 0.000000 -0.007558 0.000000
# 3 -0.000436 -0.000846 0.008711 0.000000 -0.002688 0.000000
# 4 0.000000 0.000000 0.000000 -0.000441 0.000000 -0.035952
# 5 0.004856 -0.007558 -0.002688 0.000000 0.039215 0.000000
# 6 0.000000 0.000000 0.000000 -0.035952 0.000000 -0.010435
#
#
# Mechanical properties :
#
#
# Convention : Reuss Voigt Hill
#
# Bulk Modulus (GPa) = 50.93891 57.05055 53.99473
# Shear Modulus (GPa) = 60.12799 25.74695 42.93747
#
# Velocity S-wave (km/s) = 5.17847 3.38865 4.37604
# Velocity P-wave (km/s) = 7.64681 6.38394 7.04373
#
# Compressibility (1/GPa) = 0.01963136
#
# Stress axis : x y z
#
# Youngs Moduli (GPa) = 67.87250 95.16915 114.79325
#
# Poissons Ratio (x) = 0.55949 0.05002
# Poissons Ratio (y) = 0.39901 0.09710
# Poissons Ratio (z) = 0.02958 0.08050
#
# Static dielectric constant tensor:
#      x y z
#    x 1.898380 0.000000 -0.075350 
#    y 0.000000 1.832210 0.000000 
#    z -0.075350 0.000000 1.858180 
# 
# From -- ./inp_files/68369.got.cif
#   From: 2010.05.17/outbox.cif.g08.bks.cpg/sg12_35_cif.got.tgz:68369.got - 2010.06.03 13:09:07.
