data_PCOD9174663
_publ_section_title
;
Structure prediction by ZEFSAII (Michael W. Deem and Ramdas Pophale) SiO2 
 PCOD9174663
Probable space group: C 2/M
;
_chemical_formula_sum "Si O2"
_cell_formula_units_Z 36
_cell_length_a 12.432514
_cell_length_b 19.909372
_cell_length_c 12.685877
_cell_angle_alpha 90.000000
_cell_angle_beta 143.276633
_cell_angle_gamma 90.000000
_cell_volume 1877.601398
_symmetry_space_group_name_H-M "C 2/M"
_symmetry_group_IT_number 12
_symmetry_cell_setting 'monoclinic'
loop_
_space_group_symop_operation_xyz
x,y,z
-x,y,-z
-x,-y,-z
x,-y,z
1/2+x,1/2+y,z
1/2-x,1/2+y,-z
1/2-x,1/2-y,-z
1/2+x,1/2-y,z
loop_
_atom_site_type_symbol
_atom_site_label
_atom_site_fract_x
_atom_site_fract_y
_atom_site_fract_z
Si Si1 0.111606 0.815392 0.788213
Si Si2 0.910049 0.338486 0.169900
Si Si3 0.500000 0.250438 0.500000
Si Si4 0.774060 0.638508 0.449211
Si Si5 0.714336 0.574047 0.185638
O O1 0.081754 0.742198 0.819053
O O2 0.114265 0.796645 0.668015
O O3 0.930437 0.853687 0.676296
O O4 0.289253 0.851137 0.972294
O O5 0.795130 0.367027 0.178088
O O6 0.103070 0.369762 0.350144
O O7 0.365302 0.203994 0.463682
O O8 0.772345 0.585472 0.352242
O O9 0.776081 0.500000 0.199326
O O10 0.500000 0.576897 0.000000
#
# Coordination Sequence:
#
# PCOD9174663 Si02
#       5
#     8   8   4   8   8
#     4  10  20  32  50  73 108 138 173 218 255 312
#     4  10  19  33  49  73 102 141 172 207 265 307
#     4  10  18  32  51  76 101 144 174 206 270 304
#     4  11  19  34  50  76 107 138 175 212 257 320
#     4  11  21  34  54  79 110 143 174 216 266 316
#
# _framework density 19.173397999999999
#
# number of rings (size 3 to 8) (size 9 to 14) (size 15 to 20)
#    0.000    1.556    6.667    2.667    0.000    1.778 
#    0.000    3.333    0.000    0.000    0.000    3.111 
#    0.000   12.444    0.000    0.222    0.000    0.000 
#
# Total GULP energy -100211.865682 kJ/mol
# GULP energy per Si atom -5567.325871 kJ/mol
# Density = 1.912976 g / cm^3
# Si number density = 19.173398 Si / 1000 Ang^3
#
#
#
# Elastic Constant Matrix: (Units=GPa)
#
#
# Indices 1 2 3 4 5 6 
#
# 1 17.5180 1.5773 15.3484 0.0000 -3.3172 0.0000
# 2 1.5773 22.1668 11.0641 0.0000 7.0383 0.0000
# 3 15.3484 11.0641 172.2204 0.0000 -17.5719 0.0000
# 4 0.0000 0.0000 0.0000 7.4435 0.0000 -7.6375
# 5 -3.3172 7.0383 -17.5719 0.0000 19.7130 0.0000
# 6 0.0000 0.0000 0.0000 -7.6375 0.0000 -1.4029
#
#
#
# Elastic Compliance Matrix: (Units=1/GPa)
#
#
# Indices 1 2 3 4 5 6 
#
# 1 0.063012 -0.004937 -0.004441 0.000000 0.008408 0.000000
# 2 -0.004937 0.056776 -0.005897 0.000000 -0.026359 0.000000
# 3 -0.004441 -0.005897 0.007392 0.000000 0.007947 0.000000
# 4 0.000000 0.000000 0.000000 0.020399 0.000000 -0.111052
# 5 0.008408 -0.026359 0.007947 0.000000 0.068638 0.000000
# 6 0.000000 0.000000 0.000000 -0.111052 0.000000 -0.108230
#
#
# Mechanical properties :
#
#
# Convention : Reuss Voigt Hill
#
# Bulk Modulus (GPa) = 10.34865 29.76498 20.05682
# Shear Modulus (GPa) = 29.28328 17.41173 23.34750
#
# Velocity S-wave (km/s) = 3.91229 3.01677 3.49335
# Velocity P-wave (km/s) = 5.08106 5.26235 5.17250
#
# Compressibility (1/GPa) = 0.09663098
#
# Stress axis : x y z
#
# Youngs Moduli (GPa) = 15.87012 17.61294 135.28175
#
# Poissons Ratio (x) = 0.08695 0.60074
# Poissons Ratio (y) = 0.07835 0.79775
# Poissons Ratio (z) = 0.07047 0.10386
#
# Static dielectric constant tensor:
#      x y z
#    x 1.648000 0.000000 -0.014490 
#    y 0.000000 1.638920 0.000000 
#    z -0.014490 0.000000 1.781230 
# 
# From -- ./inp_files/78301.got.cif
#   From: 2010.05.17/outbox.cif.g08.bks.cpg/sg12_40_cif.got.tgz:78301.got - 2010.06.03 13:09:07.
