data_PCOD9174458
_publ_section_title
;
Structure prediction by ZEFSAII (Michael W. Deem and Ramdas Pophale) SiO2 
 PCOD9174458
Probable space group: C 2/M
;
_chemical_formula_sum "Si O2"
_cell_formula_units_Z 40
_cell_length_a 13.954776
_cell_length_b 28.117135
_cell_length_c 8.758962
_cell_angle_alpha 90.000000
_cell_angle_beta 150.987437
_cell_angle_gamma 90.000000
_cell_volume 1666.823269
_symmetry_space_group_name_H-M "C 2/M"
_symmetry_group_IT_number 12
_symmetry_cell_setting 'monoclinic'
loop_
_space_group_symop_operation_xyz
x,y,z
-x,y,-z
-x,-y,-z
x,-y,z
1/2+x,1/2+y,z
1/2-x,1/2+y,-z
1/2-x,1/2-y,-z
1/2+x,1/2-y,z
loop_
_atom_site_type_symbol
_atom_site_label
_atom_site_fract_x
_atom_site_fract_y
_atom_site_fract_z
Si Si1 0.724064 0.372984 0.237331
Si Si2 0.860062 0.553362 0.663406
Si Si3 0.799992 0.193625 0.373840
Si Si4 0.037988 0.709800 0.315644
Si Si5 0.994935 0.089798 0.663522
O O1 0.853198 0.407479 0.523595
O O2 0.839211 0.323461 0.397671
O O3 0.500000 0.367227 0.000000
O O4 0.692113 0.398022 0.030546
O O5 0.912244 0.500000 0.686899
O O6 0.638509 0.555322 0.421106
O O7 0.000000 0.567011 0.000000
O O8 0.951387 0.236776 0.608233
O O9 0.662422 0.202099 0.331126
O O10 0.888708 0.141309 0.506698
O O11 0.677777 0.196996 0.046622
O O12 0.000000 0.070995 0.500000
#
# Coordination Sequence:
#
# PCOD9174458 Si02
#       5
#     8   8   8   8   8
#     4  10  19  34  57  83 113 149 194 235 280 335
#     4  10  21  40  65  88 111 145 195 241 280 339
#     4  10  19  31  53  81 114 147 192 238 278 330
#     4  10  18  31  56  81 107 149 199 240 272 327
#     4  11  23  38  56  86 124 152 185 236 295 344
#
# _framework density 23.997743
#
# number of rings (size 3 to 8) (size 9 to 14) (size 15 to 20)
#    0.000    1.800    4.000    2.400    2.800    4.000 
#    0.000    8.000    0.000    2.400    0.000    0.000 
#    0.000    0.000    0.000    0.000    0.000    0.000 
#
# Total GULP energy -111832.935741 kJ/mol
# GULP energy per Si atom -5591.646787 kJ/mol
# Density = 2.394312 g / cm^3
# Si number density = 23.997743 Si / 1000 Ang^3
#
#
#
# Elastic Constant Matrix: (Units=GPa)
#
#
# Indices 1 2 3 4 5 6 
#
# 1 60.4207 -15.2714 -15.4129 0.0000 -0.6077 0.0000
# 2 -15.2714 85.0899 26.2363 0.0000 17.2906 0.0000
# 3 -15.4129 26.2363 125.9813 0.0000 0.3007 0.0000
# 4 0.0000 0.0000 0.0000 12.5696 0.0000 -4.3204
# 5 -0.6077 17.2906 0.3007 0.0000 14.6830 0.0000
# 6 0.0000 0.0000 0.0000 -4.3204 0.0000 -11.5267
#
#
#
# Elastic Compliance Matrix: (Units=1/GPa)
#
#
# Indices 1 2 3 4 5 6 
#
# 1 0.017753 0.003404 0.001471 0.000000 -0.003304 0.000000
# 2 0.003404 0.017485 -0.003176 0.000000 -0.020384 0.000000
# 3 0.001471 -0.003176 0.008770 0.000000 0.003621 0.000000
# 4 0.000000 0.000000 0.000000 0.070478 0.000000 -0.026416
# 5 -0.003304 -0.020384 0.003621 0.000000 0.091899 0.000000
# 6 0.000000 0.000000 0.000000 -0.026416 0.000000 -0.076854
#
#
# Mechanical properties :
#
#
# Convention : Reuss Voigt Hill
#
# Bulk Modulus (GPa) = 21.09457 29.17733 25.13595
# Shear Modulus (GPa) = 35.22749 21.54117 28.38433
#
# Velocity S-wave (km/s) = 3.83554 2.99930 3.44290
# Velocity P-wave (km/s) = 5.33146 4.91723 5.12853
#
# Compressibility (1/GPa) = 0.04740557
#
# Stress axis : x y z
#
# Youngs Moduli (GPa) = 56.32856 57.19324 114.01926
#
# Poissons Ratio (x) = -0.19469 -0.16771
# Poissons Ratio (y) = -0.19174 0.36214
# Poissons Ratio (z) = -0.08286 0.18165
#
# Static dielectric constant tensor:
#      x y z
#    x 2.029290 0.000000 -0.006540 
#    y 0.000000 1.836470 0.000000 
#    z -0.006540 0.000000 1.937620 
# 
# From -- ./inp_files/40541.got.cif
#   From: 2010.05.17/outbox.cif.g08.bks.cpg/sg12_21_cif.got.tgz:40541.got - 2010.06.03 13:09:07.
