data_PCOD9174149
_publ_section_title
;
Structure prediction by ZEFSAII (Michael W. Deem and Ramdas Pophale) SiO2 
 PCOD9174149
Probable space group: C 2/M
;
_chemical_formula_sum "Si O2"
_cell_formula_units_Z 56
_cell_length_a 9.690950
_cell_length_b 29.400447
_cell_length_c 8.888059
_cell_angle_alpha 90.000000
_cell_angle_beta 100.324056
_cell_angle_gamma 90.000000
_cell_volume 2491.370942
_symmetry_space_group_name_H-M "C 2/M"
_symmetry_group_IT_number 12
_symmetry_cell_setting 'monoclinic'
loop_
_space_group_symop_operation_xyz
x,y,z
-x,y,-z
-x,-y,-z
x,-y,z
1/2+x,1/2+y,z
1/2-x,1/2+y,-z
1/2-x,1/2-y,-z
1/2+x,1/2-y,z
loop_
_atom_site_type_symbol
_atom_site_label
_atom_site_fract_x
_atom_site_fract_y
_atom_site_fract_z
Si Si1 0.843722 0.205891 0.041402
Si Si2 0.040049 0.052561 0.257063
Si Si3 0.784571 0.869567 0.594034
Si Si4 0.085913 0.319228 0.354473
Si Si5 0.134919 0.631722 0.866697
Si Si6 0.964478 0.783685 0.665738
Si Si7 0.225151 0.947884 0.983462
O O1 0.890735 0.206094 0.222487
O O2 0.750000 0.250000 0.000000
O O3 0.754389 0.164008 0.962322
O O4 0.000000 0.208665 0.000000
O O5 0.106809 0.088918 0.383452
O O6 0.132343 0.054443 0.120051
O O7 0.043705 0.000000 0.309293
O O8 0.883098 0.064314 0.171248
O O9 0.712057 0.852431 0.427672
O O10 0.673094 0.882070 0.701667
O O11 0.857911 0.824357 0.674428
O O12 0.000000 0.317147 0.500000
O O13 0.005011 0.340063 0.194754
O O14 0.102162 0.265883 0.318161
O O15 0.148585 0.586669 0.967743
O O16 0.000000 0.785522 0.500000
O O17 0.268241 0.000000 0.971596
#
# Coordination Sequence:
#
# PCOD9174149 Si02
#       7
#     8   8   8   8   8   8   8
#     4  12  24  39  59  86 115 151 193 241 286 335
#     4   8  14  25  43  71  97 127 176 226 278 333
#     4  10  18  31  53  71 101 147 179 223 284 336
#     4   9  19  31  45  71 102 138 180 217 270 335
#     4  10  18  32  51  76 108 140 183 232 282 333
#     4  11  22  36  53  77 110 147 190 234 275 336
#     4   8  14  24  43  71 103 134 172 228 288 335
#
# _framework density 22.477584
#
# number of rings (size 3 to 8) (size 9 to 14) (size 15 to 20)
#    0.000    2.286    2.857    2.143    2.000    1.143 
#    0.000    0.714    0.000    4.714    0.000    0.000 
#    0.000    0.571    0.000    0.286    0.000    0.000 
#
# Total GULP energy -156249.511051 kJ/mol
# GULP energy per Si atom -5580.339680 kJ/mol
# Density = 2.242642 g / cm^3
# Si number density = 22.477584 Si / 1000 Ang^3
#
#
#
# Elastic Constant Matrix: (Units=GPa)
#
#
# Indices 1 2 3 4 5 6 
#
# 1 54.2507 33.3229 33.2898 0.0000 10.4305 0.0000
# 2 33.3229 137.3277 55.3303 0.0000 33.0545 0.0000
# 3 33.2898 55.3303 135.9689 0.0000 40.8439 0.0000
# 4 0.0000 0.0000 0.0000 34.0728 0.0000 9.2825
# 5 10.4305 33.0545 40.8439 0.0000 35.6442 0.0000
# 6 0.0000 0.0000 0.0000 9.2825 0.0000 10.1093
#
#
#
# Elastic Compliance Matrix: (Units=1/GPa)
#
#
# Indices 1 2 3 4 5 6 
#
# 1 0.023574 -0.004446 -0.004771 0.000000 0.002691 0.000000
# 2 -0.004446 0.010523 -0.000996 0.000000 -0.007316 0.000000
# 3 -0.004771 -0.000996 0.012552 0.000000 -0.012063 0.000000
# 4 0.000000 0.000000 0.000000 0.039140 0.000000 -0.035939
# 5 0.002691 -0.007316 -0.012063 0.000000 0.047875 0.000000
# 6 0.000000 0.000000 0.000000 -0.035939 0.000000 0.131919
#
#
# Mechanical properties :
#
#
# Convention : Reuss Voigt Hill
#
# Bulk Modulus (GPa) = 38.13460 63.49258 50.81359
# Shear Modulus (GPa) = 16.96363 29.67220 23.31791
#
# Velocity S-wave (km/s) = 2.75014 3.63723 3.22434
# Velocity P-wave (km/s) = 5.20450 6.77847 6.04295
#
# Compressibility (1/GPa) = 0.02622291
#
# Stress axis : x y z
#
# Youngs Moduli (GPa) = 42.41974 95.03088 79.67112
#
# Poissons Ratio (x) = 0.42249 0.38011
# Poissons Ratio (y) = 0.18859 0.07934
# Poissons Ratio (z) = 0.20239 0.09464
#
# Static dielectric constant tensor:
#      x y z
#    x 2.070390 0.000000 -0.031170 
#    y 0.000000 1.820320 0.000000 
#    z -0.031170 0.000000 1.899460 
# 
# From -- ./inp_files/136728.got.cif
#   From: 2010.05.17/outbox.cif.g08.bks.cpg/sg12_69_cif.got.tgz:136728.got - 2010.06.03 13:09:07.
