data_PCOD9174690
_publ_section_title
;
Structure prediction by ZEFSAII (Michael W. Deem and Ramdas Pophale) SiO2 
 PCOD9174690
Probable space group: C 2/M
;
_chemical_formula_sum "Si O2"
_cell_formula_units_Z 40
_cell_length_a 25.180384
_cell_length_b 8.412774
_cell_length_c 22.367440
_cell_angle_alpha 90.000000
_cell_angle_beta 29.743771
_cell_angle_gamma 90.000000
_cell_volume 2350.749957
_symmetry_space_group_name_H-M "C 2/M"
_symmetry_group_IT_number 12
_symmetry_cell_setting 'monoclinic'
loop_
_space_group_symop_operation_xyz
x,y,z
-x,y,-z
-x,-y,-z
x,-y,z
1/2+x,1/2+y,z
1/2-x,1/2+y,-z
1/2-x,1/2-y,-z
1/2+x,1/2-y,z
loop_
_atom_site_type_symbol
_atom_site_label
_atom_site_fract_x
_atom_site_fract_y
_atom_site_fract_z
Si Si1 0.155828 0.808581 0.513878
Si Si2 0.890469 0.192599 0.575129
Si Si3 0.514707 0.188507 0.078970
Si Si4 0.163602 0.813501 0.835671
Si Si5 0.602540 0.808371 0.691014
O O1 0.114345 0.757177 0.489722
O O2 0.279106 0.754325 0.402835
O O3 0.090549 0.749085 0.635036
O O4 0.156192 0.000000 0.514528
O O5 0.785293 0.259921 0.709900
O O6 0.000000 0.241510 0.500000
O O7 0.884340 0.000000 0.582711
O O8 0.409653 0.220368 0.140845
O O9 0.484307 0.243844 0.175251
O O10 0.535294 0.000000 0.059324
O O11 0.611525 0.274240 0.950692
O O12 0.152605 0.000000 0.834306
O O13 0.603283 0.000000 0.690946
#
# Coordination Sequence:
#
# PCOD9174690 Si02
#       5
#     8   8   8   8   8
#     4   9  17  30  47  72 100 127 163 202 246 293
#     4  10  20  36  55  72  97 136 175 205 239 294
#     4  10  18  32  52  72 101 134 167 203 245 301
#     4  11  21  31  47  75 105 130 164 206 256 296
#     4   9  17  29  48  73 100 129 159 199 250 296
#
# _framework density 17.015846
#
# number of rings (size 3 to 8) (size 9 to 14) (size 15 to 20)
#    0.000    2.200    2.000    3.600    0.000    2.800 
#    0.000    0.000    0.000    1.200    0.000    0.000 
#    0.000    0.000    0.000    0.000    0.000    0.000 
#
# Total GULP energy -111547.437150 kJ/mol
# GULP energy per Si atom -5577.371858 kJ/mol
# Density = 1.697712 g / cm^3
# Si number density = 17.015846 Si / 1000 Ang^3
#
#
#
# Elastic Constant Matrix: (Units=GPa)
#
#
# Indices 1 2 3 4 5 6 
#
# 1 94.5368 8.3040 67.2525 -0.0017 14.2362 0.0001
# 2 8.3040 8.1463 3.9501 -0.0054 0.8626 0.0036
# 3 67.2525 3.9501 128.4514 -0.0090 24.0580 0.0061
# 4 -0.0017 -0.0054 -0.0090 17.0708 0.0050 12.2937
# 5 14.2362 0.8626 24.0580 0.0050 29.5976 -0.0030
# 6 0.0001 0.0036 0.0061 12.2937 -0.0030 12.5014
#
#
#
# Elastic Compliance Matrix: (Units=1/GPa)
#
#
# Indices 1 2 3 4 5 6 
#
# 1 0.018387 -0.014271 -0.008976 -0.000044 -0.001132 0.000051
# 2 -0.014271 0.135699 0.003248 0.000249 0.000269 -0.000285
# 3 -0.008976 0.003248 0.013676 0.000055 -0.006893 -0.000063
# 4 -0.000044 0.000249 0.000055 0.200749 -0.000084 -0.197413
# 5 -0.001132 0.000269 -0.006893 -0.000084 0.039927 0.000095
# 6 0.000051 -0.000285 -0.000063 -0.197413 0.000095 0.274124
#
#
# Mechanical properties :
#
#
# Convention : Reuss Voigt Hill
#
# Bulk Modulus (GPa) = 7.82689 43.34977 25.58833
# Shear Modulus (GPa) = 6.53469 21.94248 14.23859
#
# Velocity S-wave (km/s) = 1.96181 3.59490 2.89586
# Velocity P-wave (km/s) = 3.12111 6.53931 5.12366
#
# Compressibility (1/GPa) = 0.12776462
#
# Stress axis : x y z
#
# Youngs Moduli (GPa) = 54.38496 7.36926 73.12191
#
# Poissons Ratio (x) = 0.10517 0.65635
# Poissons Ratio (y) = 0.77613 -0.23754
# Poissons Ratio (z) = 0.48816 -0.02394
#
# Static dielectric constant tensor:
#      x y z
#    x 1.563970 0.000000 0.027730 
#    y 0.000000 1.582690 0.000000 
#    z 0.027730 0.000000 1.581270 
# 
# From -- ./inp_files/179069.got.cif
#   From: 2010.05.17/outbox.cif.g08.bks.cpg/sg12_90_cif.got.tgz:179069.got - 2010.06.03 13:09:07.
