data_PCOD9174154
_publ_section_title
;
Structure prediction by ZEFSAII (Michael W. Deem and Ramdas Pophale) SiO2 
 PCOD9174154
Probable space group: C 2/M
;
_chemical_formula_sum "Si O2"
_cell_formula_units_Z 64
_cell_length_a 25.191685
_cell_length_b 18.287845
_cell_length_c 11.934370
_cell_angle_alpha 90.000000
_cell_angle_beta 43.758367
_cell_angle_gamma 90.000000
_cell_volume 3802.645777
_symmetry_space_group_name_H-M "C 2/M"
_symmetry_group_IT_number 12
_symmetry_cell_setting 'monoclinic'
loop_
_space_group_symop_operation_xyz
x,y,z
-x,y,-z
-x,-y,-z
x,-y,z
1/2+x,1/2+y,z
1/2-x,1/2+y,-z
1/2-x,1/2-y,-z
1/2+x,1/2-y,z
loop_
_atom_site_type_symbol
_atom_site_label
_atom_site_fract_x
_atom_site_fract_y
_atom_site_fract_z
Si Si1 0.585717 0.780905 0.876374
Si Si2 0.079651 0.918254 0.176653
Si Si3 0.157974 0.720696 0.518912
Si Si4 0.230675 0.355225 0.715476
Si Si5 0.162040 0.084445 0.271850
Si Si6 0.961270 0.801064 0.446111
Si Si7 0.254699 0.582336 0.436822
Si Si8 0.583944 0.387456 0.917668
O O1 0.624632 0.771274 0.695032
O O2 0.642837 0.831823 0.857410
O O3 0.580491 0.700086 0.934419
O O4 0.500000 0.810999 0.000000
O O5 0.149979 0.908632 0.156571
O O6 0.022267 0.850112 0.284128
O O7 0.046534 0.000000 0.253825
O O8 0.100358 0.918245 0.015303
O O9 0.220333 0.782575 0.391962
O O10 0.085709 0.739739 0.549523
O O11 0.203081 0.643537 0.452546
O O12 0.261379 0.389631 0.783090
O O13 0.242908 0.406025 0.587981
O O14 0.098104 0.136949 0.422107
O O15 0.148511 0.000000 0.321107
O O16 0.000000 0.771072 0.500000
O O17 0.233088 0.500000 0.438380
O O18 0.344693 0.593723 0.271037
O O19 0.500000 0.410974 0.000000
#
# Coordination Sequence:
#
# PCOD9174154 Si02
#       8
#     8   8   8   8   8   8   8   8
#     4  10  18  31  53  74 102 134 162 207 260 290
#     4  10  20  32  46  75 112 137 159 196 251 307
#     4  10  18  35  52  73 103 132 168 213 246 296
#     4  10  18  34  53  76 100 131 176 211 238 302
#     4   9  18  31  50  72 101 136 168 207 249 293
#     4   9  17  30  52  73  98 132 173 206 244 294
#     4  11  21  33  52  76 101 133 167 206 255 300
#     4  11  21  33  48  74 109 136 163 196 247 313
#
# _framework density 16.830387000000002
#
# number of rings (size 3 to 8) (size 9 to 14) (size 15 to 20)
#    0.000    2.000    2.500    3.375    1.750    2.500 
#    0.000    0.625    2.750    9.750    0.000    0.000 
#    0.000    0.000    0.000    0.000    0.000    0.000 
#
# Total GULP energy -178267.443904 kJ/mol
# GULP energy per Si atom -5570.857622 kJ/mol
# Density = 1.679208 g / cm^3
# Si number density = 16.830387 Si / 1000 Ang^3
#
#
#
# Elastic Constant Matrix: (Units=GPa)
#
#
# Indices 1 2 3 4 5 6 
#
# 1 138.1999 56.8242 33.4036 0.0000 -3.9784 0.0000
# 2 56.8242 85.0284 19.8816 0.0000 -1.5973 0.0000
# 3 33.4036 19.8816 39.0458 0.0000 -6.1799 0.0000
# 4 0.0000 0.0000 0.0000 11.2641 0.0000 1.0538
# 5 -3.9784 -1.5973 -6.1799 0.0000 22.0464 0.0000
# 6 0.0000 0.0000 0.0000 1.0538 0.0000 19.9423
#
#
#
# Elastic Compliance Matrix: (Units=1/GPa)
#
#
# Indices 1 2 3 4 5 6 
#
# 1 0.011306 -0.006004 -0.006656 0.000000 -0.000261 0.000000
# 2 -0.006004 0.016559 -0.003429 0.000000 -0.000845 0.000000
# 3 -0.006656 -0.003429 0.034346 0.000000 0.008178 0.000000
# 4 0.000000 0.000000 0.000000 0.089219 0.000000 -0.004715
# 5 -0.000261 -0.000845 0.008178 0.000000 0.047543 0.000000
# 6 0.000000 0.000000 0.000000 -0.004715 0.000000 0.050394
#
#
# Mechanical properties :
#
#
# Convention : Reuss Voigt Hill
#
# Bulk Modulus (GPa) = 33.29758 53.61029 43.45393
# Shear Modulus (GPa) = 17.14935 20.79486 18.97210
#
# Velocity S-wave (km/s) = 3.19557 3.51886 3.36110
# Velocity P-wave (km/s) = 5.78296 6.95933 6.39824
#
# Compressibility (1/GPa) = 0.03003222
#
# Stress axis : x y z
#
# Youngs Moduli (GPa) = 88.44818 60.38898 29.11582
#
# Poissons Ratio (x) = 0.36259 0.19380
# Poissons Ratio (y) = 0.53107 0.09983
# Poissons Ratio (z) = 0.58873 0.20706
#
# Static dielectric constant tensor:
#      x y z
#    x 1.612700 0.000000 -0.000410 
#    y 0.000000 1.573420 0.000000 
#    z -0.000410 0.000000 1.562330 
# 
# From -- ./inp_files/177129.got.cif
#   From: 2010.05.17/outbox.cif.g08.bks.cpg/sg12_89_cif.got.tgz:177129.got - 2010.06.03 13:09:07.
