data_PCOD9174688
_publ_section_title
;
Structure prediction by ZEFSAII (Michael W. Deem and Ramdas Pophale) SiO2 
 PCOD9174688
Probable space group: C 2/M
;
_chemical_formula_sum "Si O2"
_cell_formula_units_Z 64
_cell_length_a 21.302867
_cell_length_b 7.417116
_cell_length_c 27.172903
_cell_angle_alpha 90.000000
_cell_angle_beta 135.171012
_cell_angle_gamma 90.000000
_cell_volume 3026.871907
_symmetry_space_group_name_H-M "C 2/M"
_symmetry_group_IT_number 12
_symmetry_cell_setting 'monoclinic'
loop_
_space_group_symop_operation_xyz
x,y,z
-x,y,-z
-x,-y,-z
x,-y,z
1/2+x,1/2+y,z
1/2-x,1/2+y,-z
1/2-x,1/2-y,-z
1/2+x,1/2-y,z
loop_
_atom_site_type_symbol
_atom_site_label
_atom_site_fract_x
_atom_site_fract_y
_atom_site_fract_z
Si Si1 0.953292 0.710602 0.790533
Si Si2 0.642530 0.217255 0.082598
Si Si3 0.818968 0.290297 0.234231
Si Si4 0.902480 0.279777 0.464204
Si Si5 0.352720 0.784870 0.545623
Si Si6 0.747720 0.781514 0.697274
Si Si7 0.511544 0.220231 0.927299
Si Si8 0.494466 0.221837 0.704607
O O1 0.977595 0.500000 0.802741
O O2 0.847276 0.722769 0.739698
O O3 0.000317 0.786119 0.865570
O O4 0.979059 0.785290 0.751716
O O5 0.740717 0.278386 0.150754
O O6 0.574345 0.274451 0.087956
O O7 0.643198 0.000000 0.083048
O O8 0.598127 0.275737 0.006567
O O9 0.837096 0.500000 0.254683
O O10 0.782305 0.215301 0.265442
O O11 0.911343 0.216941 0.265093
O O12 0.902576 0.500000 0.464373
O O13 0.881277 0.217500 0.507672
O O14 0.824697 0.224577 0.383442
O O15 0.000000 0.223417 0.500000
O O16 0.250000 0.750000 0.500000
O O17 0.415846 0.718887 0.624516
O O18 0.364726 0.000000 0.550528
O O19 0.749664 0.000000 0.698883
O O20 0.510803 0.000000 0.926315
O O21 0.493493 0.000000 0.705120
#
# Coordination Sequence:
#
# PCOD9174688 Si02
#       8
#     8   8   8   8   8   8   8   8
#     4  10  18  32  52  71  92 125 163 194 229 281
#     4   9  16  30  50  72  95 122 161 199 232 275
#     4  10  19  32  48  71 101 129 156 192 241 288
#     4   9  17  30  49  70  92 124 163 195 228 279
#     4  10  19  33  52  72  95 126 162 199 237 281
#     4  10  19  30  48  73  97 120 154 202 242 272
#     4   8  15  28  49  72  94 122 159 198 230 275
#     4   9  19  33  50  71  98 130 160 191 235 291
#
# _framework density 21.143940000000001
#
# number of rings (size 3 to 8) (size 9 to 14) (size 15 to 20)
#    0.000    2.625    1.250    2.250    0.000    3.000 
#    0.000    3.750    0.000    3.000    0.000    0.000 
#    0.000    0.000    0.000    0.000    0.000    0.000 
#
# Total GULP energy -178711.068070 kJ/mol
# GULP energy per Si atom -5584.720877 kJ/mol
# Density = 2.109582 g / cm^3
# Si number density = 21.143940 Si / 1000 Ang^3
#
#
#
# Elastic Constant Matrix: (Units=GPa)
#
#
# Indices 1 2 3 4 5 6 
#
# 1 133.1289 -2.6102 64.0334 0.0000 -18.7033 -0.0001
# 2 -2.6102 65.9284 -3.0740 0.0001 -6.1479 -0.0005
# 3 64.0334 -3.0740 152.2749 0.0000 -21.6441 0.0000
# 4 0.0000 0.0001 0.0000 16.6896 0.0000 8.3120
# 5 -18.7033 -6.1479 -21.6441 0.0000 28.1350 0.0001
# 6 -0.0001 -0.0005 0.0000 8.3120 0.0001 12.2739
#
#
#
# Elastic Compliance Matrix: (Units=1/GPa)
#
#
# Indices 1 2 3 4 5 6 
#
# 1 0.009776 0.000585 -0.003545 0.000000 0.003900 0.000000
# 2 0.000585 0.015627 0.000685 -0.000001 0.004331 0.000001
# 3 -0.003545 0.000685 0.008710 0.000000 0.004494 0.000000
# 4 0.000000 -0.000001 0.000000 0.090411 0.000000 -0.061227
# 5 0.003900 0.004331 0.004494 0.000000 0.042539 0.000000
# 6 0.000000 0.000001 0.000000 -0.061227 0.000000 0.122937
#
#
# Mechanical properties :
#
#
# Convention : Reuss Voigt Hill
#
# Bulk Modulus (GPa) = 33.82482 52.00338 42.91410
# Shear Modulus (GPa) = 16.42560 30.95190 23.68875
#
# Velocity S-wave (km/s) = 2.79022 3.83020 3.35080
# Velocity P-wave (km/s) = 5.13932 6.64898 5.94228
#
# Compressibility (1/GPa) = 0.02956408
#
# Stress axis : x y z
#
# Youngs Moduli (GPa) = 102.29300 63.99208 114.80705
#
# Poissons Ratio (x) = -0.03746 0.40696
# Poissons Ratio (y) = -0.05988 -0.07863
# Poissons Ratio (z) = 0.36260 -0.04382
#
# Static dielectric constant tensor:
#      x y z
#    x 1.716950 0.000000 -0.019190 
#    y 0.000000 1.822120 0.000000 
#    z -0.019190 0.000000 1.745520 
# 
# From -- ./inp_files/276458.got.cif
#   From: 2010.05.17/outbox.cif.g08.bks.cpg/sg12_139_cif.got.tgz:276458.got - 2010.06.03 13:09:07.
