data_PCOD9174870
_publ_section_title
;
Structure prediction by ZEFSAII (Michael W. Deem and Ramdas Pophale) SiO2 
 PCOD9174870
Probable space group: C 2/M
;
_chemical_formula_sum "Si O2"
_cell_formula_units_Z 60
_cell_length_a 27.556392
_cell_length_b 18.192604
_cell_length_c 12.172694
_cell_angle_alpha 90.000000
_cell_angle_beta 32.622503
_cell_angle_gamma 90.000000
_cell_volume 3289.838361
_symmetry_space_group_name_H-M "C 2/M"
_symmetry_group_IT_number 12
_symmetry_cell_setting 'monoclinic'
loop_
_space_group_symop_operation_xyz
x,y,z
-x,y,-z
-x,-y,-z
x,-y,z
1/2+x,1/2+y,z
1/2-x,1/2+y,-z
1/2-x,1/2-y,-z
1/2+x,1/2-y,z
loop_
_atom_site_type_symbol
_atom_site_label
_atom_site_fract_x
_atom_site_fract_y
_atom_site_fract_z
Si Si1 0.561897 0.221568 0.667849
Si Si2 0.246162 0.802833 0.347326
Si Si3 0.000000 0.192399 0.000000
Si Si4 0.816006 0.158253 0.289956
Si Si5 0.831130 0.413921 0.578991
Si Si6 0.679105 0.412751 0.310361
Si Si7 0.303692 0.412245 0.979079
Si Si8 0.489624 0.335062 0.650637
O O1 0.661394 0.256106 0.465004
O O2 0.582972 0.135768 0.615668
O O3 0.499773 0.258368 0.694571
O O4 0.532708 0.253921 0.840627
O O5 0.225967 0.831218 0.508641
O O6 0.318859 0.738849 0.225584
O O7 0.247231 0.870121 0.261334
O O8 0.080252 0.140893 0.889740
O O9 0.750851 0.104947 0.348098
O O10 0.851367 0.500000 0.538518
O O11 0.786240 0.393549 0.782101
O O12 0.682576 0.500000 0.320415
O O13 0.702477 0.396033 0.138746
O O14 0.575355 0.385045 0.524614
O O15 0.317827 0.500000 0.963515
O O16 0.392824 0.372120 0.854853
O O17 0.500000 0.326137 0.500000
#
# Coordination Sequence:
#
# PCOD9174870 Si02
#       8
#     8   8   4   8   8   8   8   8
#     4   9  18  32  49  69  93 126 163 197 236 283
#     4   8  16  30  46  67  97 125 154 192 236 283
#     4  10  18  32  54  72  94 120 152 202 250 286
#     4   9  17  31  49  70  93 122 156 195 241 285
#     4  10  20  34  50  68  96 131 163 196 237 287
#     4   9  16  27  46  73 102 130 159 193 236 284
#     4   9  17  29  47  73 104 132 154 187 240 291
#     4   9  16  29  49  75 101 125 158 198 237 280
#
# _framework density 18.237977999999998
#
# number of rings (size 3 to 8) (size 9 to 14) (size 15 to 20)
#    0.000    2.933    0.000    2.000    0.000    2.133 
#    0.000   12.667    0.000    1.200    0.000    0.000 
#    0.000    0.000    0.000    0.000    0.000    0.000 
#
# Total GULP energy -167011.939273 kJ/mol
# GULP energy per Si atom -5567.064642 kJ/mol
# Density = 1.819647 g / cm^3
# Si number density = 18.237978 Si / 1000 Ang^3
#
#
#
# Elastic Constant Matrix: (Units=GPa)
#
#
# Indices 1 2 3 4 5 6 
#
# 1 59.9057 18.4295 -0.9360 0.0000 6.1261 0.0000
# 2 18.4295 53.1935 3.3269 0.0000 14.4552 0.0000
# 3 -0.9360 3.3269 15.0036 0.0000 4.5776 0.0000
# 4 0.0000 0.0000 0.0000 16.1204 0.0000 -2.5395
# 5 6.1261 14.4552 4.5776 0.0000 14.2900 0.0000
# 6 0.0000 0.0000 0.0000 -2.5395 0.0000 20.5795
#
#
#
# Elastic Compliance Matrix: (Units=1/GPa)
#
#
# Indices 1 2 3 4 5 6 
#
# 1 0.018888 -0.005873 0.003479 0.000000 -0.003271 0.000000
# 2 -0.005873 0.027837 0.001423 0.000000 -0.026097 0.000000
# 3 0.003479 0.001423 0.074752 0.000000 -0.026877 0.000000
# 4 0.000000 0.000000 0.000000 0.063263 0.000000 0.007807
# 5 -0.003271 -0.026097 -0.026877 0.000000 0.106389 0.000000
# 6 0.000000 0.000000 0.000000 0.007807 0.000000 0.049555
#
#
# Mechanical properties :
#
#
# Convention : Reuss Voigt Hill
#
# Bulk Modulus (GPa) = 8.36572 18.86041 13.61307
# Shear Modulus (GPa) = 13.07285 17.35015 15.21150
#
# Velocity S-wave (km/s) = 2.68020 3.08769 2.89114
# Velocity P-wave (km/s) = 3.76496 4.80370 4.31570
#
# Compressibility (1/GPa) = 0.11953544
#
# Stress axis : x y z
#
# Youngs Moduli (GPa) = 52.94229 35.92384 13.37755
#
# Poissons Ratio (x) = 0.21097 -0.04653
# Poissons Ratio (y) = 0.31092 -0.01904
# Poissons Ratio (z) = -0.18416 -0.05113
#
# Static dielectric constant tensor:
#      x y z
#    x 1.650360 0.000000 0.001000 
#    y 0.000000 1.637490 0.000000 
#    z 0.001000 0.000000 1.656940 
# 
# From -- ./inp_files/184185.got.cif
#   From: 2010.05.17/outbox.cif.g08.bks.cpg/sg12_93_cif.got.tgz:184185.got - 2010.06.03 13:09:07.
