data_PCOD9174273
_publ_section_title
;
Structure prediction by ZEFSAII (Michael W. Deem and Ramdas Pophale) SiO2 
 PCOD9174273
Probable space group: C 2/M
;
_chemical_formula_sum "Si O2"
_cell_formula_units_Z 40
_cell_length_a 13.946779
_cell_length_b 14.108206
_cell_length_c 23.418028
_cell_angle_alpha 90.000000
_cell_angle_beta 158.738527
_cell_angle_gamma 90.000000
_cell_volume 1670.911178
_symmetry_space_group_name_H-M "C 2/M"
_symmetry_group_IT_number 12
_symmetry_cell_setting 'monoclinic'
loop_
_space_group_symop_operation_xyz
x,y,z
-x,y,-z
-x,-y,-z
x,-y,z
1/2+x,1/2+y,z
1/2-x,1/2+y,-z
1/2-x,1/2-y,-z
1/2+x,1/2-y,z
loop_
_atom_site_type_symbol
_atom_site_label
_atom_site_fract_x
_atom_site_fract_y
_atom_site_fract_z
Si Si1 0.238310 0.107807 0.395049
Si Si2 0.851296 0.886338 0.079660
Si Si3 0.678634 0.385639 0.152434
Si Si4 0.238649 0.312929 0.426921
Si Si5 0.294215 0.886400 0.721364
O O1 0.500000 0.107643 0.500000
O O2 0.258279 0.200025 0.444894
O O3 0.982970 0.129239 0.213770
O O4 0.219707 0.000000 0.408331
O O5 0.048186 0.853055 0.139064
O O6 0.846011 0.000000 0.071430
O O7 0.553252 0.856465 0.900478
O O8 0.675609 0.500000 0.150648
O O9 0.975393 0.354033 0.307791
O O10 0.500000 0.353264 0.000000
O O11 0.517794 0.360539 0.597316
O O12 0.205511 0.336464 0.340321
O O13 0.303846 0.000000 0.717127
#
# Coordination Sequence:
#
# PCOD9174273 Si02
#       5
#     8   8   8   8   8
#     4  10  21  39  58  77 109 153 202 236 257 316
#     4   9  19  35  58  84 112 149 186 227 278 330
#     4  10  18  32  54  87 121 144 173 226 293 347
#     4  11  19  32  54  87 111 146 181 224 290 328
#     4  10  18  31  53  85 118 141 176 227 286 343
#
# _framework density 23.939033999999999
#
# number of rings (size 3 to 8) (size 9 to 14) (size 15 to 20)
#    0.000    2.000    4.000    2.400    0.000    0.800 
#    0.000    1.000    0.000    3.000    0.000    4.200 
#    0.000    0.000    0.000    0.000    0.000    0.000 
#
# Total GULP energy -111972.926627 kJ/mol
# GULP energy per Si atom -5598.646331 kJ/mol
# Density = 2.388455 g / cm^3
# Si number density = 23.939034 Si / 1000 Ang^3
#
#
#
# Elastic Constant Matrix: (Units=GPa)
#
#
# Indices 1 2 3 4 5 6 
#
# 1 22.6877 18.8231 31.6442 0.0082 -2.7254 0.0046
# 2 18.8231 116.3946 19.5091 0.0584 5.7402 0.0041
# 3 31.6442 19.5091 195.6311 0.0615 11.5792 -0.0022
# 4 0.0082 0.0584 0.0615 -92.1297 0.0058 -19.0570
# 5 -2.7254 5.7402 11.5792 0.0058 30.3951 0.0021
# 6 0.0046 0.0041 -0.0022 -19.0570 0.0021 15.1144
#
#
#
# Elastic Compliance Matrix: (Units=1/GPa)
#
#
# Indices 1 2 3 4 5 6 
#
# 1 0.068969 -0.009931 -0.010888 -0.000002 0.012208 -0.000024
# 2 -0.009931 0.010222 0.000771 0.000005 -0.003115 0.000007
# 3 -0.010888 0.000771 0.007021 0.000002 -0.003797 0.000008
# 4 -0.000002 0.000005 0.000002 -0.008609 0.000000 -0.010855
# 5 0.012208 -0.003115 -0.003797 0.000000 0.036029 -0.000008
# 6 -0.000024 0.000007 0.000008 -0.010855 -0.000008 0.052476
#
#
# Mechanical properties :
#
#
# Convention : Reuss Voigt Hill
#
# Bulk Modulus (GPa) = 21.68426 52.74068 37.21247
# Shear Modulus (GPa) = 22.56575 8.32508 15.44542
#
# Velocity S-wave (km/s) = 3.07357 1.86686 2.54283
# Velocity P-wave (km/s) = 4.65548 5.16972 4.91932
#
# Compressibility (1/GPa) = 0.04611639
#
# Stress axis : x y z
#
# Youngs Moduli (GPa) = 14.49927 97.83074 142.43630
#
# Poissons Ratio (x) = 0.97151 1.55089
# Poissons Ratio (y) = 0.14399 -0.10986
# Poissons Ratio (z) = 0.15787 -0.07546
#
# Static dielectric constant tensor:
#      x y z
#    x 1.955050 0.000000 -0.061160 
#    y 0.000000 1.898470 -0.000010 
#    z -0.061160 -0.000010 1.892890 
# 
# From -- ./inp_files/361508.got.cif
#   From: 2010.05.17/outbox.cif.g08.bks.cpg/sg12_181_cif.got.tgz:361508.got - 2010.06.03 13:09:07.
