data_PCOD9174889
_publ_section_title
;
Structure prediction by ZEFSAII (Michael W. Deem and Ramdas Pophale) SiO2 
 PCOD9174889
Probable space group: C 2/M
;
_chemical_formula_sum "Si O2"
_cell_formula_units_Z 64
_cell_length_a 25.630752
_cell_length_b 8.853158
_cell_length_c 24.496277
_cell_angle_alpha 90.000000
_cell_angle_beta 133.781836
_cell_angle_gamma 90.000000
_cell_volume 4013.142527
_symmetry_space_group_name_H-M "C 2/M"
_symmetry_group_IT_number 12
_symmetry_cell_setting 'monoclinic'
loop_
_space_group_symop_operation_xyz
x,y,z
-x,y,-z
-x,-y,-z
x,-y,z
1/2+x,1/2+y,z
1/2-x,1/2+y,-z
1/2-x,1/2-y,-z
1/2+x,1/2-y,z
loop_
_atom_site_type_symbol
_atom_site_label
_atom_site_fract_x
_atom_site_fract_y
_atom_site_fract_z
Si Si1 0.834287 0.818432 0.344747
Si Si2 0.046058 0.818404 0.658813
Si Si3 0.685799 0.182976 0.183403
Si Si4 0.226008 0.316853 0.088785
Si Si5 0.029452 0.180779 0.081934
Si Si6 0.913727 0.681617 0.080592
Si Si7 0.938008 0.324089 0.501811
Si Si8 0.110965 0.816909 0.820866
O O1 0.887083 0.774056 0.332540
O O2 0.752996 0.774310 0.270608
O O3 0.867927 0.751077 0.424087
O O4 0.837041 0.000000 0.350042
O O5 0.065221 0.773442 0.734189
O O6 0.973324 0.751738 0.580340
O O7 0.041935 0.000000 0.653929
O O8 0.706263 0.228799 0.136186
O O9 0.610482 0.256866 0.145064
O O10 0.679063 0.000000 0.179185
O O11 0.227456 0.500000 0.090143
O O12 0.305871 0.267759 0.129085
O O13 0.162654 0.269355 0.001952
O O14 0.977079 0.255227 0.088356
O O15 0.028353 0.000000 0.086827
O O16 0.000000 0.219312 0.000000
O O17 0.915966 0.500000 0.082570
O O18 0.917348 0.745751 0.144048
O O19 0.925669 0.500000 0.502360
O O20 0.000000 0.307698 0.500000
O O21 0.110065 0.000000 0.824107
#
# Coordination Sequence:
#
# PCOD9174889 Si02
#       8
#     8   8   8   8   8   8   8   8
#     4   9  16  28  48  72  97 128 167 202 239 295
#     4   9  16  28  47  69  96 133 168 198 238 292
#     4  10  18  32  54  76  98 130 169 208 249 296
#     4   9  17  31  51  73  99 131 167 204 248 296
#     4  11  23  37  52  72  97 128 168 214 259 297
#     4  11  22  35  52  72  97 133 173 211 250 297
#     4   9  17  27  41  65 100 134 161 198 244 289
#     4  10  19  33  51  73 103 134 167 208 249 294
#
# _framework density 15.947602
#
# number of rings (size 3 to 8) (size 9 to 14) (size 15 to 20)
#    0.000    2.250    2.500    1.500    0.000    3.000 
#    0.000    1.250    0.000    0.000    0.000    0.875 
#    0.000    0.000    0.000    0.000    0.000    0.000 
#
# Total GULP energy -178471.638576 kJ/mol
# GULP energy per Si atom -5577.238706 kJ/mol
# Density = 1.591130 g / cm^3
# Si number density = 15.947602 Si / 1000 Ang^3
#
#
#
# Elastic Constant Matrix: (Units=GPa)
#
#
# Indices 1 2 3 4 5 6 
#
# 1 95.4036 32.7371 74.5257 0.0000 -11.5116 0.0000
# 2 32.7371 28.3583 51.4100 0.0000 -1.4845 0.0000
# 3 74.5257 51.4100 177.3182 0.0000 0.6546 0.0000
# 4 0.0000 0.0000 0.0000 19.1108 0.0000 -0.9567
# 5 -11.5116 -1.4845 0.6546 0.0000 16.0579 0.0000
# 6 0.0000 0.0000 0.0000 -0.9567 0.0000 14.8233
#
#
#
# Elastic Compliance Matrix: (Units=1/GPa)
#
#
# Indices 1 2 3 4 5 6 
#
# 1 0.020813 -0.015519 -0.004299 0.000000 0.013661 0.000000
# 2 -0.015519 0.086881 -0.018658 0.000000 -0.002333 0.000000
# 3 -0.004299 -0.018658 0.012876 0.000000 -0.005332 0.000000
# 4 0.000000 0.000000 0.000000 0.052496 0.000000 0.003388
# 5 0.013661 -0.002333 -0.005332 0.000000 0.072070 0.000000
# 6 0.000000 0.000000 0.000000 0.003388 0.000000 0.067680
#
#
# Mechanical properties :
#
#
# Convention : Reuss Voigt Hill
#
# Bulk Modulus (GPa) = 22.92620 68.71397 45.82009
# Shear Modulus (GPa) = 12.36680 19.49221 15.92950
#
# Velocity S-wave (km/s) = 2.78774 3.49988 3.16391
# Velocity P-wave (km/s) = 4.97686 7.71448 6.49162
#
# Compressibility (1/GPa) = 0.04361821
#
# Stress axis : x y z
#
# Youngs Moduli (GPa) = 48.04588 11.50994 77.66581
#
# Poissons Ratio (x) = 0.17862 0.33387
# Poissons Ratio (y) = 0.74562 1.44913
# Poissons Ratio (z) = 0.20654 0.21476
#
# Static dielectric constant tensor:
#      x y z
#    x 1.501850 0.000000 0.002160 
#    y 0.000000 1.533410 0.000000 
#    z 0.002160 0.000000 1.537850 
# 
# From -- ./inp_files/323772.got.cif
#   From: 2010.05.17/outbox.cif.g08.bks.cpg/sg12_162_cif.got.tgz:323772.got - 2010.06.03 13:09:07.
