data_PCOD9174638
_publ_section_title
;
Structure prediction by ZEFSAII (Michael W. Deem and Ramdas Pophale) SiO2 
 PCOD9174638
Probable space group: C 2/M
;
_chemical_formula_sum "Si O2"
_cell_formula_units_Z 44
_cell_length_a 14.880311
_cell_length_b 27.172888
_cell_length_c 5.274990
_cell_angle_alpha 90.000000
_cell_angle_beta 96.743369
_cell_angle_gamma 90.000000
_cell_volume 2118.139606
_symmetry_space_group_name_H-M "C 2/M"
_symmetry_group_IT_number 12
_symmetry_cell_setting 'monoclinic'
loop_
_space_group_symop_operation_xyz
x,y,z
-x,y,-z
-x,-y,-z
x,-y,z
1/2+x,1/2+y,z
1/2-x,1/2+y,-z
1/2-x,1/2-y,-z
1/2+x,1/2-y,z
loop_
_atom_site_type_symbol
_atom_site_label
_atom_site_fract_x
_atom_site_fract_y
_atom_site_fract_z
Si Si1 0.178233 0.704729 0.524439
Si Si2 0.098519 0.895144 0.738647
Si Si3 0.397642 0.500000 0.168278
Si Si4 0.221352 0.000000 0.370230
Si Si5 0.000000 0.182977 0.000000
Si Si6 0.644220 0.237430 0.012999
Si Si7 0.280575 0.606686 0.718251
O O1 0.250000 0.750000 0.500000
O O2 0.111251 0.722629 0.722985
O O3 0.222656 0.655265 0.645954
O O4 0.138795 0.697311 0.231632
O O5 0.174563 0.891539 0.988000
O O6 0.053853 0.948594 0.765238
O O7 0.030762 0.851849 0.782854
O O8 0.144533 0.892516 0.481065
O O9 0.357920 0.500000 0.871073
O O10 0.317906 0.500000 0.356439
O O11 0.266751 0.053151 0.334780
O O12 0.914198 0.216850 0.911915
O O13 0.750000 0.250000 0.000000
#
# Coordination Sequence:
#
# PCOD9174638 Si02
#       7
#     8   8   4   4   4   8   8
#     4  10  18  32  51  71 101 135 169 213 260 298
#     4  10  20  31  50  74 102 142 181 210 247 304
#     4   8  16  31  44  68 104 136 174 214 242 284
#     4   8  16  28  50  75 102 137 174 212 252 303
#     4  12  24  37  56  76 104 143 184 214 260 316
#     4  10  22  36  51  74 101 131 172 219 258 303
#     4  10  18  34  53  76 107 141 177 215 258 307
#
# _framework density 20.772946000000001
#
# number of rings (size 3 to 8) (size 9 to 14) (size 15 to 20)
#    0.000    2.182    0.000    5.455    0.000    3.273 
#    0.000    0.000    0.000    6.545    0.000    0.000 
#    0.000    4.364    0.000    0.364    0.000    0.000 
#
# Total GULP energy -122716.754448 kJ/mol
# GULP energy per Si atom -5578.034293 kJ/mol
# Density = 2.072567 g / cm^3
# Si number density = 20.772946 Si / 1000 Ang^3
#
#
#
# Elastic Constant Matrix: (Units=GPa)
#
#
# Indices 1 2 3 4 5 6 
#
# 1 27.4568 23.7703 -8.2285 0.0000 2.1387 0.0000
# 2 23.7703 138.0426 -4.1428 0.0000 11.6150 0.0000
# 3 -8.2285 -4.1428 122.9313 0.0000 -6.1701 0.0000
# 4 0.0000 0.0000 0.0000 -34.9503 0.0000 -33.6270
# 5 2.1387 11.6150 -6.1701 0.0000 15.4954 0.0000
# 6 0.0000 0.0000 0.0000 -33.6270 0.0000 11.5902
#
#
#
# Elastic Compliance Matrix: (Units=1/GPa)
#
#
# Indices 1 2 3 4 5 6 
#
# 1 0.043667 -0.007494 0.002704 0.000000 0.000667 0.000000
# 2 -0.007494 0.009018 -0.000495 0.000000 -0.005923 0.000000
# 3 0.002704 -0.000495 0.008468 0.000000 0.003370 0.000000
# 4 0.000000 0.000000 0.000000 -0.007546 0.000000 -0.021895
# 5 0.000667 -0.005923 0.003370 0.000000 0.070225 0.000000
# 6 0.000000 0.000000 0.000000 -0.021895 0.000000 0.022756
#
#
# Mechanical properties :
#
#
# Convention : Reuss Voigt Hill
#
# Bulk Modulus (GPa) = 19.76968 34.58097 27.17532
# Shear Modulus (GPa) = 28.73241 16.89583 22.81412
#
# Velocity S-wave (km/s) = 3.72313 2.85504 3.31760
# Velocity P-wave (km/s) = 5.29338 5.24896 5.27122
#
# Compressibility (1/GPa) = 0.05058252
#
# Stress axis : x y z
#
# Youngs Moduli (GPa) = 22.90045 110.88815 118.09079
#
# Poissons Ratio (x) = 0.83103 -0.31930
# Poissons Ratio (y) = 0.17162 0.05845
# Poissons Ratio (z) = -0.06192 0.05489
#
# Static dielectric constant tensor:
#      x y z
#    x 1.798460 0.000000 0.097740 
#    y 0.000000 1.825500 0.000000 
#    z 0.097740 0.000000 1.937360 
# 
# From -- ./inp_files/12186.got.cif
#   From: 2010.05.17/outbox.cif.g08.bks.cpg/sg12_7_cif.got.tgz:12186.got - 2010.06.03 13:09:07.
