data_PCOD9174585
_publ_section_title
;
Structure prediction by ZEFSAII (Michael W. Deem and Ramdas Pophale) SiO2 
 PCOD9174585
Probable space group: C 2/M
;
_chemical_formula_sum "Si O2"
_cell_formula_units_Z 36
_cell_length_a 20.218379
_cell_length_b 14.976909
_cell_length_c 20.059720
_cell_angle_alpha 90.000000
_cell_angle_beta 165.725374
_cell_angle_gamma 90.000000
_cell_volume 1497.729426
_symmetry_space_group_name_H-M "C 2/M"
_symmetry_group_IT_number 12
_symmetry_cell_setting 'monoclinic'
loop_
_space_group_symop_operation_xyz
x,y,z
-x,y,-z
-x,-y,-z
x,-y,z
1/2+x,1/2+y,z
1/2-x,1/2+y,-z
1/2-x,1/2-y,-z
1/2+x,1/2-y,z
loop_
_atom_site_type_symbol
_atom_site_label
_atom_site_fract_x
_atom_site_fract_y
_atom_site_fract_z
Si Si1 0.925943 0.337417 0.669167
Si Si2 0.658465 0.000000 0.753887
Si Si3 0.130956 0.000000 0.319597
Si Si4 0.420844 0.813112 0.811811
Si Si5 0.266045 0.000000 0.718730
Si Si6 0.112521 0.305072 0.709471
O O1 0.750000 0.250000 0.500000
O O2 0.717065 0.415944 0.448006
O O3 0.039224 0.339029 0.854028
O O4 0.125687 0.327963 0.802002
O O5 0.348099 0.000000 0.472267
O O6 0.685566 0.098797 0.747869
O O7 0.849367 0.000000 0.006544
O O8 0.185063 0.737637 0.587172
O O9 0.293574 0.906792 0.707715
O O10 0.671264 0.770748 0.095685
O O11 0.000000 0.000000 0.500000
O O12 0.500000 0.000000 0.000000
#
# Coordination Sequence:
#
# PCOD9174585 Si02
#       6
#     8   4   4   8   4   8
#     4   9  18  32  51  81 122 157 194 240 291 371
#     4  10  18  32  49  80 122 156 182 217 272 360
#     4  10  19  28  44  70 112 166 194 217 272 338
#     4  11  22  38  60  86 114 158 207 257 314 360
#     4  12  27  48  67  88 118 162 224 282 310 342
#     4  10  20  34  57  90 125 159 192 235 304 390
#
# _framework density 24.036384000000002
#
# number of rings (size 3 to 8) (size 9 to 14) (size 15 to 20)
#    0.000    1.778    0.000    6.667    0.000    5.333 
#    0.000    5.556    0.000    0.000    0.000   15.556 
#    0.000    0.000    0.000    0.000    0.000    0.000 
#
# Total GULP energy -100396.088758 kJ/mol
# GULP energy per Si atom -5577.560487 kJ/mol
# Density = 2.398168 g / cm^3
# Si number density = 24.036384 Si / 1000 Ang^3
#
#
#
# Elastic Constant Matrix: (Units=GPa)
#
#
# Indices 1 2 3 4 5 6 
#
# 1 33.7627 7.3029 4.4666 0.0551 4.4153 0.0118
# 2 7.3029 186.8234 12.6140 0.2775 5.6792 0.1082
# 3 4.4666 12.6140 79.7712 0.2473 12.4812 0.1049
# 4 0.0551 0.2775 0.2473 41.4516 0.1015 6.2237
# 5 4.4153 5.6792 12.4812 0.1015 25.6271 -0.0021
# 6 0.0118 0.1082 0.1049 6.2237 -0.0021 -3.0378
#
#
#
# Elastic Compliance Matrix: (Units=1/GPa)
#
#
# Indices 1 2 3 4 5 6 
#
# 1 0.030550 -0.000997 -0.000827 -0.000020 -0.004640 0.000016
# 2 -0.000997 0.005460 -0.000698 -0.000042 -0.000698 0.000082
# 3 -0.000827 -0.000698 0.013689 -0.000098 -0.006369 0.000249
# 4 -0.000020 -0.000042 -0.000098 0.018451 -0.000010 0.037795
# 5 -0.004640 -0.000698 -0.006369 -0.000010 0.043077 -0.000312
# 6 0.000016 0.000082 0.000249 0.037795 -0.000312 -0.251738
#
#
# Mechanical properties :
#
#
# Convention : Reuss Voigt Hill
#
# Bulk Modulus (GPa) = 22.39418 38.79157 30.59288
# Shear Modulus (GPa) = -41.46600 31.20642 -5.12979
#
# Velocity S-wave (km/s) = -4.15798 3.60710 -1.46247
# Velocity P-wave (km/s) = 3.70334 5.78982 3.14700
#
# Compressibility (1/GPa) = 0.04465446
#
# Stress axis : x y z
#
# Youngs Moduli (GPa) = 32.73283 183.14976 73.05063
#
# Poissons Ratio (x) = 0.18266 0.06041
# Poissons Ratio (y) = 0.03265 0.05101
# Poissons Ratio (z) = 0.02707 0.12790
#
# Static dielectric constant tensor:
#      x y z
#    x 2.038040 0.000070 -0.045040 
#    y 0.000070 1.719800 0.000160 
#    z -0.045040 0.000160 1.860820 
# 
# From -- ./inp_files/369668.got.cif
#   From: 2010.05.17/outbox.cif.g08.bks.cpg/sg12_185_cif.got.tgz:369668.got - 2010.06.03 13:09:07.
