data_PCOD9174266
_publ_section_title
;
Structure prediction by ZEFSAII (Michael W. Deem and Ramdas Pophale) SiO2 
 PCOD9174266
Probable space group: C 2/M
;
_chemical_formula_sum "Si O2"
_cell_formula_units_Z 56
_cell_length_a 28.338132
_cell_length_b 14.244150
_cell_length_c 7.486619
_cell_angle_alpha 90.000000
_cell_angle_beta 102.897393
_cell_angle_gamma 90.000000
_cell_volume 2945.752440
_symmetry_space_group_name_H-M "C 2/M"
_symmetry_group_IT_number 12
_symmetry_cell_setting 'monoclinic'
loop_
_space_group_symop_operation_xyz
x,y,z
-x,y,-z
-x,-y,-z
x,-y,z
1/2+x,1/2+y,z
1/2-x,1/2+y,-z
1/2-x,1/2-y,-z
1/2+x,1/2-y,z
loop_
_atom_site_type_symbol
_atom_site_label
_atom_site_fract_x
_atom_site_fract_y
_atom_site_fract_z
Si Si1 0.344900 0.606102 0.914344
Si Si2 0.138464 0.890583 0.666038
Si Si3 0.555640 0.259170 0.493699
Si Si4 0.057427 0.600975 0.009812
Si Si5 0.118264 0.395548 0.427670
Si Si6 0.693698 0.266700 0.423582
Si Si7 0.444697 0.306390 0.928605
O O1 0.331166 0.500000 0.849810
O O2 0.318264 0.684753 0.775636
O O3 0.402419 0.621055 0.933193
O O4 0.337807 0.617632 0.119287
O O5 0.086461 0.839051 0.618095
O O6 0.171290 0.838114 0.549420
O O7 0.132622 0.000000 0.618068
O O8 0.500000 0.254075 0.500000
O O9 0.583755 0.160390 0.535884
O O10 0.559371 0.281651 0.285061
O O11 0.067761 0.500000 0.922696
O O12 0.087807 0.596081 0.218583
O O13 0.064807 0.710564 0.962573
O O14 0.000000 0.599885 0.000000
O O15 0.131160 0.500000 0.498566
O O16 0.163944 0.329627 0.424795
O O17 0.750000 0.250000 0.500000
O O18 0.500000 0.337595 0.000000
#
# Coordination Sequence:
#
# PCOD9174266 Si02
#       7
#     8   8   8   8   8   8   8
#     4  11  22  39  62  89 120 157 200 248 303 363
#     4  10  22  40  62  90 123 157 199 249 298 359
#     4  10  19  33  53  85 124 167 200 246 294 351
#     4   8  13  24  46  74 105 144 188 229 278 339
#     4   9  18  34  54  82 115 154 201 244 295 357
#     4  11  23  41  65  88 117 158 199 254 313 360
#     4  10  18  31  53  83 120 162 200 242 288 356
#
# _framework density 19.010422999999999
#
# number of rings (size 3 to 8) (size 9 to 14) (size 15 to 20)
#    0.000    2.143    4.286    1.286    0.000    2.571 
#    0.000    0.000    0.000   12.000    0.000    0.000 
#    0.000    0.000    0.000    0.000    0.000    0.000 
#
# Total GULP energy -156047.196189 kJ/mol
# GULP energy per Si atom -5573.114150 kJ/mol
# Density = 1.896715 g / cm^3
# Si number density = 19.010423 Si / 1000 Ang^3
#
#
#
# Elastic Constant Matrix: (Units=GPa)
#
#
# Indices 1 2 3 4 5 6 
#
# 1 92.4449 55.7844 28.5336 0.0000 27.9299 0.0000
# 2 55.7844 148.0251 40.2638 0.0000 12.1806 0.0000
# 3 28.5336 40.2638 55.7193 0.0000 10.5128 0.0000
# 4 0.0000 0.0000 0.0000 60.2766 0.0000 46.4721
# 5 27.9299 12.1806 10.5128 0.0000 24.9344 0.0000
# 6 0.0000 0.0000 0.0000 46.4721 0.0000 53.6573
#
#
#
# Elastic Compliance Matrix: (Units=1/GPa)
#
#
# Indices 1 2 3 4 5 6 
#
# 1 0.020957 -0.005445 -0.003118 0.000000 -0.019500 0.000000
# 2 -0.005445 0.009888 -0.004994 0.000000 0.003374 0.000000
# 3 -0.003118 -0.004994 0.023937 0.000000 -0.004160 0.000000
# 4 0.000000 0.000000 0.000000 0.049931 0.000000 -0.043245
# 5 -0.019500 0.003374 -0.004160 0.000000 0.062054 0.000000
# 6 0.000000 0.000000 0.000000 -0.043245 0.000000 0.056091
#
#
# Mechanical properties :
#
#
# Convention : Reuss Voigt Hill
#
# Bulk Modulus (GPa) = 36.14175 60.59477 48.36826
# Shear Modulus (GPa) = 19.29056 39.21414 29.25235
#
# Velocity S-wave (km/s) = 3.18895 4.54670 3.92695
# Velocity P-wave (km/s) = 5.71069 7.71408 6.78672
#
# Compressibility (1/GPa) = 0.02766883
#
# Stress axis : x y z
#
# Youngs Moduli (GPa) = 47.71735 101.12988 41.77569
#
# Poissons Ratio (x) = 0.55065 0.13026
# Poissons Ratio (y) = 0.25982 0.20862
# Poissons Ratio (z) = 0.14879 0.50501
#
# Static dielectric constant tensor:
#      x y z
#    x 1.697550 0.000000 -0.076430 
#    y 0.000000 1.720400 0.000000 
#    z -0.076430 0.000000 1.745580 
# 
# From -- ./inp_files/104103.got.cif
#   From: 2010.05.17/outbox.cif.g08.bks.cpg/sg12_53_cif.got.tgz:104103.got - 2010.06.03 13:09:07.
