data_PCOD9174882
_publ_section_title
;
Structure prediction by ZEFSAII (Michael W. Deem and Ramdas Pophale) SiO2 
 PCOD9174882
Probable space group: C 2/M
;
_chemical_formula_sum "Si O2"
_cell_formula_units_Z 44
_cell_length_a 27.467721
_cell_length_b 7.477519
_cell_length_c 12.060029
_cell_angle_alpha 90.000000
_cell_angle_beta 52.511598
_cell_angle_gamma 90.000000
_cell_volume 1965.452724
_symmetry_space_group_name_H-M "C 2/M"
_symmetry_group_IT_number 12
_symmetry_cell_setting 'monoclinic'
loop_
_space_group_symop_operation_xyz
x,y,z
-x,y,-z
-x,-y,-z
x,-y,z
1/2+x,1/2+y,z
1/2-x,1/2+y,-z
1/2-x,1/2-y,-z
1/2+x,1/2-y,z
loop_
_atom_site_type_symbol
_atom_site_label
_atom_site_fract_x
_atom_site_fract_y
_atom_site_fract_z
Si Si1 0.500000 0.753014 0.500000
Si Si2 0.795789 0.715241 0.733023
Si Si3 0.843336 0.784011 0.092894
Si Si4 0.059603 0.710328 0.855028
Si Si5 0.411734 0.780451 0.432155
Si Si6 0.888621 0.210010 0.792067
O O1 0.458097 0.691418 0.454810
O O2 0.441948 0.815642 0.654897
O O3 0.793703 0.500000 0.741219
O O4 0.726851 0.780189 0.810256
O O5 0.843253 0.762256 0.569141
O O6 0.827007 0.777352 0.804160
O O7 0.882451 0.729803 0.144741
O O8 0.842059 0.000000 0.091565
O O9 0.876337 0.727153 0.933301
O O10 0.047449 0.500000 0.855777
O O11 0.073796 0.778205 0.712337
O O12 0.000000 0.787710 0.000000
O O13 0.419267 0.000000 0.431543
O O14 0.907251 0.000000 0.766698
#
# Coordination Sequence:
#
# PCOD9174882 Si02
#       6
#     4   8   8   8   8   8
#     4  10  18  32  54  76 103 134 167 206 257 304
#     4   9  19  35  54  76 102 133 171 211 251 300
#     4  10  21  36  53  75 104 137 170 207 253 301
#     4  10  21  36  53  76 104 133 170 211 249 298
#     4   9  18  33  53  77 103 132 169 211 252 298
#     4  10  20  33  51  77 107 134 167 211 254 299
#
# _framework density 22.386700000000001
#
# number of rings (size 3 to 8) (size 9 to 14) (size 15 to 20)
#    0.000    2.364    0.000    2.182    0.000    3.273 
#    0.000    4.545    0.000    0.000    0.000    0.000 
#    0.000    0.000    0.000    0.000    0.000    0.000 
#
# Total GULP energy -122667.490622 kJ/mol
# GULP energy per Si atom -5575.795028 kJ/mol
# Density = 2.233575 g / cm^3
# Si number density = 22.386700 Si / 1000 Ang^3
#
#
#
# Elastic Constant Matrix: (Units=GPa)
#
#
# Indices 1 2 3 4 5 6 
#
# 1 131.7762 2.6107 104.2205 0.0000 5.0591 0.0000
# 2 2.6107 78.5854 22.7702 0.0000 0.4911 0.0000
# 3 104.2205 22.7702 175.1889 0.0000 34.3839 0.0000
# 4 0.0000 0.0000 0.0000 -35.1724 0.0000 -0.6341
# 5 5.0591 0.4911 34.3839 0.0000 44.5943 0.0000
# 6 0.0000 0.0000 0.0000 -0.6341 0.0000 18.8272
#
#
#
# Elastic Compliance Matrix: (Units=1/GPa)
#
#
# Indices 1 2 3 4 5 6 
#
# 1 0.016282 0.002718 -0.011396 0.000000 0.006909 0.000000
# 2 0.002718 0.013750 -0.003905 0.000000 0.002551 0.000000
# 3 -0.011396 -0.003905 0.015003 0.000000 -0.010232 0.000000
# 4 0.000000 0.000000 0.000000 -0.028414 0.000000 -0.000957
# 5 0.006909 0.002551 -0.010232 0.000000 0.029502 0.000000
# 6 0.000000 0.000000 0.000000 -0.000957 0.000000 0.053082
#
#
# Mechanical properties :
#
#
# Convention : Reuss Voigt Hill
#
# Bulk Modulus (GPa) = 50.32575 71.63924 60.98249
# Shear Modulus (GPa) = 38.16954 22.71309 30.44132
#
# Velocity S-wave (km/s) = 4.13366 3.18870 3.69154
# Velocity P-wave (km/s) = 6.73141 6.75480 6.74311
#
# Compressibility (1/GPa) = 0.01987054
#
# Stress axis : x y z
#
# Youngs Moduli (GPa) = 61.41642 72.72633 66.65217
#
# Poissons Ratio (x) = -0.19766 0.75955
# Poissons Ratio (y) = -0.16692 0.26026
# Poissons Ratio (z) = 0.69989 0.28397
#
# Static dielectric constant tensor:
#      x y z
#    x 1.757270 0.000000 -0.017700 
#    y 0.000000 1.931050 0.000000 
#    z -0.017700 0.000000 1.805450 
# 
# From -- ./inp_files/171947.got.cif
#   From: 2010.05.17/outbox.cif.g08.bks.cpg/sg12_86_cif.got.tgz:171947.got - 2010.06.03 13:09:07.
