data_PCOD9174642
_publ_section_title
;
Structure prediction by ZEFSAII (Michael W. Deem and Ramdas Pophale) SiO2 
 PCOD9174642
Probable space group: C 2/M
;
_chemical_formula_sum "Si O2"
_cell_formula_units_Z 56
_cell_length_a 14.538371
_cell_length_b 17.714439
_cell_length_c 18.241394
_cell_angle_alpha 90.000000
_cell_angle_beta 40.930853
_cell_angle_gamma 90.000000
_cell_volume 3077.800165
_symmetry_space_group_name_H-M "C 2/M"
_symmetry_group_IT_number 12
_symmetry_cell_setting 'monoclinic'
loop_
_space_group_symop_operation_xyz
x,y,z
-x,y,-z
-x,-y,-z
x,-y,z
1/2+x,1/2+y,z
1/2-x,1/2+y,-z
1/2-x,1/2-y,-z
1/2+x,1/2-y,z
loop_
_atom_site_type_symbol
_atom_site_label
_atom_site_fract_x
_atom_site_fract_y
_atom_site_fract_z
Si Si1 0.922423 0.914329 0.261101
Si Si2 0.360433 0.809815 0.825273
Si Si3 0.617993 0.341065 0.867322
Si Si4 0.931747 0.587624 0.914615
Si Si5 0.710148 0.645255 0.147422
Si Si6 0.299267 0.183158 0.245777
Si Si7 0.675178 0.745346 0.622517
O O1 0.907343 0.898462 0.183535
O O2 0.843010 0.843052 0.345781
O O3 0.082903 0.901777 0.190253
O O4 0.878131 0.000000 0.305411
O O5 0.271585 0.845162 0.812182
O O6 0.355691 0.865369 0.896439
O O7 0.289099 0.729618 0.885846
O O8 0.521142 0.785230 0.711792
O O9 0.614032 0.256268 0.836080
O O10 0.500000 0.349052 0.000000
O O11 0.920444 0.500000 0.907440
O O12 0.091020 0.615532 0.814788
O O13 0.855332 0.607388 0.036764
O O14 0.694306 0.659749 0.244083
O O15 0.248262 0.211259 0.355940
O O16 0.750000 0.750000 0.500000
#
# Coordination Sequence:
#
# PCOD9174642 Si02
#       7
#     8   8   8   8   8   8   8
#     4  10  21  34  51  79 108 134 171 218 264 310
#     4   9  19  34  52  76 101 137 184 217 249 310
#     4  10  18  32  54  77 107 143 173 205 251 314
#     4  11  20  29  47  76 110 142 169 207 261 313
#     4  10  18  32  51  72 105 143 171 202 252 320
#     4   9  19  33  50  75 101 133 179 216 250 309
#     4   9  19  39  61  75  95 134 180 225 268 308
#
# _framework density 18.194813
#
# number of rings (size 3 to 8) (size 9 to 14) (size 15 to 20)
#    0.000    2.286    0.000    4.714    0.000    2.571 
#    0.000   14.286    0.000    1.714    0.000    0.000 
#    0.000    0.000    0.000    0.000    0.000    0.000 
#
# Total GULP energy -156072.666781 kJ/mol
# GULP energy per Si atom -5574.023814 kJ/mol
# Density = 1.815340 g / cm^3
# Si number density = 18.194813 Si / 1000 Ang^3
#
#
#
# Elastic Constant Matrix: (Units=GPa)
#
#
# Indices 1 2 3 4 5 6 
#
# 1 88.9389 35.4641 21.5635 -0.0001 25.2980 0.0001
# 2 35.4641 91.6242 33.0470 0.0000 16.1266 0.0000
# 3 21.5635 33.0470 96.0296 -0.0001 29.6857 0.0001
# 4 -0.0001 0.0000 -0.0001 9.7854 0.0001 -0.6069
# 5 25.2980 16.1266 29.6857 0.0001 21.0115 -0.0001
# 6 0.0001 0.0000 0.0001 -0.6069 -0.0001 5.2259
#
#
#
# Elastic Compliance Matrix: (Units=1/GPa)
#
#
# Indices 1 2 3 4 5 6 
#
# 1 0.019912 -0.004827 0.006135 0.000000 -0.028938 -0.000001
# 2 -0.004827 0.014107 -0.003942 0.000000 0.000554 0.000000
# 3 0.006135 -0.003942 0.020844 0.000000 -0.033811 -0.000001
# 4 0.000000 0.000000 0.000000 0.102935 -0.000002 0.011955
# 5 -0.028938 0.000554 -0.033811 -0.000002 0.129779 0.000002
# 6 -0.000001 0.000000 -0.000001 0.011955 0.000002 0.192744
#
#
# Mechanical properties :
#
#
# Convention : Reuss Voigt Hill
#
# Bulk Modulus (GPa) = 20.16271 50.74910 35.45590
# Shear Modulus (GPa) = 9.95780 19.63909 14.79845
#
# Velocity S-wave (km/s) = 2.34196 3.28895 2.85499
# Velocity P-wave (km/s) = 4.29169 6.50965 5.51336
#
# Compressibility (1/GPa) = 0.04959651
#
# Stress axis : x y z
#
# Youngs Moduli (GPa) = 50.22122 70.88825 47.97458
#
# Poissons Ratio (x) = 0.34216 -0.29434
# Poissons Ratio (y) = 0.24241 0.18911
# Poissons Ratio (z) = -0.30813 0.27943
#
# Static dielectric constant tensor:
#      x y z
#    x 1.688910 0.000000 0.023360 
#    y 0.000000 1.609680 0.000000 
#    z 0.023360 0.000000 1.608420 
# 
# From -- ./inp_files/145481.got.cif
#   From: 2010.05.17/outbox.cif.g08.bks.cpg/sg12_73_cif.got.tgz:145481.got - 2010.06.03 13:09:07.
