data_PCOD9174792
_publ_section_title
;
Structure prediction by ZEFSAII (Michael W. Deem and Ramdas Pophale) SiO2 
 PCOD9174792
Probable space group: C 2/M
;
_chemical_formula_sum "Si O2"
_cell_formula_units_Z 64
_cell_length_a 19.774771
_cell_length_b 7.353397
_cell_length_c 22.974097
_cell_angle_alpha 90.000000
_cell_angle_beta 132.021664
_cell_angle_gamma 90.000000
_cell_volume 2481.781102
_symmetry_space_group_name_H-M "C 2/M"
_symmetry_group_IT_number 12
_symmetry_cell_setting 'monoclinic'
loop_
_space_group_symop_operation_xyz
x,y,z
-x,y,-z
-x,-y,-z
x,-y,z
1/2+x,1/2+y,z
1/2-x,1/2+y,-z
1/2-x,1/2-y,-z
1/2+x,1/2-y,z
loop_
_atom_site_type_symbol
_atom_site_label
_atom_site_fract_x
_atom_site_fract_y
_atom_site_fract_z
Si Si1 0.102931 0.279164 0.120491
Si Si2 0.325565 0.794508 0.628303
Si Si3 0.445545 0.222330 0.118697
Si Si4 0.373299 0.221706 0.530792
Si Si5 0.930163 0.717444 0.362167
Si Si6 0.892260 0.288327 0.210279
Si Si7 0.762183 0.283783 0.708519
Si Si8 0.312824 0.780495 0.947508
O O1 0.095486 0.500000 0.113828
O O2 0.196338 0.223910 0.206544
O O3 0.114763 0.221739 0.060785
O O4 0.024698 0.220480 0.119923
O O5 0.374162 0.720037 0.599354
O O6 0.218394 0.798397 0.549204
O O7 0.320044 0.706822 0.688274
O O8 0.360903 0.000000 0.654893
O O9 0.447922 0.286109 0.186747
O O10 0.447923 0.000000 0.122068
O O11 0.352055 0.277629 0.032347
O O12 0.469945 0.278155 0.560736
O O13 0.363908 0.000000 0.523499
O O14 0.936592 0.500000 0.362334
O O15 0.907210 0.788299 0.283639
O O16 0.844940 0.752832 0.354380
O O17 0.916759 0.500000 0.229208
O O18 0.787177 0.278333 0.129373
O O19 0.775456 0.500000 0.713698
O O20 0.311480 0.000000 0.946565
#
# Coordination Sequence:
#
# PCOD9174792 Si02
#       8
#     8   8   8   8   8   8   8   8
#     4   9  17  30  50  76 102 129 167 213 253 292
#     4   9  19  35  56  81 105 130 166 210 252 295
#     4   9  18  30  50  77 100 129 172 215 252 296
#     4   9  19  36  56  78 104 135 169 204 248 299
#     4  10  21  35  52  74 103 138 172 206 246 301
#     4  10  20  33  50  74 103 135 169 208 253 300
#     4  10  20  34  54  78 103 134 169 210 255 296
#     4  10  18  32  53  75 101 132 168 211 256 301
#
# _framework density 25.787931
#
# number of rings (size 3 to 8) (size 9 to 14) (size 15 to 20)
#    0.000    2.500    1.250    0.750    1.750    3.000 
#    0.000    2.500    0.000    3.750    0.000    0.000 
#    0.000    0.000    0.000    0.000    0.000    0.000 
#
# Total GULP energy -178835.268617 kJ/mol
# GULP energy per Si atom -5588.602144 kJ/mol
# Density = 2.572924 g / cm^3
# Si number density = 25.787931 Si / 1000 Ang^3
#
#
#
# Elastic Constant Matrix: (Units=GPa)
#
#
# Indices 1 2 3 4 5 6 
#
# 1 106.7915 -6.3638 1.8695 0.0000 6.8560 0.0000
# 2 -6.3638 100.0474 -4.1163 0.0000 -5.3010 0.0000
# 3 1.8695 -4.1163 32.9696 0.0000 1.4883 0.0000
# 4 0.0000 0.0000 0.0000 6.1196 0.0000 5.5317
# 5 6.8560 -5.3010 1.4883 0.0000 47.1728 0.0000
# 6 0.0000 0.0000 0.0000 5.5317 0.0000 5.3363
#
#
#
# Elastic Compliance Matrix: (Units=1/GPa)
#
#
# Indices 1 2 3 4 5 6 
#
# 1 0.009486 0.000517 -0.000414 0.000000 -0.001308 0.000000
# 2 0.000517 0.010131 0.001189 -0.000001 0.001026 0.000001
# 3 -0.000414 0.001189 0.030538 0.000000 -0.000770 0.000000
# 4 0.000000 -0.000001 0.000000 2.594625 0.000000 -2.689611
# 5 -0.001308 0.001026 -0.000770 0.000000 0.021528 0.000000
# 6 0.000000 0.000001 0.000000 -2.689611 0.000000 2.975469
#
#
# Mechanical properties :
#
#
# Convention : Reuss Voigt Hill
#
# Bulk Modulus (GPa) = 18.96121 24.73192 21.84656
# Shear Modulus (GPa) = 0.88390 28.28701 14.58545
#
# Velocity S-wave (km/s) = 0.58609 3.31555 2.38080
# Velocity P-wave (km/s) = 2.79763 4.92631 4.00595
#
# Compressibility (1/GPa) = 0.05273926
#
# Stress axis : x y z
#
# Youngs Moduli (GPa) = 105.41801 98.70266 32.74642
#
# Poissons Ratio (x) = -0.05104 0.01357
# Poissons Ratio (y) = -0.05451 -0.03895
# Poissons Ratio (z) = 0.04368 -0.11739
#
# Static dielectric constant tensor:
#      x y z
#    x 2.013370 0.000000 0.004450 
#    y 0.000000 2.059690 0.000000 
#    z 0.004450 0.000000 2.024510 
# 
# From -- ./inp_files/276572.got.cif
#   From: 2010.05.17/outbox.cif.g08.bks.cpg/sg12_139_cif.got.tgz:276572.got - 2010.06.03 13:09:07.
