data_PCOD9174256
_publ_section_title
;
Structure prediction by ZEFSAII (Michael W. Deem and Ramdas Pophale) SiO2 
 PCOD9174256
Probable space group: C 2/M
;
_chemical_formula_sum "Si O2"
_cell_formula_units_Z 48
_cell_length_a 15.679561
_cell_length_b 25.657597
_cell_length_c 9.687200
_cell_angle_alpha 90.000000
_cell_angle_beta 38.319469
_cell_angle_gamma 90.000000
_cell_volume 2416.416640
_symmetry_space_group_name_H-M "C 2/M"
_symmetry_group_IT_number 12
_symmetry_cell_setting 'monoclinic'
loop_
_space_group_symop_operation_xyz
x,y,z
-x,y,-z
-x,-y,-z
x,-y,z
1/2+x,1/2+y,z
1/2-x,1/2+y,-z
1/2-x,1/2-y,-z
1/2+x,1/2-y,z
loop_
_atom_site_type_symbol
_atom_site_label
_atom_site_fract_x
_atom_site_fract_y
_atom_site_fract_z
Si Si1 0.247880 0.438830 0.609477
Si Si2 0.922445 0.636700 0.360274
Si Si3 0.215458 0.215189 0.676363
Si Si4 0.563454 0.560313 0.156199
Si Si5 0.500000 0.634011 0.000000
Si Si6 0.500000 0.793331 0.000000
Si Si7 0.658283 0.061274 0.032287
O O1 0.227362 0.500000 0.606426
O O2 0.185627 0.404688 0.566148
O O3 0.412121 0.430250 0.412646
O O4 0.171645 0.427808 0.851254
O O5 0.845710 0.679548 0.554006
O O6 0.966646 0.671316 0.172703
O O7 0.051720 0.601114 0.237944
O O8 0.250000 0.250000 0.500000
O O9 0.101100 0.171757 0.788316
O O10 0.130146 0.256431 0.875962
O O11 0.565221 0.500000 0.108546
O O12 0.689392 0.567575 0.099643
O O13 0.579330 0.597743 0.005863
O O14 0.619030 0.000000 0.098842
#
# Coordination Sequence:
#
# PCOD9174256 Si02
#       7
#     8   8   8   8   4   4   8
#     4  10  18  31  53  82 112 145 183 215 259 330
#     4  11  17  32  56  83 106 140 180 224 273 323
#     4   9  20  34  55  82 102 136 188 229 272 315
#     4  10  21  35  54  82 114 148 183 216 262 330
#     4  11  19  38  61  76 103 150 189 219 264 332
#     4   9  18  32  54  82 104 138 186 229 268 318
#     4  10  20  33  52  84 120 144 171 223 277 319
#
# _framework density 19.864122999999999
#
# number of rings (size 3 to 8) (size 9 to 14) (size 15 to 20)
#    0.000    2.000    3.333    1.250    0.000    3.333 
#    0.000    0.833    0.000   13.000    0.000    0.000 
#    0.000    0.000    0.000    0.000    0.000    0.000 
#
# Total GULP energy -133669.645924 kJ/mol
# GULP energy per Si atom -5569.568580 kJ/mol
# Density = 1.981891 g / cm^3
# Si number density = 19.864123 Si / 1000 Ang^3
#
#
#
# Elastic Constant Matrix: (Units=GPa)
#
#
# Indices 1 2 3 4 5 6 
#
# 1 25.1893 16.7330 6.8454 0.0000 -11.2177 0.0000
# 2 16.7330 91.9445 49.3309 0.0000 -11.3095 0.0000
# 3 6.8454 49.3309 78.8745 0.0000 -21.8593 0.0000
# 4 0.0000 0.0000 0.0000 36.4003 0.0000 -3.1067
# 5 -11.2177 -11.3095 -21.8593 0.0000 25.7220 0.0000
# 6 0.0000 0.0000 0.0000 -3.1067 0.0000 4.8506
#
#
#
# Elastic Compliance Matrix: (Units=1/GPa)
#
#
# Indices 1 2 3 4 5 6 
#
# 1 0.058315 -0.013015 0.011173 0.000000 0.029204 0.000000
# 2 -0.013015 0.019350 -0.013327 0.000000 -0.008493 0.000000
# 3 0.011173 -0.013327 0.025861 0.000000 0.020991 0.000000
# 4 0.000000 0.000000 0.000000 0.029061 0.000000 0.018613
# 5 0.029204 -0.008493 0.020991 0.000000 0.065718 0.000000
# 6 0.000000 0.000000 0.000000 0.018613 0.000000 0.218082
#
#
# Mechanical properties :
#
#
# Convention : Reuss Voigt Hill
#
# Bulk Modulus (GPa) = 13.66347 37.98077 25.82212
# Shear Modulus (GPa) = 10.61302 21.60117 16.10710
#
# Velocity S-wave (km/s) = 2.31396 3.30122 2.85066
# Velocity P-wave (km/s) = 3.74601 5.80453 4.88493
#
# Compressibility (1/GPa) = 0.07318785
#
# Stress axis : x y z
#
# Youngs Moduli (GPa) = 17.14838 51.67928 38.66833
#
# Poissons Ratio (x) = 0.67260 -0.43203
# Poissons Ratio (y) = 0.22319 0.51532
# Poissons Ratio (z) = -0.19159 0.68871
#
# Static dielectric constant tensor:
#      x y z
#    x 1.676360 0.000000 -0.016140 
#    y 0.000000 1.702550 0.000000 
#    z -0.016140 0.000000 1.790600 
# 
# From -- ./inp_files/160709.got.cif
#   From: 2010.05.17/outbox.cif.g08.bks.cpg/sg12_81_cif.got.tgz:160709.got - 2010.06.03 13:09:07.
