data_PCOD9174905
_publ_section_title
;
Structure prediction by ZEFSAII (Michael W. Deem and Ramdas Pophale) SiO2 
 PCOD9174905
Probable space group: C 2/M
;
_chemical_formula_sum "Si O2"
_cell_formula_units_Z 56
_cell_length_a 20.228252
_cell_length_b 8.480351
_cell_length_c 24.925522
_cell_angle_alpha 90.000000
_cell_angle_beta 134.882854
_cell_angle_gamma 90.000000
_cell_volume 3029.616002
_symmetry_space_group_name_H-M "C 2/M"
_symmetry_group_IT_number 12
_symmetry_cell_setting 'monoclinic'
loop_
_space_group_symop_operation_xyz
x,y,z
-x,y,-z
-x,-y,-z
x,-y,z
1/2+x,1/2+y,z
1/2-x,1/2+y,-z
1/2-x,1/2-y,-z
1/2+x,1/2-y,z
loop_
_atom_site_type_symbol
_atom_site_label
_atom_site_fract_x
_atom_site_fract_y
_atom_site_fract_z
Si Si1 0.586367 0.190918 0.798348
Si Si2 0.431328 0.812076 0.795126
Si Si3 0.482649 0.309745 0.051238
Si Si4 0.434227 0.189752 0.626721
Si Si5 0.213436 0.186947 0.372204
Si Si6 0.226463 0.809133 0.045369
Si Si7 0.577968 0.310937 0.501142
O O1 0.525198 0.232210 0.815787
O O2 0.525209 0.244198 0.712709
O O3 0.691882 0.245982 0.867496
O O4 0.588658 0.000000 0.796803
O O5 0.447152 0.761143 0.865040
O O6 0.347422 0.731761 0.714851
O O7 0.419910 0.000000 0.784438
O O8 0.487395 0.500000 0.058924
O O9 0.500000 0.267245 0.000000
O O10 0.377531 0.255457 0.002287
O O11 0.343974 0.246268 0.609203
O O12 0.439517 0.250445 0.569302
O O13 0.431628 0.000000 0.624893
O O14 0.317011 0.255456 0.425773
O O15 0.219208 0.000000 0.381647
O O16 0.226956 0.000000 0.046557
O O17 0.250000 0.750000 0.000000
O O18 0.500000 0.256659 0.500000
O O19 0.575951 0.500000 0.499605
#
# Coordination Sequence:
#
# PCOD9174905 Si02
#       7
#     8   8   8   8   8   8   8
#     4   8  16  31  53  81 108 140 182 232 280 324
#     4  10  19  35  58  82 112 145 189 238 286 339
#     4  10  21  35  51  78 116 152 189 233 284 340
#     4  10  20  37  61  88 118 150 193 239 284 340
#     4  11  22  38  63  90 115 147 192 237 288 345
#     4  10  18  32  54  78 108 145 187 232 278 327
#     4  11  24  42  61  84 120 156 189 232 284 340
#
# _framework density 18.484190999999999
#
# number of rings (size 3 to 8) (size 9 to 14) (size 15 to 20)
#    0.000    2.000    1.429    3.857    0.000    1.429 
#    2.571    0.714    0.000    0.000    0.000    0.000 
#    0.000    0.000    0.000    0.000    0.000    0.000 
#
# Total GULP energy -156236.608367 kJ/mol
# GULP energy per Si atom -5579.878870 kJ/mol
# Density = 1.844212 g / cm^3
# Si number density = 18.484191 Si / 1000 Ang^3
#
#
#
# Elastic Constant Matrix: (Units=GPa)
#
#
# Indices 1 2 3 4 5 6 
#
# 1 125.5171 29.6961 76.3715 0.0000 -4.7342 0.0000
# 2 29.6961 49.6676 22.9868 0.0000 -2.9452 0.0000
# 3 76.3715 22.9868 130.3612 0.0000 -2.2838 0.0000
# 4 0.0000 0.0000 0.0000 24.1939 0.0000 -4.1204
# 5 -4.7342 -2.9452 -2.2838 0.0000 26.1059 0.0000
# 6 0.0000 0.0000 0.0000 -4.1204 0.0000 22.1333
#
#
#
# Elastic Compliance Matrix: (Units=1/GPa)
#
#
# Indices 1 2 3 4 5 6 
#
# 1 0.013376 -0.004687 -0.006987 0.000000 0.001286 0.000000
# 2 -0.004687 0.023685 -0.001401 0.000000 0.001700 0.000000
# 3 -0.006987 -0.001401 0.012005 0.000000 -0.000375 0.000000
# 4 0.000000 0.000000 0.000000 0.042686 0.000000 0.007947
# 5 0.001286 0.001700 -0.000375 0.000000 0.038698 0.000000
# 6 0.000000 0.000000 0.000000 0.007947 0.000000 0.046660
#
#
# Mechanical properties :
#
#
# Convention : Reuss Voigt Hill
#
# Bulk Modulus (GPa) = 43.63809 62.62831 53.13320
# Shear Modulus (GPa) = 23.70804 26.25271 24.98037
#
# Velocity S-wave (km/s) = 3.58524 3.77275 3.68019
# Velocity P-wave (km/s) = 6.38735 7.27556 6.84588
#
# Compressibility (1/GPa) = 0.02291576
#
# Stress axis : x y z
#
# Youngs Moduli (GPa) = 74.76139 42.22005 83.30013
#
# Poissons Ratio (x) = 0.19790 0.58203
# Poissons Ratio (y) = 0.35044 0.11667
# Poissons Ratio (z) = 0.52237 0.05913
#
# Static dielectric constant tensor:
#      x y z
#    x 1.660290 0.000000 0.004530 
#    y 0.000000 1.631480 0.000000 
#    z 0.004530 0.000000 1.649390 
# 
# From -- ./inp_files/342481.got.cif
#   From: 2010.05.17/outbox.cif.g08.bks.cpg/sg12_172_cif.got.tgz:342481.got - 2010.06.03 13:09:07.
