data_PCOD9174210
_publ_section_title
;
Structure prediction by ZEFSAII (Michael W. Deem and Ramdas Pophale) SiO2 
 PCOD9174210
Probable space group: C 2/M
;
_chemical_formula_sum "Si O2"
_cell_formula_units_Z 48
_cell_length_a 20.932766
_cell_length_b 7.707074
_cell_length_c 14.513462
_cell_angle_alpha 90.000000
_cell_angle_beta 90.364559
_cell_angle_gamma 90.000000
_cell_volume 2341.414894
_symmetry_space_group_name_H-M "C 2/M"
_symmetry_group_IT_number 12
_symmetry_cell_setting 'monoclinic'
loop_
_space_group_symop_operation_xyz
x,y,z
-x,y,-z
-x,-y,-z
x,-y,z
1/2+x,1/2+y,z
1/2-x,1/2+y,-z
1/2-x,1/2-y,-z
1/2+x,1/2-y,z
loop_
_atom_site_type_symbol
_atom_site_label
_atom_site_fract_x
_atom_site_fract_y
_atom_site_fract_z
Si Si1 0.260333 0.709182 0.607155
Si Si2 0.112741 0.787364 0.288364
Si Si3 0.436260 0.201510 0.111356
Si Si4 0.361507 0.796955 0.284426
Si Si5 0.513719 0.710282 0.604850
Si Si6 0.081359 0.199740 0.090594
O O1 0.260552 0.500000 0.613528
O O2 0.250000 0.750000 0.500000
O O3 0.327805 0.769684 0.649137
O O4 0.201760 0.777309 0.668846
O O5 0.115471 0.729624 0.182143
O O6 0.045666 0.733799 0.332603
O O7 0.112303 0.000000 0.286992
O O8 0.388823 0.274879 0.188269
O O9 0.505198 0.292580 0.111049
O O10 0.449273 0.000000 0.133520
O O11 0.409406 0.211089 0.007588
O O12 0.419986 0.780439 0.356059
O O13 0.348099 0.000000 0.266967
O O14 0.500000 0.761734 0.500000
O O15 0.517372 0.500000 0.607822
O O16 0.099890 0.000000 0.078611
#
# Coordination Sequence:
#
# PCOD9174210 Si02
#       6
#     8   8   8   8   8   8
#     4  10  21  39  57  76 105 142 180 215 260 315
#     4   9  18  33  53  77 104 136 175 218 261 305
#     4  10  19  32  50  77 109 139 168 210 266 317
#     4  10  21  35  53  77 107 141 172 211 266 318
#     4  10  19  32  53  78 102 132 175 223 263 304
#     4  10  18  31  53  79 103 135 175 217 261 307
#
# _framework density 20.500423999999999
#
# number of rings (size 3 to 8) (size 9 to 14) (size 15 to 20)
#    0.000    2.167    1.667    3.000    0.000    3.000 
#    0.000    3.333    0.000    0.000    0.000    0.000 
#    0.000    0.000    0.000    0.000    0.000    0.000 
#
# Total GULP energy -133986.352318 kJ/mol
# GULP energy per Si atom -5582.764680 kJ/mol
# Density = 2.045376 g / cm^3
# Si number density = 20.500424 Si / 1000 Ang^3
#
#
#
# Elastic Constant Matrix: (Units=GPa)
#
#
# Indices 1 2 3 4 5 6 
#
# 1 54.0058 -8.3795 -2.3869 0.0000 3.3481 0.0000
# 2 -8.3795 34.7215 -7.5390 0.0000 -2.9545 0.0000
# 3 -2.3869 -7.5390 102.4423 0.0000 5.6816 0.0000
# 4 0.0000 0.0000 0.0000 22.9130 0.0000 2.5728
# 5 3.3481 -2.9545 5.6816 0.0000 37.2771 0.0000
# 6 0.0000 0.0000 0.0000 2.5728 0.0000 13.6935
#
#
#
# Elastic Compliance Matrix: (Units=1/GPa)
#
#
# Indices 1 2 3 4 5 6 
#
# 1 0.019384 0.004742 0.000884 0.000000 -0.001500 0.000000
# 2 0.004742 0.030578 0.002269 0.000000 0.001652 0.000000
# 3 0.000884 0.002269 0.010028 0.000000 -0.001428 0.000000
# 4 0.000000 0.000000 0.000000 0.044584 0.000000 -0.008377
# 5 -0.001500 0.001652 -0.001428 0.000000 0.027309 0.000000
# 6 0.000000 0.000000 0.000000 -0.008377 0.000000 0.074601
#
#
# Mechanical properties :
#
#
# Convention : Reuss Voigt Hill
#
# Bulk Modulus (GPa) = 13.19573 17.17320 15.18447
# Shear Modulus (GPa) = 23.15292 28.74172 25.94732
#
# Velocity S-wave (km/s) = 3.36428 3.74840 3.56152
# Velocity P-wave (km/s) = 4.64133 5.20857 4.93311
#
# Compressibility (1/GPa) = 0.07578211
#
# Stress axis : x y z
#
# Youngs Moduli (GPa) = 51.58786 32.70288 99.71697
#
# Poissons Ratio (x) = -0.15509 -0.08813
# Poissons Ratio (y) = -0.24465 -0.22628
# Poissons Ratio (z) = -0.04560 -0.07421
#
# Static dielectric constant tensor:
#      x y z
#    x 1.699610 0.000000 -0.013910 
#    y 0.000000 1.773900 0.000000 
#    z -0.013910 0.000000 1.739250 
# 
# From -- ./inp_files/229309.got.cif
#   From: 2010.05.17/outbox.cif.g08.bks.cpg/sg12_115_cif.got.tgz:229309.got - 2010.06.03 13:09:07.
