data_PCOD9174165
_publ_section_title
;
Structure prediction by ZEFSAII (Michael W. Deem and Ramdas Pophale) SiO2 
 PCOD9174165
Probable space group: C 2/M
;
_chemical_formula_sum "Si O2"
_cell_formula_units_Z 56
_cell_length_a 25.965312
_cell_length_b 14.975132
_cell_length_c 8.075666
_cell_angle_alpha 90.000000
_cell_angle_beta 51.260907
_cell_angle_gamma 90.000000
_cell_volume 2449.284153
_symmetry_space_group_name_H-M "C 2/M"
_symmetry_group_IT_number 12
_symmetry_cell_setting 'monoclinic'
loop_
_space_group_symop_operation_xyz
x,y,z
-x,y,-z
-x,-y,-z
x,-y,z
1/2+x,1/2+y,z
1/2-x,1/2+y,-z
1/2-x,1/2-y,-z
1/2+x,1/2-y,z
loop_
_atom_site_type_symbol
_atom_site_label
_atom_site_fract_x
_atom_site_fract_y
_atom_site_fract_z
Si Si1 0.578244 0.706710 0.376675
Si Si2 0.205525 0.158531 0.607180
Si Si3 0.790409 0.144988 0.048786
Si Si4 0.229144 0.356177 0.841259
Si Si5 0.603752 0.098796 0.862115
Si Si6 0.072151 0.225301 0.775665
Si Si7 0.567730 0.901307 0.268704
O O1 0.500000 0.691997 0.500000
O O2 0.633701 0.647528 0.171220
O O3 0.581416 0.697559 0.567983
O O4 0.596606 0.808401 0.281382
O O5 0.250000 0.250000 0.500000
O O6 0.217262 0.116133 0.404369
O O7 0.128294 0.180305 0.775570
O O8 0.222301 0.107175 0.741879
O O9 0.746521 0.107667 0.987316
O O10 0.771960 0.249460 0.122380
O O11 0.163569 0.382588 0.871701
O O12 0.593982 0.171538 0.744844
O O13 0.608571 0.000000 0.786548
O O14 0.547640 0.108144 0.114764
O O15 0.000000 0.212162 0.000000
O O16 0.500000 0.906916 0.500000
O O17 0.600176 0.000000 0.223151
#
# Coordination Sequence:
#
# PCOD9174165 Si02
#       7
#     8   8   8   8   8   8   8
#     4  11  20  31  48  71 102 135 170 216 261 312
#     4  10  18  33  53  75  99 131 171 220 264 315
#     4  10  18  31  53  75  95 128 166 216 267 316
#     4  10  19  33  52  75  96 131 176 216 271 305
#     4  11  22  36  50  69 103 142 184 222 252 306
#     4  12  22  33  50  76 107 140 179 216 265 311
#     4   9  17  30  44  59  87 131 176 210 242 284
#
# _framework density 22.863823
#
# number of rings (size 3 to 8) (size 9 to 14) (size 15 to 20)
#    0.000    1.571    5.714    2.571    0.000    0.857 
#    0.000    0.000    0.000    0.000    0.000    0.000 
#    0.000    1.143    0.000    0.000    0.000    0.000 
#
# Total GULP energy -155942.548634 kJ/mol
# GULP energy per Si atom -5569.376737 kJ/mol
# Density = 2.281178 g / cm^3
# Si number density = 22.863823 Si / 1000 Ang^3
#
#
#
# Elastic Constant Matrix: (Units=GPa)
#
#
# Indices 1 2 3 4 5 6 
#
# 1 111.3840 -1.6344 47.9786 0.0000 8.9611 0.0000
# 2 -1.6344 20.0190 -3.0605 0.0000 -1.0299 0.0000
# 3 47.9786 -3.0605 110.8692 0.0000 21.0578 0.0000
# 4 0.0000 0.0000 0.0000 -0.9334 0.0000 3.7272
# 5 8.9611 -1.0299 21.0578 0.0000 41.4340 0.0000
# 6 0.0000 0.0000 0.0000 3.7272 0.0000 6.1594
#
#
#
# Elastic Compliance Matrix: (Units=1/GPa)
#
#
# Indices 1 2 3 4 5 6 
#
# 1 0.011036 0.000173 -0.004780 0.000000 0.000047 0.000000
# 2 0.000173 0.050181 0.001196 0.000000 0.000602 0.000000
# 3 -0.004780 0.001196 0.012086 0.000000 -0.005079 0.000000
# 4 0.000000 0.000000 0.000000 -0.313601 0.000000 0.189765
# 5 0.000047 0.000602 -0.005079 0.000000 0.026721 0.000000
# 6 0.000000 0.000000 0.000000 0.189765 0.000000 0.047522
#
#
# Mechanical properties :
#
#
# Convention : Reuss Voigt Hill
#
# Bulk Modulus (GPa) = 15.04212 36.53775 25.78993
# Shear Modulus (GPa) = -36.47668 22.59790 -6.93939
#
# Velocity S-wave (km/s) = -3.99856 3.14724 -1.74404
# Velocity P-wave (km/s) = 3.83728 5.40575 2.69234
#
# Compressibility (1/GPa) = 0.06647999
#
# Stress axis : x y z
#
# Youngs Moduli (GPa) = 90.61581 19.92802 82.74215
#
# Poissons Ratio (x) = -0.00344 0.39549
# Poissons Ratio (y) = -0.01564 -0.09897
# Poissons Ratio (z) = 0.43312 -0.02384
#
# Static dielectric constant tensor:
#      x y z
#    x 1.949770 0.000000 -0.019380 
#    y 0.000000 1.921480 0.000000 
#    z -0.019380 0.000000 2.219890 
# 
# From -- ./inp_files/105557.got.cif
#   From: 2010.05.17/outbox.cif.g08.bks.cpg/sg12_53_cif.got.tgz:105557.got - 2010.06.03 13:09:07.
