data_PCOD9174803
_publ_section_title
;
Structure prediction by ZEFSAII (Michael W. Deem and Ramdas Pophale) SiO2 
 PCOD9174803
Probable space group: C 2/M
;
_chemical_formula_sum "Si O2"
_cell_formula_units_Z 64
_cell_length_a 26.041911
_cell_length_b 7.408107
_cell_length_c 16.842747
_cell_angle_alpha 90.000000
_cell_angle_beta 61.253095
_cell_angle_gamma 90.000000
_cell_volume 2848.853732
_symmetry_space_group_name_H-M "C 2/M"
_symmetry_group_IT_number 12
_symmetry_cell_setting 'monoclinic'
loop_
_space_group_symop_operation_xyz
x,y,z
-x,y,-z
-x,-y,-z
x,-y,z
1/2+x,1/2+y,z
1/2-x,1/2+y,-z
1/2-x,1/2-y,-z
1/2+x,1/2-y,z
loop_
_atom_site_type_symbol
_atom_site_label
_atom_site_fract_x
_atom_site_fract_y
_atom_site_fract_z
Si Si1 0.163170 0.720579 0.378260
Si Si2 0.123611 0.720527 0.096448
Si Si3 0.226012 0.786233 0.605259
Si Si4 0.336747 0.783589 0.104096
Si Si5 0.608659 0.792844 0.773537
Si Si6 0.541740 0.779796 0.541381
Si Si7 0.699412 0.784925 0.183737
Si Si8 0.496666 0.778900 0.254865
O O1 0.163140 0.500000 0.379216
O O2 0.224216 0.780133 0.371293
O O3 0.107564 0.777984 0.470881
O O4 0.162384 0.779544 0.287365
O O5 0.124636 0.500000 0.093245
O O6 0.174625 0.782615 0.118614
O O7 0.061228 0.773822 0.178982
O O8 0.134120 0.782708 0.998956
O O9 0.250000 0.750000 0.500000
O O10 0.162996 0.706776 0.672017
O O11 0.220043 0.000000 0.620314
O O12 0.366426 0.712836 0.162829
O O13 0.267490 0.748265 0.149670
O O14 0.342621 0.000000 0.101903
O O15 0.552461 0.714737 0.770880
O O16 0.592754 0.000000 0.803308
O O17 0.500000 0.724464 0.500000
O O18 0.519563 0.720573 0.643955
O O19 0.541480 0.000000 0.542660
O O20 0.691721 0.000000 0.187391
O O21 0.495295 0.000000 0.256974
#
# Coordination Sequence:
#
# PCOD9174803 Si02
#       8
#     8   8   8   8   8   8   8   8
#     4   9  17  28  45  71  99 128 162 202 251 302
#     4   9  18  31  50  76 103 134 175 223 270 310
#     4  11  21  34  52  75 104 136 173 214 255 307
#     4  10  20  33  50  76 107 137 173 217 265 316
#     4  10  20  34  52  74 105 140 174 214 259 313
#     4   9  15  24  41  67  98 127 159 205 257 303
#     4  10  18  32  53  76 103 134 173 219 265 316
#     4   9  17  30  48  72 102 135 172 217 264 311
#
# _framework density 22.465176
#
# number of rings (size 3 to 8) (size 9 to 14) (size 15 to 20)
#    0.000    2.375    1.250    2.250    0.000    5.500 
#    0.000    2.500    0.000    1.500    0.000    1.750 
#    0.000    5.000    0.000    0.000    0.000    0.000 
#
# Total GULP energy -178827.239633 kJ/mol
# GULP energy per Si atom -5588.351239 kJ/mol
# Density = 2.241404 g / cm^3
# Si number density = 22.465176 Si / 1000 Ang^3
#
#
#
# Elastic Constant Matrix: (Units=GPa)
#
#
# Indices 1 2 3 4 5 6 
#
# 1 134.6658 -2.4464 65.3452 0.0000 17.7634 0.0000
# 2 -2.4464 72.2080 0.4355 0.0000 4.0316 0.0001
# 3 65.3452 0.4355 176.1337 0.0000 13.8983 0.0000
# 4 0.0000 0.0000 0.0000 -1.1010 0.0000 -7.3708
# 5 17.7634 4.0316 13.8983 0.0000 40.5512 0.0000
# 6 0.0000 0.0001 0.0000 -7.3708 0.0000 3.4650
#
#
#
# Elastic Compliance Matrix: (Units=1/GPa)
#
#
# Indices 1 2 3 4 5 6 
#
# 1 0.009418 0.000510 -0.003254 0.000000 -0.003061 0.000000
# 2 0.000510 0.013955 -0.000099 0.000000 -0.001577 0.000000
# 3 -0.003254 -0.000099 0.006960 0.000000 -0.000950 0.000000
# 4 0.000000 0.000000 0.000000 -0.059594 0.000000 -0.126769
# 5 -0.003061 -0.001577 -0.000950 0.000000 0.026483 0.000000
# 6 0.000000 0.000000 0.000000 -0.126769 0.000000 0.018936
#
#
# Mechanical properties :
#
#
# Convention : Reuss Voigt Hill
#
# Bulk Modulus (GPa) = 40.57488 56.63067 48.60278
# Shear Modulus (GPa) = 166.33711 29.89458 98.11584
#
# Velocity S-wave (km/s) = 8.61411 3.65184 6.61585
# Velocity P-wave (km/s) = 10.81840 6.56081 8.94656
#
# Compressibility (1/GPa) = 0.02464579
#
# Stress axis : x y z
#
# Youngs Moduli (GPa) = 106.18422 71.66007 143.68181
#
# Poissons Ratio (x) = -0.03652 0.46749
# Poissons Ratio (y) = -0.05411 0.01425
# Poissons Ratio (z) = 0.34548 0.00711
#
# Static dielectric constant tensor:
#      x y z
#    x 1.798540 0.000000 0.024830 
#    y 0.000000 1.885450 0.000000 
#    z 0.024830 0.000000 1.804830 
# 
# From -- ./inp_files/243830.got.cif
#   From: 2010.05.17/outbox.cif.g08.bks.cpg/sg12_122_cif.got.tgz:243830.got - 2010.06.03 13:09:07.
