data_PCOD9174877
_publ_section_title
;
Structure prediction by ZEFSAII (Michael W. Deem and Ramdas Pophale) SiO2 
 PCOD9174877
Probable space group: C 2/M
;
_chemical_formula_sum "Si O2"
_cell_formula_units_Z 44
_cell_length_a 17.661772
_cell_length_b 15.047971
_cell_length_c 16.920913
_cell_angle_alpha 90.000000
_cell_angle_beta 26.679495
_cell_angle_gamma 90.000000
_cell_volume 2019.210649
_symmetry_space_group_name_H-M "C 2/M"
_symmetry_group_IT_number 12
_symmetry_cell_setting 'monoclinic'
loop_
_space_group_symop_operation_xyz
x,y,z
-x,y,-z
-x,-y,-z
x,-y,z
1/2+x,1/2+y,z
1/2-x,1/2+y,-z
1/2-x,1/2-y,-z
1/2+x,1/2-y,z
loop_
_atom_site_type_symbol
_atom_site_label
_atom_site_fract_x
_atom_site_fract_y
_atom_site_fract_z
Si Si1 0.364201 0.404068 0.040489
Si Si2 0.095221 0.159243 0.236944
Si Si3 0.286618 0.340533 0.281006
Si Si4 0.249744 0.141780 0.510075
Si Si5 0.609210 0.142058 0.144847
Si Si6 0.000000 0.203039 0.500000
O O1 0.450936 0.500000 0.953714
O O2 0.283726 0.393484 0.201751
O O3 0.220602 0.400722 0.109939
O O4 0.510026 0.329272 0.895199
O O5 0.094575 0.257517 0.195435
O O6 0.931549 0.111678 0.352204
O O7 0.068735 0.158576 0.355574
O O8 0.277549 0.128148 0.038071
O O9 0.229256 0.380853 0.417300
O O10 0.159850 0.259844 0.383040
O O11 0.250000 0.250000 0.500000
O O12 0.419268 0.110149 0.310172
#
# Coordination Sequence:
#
# PCOD9174877 Si02
#       6
#     8   8   8   8   8   4
#     4  11  23  36  51  75 113 154 190 220 255 311
#     4  10  20  33  53  79 105 137 174 226 273 325
#     4  11  19  33  49  75 108 147 183 215 256 314
#     4  10  18  32  54  75 103 140 177 221 271 321
#     4  10  19  34  55  74 102 145 177 217 273 312
#     4  12  20  32  53  80 111 144 178 222 274 328
#
# _framework density 21.790693000000001
#
# number of rings (size 3 to 8) (size 9 to 14) (size 15 to 20)
#    0.000    1.455    7.273    1.091    0.000    0.000 
#    0.000    8.182    0.000    0.000    0.000    0.636 
#    0.000    1.455    0.000    0.000    0.000    0.000 
#
# Total GULP energy -122540.753765 kJ/mol
# GULP energy per Si atom -5570.034262 kJ/mol
# Density = 2.174110 g / cm^3
# Si number density = 21.790693 Si / 1000 Ang^3
#
#
#
# Elastic Constant Matrix: (Units=GPa)
#
#
# Indices 1 2 3 4 5 6 
#
# 1 113.0256 7.9315 79.0702 0.0002 19.6197 -0.0005
# 2 7.9315 25.8098 17.6574 -0.0039 -4.3307 0.0024
# 3 79.0702 17.6574 208.6420 -0.0041 12.8025 0.0023
# 4 0.0002 -0.0039 -0.0041 -8.6420 0.0022 -0.1580
# 5 19.6197 -4.3307 12.8025 0.0022 45.5702 -0.0011
# 6 -0.0005 0.0024 0.0023 -0.1580 -0.0011 -6.8679
#
#
#
# Elastic Compliance Matrix: (Units=1/GPa)
#
#
# Indices 1 2 3 4 5 6 
#
# 1 0.012853 -0.001643 -0.004460 0.000002 -0.004437 -0.000002
# 2 -0.001643 0.042474 -0.003320 -0.000017 0.005677 0.000013
# 3 -0.004460 -0.003320 0.006782 -0.000002 -0.000301 0.000002
# 4 0.000002 -0.000017 -0.000002 -0.115763 0.000004 0.002663
# 5 -0.004437 0.005677 -0.000301 0.000004 0.024478 -0.000002
# 6 -0.000002 0.000013 0.000002 0.002663 -0.000002 -0.145666
#
#
# Mechanical properties :
#
#
# Convention : Reuss Voigt Hill
#
# Bulk Modulus (GPa) = 23.11438 61.86619 42.49029
# Shear Modulus (GPa) = -35.31721 22.19994 -6.55863
#
# Velocity S-wave (km/s) = -4.03022 3.19530 -1.73677
# Velocity P-wave (km/s) = 3.32060 6.48583 3.93952
#
# Compressibility (1/GPa) = 0.04326310
#
# Stress axis : x y z
#
# Youngs Moduli (GPa) = 77.80340 23.54391 147.43976
#
# Poissons Ratio (x) = 0.03869 0.65752
# Poissons Ratio (y) = 0.12785 0.48952
# Poissons Ratio (z) = 0.34697 0.07817
#
# Static dielectric constant tensor:
#      x y z
#    x 1.782720 0.000000 -0.002520 
#    y 0.000000 1.894120 0.000000 
#    z -0.002520 0.000000 1.854590 
# 
# From -- ./inp_files/217574.got.cif
#   From: 2010.05.17/outbox.cif.g08.bks.cpg/sg12_109_cif.got.tgz:217574.got - 2010.06.03 13:09:07.
