data_PCOD9174207
_publ_section_title
;
Structure prediction by ZEFSAII (Michael W. Deem and Ramdas Pophale) SiO2 
 PCOD9174207
Probable space group: C 2/M
;
_chemical_formula_sum "Si O2"
_cell_formula_units_Z 56
_cell_length_a 29.274386
_cell_length_b 9.125960
_cell_length_c 14.578917
_cell_angle_alpha 90.000000
_cell_angle_beta 119.430341
_cell_angle_gamma 90.000000
_cell_volume 3392.241033
_symmetry_space_group_name_H-M "C 2/M"
_symmetry_group_IT_number 12
_symmetry_cell_setting 'monoclinic'
loop_
_space_group_symop_operation_xyz
x,y,z
-x,y,-z
-x,-y,-z
x,-y,z
1/2+x,1/2+y,z
1/2-x,1/2+y,-z
1/2-x,1/2-y,-z
1/2+x,1/2-y,z
loop_
_atom_site_type_symbol
_atom_site_label
_atom_site_fract_x
_atom_site_fract_y
_atom_site_fract_z
Si Si1 0.415516 0.163568 0.679141
Si Si2 0.446998 0.176722 0.003575
Si Si3 0.537705 0.170720 0.770655
Si Si4 0.355660 0.169698 0.429903
Si Si5 0.944156 0.175263 0.398836
Si Si6 0.745688 0.677503 0.395082
Si Si7 0.632307 0.327151 0.205356
O O1 0.474621 0.176642 0.703200
O O2 0.377703 0.172887 0.555318
O O3 0.401741 0.285113 0.739080
O O4 0.410226 0.000000 0.716581
O O5 0.396135 0.243122 0.904837
O O6 0.445699 0.000000 0.998871
O O7 0.500000 0.221469 0.000000
O O8 0.449344 0.219244 0.112919
O O9 0.558889 0.264383 0.707500
O O10 0.553401 0.000000 0.775764
O O11 0.395261 0.262647 0.407874
O O12 0.295592 0.218937 0.381710
O O13 0.357005 0.000000 0.400159
O O14 0.000000 0.222698 0.500000
O O15 0.943392 0.000000 0.398750
O O16 0.746941 0.500000 0.407850
O O17 0.750000 0.750000 0.500000
O O18 0.691391 0.717208 0.291362
O O19 0.631696 0.500000 0.187529
#
# Coordination Sequence:
#
# PCOD9174207 Si02
#       7
#     8   8   8   8   8   8   8
#     4  10  18  31  53  78 106 143 181 216 254 311
#     4  10  20  36  56  78 105 141 185 223 258 313
#     4  10  20  35  55  77 104 141 183 219 254 309
#     4  10  20  35  55  76 104 144 185 216 253 312
#     4  11  23  35  51  79 113 141 169 215 273 323
#     4  10  21  35  53  79 109 143 180 220 265 315
#     4  11  22  33  50  80 115 144 173 217 274 321
#
# _framework density 16.508261000000001
#
# number of rings (size 3 to 8) (size 9 to 14) (size 15 to 20)
#    0.000    1.714    4.286    0.857    0.000    3.714 
#    0.000    0.000    0.000    0.857    0.000    0.000 
#    0.000    0.000    0.000    0.000    0.000    0.000 
#
# Total GULP energy -156189.356536 kJ/mol
# GULP energy per Si atom -5578.191305 kJ/mol
# Density = 1.647069 g / cm^3
# Si number density = 16.508261 Si / 1000 Ang^3
#
#
#
# Elastic Constant Matrix: (Units=GPa)
#
#
# Indices 1 2 3 4 5 6 
#
# 1 91.1113 35.6997 37.2245 0.0000 -1.8863 0.0000
# 2 35.6997 31.7559 28.4827 0.0000 -3.4009 0.0000
# 3 37.2245 28.4827 82.5727 0.0000 1.0821 0.0000
# 4 0.0000 0.0000 0.0000 24.7014 0.0000 -1.0379
# 5 -1.8863 -3.4009 1.0821 0.0000 27.6492 0.0000
# 6 0.0000 0.0000 0.0000 -1.0379 0.0000 22.2751
#
#
#
# Elastic Compliance Matrix: (Units=1/GPa)
#
#
# Indices 1 2 3 4 5 6 
#
# 1 0.019836 -0.020873 -0.001727 0.000000 -0.001147 0.000000
# 2 -0.020873 0.068659 -0.014373 0.000000 0.007584 0.000000
# 3 -0.001727 -0.014373 0.017881 0.000000 -0.002586 0.000000
# 4 0.000000 0.000000 0.000000 0.040563 0.000000 0.001890
# 5 -0.001147 0.007584 -0.002586 0.000000 0.037123 0.000000
# 6 0.000000 0.000000 0.000000 0.001890 0.000000 0.044981
#
#
# Mechanical properties :
#
#
# Convention : Reuss Voigt Hill
#
# Bulk Modulus (GPa) = 30.83612 45.36151 38.09882
# Shear Modulus (GPa) = 15.93371 21.86068 18.89719
#
# Velocity S-wave (km/s) = 3.11013 3.64294 3.38703
# Velocity P-wave (km/s) = 5.62290 6.72550 6.19877
#
# Compressibility (1/GPa) = 0.03242950
#
# Stress axis : x y z
#
# Youngs Moduli (GPa) = 50.41300 14.56470 55.92560
#
# Poissons Ratio (x) = 0.30401 0.09660
# Poissons Ratio (y) = 1.05228 0.80381
# Poissons Ratio (z) = 0.08708 0.20934
#
# Static dielectric constant tensor:
#      x y z
#    x 1.542900 0.000000 0.010430 
#    y 0.000000 1.564500 0.000000 
#    z 0.010430 0.000000 1.556450 
# 
# From -- ./inp_files/243678.got.cif
#   From: 2010.05.17/outbox.cif.g08.bks.cpg/sg12_122_cif.got.tgz:243678.got - 2010.06.03 13:09:07.
