data_PCOD9174212
_publ_section_title
;
Structure prediction by ZEFSAII (Michael W. Deem and Ramdas Pophale) SiO2 
 PCOD9174212
Probable space group: C 2/M
;
_chemical_formula_sum "Si O2"
_cell_formula_units_Z 56
_cell_length_a 27.797670
_cell_length_b 16.101197
_cell_length_c 9.944002
_cell_angle_alpha 90.000000
_cell_angle_beta 30.501418
_cell_angle_gamma 90.000000
_cell_volume 2258.992986
_symmetry_space_group_name_H-M "C 2/M"
_symmetry_group_IT_number 12
_symmetry_cell_setting 'monoclinic'
loop_
_space_group_symop_operation_xyz
x,y,z
-x,y,-z
-x,-y,-z
x,-y,z
1/2+x,1/2+y,z
1/2-x,1/2+y,-z
1/2-x,1/2-y,-z
1/2+x,1/2-y,z
loop_
_atom_site_type_symbol
_atom_site_label
_atom_site_fract_x
_atom_site_fract_y
_atom_site_fract_z
Si Si1 0.917668 0.910505 0.312560
Si Si2 0.502010 0.141993 0.316751
Si Si3 0.034354 0.825601 0.233022
Si Si4 0.699693 0.598797 0.009316
Si Si5 0.165738 0.404761 0.084244
Si Si6 0.853684 0.764224 0.299471
Si Si7 0.380791 0.093673 0.371557
O O1 0.859000 0.830384 0.408307
O O2 0.963753 0.895908 0.347668
O O3 0.869179 0.000000 0.423026
O O4 0.000000 0.913914 0.000000
O O5 0.480830 0.239570 0.389113
O O6 0.425262 0.098015 0.597552
O O7 0.614074 0.134782 0.079694
O O8 0.470970 0.102894 0.251798
O O9 0.107636 0.855147 0.170555
O O10 0.090308 0.801478 0.961520
O O11 0.680164 0.500000 0.068683
O O12 0.746758 0.629086 0.037389
O O13 0.785102 0.605481 0.693328
O O14 0.186321 0.500000 0.004535
O O15 0.750000 0.750000 0.500000
O O16 0.887301 0.674333 0.264239
O O17 0.376163 0.000000 0.326532
#
# Coordination Sequence:
#
# PCOD9174212 Si02
#       7
#     8   8   8   8   8   8   8
#     4   9  19  34  53  73  99 135 178 221 256 293
#     4  10  18  31  53  79 104 132 168 222 265 306
#     4  11  20  31  52  79 109 132 175 221 262 305
#     4   9  18  32  53  77 101 135 179 221 258 303
#     4   9  18  35  56  77 101 137 182 218 259 318
#     4  11  21  35  51  75 109 141 176 215 255 318
#     4  10  19  34  53  74 104 145 178 208 258 315
#
# _framework density 24.789808000000001
#
# number of rings (size 3 to 8) (size 9 to 14) (size 15 to 20)
#    0.000    2.143    2.857    3.000    0.000    1.714 
#    0.000    2.857    0.000    0.000    0.000   12.000 
#    0.000    0.000    0.000    0.000    0.000    0.000 
#
# Total GULP energy -156407.047642 kJ/mol
# GULP energy per Si atom -5585.965987 kJ/mol
# Density = 2.473338 g / cm^3
# Si number density = 24.789808 Si / 1000 Ang^3
#
#
#
# Elastic Constant Matrix: (Units=GPa)
#
#
# Indices 1 2 3 4 5 6 
#
# 1 139.9481 52.8550 18.6166 0.0000 -39.5468 0.0000
# 2 52.8550 147.8774 24.1207 0.0000 -19.1364 0.0000
# 3 18.6166 24.1207 78.4690 0.0000 -13.1922 0.0000
# 4 0.0000 0.0000 0.0000 23.4964 0.0000 -23.6888
# 5 -39.5468 -19.1364 -13.1922 0.0000 29.9077 0.0000
# 6 0.0000 0.0000 0.0000 -23.6888 0.0000 48.2029
#
#
#
# Elastic Compliance Matrix: (Units=1/GPa)
#
#
# Indices 1 2 3 4 5 6 
#
# 1 0.012195 -0.002517 0.000346 0.000000 0.014667 0.000000
# 2 -0.002517 0.008081 -0.001703 0.000000 0.001091 0.000000
# 3 0.000346 -0.001703 0.014127 0.000000 0.005599 0.000000
# 4 0.000000 0.000000 0.000000 0.084354 0.000000 0.041455
# 5 0.014667 0.001091 0.005599 0.000000 0.055998 0.000000
# 6 0.000000 0.000000 0.000000 0.041455 0.000000 0.041118
#
#
# Mechanical properties :
#
#
# Convention : Reuss Voigt Hill
#
# Bulk Modulus (GPa) = 37.51764 61.94212 49.72988
# Shear Modulus (GPa) = 21.50477 38.36822 29.93649
#
# Velocity S-wave (km/s) = 2.94850 3.93840 3.47884
# Velocity P-wave (km/s) = 5.17288 6.76184 6.02002
#
# Compressibility (1/GPa) = 0.02665413
#
# Stress axis : x y z
#
# Youngs Moduli (GPa) = 82.00203 123.74593 70.78802
#
# Poissons Ratio (x) = 0.31149 -0.02452
# Poissons Ratio (y) = 0.20641 0.12059
# Poissons Ratio (z) = -0.02841 0.21080
#
# Static dielectric constant tensor:
#      x y z
#    x 2.082960 0.000000 0.023490 
#    y 0.000000 1.646290 0.000000 
#    z 0.023490 0.000000 2.093760 
# 
# From -- ./inp_files/189628.got.cif
#   From: 2010.05.17/outbox.cif.g08.bks.cpg/sg12_95_cif.got.tgz:189628.got - 2010.06.03 13:09:07.
