data_PCOD9174901
_publ_section_title
;
Structure prediction by ZEFSAII (Michael W. Deem and Ramdas Pophale) SiO2 
 PCOD9174901
Probable space group: C 2/M
;
_chemical_formula_sum "Si O2"
_cell_formula_units_Z 64
_cell_length_a 29.709513
_cell_length_b 12.105884
_cell_length_c 22.925662
_cell_angle_alpha 90.000000
_cell_angle_beta 25.752766
_cell_angle_gamma 90.000000
_cell_volume 3582.551573
_symmetry_space_group_name_H-M "C 2/M"
_symmetry_group_IT_number 12
_symmetry_cell_setting 'monoclinic'
loop_
_space_group_symop_operation_xyz
x,y,z
-x,y,-z
-x,-y,-z
x,-y,z
1/2+x,1/2+y,z
1/2-x,1/2+y,-z
1/2-x,1/2-y,-z
1/2+x,1/2-y,z
loop_
_atom_site_type_symbol
_atom_site_label
_atom_site_fract_x
_atom_site_fract_y
_atom_site_fract_z
Si Si1 0.394013 0.220823 0.984920
Si Si2 0.910668 0.628013 0.180601
Si Si3 0.773362 0.366899 0.231125
Si Si4 0.517428 0.118746 0.229687
Si Si5 0.791546 0.374222 0.436060
Si Si6 0.608396 0.289816 0.209186
Si Si7 0.959823 0.867731 0.484447
Si Si8 0.708248 0.623671 0.978745
O O1 0.499051 0.205857 0.899874
O O2 0.409827 0.139206 0.911390
O O3 0.303485 0.186410 0.134403
O O4 0.371324 0.335499 0.978495
O O5 0.950169 0.500000 0.131761
O O6 0.861099 0.658926 0.176822
O O7 0.819251 0.628038 0.335167
O O8 0.773793 0.500000 0.224133
O O9 0.659268 0.331186 0.385181
O O10 0.401398 0.120652 0.341051
O O11 0.535684 0.211620 0.255263
O O12 0.541899 0.000000 0.226938
O O13 0.742696 0.500000 0.503931
O O14 0.750000 0.250000 0.500000
O O15 0.539844 0.339513 0.340198
O O16 0.700290 0.213615 0.126979
O O17 0.657869 0.369304 0.102280
O O18 0.000000 0.825278 0.500000
O O19 0.955878 0.000000 0.492470
O O20 0.743642 0.500000 0.926134
#
# Coordination Sequence:
#
# PCOD9174901 Si02
#       8
#     8   8   8   8   8   8   8   8
#     4  10  18  32  54  78 106 138 173 222 274 321
#     4   9  18  32  51  80 110 139 181 227 271 317
#     4  10  19  31  54  82 109 143 177 221 269 318
#     4   9  18  32  52  78 106 136 173 223 268 312
#     4   9  18  32  50  75 108 144 181 225 276 327
#     4  10  20  35  57  80 103 139 175 217 269 318
#     4  10  21  35  51  79 114 141 168 212 273 330
#     4  10  21  36  56  81 105 135 179 223 270 322
#
# _framework density 17.864363000000001
#
# number of rings (size 3 to 8) (size 9 to 14) (size 15 to 20)
#    0.000    2.375    0.000    3.750    1.750    1.000 
#    0.000   10.625    0.000    9.000    0.000    0.000 
#    0.000    0.000    0.000    0.000    0.000    0.000 
#
# Total GULP energy -178178.164817 kJ/mol
# GULP energy per Si atom -5568.067651 kJ/mol
# Density = 1.782370 g / cm^3
# Si number density = 17.864363 Si / 1000 Ang^3
#
#
#
# Elastic Constant Matrix: (Units=GPa)
#
#
# Indices 1 2 3 4 5 6 
#
# 1 92.0765 21.2061 26.3012 0.0000 3.6328 0.0000
# 2 21.2061 69.8344 17.9362 0.0001 -6.5485 0.0000
# 3 26.3012 17.9362 84.4221 0.0000 6.7914 0.0000
# 4 0.0000 0.0001 0.0000 15.1191 0.0000 -3.2037
# 5 3.6328 -6.5485 6.7914 0.0000 19.4748 0.0000
# 6 0.0000 0.0000 0.0000 -3.2037 0.0000 5.9012
#
#
#
# Elastic Compliance Matrix: (Units=1/GPa)
#
#
# Indices 1 2 3 4 5 6 
#
# 1 0.012572 -0.003263 -0.003032 0.000000 -0.002385 0.000000
# 2 -0.003263 0.016808 -0.003147 0.000000 0.007358 0.000000
# 3 -0.003032 -0.003147 0.013887 0.000000 -0.005335 0.000000
# 4 0.000000 0.000000 0.000000 0.074740 0.000000 0.040575
# 5 -0.002385 0.007358 -0.005335 0.000000 0.056128 0.000000
# 6 0.000000 0.000000 0.000000 0.040575 0.000000 0.191486
#
#
# Mechanical properties :
#
#
# Convention : Reuss Voigt Hill
#
# Bulk Modulus (GPa) = 41.00684 41.91333 41.46009
# Shear Modulus (GPa) = 12.73458 20.15831 16.44645
#
# Velocity S-wave (km/s) = 2.67282 3.36282 3.03748
# Velocity P-wave (km/s) = 5.70348 6.21217 5.96325
#
# Compressibility (1/GPa) = 0.02438617
#
# Stress axis : x y z
#
# Youngs Moduli (GPa) = 79.54163 59.49384 72.00734
#
# Poissons Ratio (x) = 0.19411 0.21830
# Poissons Ratio (y) = 0.25952 0.22658
# Poissons Ratio (z) = 0.24115 0.18720
#
# Static dielectric constant tensor:
#      x y z
#    x 1.628110 0.000000 -0.023400 
#    y 0.000000 1.625890 0.000000 
#    z -0.023400 0.000000 1.634770 
# 
# From -- ./inp_files/327769.got.cif
#   From: 2010.05.17/outbox.cif.g08.bks.cpg/sg12_164_cif.got.tgz:327769.got - 2010.06.03 13:09:07.
