data_PCOD9174213
_publ_section_title
;
Structure prediction by ZEFSAII (Michael W. Deem and Ramdas Pophale) SiO2 
 PCOD9174213
Probable space group: C 2/M
;
_chemical_formula_sum "Si O2"
_cell_formula_units_Z 56
_cell_length_a 30.838651
_cell_length_b 8.297208
_cell_length_c 12.907555
_cell_angle_alpha 90.000000
_cell_angle_beta 105.161225
_cell_angle_gamma 90.000000
_cell_volume 3187.761469
_symmetry_space_group_name_H-M "C 2/M"
_symmetry_group_IT_number 12
_symmetry_cell_setting 'monoclinic'
loop_
_space_group_symop_operation_xyz
x,y,z
-x,y,-z
-x,-y,-z
x,-y,z
1/2+x,1/2+y,z
1/2-x,1/2+y,-z
1/2-x,1/2-y,-z
1/2+x,1/2-y,z
loop_
_atom_site_type_symbol
_atom_site_label
_atom_site_fract_x
_atom_site_fract_y
_atom_site_fract_z
Si Si1 0.043212 0.309227 0.656475
Si Si2 0.446734 0.691058 0.569718
Si Si3 0.145671 0.190184 0.390178
Si Si4 0.709049 0.809402 0.254845
Si Si5 0.637719 0.803268 0.793523
Si Si6 0.306388 0.809018 0.375356
Si Si7 0.202259 0.694725 0.014957
O O1 0.037697 0.500000 0.668189
O O2 0.054470 0.277920 0.542414
O O3 0.086280 0.250823 0.747764
O O4 0.995647 0.225698 0.647430
O O5 0.442274 0.500000 0.547696
O O6 0.404875 0.743736 0.613330
O O7 0.168756 0.277177 0.308536
O O8 0.175070 0.222347 0.511394
O O9 0.145057 0.000000 0.368282
O O10 0.754038 0.724196 0.323916
O O11 0.698299 0.752567 0.131537
O O12 0.718501 0.000000 0.256890
O O13 0.666278 0.754975 0.709858
O O14 0.637430 0.000000 0.793360
O O15 0.663329 0.748426 0.912575
O O16 0.313684 0.000000 0.393192
O O17 0.201328 0.500000 0.013119
O O18 0.250000 0.750000 0.000000
#
# Coordination Sequence:
#
# PCOD9174213 Si02
#       7
#     8   8   8   8   8   8   8
#     4  10  18  31  53  79 104 134 169 207 258 315
#     4  10  20  33  50  75 106 136 168 212 260 307
#     4  11  23  37  53  74 107 144 178 215 260 313
#     4  11  23  36  53  77 106 140 181 218 256 310
#     4   9  18  32  53  79 107 136 167 211 259 305
#     4  11  20  34  55  77 108 142 174 213 259 311
#     4  10  20  36  55  77 104 136 175 218 259 302
#
# _framework density 17.567184999999998
#
# number of rings (size 3 to 8) (size 9 to 14) (size 15 to 20)
#    0.000    1.714    2.857    3.429    0.000    2.286 
#    0.000    1.429    0.000    0.857    0.000    6.000 
#    0.000    0.000    0.000    0.000    0.000    0.000 
#
# Total GULP energy -156341.995172 kJ/mol
# GULP energy per Si atom -5583.642685 kJ/mol
# Density = 1.752720 g / cm^3
# Si number density = 17.567185 Si / 1000 Ang^3
#
#
#
# Elastic Constant Matrix: (Units=GPa)
#
#
# Indices 1 2 3 4 5 6 
#
# 1 109.2606 -8.2172 67.1415 0.0000 11.0597 0.0000
# 2 -8.2172 9.7315 -5.7116 0.0000 -1.3158 0.0000
# 3 67.1415 -5.7116 97.3006 0.0000 5.0515 0.0000
# 4 0.0000 0.0000 0.0000 10.5162 0.0000 1.1045
# 5 11.0597 -1.3158 5.0515 0.0000 31.5273 0.0000
# 6 0.0000 0.0000 0.0000 1.1045 0.0000 25.6747
#
#
#
# Elastic Compliance Matrix: (Units=1/GPa)
#
#
# Indices 1 2 3 4 5 6 
#
# 1 0.016846 0.007249 -0.010999 0.000000 -0.003845 0.000000
# 2 0.007249 0.109923 0.001355 0.000000 0.001828 0.000000
# 3 -0.010999 0.001355 0.017893 0.000000 0.001048 0.000000
# 4 0.000000 0.000000 0.000000 0.095523 0.000000 -0.004109
# 5 -0.003845 0.001828 0.001048 0.000000 0.032976 0.000000
# 6 0.000000 0.000000 0.000000 -0.004109 0.000000 0.039126
#
#
# Mechanical properties :
#
#
# Convention : Reuss Voigt Hill
#
# Bulk Modulus (GPa) = 7.14941 35.85758 21.50350
# Shear Modulus (GPa) = 13.74764 24.41563 19.08164
#
# Velocity S-wave (km/s) = 2.80049 3.73210 3.29934
# Velocity P-wave (km/s) = 3.81255 6.24720 5.17509
#
# Compressibility (1/GPa) = 0.13987176
#
# Stress axis : x y z
#
# Youngs Moduli (GPa) = 59.36151 9.09729 55.88924
#
# Poissons Ratio (x) = -0.06595 0.61474
# Poissons Ratio (y) = -0.43032 -0.07575
# Poissons Ratio (z) = 0.65293 -0.01233
#
# Static dielectric constant tensor:
#      x y z
#    x 1.595330 0.000000 0.013060 
#    y 0.000000 1.609690 0.000000 
#    z 0.013060 0.000000 1.585730 
# 
# From -- ./inp_files/186857.got.cif
#   From: 2010.05.17/outbox.cif.g08.bks.cpg/sg12_94_cif.got.tgz:186857.got - 2010.06.03 13:09:07.
