data_PCOD9174156
_publ_section_title
;
Structure prediction by ZEFSAII (Michael W. Deem and Ramdas Pophale) SiO2 
 PCOD9174156
Probable space group: C 2/M
;
_chemical_formula_sum "Si O2"
_cell_formula_units_Z 56
_cell_length_a 21.156612
_cell_length_b 7.471602
_cell_length_c 20.488315
_cell_angle_alpha 90.000000
_cell_angle_beta 58.232064
_cell_angle_gamma 90.000000
_cell_volume 2753.472775
_symmetry_space_group_name_H-M "C 2/M"
_symmetry_group_IT_number 12
_symmetry_cell_setting 'monoclinic'
loop_
_space_group_symop_operation_xyz
x,y,z
-x,y,-z
-x,-y,-z
x,-y,z
1/2+x,1/2+y,z
1/2-x,1/2+y,-z
1/2-x,1/2-y,-z
1/2+x,1/2-y,z
loop_
_atom_site_type_symbol
_atom_site_label
_atom_site_fract_x
_atom_site_fract_y
_atom_site_fract_z
Si Si1 0.842982 0.784182 0.166023
Si Si2 0.051667 0.780190 0.411606
Si Si3 0.511813 0.720031 0.831836
Si Si4 0.977233 0.793125 0.320093
Si Si5 0.306708 0.787133 0.410641
Si Si6 0.923324 0.208975 0.999659
Si Si7 0.220008 0.788673 0.331697
O O1 0.862196 0.716214 0.082818
O O2 0.765222 0.734886 0.240340
O O3 0.909491 0.725309 0.178560
O O4 0.847157 0.000000 0.161224
O O5 0.136361 0.719025 0.374647
O O6 0.000000 0.725620 0.500000
O O7 0.017863 0.716962 0.361272
O O8 0.051071 0.000000 0.411287
O O9 0.512036 0.500000 0.832053
O O10 0.506590 0.783448 0.760492
O O11 0.446718 0.781445 0.916398
O O12 0.888448 0.788637 0.378303
O O13 0.000809 0.000000 0.303636
O O14 0.250000 0.750000 0.500000
O O15 0.269964 0.715517 0.363834
O O16 0.316714 0.000000 0.399316
O O17 0.905099 0.000000 0.999272
O O18 0.000000 0.215153 0.000000
O O19 0.213221 0.000000 0.348202
#
# Coordination Sequence:
#
# PCOD9174156 Si02
#       7
#     8   8   8   8   8   8   8
#     4   9  15  26  46  71  97 123 154 195 236 275
#     4   9  18  33  50  67  91 126 163 193 232 289
#     4   8  13  23  43  72  97 118 153 197 235 271
#     4  10  18  31  53  74  93 120 159 204 240 274
#     4  11  22  34  50  71  96 124 155 196 243 286
#     4   7  11  20  38  66  97 123 148 187 233 273
#     4  10  20  33  49  70  97 127 157 192 236 289
#
# _framework density 20.337954
#
# number of rings (size 3 to 8) (size 9 to 14) (size 15 to 20)
#    0.000    2.857    1.429    3.000    0.000    2.857 
#    0.000    0.714    0.000    7.286    0.000    0.000 
#    0.000    0.000    0.000    0.000    0.000    0.000 
#
# Total GULP energy -156152.063512 kJ/mol
# GULP energy per Si atom -5576.859411 kJ/mol
# Density = 2.029166 g / cm^3
# Si number density = 20.337954 Si / 1000 Ang^3
#
#
#
# Elastic Constant Matrix: (Units=GPa)
#
#
# Indices 1 2 3 4 5 6 
#
# 1 62.2777 1.7546 21.5979 -0.0034 -4.8102 0.0045
# 2 1.7546 58.3976 -9.8837 -0.0059 3.5431 0.0090
# 3 21.5979 -9.8837 134.1658 0.0005 -0.2811 -0.0001
# 4 -0.0034 -0.0059 0.0005 22.6294 -0.0012 -11.7105
# 5 -4.8102 3.5431 -0.2811 -0.0012 29.8035 0.0008
# 6 0.0045 0.0090 -0.0001 -11.7105 0.0008 3.4632
#
#
#
# Elastic Compliance Matrix: (Units=1/GPa)
#
#
# Indices 1 2 3 4 5 6 
#
# 1 0.017309 -0.001182 -0.002867 0.000011 0.002907 0.000016
# 2 -0.001182 0.017547 0.001478 0.000025 -0.002263 0.000039
# 3 -0.002867 0.001478 0.008023 0.000000 -0.000563 0.000001
# 4 0.000011 0.000025 0.000000 -0.058932 0.000002 -0.199274
# 5 0.002907 -0.002263 -0.000563 0.000002 0.034286 0.000000
# 6 0.000016 0.000039 0.000001 -0.199274 0.000000 -0.385078
#
#
# Mechanical properties :
#
#
# Convention : Reuss Voigt Hill
#
# Bulk Modulus (GPa) = 26.49917 31.30876 28.90397
# Shear Modulus (GPa) = -14.32157 27.27069 6.47456
#
# Velocity S-wave (km/s) = -2.65652 3.66577 1.78617
# Velocity P-wave (km/s) = 1.91004 5.77450 4.30076
#
# Compressibility (1/GPa) = 0.03773702
#
# Stress axis : x y z
#
# Youngs Moduli (GPa) = 57.77220 56.98990 124.64518
#
# Poissons Ratio (x) = 0.06735 0.35741
# Poissons Ratio (y) = 0.06827 -0.18424
# Poissons Ratio (z) = 0.16566 -0.08424
#
# Static dielectric constant tensor:
#      x y z
#    x 1.691120 0.000000 0.022350 
#    y 0.000000 1.778590 0.000000 
#    z 0.022350 0.000000 1.745780 
# 
# From -- ./inp_files/319699.got.cif
#   From: 2010.05.17/outbox.cif.g08.bks.cpg/sg12_160_cif.got.tgz:319699.got - 2010.06.03 13:09:07.
