data_PCOD9174948
_publ_section_title
;
Structure prediction by ZEFSAII (Michael W. Deem and Ramdas Pophale) SiO2 
 PCOD9174948
Probable space group: C 2/M
;
_chemical_formula_sum "Si O2"
_cell_formula_units_Z 56
_cell_length_a 19.216644
_cell_length_b 20.258471
_cell_length_c 9.200751
_cell_angle_alpha 90.000000
_cell_angle_beta 52.523815
_cell_angle_gamma 90.000000
_cell_volume 2842.579338
_symmetry_space_group_name_H-M "C 2/M"
_symmetry_group_IT_number 12
_symmetry_cell_setting 'monoclinic'
loop_
_space_group_symop_operation_xyz
x,y,z
-x,y,-z
-x,-y,-z
x,-y,z
1/2+x,1/2+y,z
1/2-x,1/2+y,-z
1/2-x,1/2-y,-z
1/2+x,1/2-y,z
loop_
_atom_site_type_symbol
_atom_site_label
_atom_site_fract_x
_atom_site_fract_y
_atom_site_fract_z
Si Si1 0.361893 0.866955 0.432595
Si Si2 0.786040 0.927268 0.574909
Si Si3 0.467693 0.927019 0.874938
Si Si4 0.604603 0.760379 0.844781
Si Si5 0.788672 0.351124 0.091743
Si Si6 0.740373 0.078444 0.165499
Si Si7 0.400388 0.396990 0.161984
O O1 0.302766 0.915083 0.405918
O O2 0.464056 0.883982 0.300903
O O3 0.359141 0.798037 0.345689
O O4 0.323329 0.883552 0.639042
O O5 0.784871 0.871934 0.699215
O O6 0.865143 0.921693 0.361570
O O7 0.783489 0.000000 0.644030
O O8 0.471740 0.000000 0.809515
O O9 0.500000 0.927548 0.000000
O O10 0.370159 0.901388 0.001749
O O11 0.663957 0.785179 0.906294
O O12 0.609984 0.682353 0.822236
O O13 0.500000 0.776959 0.000000
O O14 0.755075 0.371135 0.976126
O O15 0.834210 0.076444 0.125120
O O16 0.715767 0.000000 0.169483
O O17 0.500000 0.413788 0.000000
#
# Coordination Sequence:
#
# PCOD9174948 Si02
#       7
#     8   8   8   8   8   8   8
#     4  10  18  32  54  81 113 151 185 229 262 319
#     4  10  19  34  57  85 111 143 191 234 280 339
#     4  11  17  27  51  82 112 156 190 209 256 330
#     4  10  19  39  60  83 112 147 202 228 262 339
#     4  11  21  35  56  83 123 156 174 224 283 334
#     4  11  24  38  54  87 122 145 185 237 287 336
#     4  10  23  41  64  81 102 147 194 251 290 322
#
# _framework density 19.700417000000002
#
# number of rings (size 3 to 8) (size 9 to 14) (size 15 to 20)
#    0.000    1.571    4.286    3.857    0.000    7.429 
#    0.000    2.143    0.000    5.143    0.000    0.000 
#    0.000    0.000    0.000    0.000    0.000    0.000 
#
# Total GULP energy -155990.254843 kJ/mol
# GULP energy per Si atom -5571.080530 kJ/mol
# Density = 1.965558 g / cm^3
# Si number density = 19.700417 Si / 1000 Ang^3
#
#
#
# Elastic Constant Matrix: (Units=GPa)
#
#
# Indices 1 2 3 4 5 6 
#
# 1 41.4039 0.2456 35.3874 0.0000 -7.4124 0.0000
# 2 0.2456 78.2506 1.1421 0.0000 -6.0195 0.0000
# 3 35.3874 1.1421 97.5404 0.0000 -5.6164 0.0000
# 4 0.0000 0.0000 0.0000 13.9414 0.0000 -23.9558
# 5 -7.4124 -6.0195 -5.6164 0.0000 23.4967 0.0000
# 6 0.0000 0.0000 0.0000 -23.9558 0.0000 -23.2909
#
#
#
# Elastic Compliance Matrix: (Units=1/GPa)
#
#
# Indices 1 2 3 4 5 6 
#
# 1 0.036647 0.000740 -0.012804 0.000000 0.008690 0.000000
# 2 0.000740 0.013051 -0.000218 0.000000 0.003525 0.000000
# 3 -0.012804 -0.000218 0.014869 0.000000 -0.000541 0.000000
# 4 0.000000 0.000000 0.000000 0.025919 0.000000 -0.026659
# 5 0.008690 0.003525 -0.000541 0.000000 0.046074 0.000000
# 6 0.000000 0.000000 0.000000 -0.026659 0.000000 -0.015515
#
#
# Mechanical properties :
#
#
# Convention : Reuss Voigt Hill
#
# Bulk Modulus (GPa) = 24.99786 32.30501 28.65144
# Shear Modulus (GPa) = 31.45762 14.85741 23.15752
#
# Velocity S-wave (km/s) = 4.00033 2.74919 3.43225
# Velocity P-wave (km/s) = 5.83553 5.14890 5.50293
#
# Compressibility (1/GPa) = 0.04000342
#
# Stress axis : x y z
#
# Youngs Moduli (GPa) = 27.28755 76.61962 67.25536
#
# Poissons Ratio (x) = -0.05672 0.86111
# Poissons Ratio (y) = -0.02020 0.01469
# Poissons Ratio (z) = 0.34938 0.01674
#
# Static dielectric constant tensor:
#      x y z
#    x 1.701060 0.000000 0.044020 
#    y 0.000000 1.727410 0.000000 
#    z 0.044020 0.000000 1.759210 
# 
# From -- ./inp_files/89525.got.cif
#   From: 2010.05.17/outbox.cif.g08.bks.cpg/sg12_45_cif.got.tgz:89525.got - 2010.06.03 13:09:07.
