data_PCOD9174730
_publ_section_title
;
Structure prediction by ZEFSAII (Michael W. Deem and Ramdas Pophale) SiO2 
 PCOD9174730
Probable space group: C 2/M
;
_chemical_formula_sum "Si O2"
_cell_formula_units_Z 60
_cell_length_a 24.945456
_cell_length_b 7.572798
_cell_length_c 17.982723
_cell_angle_alpha 90.000000
_cell_angle_beta 43.566221
_cell_angle_gamma 90.000000
_cell_volume 2341.228528
_symmetry_space_group_name_H-M "C 2/M"
_symmetry_group_IT_number 12
_symmetry_cell_setting 'monoclinic'
loop_
_space_group_symop_operation_xyz
x,y,z
-x,y,-z
-x,-y,-z
x,-y,z
1/2+x,1/2+y,z
1/2-x,1/2+y,-z
1/2-x,1/2-y,-z
1/2+x,1/2-y,z
loop_
_atom_site_type_symbol
_atom_site_label
_atom_site_fract_x
_atom_site_fract_y
_atom_site_fract_z
Si Si1 0.851928 0.206550 0.819595
Si Si2 0.174581 0.286306 0.991819
Si Si3 0.250000 0.250000 0.500000
Si Si4 0.571161 0.797142 0.696742
Si Si5 0.031944 0.798918 0.892518
Si Si6 0.325697 0.284995 0.589882
Si Si7 0.992041 0.199767 0.393696
Si Si8 0.820668 0.286330 0.176859
O O1 0.764625 0.278267 0.901816
O O2 0.922475 0.283310 0.700212
O O3 0.846708 0.000000 0.804410
O O4 0.867554 0.218878 0.892442
O O5 0.173793 0.500000 0.997202
O O6 0.148622 0.235347 0.935507
O O7 0.339515 0.258526 0.380024
O O8 0.286431 0.234175 0.550145
O O9 0.523622 0.786883 0.820927
O O10 0.535228 0.690716 0.665226
O O11 0.573091 0.000000 0.670503
O O12 0.123421 0.795077 0.818665
O O13 0.004690 0.000000 0.915520
O O14 0.000000 0.711232 0.000000
O O15 0.329721 0.500000 0.582856
O O16 0.414731 0.220936 0.508835
O O17 0.267667 0.236400 0.714698
O O18 0.001765 0.000000 0.412434
O O19 0.824292 0.500000 0.178511
#
# Coordination Sequence:
#
# PCOD9174730 Si02
#       8
#     8   8   4   8   8   8   8   8
#     4   9  18  35  56  79 109 142 176 220 276 330
#     4   9  19  34  56  82 106 138 181 227 271 323
#     4  10  18  32  52  76 106 138 180 218 266 314
#     4  11  22  36  56  81 108 143 186 228 270 315
#     4  11  25  40  53  75 110 148 185 222 272 329
#     4   9  17  32  51  74 103 138 176 218 266 312
#     4   9  19  34  53  77 110 143 178 222 272 325
#     4  10  20  37  57  79 107 139 183 230 270 320
#
# _framework density 25.627571
#
# number of rings (size 3 to 8) (size 9 to 14) (size 15 to 20)
#    0.000    2.267    1.333    1.200    1.867    3.733 
#    0.000    0.667    0.000    4.000    0.000    0.000 
#    0.000    7.733    0.000    0.000    0.000    0.000 
#
# Total GULP energy -167053.474932 kJ/mol
# GULP energy per Si atom -5568.449164 kJ/mol
# Density = 2.556924 g / cm^3
# Si number density = 25.627571 Si / 1000 Ang^3
#
#
#
# Elastic Constant Matrix: (Units=GPa)
#
#
# Indices 1 2 3 4 5 6 
#
# 1 46.2294 3.7025 3.1494 -0.0112 -0.9920 0.0161
# 2 3.7025 54.9922 6.9107 -0.0240 -6.8159 0.0002
# 3 3.1494 6.9107 138.3610 -0.0255 -6.8271 0.0144
# 4 -0.0112 -0.0240 -0.0255 -4.9940 0.0080 -3.3395
# 5 -0.9920 -6.8159 -6.8271 0.0080 49.2364 -0.0104
# 6 0.0161 0.0002 0.0144 -3.3395 -0.0104 4.7789
#
#
#
# Elastic Compliance Matrix: (Units=1/GPa)
#
#
# Indices 1 2 3 4 5 6 
#
# 1 0.021775 -0.001390 -0.000417 0.000005 0.000188 -0.000068
# 2 -0.001390 0.018680 -0.000780 -0.000059 0.002450 -0.000029
# 3 -0.000417 -0.000780 0.007320 -0.000013 0.000899 -0.000028
# 4 0.000005 -0.000059 -0.000013 -0.136470 -0.000008 -0.095365
# 5 0.000188 0.002450 0.000899 -0.000008 0.020778 0.000036
# 6 -0.000068 -0.000029 -0.000028 -0.095365 0.000036 0.142613
#
#
# Mechanical properties :
#
#
# Convention : Reuss Voigt Hill
#
# Bulk Modulus (GPa) = 23.47440 29.67865 26.57653
# Shear Modulus (GPa) = 53.15121 24.85893 39.00507
#
# Velocity S-wave (km/s) = 4.55904 3.11787 3.90551
# Velocity P-wave (km/s) = 6.07395 4.95655 5.54348
#
# Compressibility (1/GPa) = 0.04259959
#
# Stress axis : x y z
#
# Youngs Moduli (GPa) = 45.92407 53.53417 136.60677
#
# Poissons Ratio (x) = 0.07443 0.05695
# Poissons Ratio (y) = 0.06385 0.10662
# Poissons Ratio (z) = 0.01915 0.04178
#
# Static dielectric constant tensor:
#      x y z
#    x 2.035930 -0.000010 -0.049390 
#    y -0.000010 2.030830 0.000020 
#    z -0.049390 0.000020 2.065070 
# 
# From -- ./inp_files/327250.got.cif
#   From: 2010.05.17/outbox.cif.g08.bks.cpg/sg12_164_cif.got.tgz:327250.got - 2010.06.03 13:09:07.
