data_PCOD9174208
_publ_section_title
;
Structure prediction by ZEFSAII (Michael W. Deem and Ramdas Pophale) SiO2 
 PCOD9174208
Probable space group: C 2/M
;
_chemical_formula_sum "Si O2"
_cell_formula_units_Z 64
_cell_length_a 28.370184
_cell_length_b 7.397369
_cell_length_c 14.203147
_cell_angle_alpha 90.000000
_cell_angle_beta 105.106304
_cell_angle_gamma 90.000000
_cell_volume 2877.736920
_symmetry_space_group_name_H-M "C 2/M"
_symmetry_group_IT_number 12
_symmetry_cell_setting 'monoclinic'
loop_
_space_group_symop_operation_xyz
x,y,z
-x,y,-z
-x,-y,-z
x,-y,z
1/2+x,1/2+y,z
1/2-x,1/2+y,-z
1/2-x,1/2-y,-z
1/2+x,1/2-y,z
loop_
_atom_site_type_symbol
_atom_site_label
_atom_site_fract_x
_atom_site_fract_y
_atom_site_fract_z
Si Si1 0.709313 0.785707 0.057144
Si Si2 0.255741 0.289939 0.273112
Si Si3 0.920148 0.220797 0.807427
Si Si4 0.027006 0.220973 0.791828
Si Si5 0.401812 0.291008 0.008648
Si Si6 0.045270 0.779257 0.587894
Si Si7 0.329613 0.281412 0.630836
Si Si8 0.151352 0.778552 0.572317
O O1 0.728834 0.712022 0.167457
O O2 0.655992 0.713491 0.003689
O O3 0.702401 0.000000 0.062609
O O4 0.750000 0.750000 0.000000
O O5 0.264475 0.500000 0.254481
O O6 0.219223 0.279231 0.342200
O O7 0.307680 0.214994 0.332793
O O8 0.911929 0.285426 0.909953
O O9 0.875931 0.278386 0.717154
O O10 0.972785 0.274320 0.795541
O O11 0.918877 0.000000 0.807157
O O12 0.038759 0.279458 0.692164
O O13 0.027928 0.000000 0.790310
O O14 0.066434 0.284464 0.889214
O O15 0.417215 0.500000 0.009913
O O16 0.097146 0.722750 0.572685
O O17 0.000000 0.721344 0.500000
O O18 0.045098 0.000000 0.587352
O O19 0.329197 0.500000 0.630684
O O20 0.334877 0.221523 0.526084
O O21 0.152210 0.000000 0.572839
#
# Coordination Sequence:
#
# PCOD9174208 Si02
#       8
#     8   8   8   8   8   8   8   8
#     4  11  24  39  57  78 107 142 178 218 265 319
#     4  10  21  36  53  75 105 138 174 214 260 316
#     4   9  16  28  47  76 109 138 171 215 264 309
#     4   9  17  27  47  76 107 142 176 215 265 317
#     4  10  19  33  54  79 108 139 176 220 266 316
#     4   9  16  27  44  71 106 138 170 210 262 317
#     4  10  18  31  53  78 107 138 173 218 264 309
#     4   9  18  30  47  73 106 139 170 213 263 311
#
# _framework density 22.239697
#
# number of rings (size 3 to 8) (size 9 to 14) (size 15 to 20)
#    0.000    2.375    1.250    1.875    1.750    5.000 
#    0.000    0.000    0.000    2.250    0.000    0.000 
#    0.000    2.500    0.000    0.000    0.000    0.000 
#
# Total GULP energy -178872.085701 kJ/mol
# GULP energy per Si atom -5589.752678 kJ/mol
# Density = 2.218908 g / cm^3
# Si number density = 22.239697 Si / 1000 Ang^3
#
#
#
# Elastic Constant Matrix: (Units=GPa)
#
#
# Indices 1 2 3 4 5 6 
#
# 1 136.4795 -17.3086 38.2165 0.0000 15.8568 0.0000
# 2 -17.3086 74.7892 -0.4864 0.0000 5.7962 0.0000
# 3 38.2165 -0.4864 77.2969 0.0000 18.4026 0.0000
# 4 0.0000 0.0000 0.0000 -14.6070 0.0000 -0.3459
# 5 15.8568 5.7962 18.4026 0.0000 47.5939 0.0000
# 6 0.0000 0.0000 0.0000 -0.3459 0.0000 7.4261
#
#
#
# Elastic Compliance Matrix: (Units=1/GPa)
#
#
# Indices 1 2 3 4 5 6 
#
# 1 0.008917 0.002169 -0.003992 0.000000 -0.001691 0.000000
# 2 0.002169 0.014045 -0.000446 0.000000 -0.002261 0.000000
# 3 -0.003992 -0.000446 0.016057 0.000000 -0.004824 0.000000
# 4 0.000000 0.000000 0.000000 -0.068385 0.000000 -0.003185
# 5 -0.001691 -0.002261 -0.004824 0.000000 0.023715 0.000000
# 6 0.000000 0.000000 0.000000 -0.003185 0.000000 0.134511
#
#
# Mechanical properties :
#
#
# Convention : Reuss Voigt Hill
#
# Bulk Modulus (GPa) = 29.00226 36.60095 32.80160
# Shear Modulus (GPa) = 34.50863 25.95889 30.23376
#
# Velocity S-wave (km/s) = 3.94340 3.42018 3.69107
# Velocity P-wave (km/s) = 5.81403 5.66481 5.73990
#
# Compressibility (1/GPa) = 0.03448007
#
# Stress axis : x y z
#
# Youngs Moduli (GPa) = 112.15160 71.19907 62.27971
#
# Poissons Ratio (x) = -0.15441 0.24863
# Poissons Ratio (y) = -0.24322 0.02775
# Poissons Ratio (z) = 0.44773 0.03173
#
# Static dielectric constant tensor:
#      x y z
#    x 1.763390 0.000000 0.019350 
#    y 0.000000 1.878120 0.000000 
#    z 0.019350 0.000000 1.787460 
# 
# From -- ./inp_files/244116.got.cif
#   From: 2010.05.17/outbox.cif.g08.bks.cpg/sg12_123_cif.got.tgz:244116.got - 2010.06.03 13:09:07.
