data_PCOD9174680
_publ_section_title
;
Structure prediction by ZEFSAII (Michael W. Deem and Ramdas Pophale) SiO2 
 PCOD9174680
Probable space group: C 2/M
;
_chemical_formula_sum "Si O2"
_cell_formula_units_Z 64
_cell_length_a 21.074692
_cell_length_b 18.067547
_cell_length_c 15.240357
_cell_angle_alpha 90.000000
_cell_angle_beta 25.192464
_cell_angle_gamma 90.000000
_cell_volume 2470.123650
_symmetry_space_group_name_H-M "C 2/M"
_symmetry_group_IT_number 12
_symmetry_cell_setting 'monoclinic'
loop_
_space_group_symop_operation_xyz
x,y,z
-x,y,-z
-x,-y,-z
x,-y,z
1/2+x,1/2+y,z
1/2-x,1/2+y,-z
1/2-x,1/2-y,-z
1/2+x,1/2-y,z
loop_
_atom_site_type_symbol
_atom_site_label
_atom_site_fract_x
_atom_site_fract_y
_atom_site_fract_z
Si Si1 0.066388 0.580238 0.013072
Si Si2 0.325689 0.583329 0.886480
Si Si3 0.366438 0.686185 0.375250
Si Si4 0.655245 0.386288 0.433566
Si Si5 0.117273 0.421849 0.435535
Si Si6 0.374334 0.787785 0.943040
Si Si7 0.061734 0.920121 0.053458
Si Si8 0.852644 0.265960 0.631486
O O1 0.016670 0.500000 0.108635
O O2 0.242157 0.577035 0.767760
O O3 0.039829 0.651134 0.105437
O O4 0.000000 0.591414 0.000000
O O5 0.263321 0.500000 0.945431
O O6 0.483504 0.592183 0.639255
O O7 0.369409 0.581902 0.934175
O O8 0.223755 0.655093 0.992846
O O9 0.250000 0.750000 0.500000
O O10 0.314266 0.615350 0.499688
O O11 0.507420 0.730065 0.242779
O O12 0.443454 0.646047 0.194908
O O13 0.692609 0.300698 0.372052
O O14 0.089169 0.500000 0.518341
O O15 0.105459 0.337421 0.479088
O O16 0.000000 0.422891 0.500000
O O17 0.289722 0.420122 0.190355
O O18 0.270743 0.737200 0.136600
O O19 0.987277 0.000000 0.133203
O O20 0.000000 0.245194 0.500000
#
# Coordination Sequence:
#
# PCOD9174680 Si02
#       8
#     8   8   8   8   8   8   8   8
#     4  10  21  37  56  79 111 152 194 232 273 329
#     4  10  20  34  54  84 117 146 179 226 290 348
#     4  11  23  39  57  81 110 153 200 235 277 332
#     4  10  21  35  56  82 110 149 183 233 279 341
#     4   9  17  30  52  78 106 140 176 218 272 339
#     4  11  21  34  55  83 113 148 180 240 285 338
#     4   9  19  36  57  83 112 147 186 230 283 342
#     4  10  18  32  51  83 112 136 176 220 286 339
#
# _framework density 25.909635000000002
#
# number of rings (size 3 to 8) (size 9 to 14) (size 15 to 20)
#    0.000    2.000    2.500    1.500    0.000    4.500 
#    0.000    3.125    0.000    1.500    0.000    1.750 
#    0.000    0.000    0.000    0.000    0.000    0.000 
#
# Total GULP energy -178413.635683 kJ/mol
# GULP energy per Si atom -5575.426115 kJ/mol
# Density = 2.585066 g / cm^3
# Si number density = 25.909635 Si / 1000 Ang^3
#
#
#
# Elastic Constant Matrix: (Units=GPa)
#
#
# Indices 1 2 3 4 5 6 
#
# 1 38.6208 1.1099 -3.9147 0.0000 -7.4819 -0.0003
# 2 1.1099 154.4247 5.4038 0.0000 -8.5895 0.0004
# 3 -3.9147 5.4038 77.7823 -0.0001 -1.1790 -0.0002
# 4 0.0000 0.0000 -0.0001 30.3673 -0.0001 20.7207
# 5 -7.4819 -8.5895 -1.1790 -0.0001 28.2916 0.0004
# 6 -0.0003 0.0004 -0.0002 20.7207 0.0004 65.7983
#
#
#
# Elastic Compliance Matrix: (Units=1/GPa)
#
#
# Indices 1 2 3 4 5 6 
#
# 1 0.027467 0.000161 0.001483 0.000000 0.007375 0.000000
# 2 0.000161 0.006602 -0.000420 0.000000 0.002029 0.000000
# 3 0.001483 -0.000420 0.012972 0.000000 0.000805 0.000000
# 4 0.000000 0.000000 0.000000 0.041943 0.000000 -0.013208
# 5 0.007375 0.002029 0.000805 0.000000 0.037946 0.000000
# 6 0.000000 0.000000 0.000000 -0.013208 0.000000 0.019357
#
#
# Mechanical properties :
#
#
# Convention : Reuss Voigt Hill
#
# Bulk Modulus (GPa) = 20.20624 30.66954 25.43789
# Shear Modulus (GPa) = 31.18446 42.77334 36.97890
#
# Velocity S-wave (km/s) = 3.47304 4.06749 3.78196
# Velocity P-wave (km/s) = 4.88859 5.82427 5.37682
#
# Compressibility (1/GPa) = 0.04948967
#
# Stress axis : x y z
#
# Youngs Moduli (GPa) = 36.40721 151.46772 77.08670
#
# Poissons Ratio (x) = -0.02437 -0.11432
# Poissons Ratio (y) = -0.00586 0.03236
# Poissons Ratio (z) = -0.05399 0.06359
#
# Static dielectric constant tensor:
#      x y z
#    x 2.146490 0.000000 0.065670 
#    y 0.000000 2.126940 0.000000 
#    z 0.065670 0.000000 2.190310 
# 
# From -- ./inp_files/328603.got.cif
#   From: 2010.05.17/outbox.cif.g08.bks.cpg/sg12_165_cif.got.tgz:328603.got - 2010.06.03 13:09:07.
