data_PCOD9174049
_publ_section_title
;
Structure prediction by ZEFSAII (Michael W. Deem and Ramdas Pophale) SiO2 
 PCOD9174049
Probable space group: C 2/M
;
_chemical_formula_sum "Si O2"
_cell_formula_units_Z 48
_cell_length_a 17.235592
_cell_length_b 20.756150
_cell_length_c 19.868732
_cell_angle_alpha 90.000000
_cell_angle_beta 158.444975
_cell_angle_gamma 90.000000
_cell_volume 2611.415193
_symmetry_space_group_name_H-M "C 2/M"
_symmetry_group_IT_number 12
_symmetry_cell_setting 'monoclinic'
loop_
_space_group_symop_operation_xyz
x,y,z
-x,y,-z
-x,-y,-z
x,-y,z
1/2+x,1/2+y,z
1/2-x,1/2+y,-z
1/2-x,1/2-y,-z
1/2+x,1/2-y,z
loop_
_atom_site_type_symbol
_atom_site_label
_atom_site_fract_x
_atom_site_fract_y
_atom_site_fract_z
Si Si1 0.031106 0.749298 0.913036
Si Si2 0.332527 0.682426 0.536008
Si Si3 0.737165 0.429170 0.721418
Si Si4 0.962489 0.572565 0.760486
Si Si5 0.669072 0.348160 0.920546
Si Si6 0.295978 0.705561 0.252122
O O1 0.056896 0.814984 0.893501
O O2 0.801085 0.734793 0.758050
O O3 0.133017 0.696852 0.944475
O O4 0.183409 0.743169 0.100581
O O5 0.250000 0.750000 0.500000
O O6 0.161673 0.627618 0.381331
O O7 0.503234 0.652753 0.725871
O O8 0.460558 0.701626 0.571817
O O9 0.500000 0.424056 0.500000
O O10 0.758930 0.500000 0.770427
O O11 0.884685 0.424459 0.775254
O O12 0.770359 0.369647 0.797440
O O13 0.914772 0.500000 0.698065
O O14 0.211654 0.587228 0.962855
#
# Coordination Sequence:
#
# PCOD9174049 Si02
#       6
#     8   8   8   8   8   8
#     4   9  18  32  52  76 107 144 186 233 275 331
#     4  11  23  36  57  84 114 151 193 243 289 337
#     4  10  19  31  47  74 115 157 191 223 264 330
#     4  11  22  37  56  81 116 158 195 230 279 344
#     4  10  20  37  54  76 112 145 189 236 284 324
#     4  10  18  31  52  76 109 147 186 225 282 333
#
# _framework density 18.380838000000001
#
# number of rings (size 3 to 8) (size 9 to 14) (size 15 to 20)
#    0.000    1.833    3.333    3.000    0.000    0.667 
#    0.000    4.167    0.000    0.000    0.000    9.333 
#    0.000   13.333    0.000    0.000    0.000    0.000 
#
# Total GULP energy -133796.406288 kJ/mol
# GULP energy per Si atom -5574.850262 kJ/mol
# Density = 1.833900 g / cm^3
# Si number density = 18.380838 Si / 1000 Ang^3
#
#
#
# Elastic Constant Matrix: (Units=GPa)
#
#
# Indices 1 2 3 4 5 6 
#
# 1 92.6989 42.8626 28.5165 -0.0361 9.1421 0.0093
# 2 42.8626 77.1955 39.0933 -0.3073 7.5222 0.0453
# 3 28.5165 39.0933 98.3242 -0.0665 -11.0792 -0.0395
# 4 -0.0361 -0.3073 -0.0665 -6.3366 -0.0448 12.3315
# 5 9.1421 7.5222 -11.0792 -0.0448 29.7988 0.0118
# 6 0.0093 0.0453 -0.0395 12.3315 0.0118 9.8322
#
#
#
# Elastic Compliance Matrix: (Units=1/GPa)
#
#
# Indices 1 2 3 4 5 6 
#
# 1 0.014966 -0.006962 -0.001975 0.000095 -0.003568 -0.000105
# 2 -0.006962 0.020883 -0.006928 -0.000313 -0.005712 0.000281
# 3 -0.001975 -0.006928 0.014365 0.000088 0.007696 -0.000028
# 4 0.000095 -0.000313 0.000088 -0.045861 -0.000009 0.057520
# 5 -0.003568 -0.005712 0.007696 -0.000009 0.038956 0.000025
# 6 -0.000105 0.000281 -0.000028 0.057520 0.000025 0.029564
#
#
# Mechanical properties :
#
#
# Convention : Reuss Voigt Hill
#
# Bulk Modulus (GPa) = 54.09558 54.35147 54.22352
# Shear Modulus (GPa) = 45.14157 17.17529 31.15843
#
# Velocity S-wave (km/s) = 4.96108 3.06013 4.12170
# Velocity P-wave (km/s) = 7.89372 6.48997 7.22601
#
# Compressibility (1/GPa) = 0.01848580
#
# Stress axis : x y z
#
# Youngs Moduli (GPa) = 66.81819 47.88551 69.61491
#
# Poissons Ratio (x) = 0.33337 0.13746
# Poissons Ratio (y) = 0.46517 0.48227
# Poissons Ratio (z) = 0.13194 0.33174
#
# Static dielectric constant tensor:
#      x y z
#    x 1.633890 0.000000 0.014480 
#    y 0.000000 1.661090 -0.000030 
#    z 0.014480 -0.000030 1.702370 
# 
# From -- ./inp_files/317926.got.cif
#   From: 2010.05.17/outbox.cif.g08.bks.cpg/sg12_159_cif.got.tgz:317926.got - 2010.06.03 13:09:07.
