data_PCOD9174807
_publ_section_title
;
Structure prediction by ZEFSAII (Michael W. Deem and Ramdas Pophale) SiO2 
 PCOD9174807
Probable space group: C 2/M
;
_chemical_formula_sum "Si O2"
_cell_formula_units_Z 48
_cell_length_a 5.556937
_cell_length_b 25.215180
_cell_length_c 17.325074
_cell_angle_alpha 90.000000
_cell_angle_beta 130.263058
_cell_angle_gamma 90.000000
_cell_volume 1852.446490
_symmetry_space_group_name_H-M "C 2/M"
_symmetry_group_IT_number 12
_symmetry_cell_setting 'monoclinic'
loop_
_space_group_symop_operation_xyz
x,y,z
-x,y,-z
-x,-y,-z
x,-y,z
1/2+x,1/2+y,z
1/2-x,1/2+y,-z
1/2-x,1/2-y,-z
1/2+x,1/2-y,z
loop_
_atom_site_type_symbol
_atom_site_label
_atom_site_fract_x
_atom_site_fract_y
_atom_site_fract_z
Si Si1 0.507500 0.229183 0.384106
Si Si2 0.598458 0.439271 0.619463
Si Si3 0.247063 0.279028 0.877515
Si Si4 0.606295 0.563286 0.856575
Si Si5 0.407664 0.899708 0.150409
Si Si6 0.112744 0.394468 0.625750
O O1 0.750000 0.250000 0.500000
O O2 0.174079 0.254260 0.339265
O O3 0.474674 0.166515 0.382490
O O4 0.496054 0.500000 0.601945
O O5 0.307920 0.403055 0.587412
O O6 0.860343 0.429198 0.740875
O O7 0.802019 0.427608 0.584941
O O8 0.469837 0.258860 0.853649
O O9 0.100497 0.337137 0.834622
O O10 0.500000 0.285096 0.000000
O O11 0.626415 0.500000 0.854267
O O12 0.436792 0.578670 0.900710
O O13 0.365514 0.587340 0.742805
O O14 0.937124 0.588363 0.899857
#
# Coordination Sequence:
#
# PCOD9174807 Si02
#       6
#     8   8   8   8   8   8
#     4  10  21  37  54  75 102 139 175 210 251 298
#     4  10  19  33  53  81 110 136 165 208 267 317
#     4  10  21  37  54  72  99 140 184 221 256 299
#     4  10  19  33  53  79 108 136 164 206 267 319
#     4  10  18  32  53  76 103 138 172 213 260 312
#     4  10  18  32  53  79 104 137 172 202 251 314
#
# _framework density 25.91168
#
# number of rings (size 3 to 8) (size 9 to 14) (size 15 to 20)
#    0.000    2.000    0.000    7.000    0.000    0.000 
#    0.000   20.000    0.000    5.500    0.000   79.333 
#    0.000    0.000    0.000    0.000    0.000    0.000 
#
# Total GULP energy -134451.036331 kJ/mol
# GULP energy per Si atom -5602.126514 kJ/mol
# Density = 2.585270 g / cm^3
# Si number density = 25.911680 Si / 1000 Ang^3
#
#
#
# Elastic Constant Matrix: (Units=GPa)
#
#
# Indices 1 2 3 4 5 6 
#
# 1 253.8331 49.2368 42.7034 0.0000 2.1313 0.0000
# 2 49.2368 192.9518 -9.9913 0.0000 8.8384 0.0000
# 3 42.7034 -9.9913 74.2243 0.0000 10.2885 0.0000
# 4 0.0000 0.0000 0.0000 228.2160 0.0000 -6.4918
# 5 2.1313 8.8384 10.2885 0.0000 57.7311 0.0000
# 6 0.0000 0.0000 0.0000 -6.4918 0.0000 57.0658
#
#
#
# Elastic Compliance Matrix: (Units=1/GPa)
#
#
# Indices 1 2 3 4 5 6 
#
# 1 0.004702 -0.001380 -0.002969 0.000000 0.000567 0.000000
# 2 -0.001380 0.005675 0.001713 0.000000 -0.001123 0.000000
# 3 -0.002969 0.001713 0.015824 0.000000 -0.002973 0.000000
# 4 0.000000 0.000000 0.000000 0.004396 0.000000 0.000500
# 5 0.000567 -0.001123 -0.002973 0.000000 0.018002 0.000000
# 6 0.000000 0.000000 0.000000 0.000500 0.000000 0.017581
#
#
# Mechanical properties :
#
#
# Convention : Reuss Voigt Hill
#
# Bulk Modulus (GPa) = 47.78034 76.10078 61.94056
# Shear Modulus (GPa) = 63.75310 97.87327 80.81319
#
# Velocity S-wave (km/s) = 4.96562 6.15255 5.59067
# Velocity P-wave (km/s) = 7.16633 8.93895 8.10127
#
# Compressibility (1/GPa) = 0.02092911
#
# Stress axis : x y z
#
# Youngs Moduli (GPa) = 212.67528 176.21639 63.19605
#
# Poissons Ratio (x) = 0.24310 0.18766
# Poissons Ratio (y) = 0.29340 -0.10827
# Poissons Ratio (z) = 0.63153 -0.30191
#
# Static dielectric constant tensor:
#      x y z
#    x 2.055530 0.000000 -0.003740 
#    y 0.000000 1.876080 0.000000 
#    z -0.003740 0.000000 1.870730 
# 
# From -- ./inp_files/298140.got.cif
#   From: 2010.05.17/outbox.cif.g08.bks.cpg/sg12_150_cif.got.tgz:298140.got - 2010.06.03 13:09:07.
