data_PCOD9174342
_publ_section_title
;
Structure prediction by ZEFSAII (Michael W. Deem and Ramdas Pophale) SiO2 
 PCOD9174342
Probable space group: C 2/M
;
_chemical_formula_sum "Si O2"
_cell_formula_units_Z 64
_cell_length_a 22.812548
_cell_length_b 8.795660
_cell_length_c 17.211520
_cell_angle_alpha 90.000000
_cell_angle_beta 84.552811
_cell_angle_gamma 90.000000
_cell_volume 3437.920192
_symmetry_space_group_name_H-M "C 2/M"
_symmetry_group_IT_number 12
_symmetry_cell_setting 'monoclinic'
loop_
_space_group_symop_operation_xyz
x,y,z
-x,y,-z
-x,-y,-z
x,-y,z
1/2+x,1/2+y,z
1/2-x,1/2+y,-z
1/2-x,1/2-y,-z
1/2+x,1/2-y,z
loop_
_atom_site_type_symbol
_atom_site_label
_atom_site_fract_x
_atom_site_fract_y
_atom_site_fract_z
Si Si1 0.809931 0.181548 0.087047
Si Si2 0.045716 0.821396 0.383600
Si Si3 0.328252 0.818707 0.920145
Si Si4 0.729434 0.181236 0.334011
Si Si5 0.655255 0.179958 0.754655
Si Si6 0.368609 0.678019 0.764165
Si Si7 0.144258 0.319623 0.479623
Si Si8 0.912809 0.819108 0.369179
O O1 0.739727 0.217431 0.095165
O O2 0.838276 0.244906 0.161798
O O3 0.815577 0.000000 0.083079
O O4 0.835854 0.255549 0.005849
O O5 0.071831 0.808775 0.293254
O O6 0.088081 0.724711 0.433305
O O7 0.977636 0.777569 0.392410
O O8 0.050785 0.000000 0.406292
O O9 0.369244 0.739997 0.851114
O O10 0.335132 0.000000 0.917827
O O11 0.787395 0.268880 0.301494
O O12 0.679737 0.225683 0.277246
O O13 0.701219 0.222802 0.420890
O O14 0.739857 0.000000 0.330530
O O15 0.601121 0.240489 0.710569
O O16 0.653641 0.000000 0.762518
O O17 0.351481 0.500000 0.765896
O O18 0.145473 0.500000 0.492823
O O19 0.134658 0.232782 0.560948
O O20 0.910833 0.000000 0.360107
#
# Coordination Sequence:
#
# PCOD9174342 Si02
#       8
#     8   8   8   8   8   8   8   8
#     4  10  20  34  53  78 112 146 177 214 261 317
#     4   9  20  37  57  81 107 141 182 224 269 319
#     4  10  19  31  52  82 114 143 177 215 261 315
#     4  10  20  35  53  77 109 144 177 215 269 325
#     4  12  24  37  55  78 109 144 181 222 267 321
#     4  10  18  31  54  82 111 140 176 221 268 314
#     4  10  21  36  57  83 109 136 176 229 276 317
#     4  11  23  39  57  76 105 145 186 223 267 322
#
# _framework density 18.615905000000001
#
# number of rings (size 3 to 8) (size 9 to 14) (size 15 to 20)
#    0.000    1.750    1.250    3.750    0.000    6.000 
#    0.000    0.000    0.000    0.750    0.000    5.250 
#    0.000    0.000    0.000    0.000    0.000    0.000 
#
# Total GULP energy -178786.536923 kJ/mol
# GULP energy per Si atom -5587.079279 kJ/mol
# Density = 1.857353 g / cm^3
# Si number density = 18.615905 Si / 1000 Ang^3
#
#
#
# Elastic Constant Matrix: (Units=GPa)
#
#
# Indices 1 2 3 4 5 6 
#
# 1 9.0401 -6.3170 -0.3272 0.0000 -2.7195 0.0000
# 2 -6.3170 38.1378 20.9513 0.0000 -0.6937 0.0000
# 3 -0.3272 20.9513 107.1834 0.0000 -2.5157 0.0000
# 4 0.0000 0.0000 0.0000 36.2817 0.0000 0.2732
# 5 -2.7195 -0.6937 -2.5157 0.0000 21.4083 0.0000
# 6 0.0000 0.0000 0.0000 0.2732 0.0000 21.0195
#
#
#
# Elastic Compliance Matrix: (Units=1/GPa)
#
#
# Indices 1 2 3 4 5 6 
#
# 1 0.132757 0.024487 -0.003978 0.000000 0.017190 0.000000
# 2 0.024487 0.033893 -0.006469 0.000000 0.003449 0.000000
# 3 -0.003978 -0.006469 0.010595 0.000000 0.000530 0.000000
# 4 0.000000 0.000000 0.000000 0.027565 0.000000 -0.000358
# 5 0.017190 0.003449 0.000530 0.000000 0.049068 0.000000
# 6 0.000000 0.000000 0.000000 -0.000358 0.000000 0.047579
#
#
# Mechanical properties :
#
#
# Convention : Reuss Voigt Hill
#
# Bulk Modulus (GPa) = 4.87033 20.33060 12.60046
# Shear Modulus (GPa) = 14.62762 25.07886 19.85324
#
# Velocity S-wave (km/s) = 2.80618 3.67437 3.26922
# Velocity P-wave (km/s) = 3.62235 5.38016 4.58626
#
# Compressibility (1/GPa) = 0.20532486
#
# Stress axis : x y z
#
# Youngs Moduli (GPa) = 7.53258 29.50420 94.38682
#
# Poissons Ratio (x) = -0.72248 0.37546
# Poissons Ratio (y) = -0.18445 0.61064
# Poissons Ratio (z) = 0.02996 0.19088
#
# Static dielectric constant tensor:
#      x y z
#    x 1.638970 0.000000 -0.007460 
#    y 0.000000 1.616880 0.000000 
#    z -0.007460 0.000000 1.651110 
# 
# From -- ./inp_files/238805.got.cif
#   From: 2010.05.17/outbox.cif.g08.bks.cpg/sg12_120_cif.got.tgz:238805.got - 2010.06.03 13:09:07.
