data_PCOD9174367
_publ_section_title
;
Structure prediction by ZEFSAII (Michael W. Deem and Ramdas Pophale) SiO2 
 PCOD9174367
Probable space group: C 2/M
;
_chemical_formula_sum "Si O2"
_cell_formula_units_Z 64
_cell_length_a 29.624210
_cell_length_b 7.879607
_cell_length_c 14.675126
_cell_angle_alpha 90.000000
_cell_angle_beta 120.059117
_cell_angle_gamma 90.000000
_cell_volume 2964.864069
_symmetry_space_group_name_H-M "C 2/M"
_symmetry_group_IT_number 12
_symmetry_cell_setting 'monoclinic'
loop_
_space_group_symop_operation_xyz
x,y,z
-x,y,-z
-x,-y,-z
x,-y,z
1/2+x,1/2+y,z
1/2-x,1/2+y,-z
1/2-x,1/2-y,-z
1/2+x,1/2-y,z
loop_
_atom_site_type_symbol
_atom_site_label
_atom_site_fract_x
_atom_site_fract_y
_atom_site_fract_z
Si Si1 0.610154 0.307642 0.260655
Si Si2 0.803853 0.698254 0.508633
Si Si3 0.669921 0.791135 0.665816
Si Si4 0.944692 0.699369 0.469295
Si Si5 0.589853 0.797402 0.858535
Si Si6 0.300296 0.204467 0.109488
Si Si7 0.977513 0.698753 0.704952
Si Si8 0.558669 0.293916 0.032265
O O1 0.628167 0.500000 0.266740
O O2 0.649948 0.228567 0.372448
O O3 0.553394 0.301750 0.250761
O O4 0.599470 0.231541 0.150435
O O5 0.801414 0.500000 0.490552
O O6 0.750000 0.750000 0.500000
O O7 0.812687 0.772975 0.416163
O O8 0.610073 0.734100 0.620699
O O9 0.702359 0.739629 0.787415
O O10 0.668944 0.000000 0.662664
O O11 0.946744 0.500000 0.441904
O O12 0.945208 0.705360 0.579183
O O13 0.000000 0.778828 0.500000
O O14 0.645348 0.730076 0.879842
O O15 0.537075 0.742591 0.752559
O O16 0.592610 0.000000 0.849349
O O17 0.576817 0.759064 0.950557
O O18 0.303112 0.000000 0.113580
O O19 0.250000 0.250000 0.000000
O O20 0.978582 0.500000 0.734051
O O21 0.558230 0.500000 0.035461
O O22 0.500000 0.236592 0.000000
#
# Coordination Sequence:
#
# PCOD9174367 Si02
#       8
#     8   8   8   8   8   8   8   8
#     4  11  22  37  57  82 115 156 196 238 287 344
#     4  11  23  41  63  89 118 153 197 242 291 344
#     4   9  18  35  59  84 113 148 188 232 279 341
#     4   9  15  26  51  85 113 141 180 225 278 343
#     4  10  21  35  57  89 119 147 192 252 301 341
#     4  10  22  41  61  85 115 151 196 243 288 340
#     4  10  18  31  54  85 116 146 184 236 294 349
#     4  10  21  37  56  81 117 162 203 237 286 356
#
# _framework density 21.586148000000001
#
# number of rings (size 3 to 8) (size 9 to 14) (size 15 to 20)
#    0.000    2.000    2.500    1.500    0.000    5.750 
#    0.000    5.000    0.000    0.375    0.000    0.000 
#    0.000    0.000    0.000    0.000    0.000    0.000 
#
# Total GULP energy -178565.306810 kJ/mol
# GULP energy per Si atom -5580.165838 kJ/mol
# Density = 2.153702 g / cm^3
# Si number density = 21.586148 Si / 1000 Ang^3
#
#
#
# Elastic Constant Matrix: (Units=GPa)
#
#
# Indices 1 2 3 4 5 6 
#
# 1 95.8232 -0.9962 64.0028 0.0000 13.6102 0.0000
# 2 -0.9962 15.6872 9.6755 0.0000 1.3424 0.0000
# 3 64.0028 9.6755 158.3965 0.0000 14.7238 0.0000
# 4 0.0000 0.0000 0.0000 15.1058 0.0000 10.8481
# 5 13.6102 1.3424 14.7238 0.0000 27.1458 0.0000
# 6 0.0000 0.0000 0.0000 10.8481 0.0000 12.2278
#
#
#
# Elastic Compliance Matrix: (Units=1/GPa)
#
#
# Indices 1 2 3 4 5 6 
#
# 1 0.015151 0.005058 -0.006004 0.000000 -0.004590 0.000000
# 2 0.005058 0.067964 -0.005947 0.000000 -0.002671 0.000000
# 3 -0.006004 -0.005947 0.009263 0.000000 -0.001719 0.000000
# 4 0.000000 0.000000 0.000000 0.182423 0.000000 -0.161840
# 5 -0.004590 -0.002671 -0.001719 0.000000 0.040204 0.000000
# 6 0.000000 0.000000 0.000000 -0.161840 0.000000 0.225359
#
#
# Mechanical properties :
#
#
# Convention : Reuss Voigt Hill
#
# Bulk Modulus (GPa) = 12.72412 46.14126 29.43269
# Shear Modulus (GPa) = 8.61553 24.04420 16.32987
#
# Velocity S-wave (km/s) = 1.99997 3.34109 2.75343
# Velocity P-wave (km/s) = 3.35270 6.02542 4.87577
#
# Compressibility (1/GPa) = 0.07859093
#
# Stress axis : x y z
#
# Youngs Moduli (GPa) = 66.00327 14.71369 107.96214
#
# Poissons Ratio (x) = -0.07442 0.64823
# Poissons Ratio (y) = -0.33386 0.64206
# Poissons Ratio (z) = 0.39630 0.08750
#
# Static dielectric constant tensor:
#      x y z
#    x 1.785760 0.000000 -0.014540 
#    y 0.000000 1.795850 0.000000 
#    z -0.014540 0.000000 1.806930 
# 
# From -- ./inp_files/249218.got.cif
#   From: 2010.05.17/outbox.cif.g08.bks.cpg/sg12_125_cif.got.tgz:249218.got - 2010.06.03 13:09:07.
