data_PCOD9174735
_publ_section_title
;
Structure prediction by ZEFSAII (Michael W. Deem and Ramdas Pophale) SiO2 
 PCOD9174735
Probable space group: C 2/M
;
_chemical_formula_sum "Si O2"
_cell_formula_units_Z 56
_cell_length_a 22.221691
_cell_length_b 14.761889
_cell_length_c 14.499215
_cell_angle_alpha 90.000000
_cell_angle_beta 38.168570
_cell_angle_gamma 90.000000
_cell_volume 2939.246382
_symmetry_space_group_name_H-M "C 2/M"
_symmetry_group_IT_number 12
_symmetry_cell_setting 'monoclinic'
loop_
_space_group_symop_operation_xyz
x,y,z
-x,y,-z
-x,-y,-z
x,-y,z
1/2+x,1/2+y,z
1/2-x,1/2+y,-z
1/2-x,1/2-y,-z
1/2+x,1/2-y,z
loop_
_atom_site_type_symbol
_atom_site_label
_atom_site_fract_x
_atom_site_fract_y
_atom_site_fract_z
Si Si1 0.075842 0.109444 0.326153
Si Si2 0.482544 0.104966 0.855301
Si Si3 0.981725 0.803522 0.797061
Si Si4 0.818562 0.851317 0.344414
Si Si5 0.192377 0.637342 0.661714
Si Si6 0.404789 0.395730 0.056638
Si Si7 0.230168 0.603792 0.817402
O O1 0.043900 0.156059 0.270346
O O2 0.181458 0.146380 0.232283
O O3 0.000000 0.126770 0.500000
O O4 0.077391 0.000000 0.310521
O O5 0.495675 0.194525 0.775690
O O6 0.579659 0.108569 0.800606
O O7 0.476185 0.000000 0.827975
O O8 0.381533 0.128655 0.028341
O O9 0.080083 0.849550 0.719912
O O10 0.901191 0.833266 0.971028
O O11 0.799312 0.745593 0.349822
O O12 0.739507 0.892886 0.508557
O O13 0.825744 0.892290 0.233540
O O14 0.246783 0.607622 0.688048
O O15 0.418146 0.500000 0.011441
O O16 0.500000 0.365162 0.000000
O O17 0.234363 0.500000 0.840913
#
# Coordination Sequence:
#
# PCOD9174735 Si02
#       7
#     8   8   8   8   8   8   8
#     4  10  21  36  56  83 109 136 175 220 269 325
#     4  10  21  35  53  77 105 142 185 224 265 315
#     4  10  19  35  56  77 108 143 175 218 269 320
#     4   9  19  31  49  78 108 139 177 219 263 321
#     4  10  18  32  52  76 109 144 176 216 269 315
#     4   9  17  29  47  73 104 137 172 211 261 319
#     4  10  20  33  51  77 107 138 178 223 264 316
#
# _framework density 19.052503000000002
#
# number of rings (size 3 to 8) (size 9 to 14) (size 15 to 20)
#    0.000    2.286    0.000    3.000    0.000    5.714 
#    0.000    0.000    0.000    0.429    0.000    0.000 
#    0.000    0.000    0.000    0.000    0.000    0.000 
#
# Total GULP energy -155871.820076 kJ/mol
# GULP energy per Si atom -5566.850717 kJ/mol
# Density = 1.900914 g / cm^3
# Si number density = 19.052503 Si / 1000 Ang^3
#
#
#
# Elastic Constant Matrix: (Units=GPa)
#
#
# Indices 1 2 3 4 5 6 
#
# 1 95.0507 42.8421 42.3045 0.0000 14.2427 0.0000
# 2 42.8421 76.8968 30.3910 0.0000 13.8387 0.0000
# 3 42.3045 30.3910 63.3106 0.0000 5.7161 0.0000
# 4 0.0000 0.0000 0.0000 6.7913 0.0000 -0.9735
# 5 14.2427 13.8387 5.7161 0.0000 24.3195 0.0000
# 6 0.0000 0.0000 0.0000 -0.9735 0.0000 16.1372
#
#
#
# Elastic Compliance Matrix: (Units=1/GPa)
#
#
# Indices 1 2 3 4 5 6 
#
# 1 0.017621 -0.005451 -0.008690 0.000000 -0.005175 0.000000
# 2 -0.005451 0.019188 -0.004976 0.000000 -0.006557 0.000000
# 3 -0.008690 -0.004976 0.023780 0.000000 0.002332 0.000000
# 4 0.000000 0.000000 0.000000 0.148532 0.000000 0.008960
# 5 -0.005175 -0.006557 0.002332 0.000000 0.047333 0.000000
# 6 0.000000 0.000000 0.000000 0.008960 0.000000 0.062509
#
#
# Mechanical properties :
#
#
# Convention : Reuss Voigt Hill
#
# Bulk Modulus (GPa) = 44.73581 51.81481 48.27531
# Shear Modulus (GPa) = 13.71173 17.43095 15.57134
#
# Velocity S-wave (km/s) = 2.68560 3.02800 2.86192
# Velocity P-wave (km/s) = 5.75742 6.28330 6.02610
#
# Compressibility (1/GPa) = 0.02235345
#
# Stress axis : x y z
#
# Youngs Moduli (GPa) = 56.74998 52.11493 42.05145
#
# Poissons Ratio (x) = 0.28410 0.36545
# Poissons Ratio (y) = 0.30937 0.20926
# Poissons Ratio (z) = 0.49318 0.25934
#
# Static dielectric constant tensor:
#      x y z
#    x 1.634290 0.000000 -0.033520 
#    y 0.000000 1.702580 0.000000 
#    z -0.033520 0.000000 1.769750 
# 
# From -- ./inp_files/233665.got.cif
#   From: 2010.05.17/outbox.cif.g08.bks.cpg/sg12_117_cif.got.tgz:233665.got - 2010.06.03 13:09:07.
