data_PCOD9174823
_publ_section_title
;
Structure prediction by ZEFSAII (Michael W. Deem and Ramdas Pophale) SiO2 
 PCOD9174823
Probable space group: C 2/M
;
_chemical_formula_sum "Si O2"
_cell_formula_units_Z 48
_cell_length_a 29.598675
_cell_length_b 23.442024
_cell_length_c 12.824555
_cell_angle_alpha 90.000000
_cell_angle_beta 18.773604
_cell_angle_gamma 90.000000
_cell_volume 2863.753207
_symmetry_space_group_name_H-M "C 2/M"
_symmetry_group_IT_number 12
_symmetry_cell_setting 'monoclinic'
loop_
_space_group_symop_operation_xyz
x,y,z
-x,y,-z
-x,-y,-z
x,-y,z
1/2+x,1/2+y,z
1/2-x,1/2+y,-z
1/2-x,1/2-y,-z
1/2+x,1/2-y,z
loop_
_atom_site_type_symbol
_atom_site_label
_atom_site_fract_x
_atom_site_fract_y
_atom_site_fract_z
Si Si1 0.799090 0.375574 0.229220
Si Si2 0.484704 0.649664 0.832847
Si Si3 0.556710 0.434389 0.493095
Si Si4 0.897886 0.264131 0.123739
Si Si5 0.347915 0.561847 0.275874
Si Si6 0.119364 0.432991 0.159972
O O1 0.641238 0.356191 0.540179
O O2 0.882079 0.323741 0.099063
O O3 0.767277 0.423081 0.386155
O O4 0.873467 0.400220 0.964816
O O5 0.495946 0.615871 0.698923
O O6 0.441848 0.715030 0.945015
O O7 0.370603 0.613263 0.147149
O O8 0.500000 0.430047 0.500000
O O9 0.525940 0.500000 0.598665
O O10 0.725448 0.428660 0.129093
O O11 0.750000 0.250000 0.500000
O O12 0.000000 0.265538 0.000000
O O13 0.321375 0.500000 0.285447
O O14 0.500000 0.558675 0.000000
O O15 0.093008 0.500000 0.197017
O O16 0.000000 0.412291 0.500000
#
# Coordination Sequence:
#
# PCOD9174823 Si02
#       6
#     8   8   8   8   8   8
#     4  10  19  33  53  77 104 138 178 215 261 319
#     4  10  18  32  53  77 105 137 177 216 262 316
#     4   9  18  34  56  81 107 136 173 220 268 310
#     4  12  21  37  55  77 108 144 178 218 266 316
#     4   9  15  25  47  78 103 126 167 217 260 308
#     4   9  18  35  57  79 106 140 175 214 264 319
#
# _framework density 16.761222
#
# number of rings (size 3 to 8) (size 9 to 14) (size 15 to 20)
#    0.000    2.167    3.333    1.500    0.000    4.000 
#    3.000    0.833    0.000    6.000    0.000    0.000 
#    0.000    0.000    0.000    0.000    0.000    0.000 
#
# Total GULP energy -133658.182134 kJ/mol
# GULP energy per Si atom -5569.090922 kJ/mol
# Density = 1.672307 g / cm^3
# Si number density = 16.761222 Si / 1000 Ang^3
#
#
#
# Elastic Constant Matrix: (Units=GPa)
#
#
# Indices 1 2 3 4 5 6 
#
# 1 87.8221 50.1178 44.4032 -0.0001 8.8233 0.0000
# 2 50.1178 104.2996 40.1812 -0.0020 9.6851 -0.0002
# 3 44.4032 40.1812 85.6502 -0.0015 25.5252 0.0003
# 4 -0.0001 -0.0020 -0.0015 17.5822 -0.0003 5.7921
# 5 8.8233 9.6851 25.5252 -0.0003 24.9641 0.0003
# 6 0.0000 -0.0002 0.0003 5.7921 0.0003 28.9434
#
#
#
# Elastic Compliance Matrix: (Units=1/GPa)
#
#
# Indices 1 2 3 4 5 6 
#
# 1 0.018517 -0.006242 -0.007828 -0.000001 0.003881 0.000000
# 2 -0.006242 0.013849 -0.003332 0.000001 0.000241 0.000000
# 3 -0.007828 -0.003332 0.023137 0.000001 -0.019598 0.000000
# 4 -0.000001 0.000001 0.000001 0.060890 0.000000 -0.012185
# 5 0.003881 0.000241 -0.019598 0.000000 0.058631 0.000000
# 6 0.000000 0.000000 0.000000 -0.012185 0.000000 0.036989
#
#
# Mechanical properties :
#
#
# Convention : Reuss Voigt Hill
#
# Bulk Modulus (GPa) = 48.31404 60.79737 54.55570
# Shear Modulus (GPa) = 19.70702 23.83591 21.77147
#
# Velocity S-wave (km/s) = 3.43264 3.77515 3.60796
# Velocity P-wave (km/s) = 6.67819 7.44001 7.06937
#
# Compressibility (1/GPa) = 0.02069792
#
# Stress axis : x y z
#
# Youngs Moduli (GPa) = 54.00498 72.20824 43.22028
#
# Poissons Ratio (x) = 0.45076 0.33831
# Poissons Ratio (y) = 0.33712 0.14403
# Poissons Ratio (z) = 0.42273 0.24063
#
# Static dielectric constant tensor:
#      x y z
#    x 1.726250 0.000000 -0.117140 
#    y 0.000000 1.580440 0.000000 
#    z -0.117140 0.000000 1.645320 
# 
# From -- ./inp_files/185015.got.cif
#   From: 2010.05.17/outbox.cif.g08.bks.cpg/sg12_93_cif.got.tgz:185015.got - 2010.06.03 13:09:07.
