data_PCOD9174977
_publ_section_title
;
Structure prediction by ZEFSAII (Michael W. Deem and Ramdas Pophale) SiO2 
 PCOD9174977
Probable space group: C 2/M
;
_chemical_formula_sum "Si O2"
_cell_formula_units_Z 60
_cell_length_a 21.369840
_cell_length_b 9.985834
_cell_length_c 21.483578
_cell_angle_alpha 90.000000
_cell_angle_beta 131.944500
_cell_angle_gamma 90.000000
_cell_volume 3409.919289
_symmetry_space_group_name_H-M "C 2/M"
_symmetry_group_IT_number 12
_symmetry_cell_setting 'monoclinic'
loop_
_space_group_symop_operation_xyz
x,y,z
-x,y,-z
-x,-y,-z
x,-y,z
1/2+x,1/2+y,z
1/2-x,1/2+y,-z
1/2-x,1/2-y,-z
1/2+x,1/2-y,z
loop_
_atom_site_type_symbol
_atom_site_label
_atom_site_fract_x
_atom_site_fract_y
_atom_site_fract_z
Si Si1 0.312128 0.851188 0.381727
Si Si2 0.000000 0.265697 0.500000
Si Si3 0.209107 0.846226 0.523310
Si Si4 0.902905 0.340776 0.951680
Si Si5 0.402111 0.157147 0.221199
Si Si6 0.490474 0.352539 0.626634
Si Si7 0.238710 0.844120 0.194398
Si Si8 0.331786 0.158681 0.042287
O O1 0.413849 0.846687 0.451278
O O2 0.281756 0.730570 0.405049
O O3 0.279277 0.833017 0.289815
O O4 0.285040 0.000000 0.385540
O O5 0.984880 0.179187 0.428104
O O6 0.250000 0.750000 0.500000
O O7 0.110173 0.850610 0.441423
O O8 0.240089 0.000000 0.544836
O O9 0.890686 0.500000 0.932839
O O10 0.839318 0.253107 0.868372
O O11 0.877070 0.314001 0.006587
O O12 0.000000 0.310043 0.000000
O O13 0.471129 0.244329 0.301818
O O14 0.312169 0.187753 0.193596
O O15 0.393179 0.181271 0.141877
O O16 0.418445 0.000000 0.242902
O O17 0.520845 0.500000 0.664596
O O18 0.214458 0.000000 0.169079
O O19 0.308563 0.000000 0.027935
O O20 0.250000 0.250000 0.000000
#
# Coordination Sequence:
#
# PCOD9174977 Si02
#       8
#     8   4   8   8   8   8   8   8
#     4  10  20  34  56  83 114 149 186 228 277 336
#     4  10  18  32  54  84 114 146 182 224 274 330
#     4  10  22  40  58  78 108 149 195 240 284 336
#     4  10  22  40  60  84 115 151 193 240 294 357
#     4  10  20  35  55  83 115 144 183 231 282 343
#     4  10  21  35  54  81 112 143 183 233 280 328
#     4  10  20  36  57  86 117 147 186 234 284 343
#     4  10  20  36  59  84 112 146 185 233 285 342
#
# _framework density 17.595724000000001
#
# number of rings (size 3 to 8) (size 9 to 14) (size 15 to 20)
#    0.000    2.000    2.667    0.800    0.000    5.067 
#    2.400    0.000    0.000    0.000    0.000    0.000 
#    0.000    0.000    0.000    0.000    0.000    0.000 
#
# Total GULP energy -167315.818183 kJ/mol
# GULP energy per Si atom -5577.193939 kJ/mol
# Density = 1.755568 g / cm^3
# Si number density = 17.595724 Si / 1000 Ang^3
#
#
#
# Elastic Constant Matrix: (Units=GPa)
#
#
# Indices 1 2 3 4 5 6 
#
# 1 66.8650 39.7045 18.5809 0.0000 -14.0698 0.0000
# 2 39.7045 90.3155 45.9882 0.0000 -4.3589 0.0000
# 3 18.5809 45.9882 86.1570 0.0000 -9.5553 0.0000
# 4 0.0000 0.0000 0.0000 -4.8880 0.0000 1.8469
# 5 -14.0698 -4.3589 -9.5553 0.0000 15.6570 0.0000
# 6 0.0000 0.0000 0.0000 1.8469 0.0000 19.2545
#
#
#
# Elastic Compliance Matrix: (Units=1/GPa)
#
#
# Indices 1 2 3 4 5 6 
#
# 1 0.025693 -0.011881 0.003212 0.000000 0.021741 0.000000
# 2 -0.011881 0.020708 -0.009692 0.000000 -0.010827 0.000000
# 3 0.003212 -0.009692 0.017277 0.000000 0.010733 0.000000
# 4 0.000000 0.000000 0.000000 -0.197426 0.000000 0.018937
# 5 0.021741 -0.010827 0.010733 0.000000 0.086942 0.000000
# 6 0.000000 0.000000 0.000000 0.018937 0.000000 0.050119
#
#
# Mechanical properties :
#
#
# Convention : Reuss Voigt Hill
#
# Bulk Modulus (GPa) = 37.09702 50.20940 43.65321
# Shear Modulus (GPa) = 101.99814 15.27563 58.63689
#
# Velocity S-wave (km/s) = 7.62190 2.94963 5.77900
# Velocity P-wave (km/s) = 9.92908 6.34014 8.33019
#
# Compressibility (1/GPa) = 0.02695634
#
# Stress axis : x y z
#
# Youngs Moduli (GPa) = 38.92151 48.29047 57.87892
#
# Poissons Ratio (x) = 0.57376 -0.18592
# Poissons Ratio (y) = 0.46244 0.56095
# Poissons Ratio (z) = -0.12502 0.46802
#
# Static dielectric constant tensor:
#      x y z
#    x 1.607780 0.000000 -0.012080 
#    y 0.000000 1.611120 0.000000 
#    z -0.012080 0.000000 1.580240 
# 
# From -- ./inp_files/320528.got.cif
#   From: 2010.05.17/outbox.cif.g08.bks.cpg/sg12_161_cif.got.tgz:320528.got - 2010.06.03 13:09:07.
