data_PCOD9174147
_publ_section_title
;
Structure prediction by ZEFSAII (Michael W. Deem and Ramdas Pophale) SiO2 
 PCOD9174147
Probable space group: C 2/M
;
_chemical_formula_sum "Si O2"
_cell_formula_units_Z 64
_cell_length_a 11.969076
_cell_length_b 15.067854
_cell_length_c 13.628385
_cell_angle_alpha 90.000000
_cell_angle_beta 99.210928
_cell_angle_gamma 90.000000
_cell_volume 2426.163725
_symmetry_space_group_name_H-M "C 2/M"
_symmetry_group_IT_number 12
_symmetry_cell_setting 'monoclinic'
loop_
_space_group_symop_operation_xyz
x,y,z
-x,y,-z
-x,-y,-z
x,-y,z
1/2+x,1/2+y,z
1/2-x,1/2+y,-z
1/2-x,1/2-y,-z
1/2+x,1/2-y,z
loop_
_atom_site_type_symbol
_atom_site_label
_atom_site_fract_x
_atom_site_fract_y
_atom_site_fract_z
Si Si1 0.166728 0.398829 0.442443
Si Si2 0.311118 0.898123 0.833378
Si Si3 0.789650 0.901852 0.767580
Si Si4 0.875648 0.894538 0.576166
Si Si5 0.288368 0.105853 0.052053
Si Si6 0.908148 0.836788 0.295455
Si Si7 0.074070 0.359660 0.644465
Si Si8 0.992559 0.745258 0.110280
O O1 0.177313 0.500000 0.410984
O O2 0.290616 0.357716 0.481153
O O3 0.113317 0.396915 0.545266
O O4 0.061767 0.361106 0.365911
O O5 0.210158 0.884491 0.742034
O O6 0.402950 0.819499 0.844711
O O7 0.356359 0.000000 0.833855
O O8 0.255786 0.888103 0.934114
O O9 0.830288 0.856794 0.674072
O O10 0.802932 0.866098 0.878240
O O11 0.653543 0.907595 0.733832
O O12 0.841603 0.000000 0.773082
O O13 0.008340 0.883267 0.614224
O O14 0.854366 0.000000 0.568462
O O15 0.390900 0.173192 0.083451
O O16 0.312313 0.000000 0.070243
O O17 0.890769 0.740930 0.338382
O O18 0.963837 0.813604 0.195166
O O19 0.000000 0.781884 0.000000
#
# Coordination Sequence:
#
# PCOD9174147 Si02
#       8
#     8   8   8   8   8   8   8   8
#     4   9  18  36  61  83 111 141 173 229 298 346
#     4  10  23  41  57  76 116 164 197 226 281 348
#     4   9  16  30  55  81 108 137 181 240 285 327
#     4   9  20  36  54  77 112 153 188 225 281 347
#     4   9  17  34  58  81 108 150 198 237 280 334
#     4  12  24  34  56  87 114 151 191 236 278 338
#     4  10  18  31  52  88 110 136 174 231 289 337
#     4  10  22  37  56  84 116 152 192 247 287 321
#
# _framework density 26.379090999999999
#
# number of rings (size 3 to 8) (size 9 to 14) (size 15 to 20)
#    0.000    2.250    1.250    3.000    3.500    5.000 
#    0.000    0.000    0.000    3.750    0.000    3.500 
#    0.000    0.000    0.000    0.000    0.000    0.000 
#
# Total GULP energy -178668.993871 kJ/mol
# GULP energy per Si atom -5583.406058 kJ/mol
# Density = 2.631905 g / cm^3
# Si number density = 26.379091 Si / 1000 Ang^3
#
#
#
# Elastic Constant Matrix: (Units=GPa)
#
#
# Indices 1 2 3 4 5 6 
#
# 1 89.9941 7.0419 33.6078 0.0000 19.6411 0.0000
# 2 7.0419 69.8963 17.8589 0.0000 5.0508 0.0000
# 3 33.6078 17.8589 116.3457 0.0000 11.0778 0.0000
# 4 0.0000 0.0000 0.0000 17.1693 0.0000 11.4643
# 5 19.6411 5.0508 11.0778 0.0000 52.3619 0.0000
# 6 0.0000 0.0000 0.0000 11.4643 0.0000 31.2504
#
#
#
# Elastic Compliance Matrix: (Units=1/GPa)
#
#
# Indices 1 2 3 4 5 6 
#
# 1 0.013332 -0.000161 -0.003421 0.000000 -0.004262 0.000000
# 2 -0.000161 0.014942 -0.002159 0.000000 -0.000924 0.000000
# 3 -0.003421 -0.002159 0.009973 0.000000 -0.000619 0.000000
# 4 0.000000 0.000000 0.000000 0.077139 0.000000 -0.028299
# 5 -0.004262 -0.000924 -0.000619 0.000000 0.020916 0.000000
# 6 0.000000 0.000000 0.000000 -0.028299 0.000000 0.042381
#
#
# Mechanical properties :
#
#
# Convention : Reuss Voigt Hill
#
# Bulk Modulus (GPa) = 37.36164 43.69481 40.52822
# Shear Modulus (GPa) = 25.11468 34.67149 29.89308
#
# Velocity S-wave (km/s) = 3.08891 3.62934 3.36997
# Velocity P-wave (km/s) = 5.18805 5.84491 5.52625
#
# Compressibility (1/GPa) = 0.02676542
#
# Stress axis : x y z
#
# Youngs Moduli (GPa) = 75.00785 66.92748 100.26618
#
# Poissons Ratio (x) = 0.01079 0.34297
# Poissons Ratio (y) = 0.01209 0.21647
# Poissons Ratio (z) = 0.25657 0.14449
#
# Static dielectric constant tensor:
#      x y z
#    x 2.238840 0.000000 -0.002020 
#    y 0.000000 2.022020 0.000000 
#    z -0.002020 0.000000 2.081650 
# 
# From -- ./inp_files/270313.got.cif
#   From: 2010.05.17/outbox.cif.g08.bks.cpg/sg12_136_cif.got.tgz:270313.got - 2010.06.03 13:09:07.
