data_PCOD9174974
_publ_section_title
;
Structure prediction by ZEFSAII (Michael W. Deem and Ramdas Pophale) SiO2 
 PCOD9174974
Probable space group: C 2/M
;
_chemical_formula_sum "Si O2"
_cell_formula_units_Z 44
_cell_length_a 14.176387
_cell_length_b 11.413275
_cell_length_c 12.405103
_cell_angle_alpha 90.000000
_cell_angle_beta 125.757447
_cell_angle_gamma 90.000000
_cell_volume 1628.784735
_symmetry_space_group_name_H-M "C 2/M"
_symmetry_group_IT_number 12
_symmetry_cell_setting 'monoclinic'
loop_
_space_group_symop_operation_xyz
x,y,z
-x,y,-z
-x,-y,-z
x,-y,z
1/2+x,1/2+y,z
1/2-x,1/2+y,-z
1/2-x,1/2-y,-z
1/2+x,1/2-y,z
loop_
_atom_site_type_symbol
_atom_site_label
_atom_site_fract_x
_atom_site_fract_y
_atom_site_fract_z
Si Si1 0.131955 0.255679 0.489834
Si Si2 0.615976 0.000000 0.833366
Si Si3 0.294770 0.000000 0.767364
Si Si4 0.676226 0.000000 0.471672
Si Si5 0.145791 0.000000 0.878272
Si Si6 0.570591 0.261509 0.798699
Si Si7 0.798080 0.000000 0.765207
Si Si8 0.282491 0.245004 0.799048
O O1 0.250000 0.250000 0.500000
O O2 0.102435 0.391141 0.461948
O O3 0.180882 0.228602 0.639567
O O4 0.024405 0.201035 0.356179
O O5 0.549899 0.123760 0.813044
O O6 0.674260 0.000000 0.751089
O O7 0.728836 0.000000 0.983676
O O8 0.351940 0.124380 0.836769
O O9 0.286659 0.000000 0.629585
O O10 0.179341 0.000000 0.770507
O O11 0.784044 0.000000 0.626327
O O12 0.078626 0.882708 0.869634
O O13 0.705004 0.251744 0.852302
O O14 0.842896 0.130559 0.821960
#
# Coordination Sequence:
#
# PCOD9174974 Si02
#       8
#     8   4   4   4   4   8   4   8
#     4  11  20  32  53  82 120 157 176 227 292 361
#     4  10  19  40  59  82 111 152 207 244 279 324
#     4  10  18  32  54  84 113 148 185 232 290 348
#     4  10  19  33  52  84 117 149 192 219 294 362
#     4  10  22  37  60  86 112 150 202 249 284 321
#     4  10  21  35  57  86 113 148 194 243 286 340
#     4   8  18  30  54  81 108 145 184 234 282 344
#     4   9  18  33  50  81 116 145 183 227 288 351
#
# _framework density 27.014006999999999
#
# number of rings (size 3 to 8) (size 9 to 14) (size 15 to 20)
#    0.000    2.182    1.818    1.636    0.000    1.455 
#    0.000    8.182    0.000    2.182    0.000   11.455 
#    0.000    0.000    0.000    0.000    0.000    0.000 
#
# Total GULP energy -122471.839186 kJ/mol
# GULP energy per Si atom -5566.901781 kJ/mol
# Density = 2.695252 g / cm^3
# Si number density = 27.014007 Si / 1000 Ang^3
#
#
#
# Elastic Constant Matrix: (Units=GPa)
#
#
# Indices 1 2 3 4 5 6 
#
# 1 129.2241 5.3851 20.5379 0.0000 -6.2737 0.0000
# 2 5.3851 249.7631 14.6442 0.0000 7.3479 0.0000
# 3 20.5379 14.6442 118.6952 0.0000 -16.8858 0.0000
# 4 0.0000 0.0000 0.0000 17.4732 0.0000 -1.8720
# 5 -6.2737 7.3479 -16.8858 0.0000 18.9768 0.0000
# 6 0.0000 0.0000 0.0000 -1.8720 0.0000 -14.7054
#
#
#
# Elastic Compliance Matrix: (Units=1/GPa)
#
#
# Indices 1 2 3 4 5 6 
#
# 1 0.008006 -0.000157 -0.001123 0.000000 0.001709 0.000000
# 2 -0.000157 0.004125 -0.000820 0.000000 -0.002379 0.000000
# 3 -0.001123 -0.000820 0.009976 0.000000 0.008823 0.000000
# 4 0.000000 0.000000 0.000000 0.056460 0.000000 -0.007187
# 5 0.001709 -0.002379 0.008823 0.000000 0.062032 0.000000
# 6 0.000000 0.000000 0.000000 -0.007187 0.000000 -0.067087
#
#
# Mechanical properties :
#
#
# Convention : Reuss Voigt Hill
#
# Bulk Modulus (GPa) = 55.84449 64.31298 60.07873
# Shear Modulus (GPa) = 59.74971 34.82327 47.28649
#
# Velocity S-wave (km/s) = 4.70808 3.59427 4.18837
# Velocity P-wave (km/s) = 7.09028 6.40968 6.75855
#
# Compressibility (1/GPa) = 0.01790687
#
# Stress axis : x y z
#
# Youngs Moduli (GPa) = 124.89923 242.40870 100.24472
#
# Poissons Ratio (x) = 0.03807 0.11257
# Poissons Ratio (y) = 0.01962 0.08223
# Poissons Ratio (z) = 0.14025 0.19883
#
# Static dielectric constant tensor:
#      x y z
#    x 2.067840 0.000000 -0.066380 
#    y 0.000000 2.429610 0.000000 
#    z -0.066380 0.000000 2.169900 
# 
# From -- ./inp_files/223531.got.cif
#   From: 2010.05.17/outbox.cif.g08.bks.cpg/sg12_112_cif.got.tgz:223531.got - 2010.06.03 13:09:07.
