data_PCOD9174805
_publ_section_title
;
Structure prediction by ZEFSAII (Michael W. Deem and Ramdas Pophale) SiO2 
 PCOD9174805
Probable space group: C 2/M
;
_chemical_formula_sum "Si O2"
_cell_formula_units_Z 64
_cell_length_a 20.863727
_cell_length_b 8.202843
_cell_length_c 22.882084
_cell_angle_alpha 90.000000
_cell_angle_beta 116.779892
_cell_angle_gamma 90.000000
_cell_volume 3496.059425
_symmetry_space_group_name_H-M "C 2/M"
_symmetry_group_IT_number 12
_symmetry_cell_setting 'monoclinic'
loop_
_space_group_symop_operation_xyz
x,y,z
-x,y,-z
-x,-y,-z
x,-y,z
1/2+x,1/2+y,z
1/2-x,1/2+y,-z
1/2-x,1/2-y,-z
1/2+x,1/2-y,z
loop_
_atom_site_type_symbol
_atom_site_label
_atom_site_fract_x
_atom_site_fract_y
_atom_site_fract_z
Si Si1 0.361479 0.302901 0.559256
Si Si2 0.244808 0.303788 0.822508
Si Si3 0.307155 0.197323 0.072303
Si Si4 0.665806 0.192985 0.674795
Si Si5 0.902602 0.696851 0.908051
Si Si6 0.759320 0.193547 0.409294
Si Si7 0.489957 0.304094 0.429308
Si Si8 0.941008 0.301522 0.056041
O O1 0.359347 0.500000 0.561344
O O2 0.318702 0.236008 0.597253
O O3 0.315879 0.253058 0.482891
O O4 0.443019 0.247734 0.582594
O O5 0.239040 0.500000 0.820716
O O6 0.215671 0.242727 0.873112
O O7 0.199517 0.241470 0.748805
O O8 0.328557 0.260791 0.852328
O O9 0.385530 0.253135 0.082545
O O10 0.307560 0.000000 0.073843
O O11 0.250000 0.250000 0.000000
O O12 0.718987 0.228300 0.642795
O O13 0.587867 0.262211 0.627008
O O14 0.657592 0.000000 0.677281
O O15 0.900726 0.500000 0.906192
O O16 0.976138 0.751107 0.906725
O O17 0.911048 0.746378 0.979717
O O18 0.766573 0.000000 0.406164
O O19 0.500000 0.242693 0.500000
O O20 0.495420 0.500000 0.434309
O O21 0.941727 0.500000 0.056731
#
# Coordination Sequence:
#
# PCOD9174805 Si02
#       8
#     8   8   8   8   8   8   8   8
#     4   9  18  33  55  82 111 136 166 220 279 319
#     4  10  22  36  50  74 110 144 173 217 272 318
#     4  10  18  32  53  76 103 136 173 218 266 311
#     4  11  23  37  52  75 111 151 186 223 274 327
#     4   9  16  30  52  76 100 132 175 214 256 313
#     4  10  19  34  55  80 107 138 179 221 265 323
#     4  10  19  36  58  82 110 140 179 227 273 320
#     4   8  15  28  50  78 103 127 165 219 263 303
#
# _framework density 18.306324
#
# number of rings (size 3 to 8) (size 9 to 14) (size 15 to 20)
#    0.000    2.375    2.500    1.500    0.000    2.250 
#    0.000    3.125    0.000    1.500    0.000    0.000 
#    0.000    0.000    0.000    0.000    0.000    0.000 
#
# Total GULP energy -178478.997274 kJ/mol
# GULP energy per Si atom -5577.468665 kJ/mol
# Density = 1.826466 g / cm^3
# Si number density = 18.306324 Si / 1000 Ang^3
#
#
#
# Elastic Constant Matrix: (Units=GPa)
#
#
# Indices 1 2 3 4 5 6 
#
# 1 154.6854 0.8774 69.2764 0.0000 10.8682 0.0000
# 2 0.8774 3.6694 1.0556 0.0000 1.6696 0.0000
# 3 69.2764 1.0556 110.1858 0.0000 9.4343 0.0000
# 4 0.0000 0.0000 0.0000 18.4684 0.0000 4.6669
# 5 10.8682 1.6696 9.4343 0.0000 22.6178 0.0000
# 6 0.0000 0.0000 0.0000 4.6669 0.0000 25.1279
#
#
#
# Elastic Compliance Matrix: (Units=1/GPa)
#
#
# Indices 1 2 3 4 5 6 
#
# 1 0.009090 0.000368 -0.005540 0.000000 -0.002084 0.000000
# 2 0.000368 0.282107 -0.001178 0.000000 -0.020510 0.000000
# 3 -0.005540 -0.001178 0.012792 0.000000 -0.002586 0.000000
# 4 0.000000 0.000000 0.000000 0.056813 0.000000 -0.010552
# 5 -0.002084 -0.020510 -0.002586 0.000000 0.047807 0.000000
# 6 0.000000 0.000000 0.000000 -0.010552 0.000000 0.041756
#
#
# Mechanical properties :
#
#
# Convention : Reuss Voigt Hill
#
# Bulk Modulus (GPa) = 3.43302 45.66217 24.54759
# Shear Modulus (GPa) = 8.92599 26.39823 17.66211
#
# Velocity S-wave (km/s) = 2.21054 3.80152 3.10951
# Velocity P-wave (km/s) = 2.89736 6.65329 5.13133
#
# Compressibility (1/GPa) = 0.29128879
#
# Stress axis : x y z
#
# Youngs Moduli (GPa) = 110.00657 3.54476 78.17572
#
# Poissons Ratio (x) = -0.00131 0.43312
# Poissons Ratio (y) = -0.04053 0.09210
# Poissons Ratio (z) = 0.60948 0.00418
#
# Static dielectric constant tensor:
#      x y z
#    x 1.643490 0.000000 -0.006920 
#    y 0.000000 1.645360 0.000000 
#    z -0.006920 0.000000 1.610080 
# 
# From -- ./inp_files/320117.got.cif
#   From: 2010.05.17/outbox.cif.g08.bks.cpg/sg12_161_cif.got.tgz:320117.got - 2010.06.03 13:09:07.
