data_PCOD9174640
_publ_section_title
;
Structure prediction by ZEFSAII (Michael W. Deem and Ramdas Pophale) SiO2 
 PCOD9174640
Probable space group: C 2/M
;
_chemical_formula_sum "Si O2"
_cell_formula_units_Z 48
_cell_length_a 24.553779
_cell_length_b 8.644200
_cell_length_c 20.925230
_cell_angle_alpha 90.000000
_cell_angle_beta 39.660130
_cell_angle_gamma 90.000000
_cell_volume 2834.602370
_symmetry_space_group_name_H-M "C 2/M"
_symmetry_group_IT_number 12
_symmetry_cell_setting 'monoclinic'
loop_
_space_group_symop_operation_xyz
x,y,z
-x,y,-z
-x,-y,-z
x,-y,z
1/2+x,1/2+y,z
1/2-x,1/2+y,-z
1/2-x,1/2-y,-z
1/2+x,1/2-y,z
loop_
_atom_site_type_symbol
_atom_site_label
_atom_site_fract_x
_atom_site_fract_y
_atom_site_fract_z
Si Si1 0.090046 0.184085 0.730142
Si Si2 0.075396 0.312293 0.883352
Si Si3 0.236019 0.820013 0.267581
Si Si4 0.222323 0.820420 0.432636
Si Si5 0.444437 0.312038 0.612663
Si Si6 0.952872 0.316974 0.360574
O O1 0.061454 0.246217 0.825133
O O2 0.186178 0.249057 0.633886
O O3 0.034822 0.245199 0.720757
O O4 0.092003 0.000000 0.728478
O O5 0.080242 0.500000 0.873367
O O6 0.168257 0.255187 0.824407
O O7 0.000000 0.273112 0.000000
O O8 0.215694 0.817381 0.361602
O O9 0.152894 0.754234 0.307857
O O10 0.241613 0.000000 0.242840
O O11 0.143288 0.728188 0.532060
O O12 0.218422 0.000000 0.456664
O O13 0.500000 0.265982 0.500000
O O14 0.444304 0.500000 0.613436
O O15 0.487123 0.252415 0.638667
O O16 0.962209 0.500000 0.349335
#
# Coordination Sequence:
#
# PCOD9174640 Si02
#       6
#     8   8   8   8   8   8
#     4  11  22  35  51  75 104 136 174 217 264 312
#     4   9  18  35  59  83 105 132 167 213 266 318
#     4   8  15  29  51  76 102 134 172 208 251 304
#     4  10  18  33  52  73 103 140 176 212 257 310
#     4  10  18  32  51  72 102 144 181 211 248 302
#     4  12  23  33  47  72 106 143 178 215 258 306
#
# _framework density 16.933592000000001
#
# number of rings (size 3 to 8) (size 9 to 14) (size 15 to 20)
#    0.000    2.000    1.667    5.000    0.000    0.667 
#    0.000    0.833    0.000    1.000    0.000    0.000 
#    0.000    0.000    0.000    0.000    0.000    0.000 
#
# Total GULP energy -133897.826105 kJ/mol
# GULP energy per Si atom -5579.076088 kJ/mol
# Density = 1.689505 g / cm^3
# Si number density = 16.933592 Si / 1000 Ang^3
#
#
#
# Elastic Constant Matrix: (Units=GPa)
#
#
# Indices 1 2 3 4 5 6 
#
# 1 157.9940 37.2601 65.6067 -0.0002 7.1860 0.0000
# 2 37.2601 45.7509 16.1983 -0.0010 -1.0925 0.0001
# 3 65.6067 16.1983 90.4221 -0.0004 -2.4962 0.0003
# 4 -0.0002 -0.0010 -0.0004 17.1460 0.0004 3.9171
# 5 7.1860 -1.0925 -2.4962 0.0004 6.5113 -0.0001
# 6 0.0000 0.0001 0.0003 3.9171 -0.0001 25.5566
#
#
#
# Elastic Compliance Matrix: (Units=1/GPa)
#
#
# Indices 1 2 3 4 5 6 
#
# 1 0.012266 -0.007571 -0.008037 0.000000 -0.017889 0.000000
# 2 -0.007571 0.028046 0.000839 0.000001 0.013383 0.000000
# 3 -0.008037 0.000839 0.017171 0.000000 0.015594 0.000000
# 4 0.000000 0.000001 0.000000 0.060439 -0.000004 -0.009263
# 5 -0.017889 0.013383 0.015594 -0.000004 0.181545 0.000001
# 6 0.000000 0.000000 0.000000 -0.009263 0.000001 0.040549
#
#
# Mechanical properties :
#
#
# Convention : Reuss Voigt Hill
#
# Bulk Modulus (GPa) = 35.78643 59.14411 47.46527
# Shear Modulus (GPa) = 13.19713 21.51623 17.35668
#
# Velocity S-wave (km/s) = 2.79471 3.56845 3.20501
# Velocity P-wave (km/s) = 5.62078 7.20981 6.46430
#
# Compressibility (1/GPa) = 0.02794355
#
# Stress axis : x y z
#
# Youngs Moduli (GPa) = 81.52665 35.65546 58.23767
#
# Poissons Ratio (x) = 0.26995 0.46807
# Poissons Ratio (y) = 0.61725 -0.04883
# Poissons Ratio (z) = 0.65525 -0.02990
#
# Static dielectric constant tensor:
#      x y z
#    x 1.592120 0.000000 -0.008410 
#    y 0.000000 1.569530 0.000000 
#    z -0.008410 0.000000 1.563170 
# 
# From -- ./inp_files/323511.got.cif
#   From: 2010.05.17/outbox.cif.g08.bks.cpg/sg12_162_cif.got.tgz:323511.got - 2010.06.03 13:09:07.
