data_PCOD9174482
_publ_section_title
;
Structure prediction by ZEFSAII (Michael W. Deem and Ramdas Pophale) SiO2 
 PCOD9174482
Probable space group: C 2/M
;
_chemical_formula_sum "Si O2"
_cell_formula_units_Z 56
_cell_length_a 22.934344
_cell_length_b 10.222805
_cell_length_c 13.106903
_cell_angle_alpha 90.000000
_cell_angle_beta 59.762547
_cell_angle_gamma 90.000000
_cell_volume 2654.868314
_symmetry_space_group_name_H-M "C 2/M"
_symmetry_group_IT_number 12
_symmetry_cell_setting 'monoclinic'
loop_
_space_group_symop_operation_xyz
x,y,z
-x,y,-z
-x,-y,-z
x,-y,z
1/2+x,1/2+y,z
1/2-x,1/2+y,-z
1/2-x,1/2-y,-z
1/2+x,1/2-y,z
loop_
_atom_site_type_symbol
_atom_site_label
_atom_site_fract_x
_atom_site_fract_y
_atom_site_fract_z
Si Si1 0.720840 0.862093 0.595461
Si Si2 0.696043 0.749638 0.308587
Si Si3 0.587018 0.153282 0.834255
Si Si4 0.155753 0.151286 0.125355
Si Si5 0.674541 0.647732 0.884403
Si Si6 0.998359 0.149110 0.208445
Si Si7 0.434468 0.347083 0.487190
O O1 0.750000 0.750000 0.500000
O O2 0.762114 0.858649 0.665111
O O3 0.643157 0.847777 0.694475
O O4 0.731776 0.000000 0.532861
O O5 0.673832 0.722765 0.212879
O O6 0.756657 0.853090 0.242082
O O7 0.625815 0.752173 0.432097
O O8 0.623470 0.243729 0.886559
O O9 0.524178 0.236739 0.848147
O O10 0.574739 0.000000 0.871742
O O11 0.076088 0.162338 0.172136
O O12 0.171679 0.000000 0.131377
O O13 0.190000 0.185787 0.987737
O O14 0.645883 0.500000 0.909898
O O15 0.955750 0.159935 0.350752
O O16 0.987826 0.000000 0.177776
O O17 0.500000 0.322390 0.500000
O O18 0.414131 0.500000 0.526599
#
# Coordination Sequence:
#
# PCOD9174482 Si02
#       7
#     8   8   8   8   8   8   8
#     4  10  21  35  56  84 115 153 195 241 292 346
#     4  11  20  35  59  89 124 152 189 243 299 349
#     4  10  22  40  59  83 117 159 201 247 300 354
#     4  10  20  37  62  90 120 156 201 248 294 351
#     4  10  23  41  61  87 118 157 205 251 296 350
#     4  10  20  36  62  92 121 156 197 247 297 352
#     4  10  18  31  56  90 122 153 192 236 289 355
#
# _framework density 21.093323999999999
#
# number of rings (size 3 to 8) (size 9 to 14) (size 15 to 20)
#    0.000    1.857    1.429    3.000    0.000    5.714 
#    0.000    5.714    0.000    0.857    0.000    0.000 
#    0.000    0.000    0.000    0.000    0.000    0.000 
#
# Total GULP energy -156095.165841 kJ/mol
# GULP energy per Si atom -5574.827351 kJ/mol
# Density = 2.104531 g / cm^3
# Si number density = 21.093324 Si / 1000 Ang^3
#
#
#
# Elastic Constant Matrix: (Units=GPa)
#
#
# Indices 1 2 3 4 5 6 
#
# 1 68.6463 31.1290 4.3823 0.0000 4.0074 0.0000
# 2 31.1290 112.3429 24.7252 0.0000 17.8485 0.0000
# 3 4.3823 24.7252 80.7169 0.0000 -15.2586 0.0000
# 4 0.0000 0.0000 0.0000 20.5333 0.0000 -4.8983
# 5 4.0074 17.8485 -15.2586 0.0000 29.7284 0.0000
# 6 0.0000 0.0000 0.0000 -4.8983 0.0000 8.8936
#
#
#
# Elastic Compliance Matrix: (Units=1/GPa)
#
#
# Indices 1 2 3 4 5 6 
#
# 1 0.016715 -0.005008 0.000852 0.000000 0.001191 0.000000
# 2 -0.005008 0.013146 -0.005669 0.000000 -0.010127 0.000000
# 3 0.000852 -0.005669 0.016281 0.000000 0.011645 0.000000
# 4 0.000000 0.000000 0.000000 0.056068 0.000000 0.030880
# 5 0.001191 -0.010127 0.011645 0.000000 0.045535 0.000000
# 6 0.000000 0.000000 0.000000 0.030880 0.000000 0.129448
#
#
# Mechanical properties :
#
#
# Convention : Reuss Voigt Hill
#
# Bulk Modulus (GPa) = 37.75059 42.46435 40.10747
# Shear Modulus (GPa) = 16.35733 25.26236 20.80985
#
# Velocity S-wave (km/s) = 2.78776 3.46446 3.14436
# Velocity P-wave (km/s) = 5.31958 6.01487 5.67788
#
# Compressibility (1/GPa) = 0.02648965
#
# Stress axis : x y z
#
# Youngs Moduli (GPa) = 59.82812 76.07043 61.42208
#
# Poissons Ratio (x) = 0.38096 -0.05231
# Poissons Ratio (y) = 0.29962 0.34822
# Poissons Ratio (z) = -0.05095 0.43127
#
# Static dielectric constant tensor:
#      x y z
#    x 1.765580 0.000000 -0.022270 
#    y 0.000000 1.759720 0.000000 
#    z -0.022270 0.000000 1.794360 
# 
# From -- ./inp_files/238411.got.cif
#   From: 2010.05.17/outbox.cif.g08.bks.cpg/sg12_120_cif.got.tgz:238411.got - 2010.06.03 13:09:07.
