data_PCOD9174173
_publ_section_title
;
Structure prediction by ZEFSAII (Michael W. Deem and Ramdas Pophale) SiO2 
 PCOD9174173
Probable space group: C 2/M
;
_chemical_formula_sum "Si O2"
_cell_formula_units_Z 56
_cell_length_a 20.303877
_cell_length_b 14.697304
_cell_length_c 11.006364
_cell_angle_alpha 90.000000
_cell_angle_beta 69.053169
_cell_angle_gamma 90.000000
_cell_volume 3067.374116
_symmetry_space_group_name_H-M "C 2/M"
_symmetry_group_IT_number 12
_symmetry_cell_setting 'monoclinic'
loop_
_space_group_symop_operation_xyz
x,y,z
-x,y,-z
-x,-y,-z
x,-y,z
1/2+x,1/2+y,z
1/2-x,1/2+y,-z
1/2-x,1/2-y,-z
1/2+x,1/2-y,z
loop_
_atom_site_type_symbol
_atom_site_label
_atom_site_fract_x
_atom_site_fract_y
_atom_site_fract_z
Si Si1 0.816355 0.396486 0.283523
Si Si2 0.142475 0.735937 0.104069
Si Si3 0.569238 0.227847 0.896309
Si Si4 0.251063 0.397455 0.941758
Si Si5 0.332733 0.607641 0.536387
Si Si6 0.554471 0.296755 0.366086
Si Si7 0.949425 0.895903 0.262582
O O1 0.835087 0.500000 0.306412
O O2 0.884349 0.332473 0.226527
O O3 0.784164 0.399893 0.168174
O O4 0.749337 0.363967 0.407464
O O5 0.184363 0.828278 0.105397
O O6 0.082324 0.728983 0.244623
O O7 0.115234 0.747238 0.985316
O O8 0.194955 0.650447 0.068043
O O9 0.546967 0.320400 0.843945
O O10 0.500000 0.181036 0.000000
O O11 0.269823 0.500000 0.964112
O O12 0.333012 0.500000 0.569525
O O13 0.380229 0.661645 0.602034
O O14 0.374726 0.615164 0.382191
O O15 0.500000 0.256856 0.500000
O O16 0.509964 0.373360 0.322184
O O17 0.956125 0.000000 0.216784
#
# Coordination Sequence:
#
# PCOD9174173 Si02
#       7
#     8   8   8   8   8   8   8
#     4   9  18  33  55  76  94 125 170 218 254 276
#     4  10  19  33  52  77 102 128 166 204 246 301
#     4  11  22  35  47  71 108 137 165 196 240 309
#     4   9  18  32  53  78 101 126 162 212 255 285
#     4   9  17  32  54  77  96 121 169 216 247 285
#     4  10  18  31  53  76  99 129 164 208 250 287
#     4  10  21  34  48  72 107 140 162 192 245 305
#
# _framework density 18.256657000000001
#
# number of rings (size 3 to 8) (size 9 to 14) (size 15 to 20)
#    0.000    2.286    2.857    0.429    0.000    4.000 
#    0.000    0.000    0.000    0.429    0.000    0.000 
#    0.000    0.000    0.000    0.000    0.000    0.000 
#
# Total GULP energy -155990.685308 kJ/mol
# GULP energy per Si atom -5571.095904 kJ/mol
# Density = 1.821510 g / cm^3
# Si number density = 18.256657 Si / 1000 Ang^3
#
#
#
# Elastic Constant Matrix: (Units=GPa)
#
#
# Indices 1 2 3 4 5 6 
#
# 1 34.2977 4.5872 4.5671 0.0000 -14.9767 0.0000
# 2 4.5872 37.3206 5.3893 0.0000 -4.5371 0.0000
# 3 4.5671 5.3893 69.9669 0.0000 -22.4903 0.0000
# 4 0.0000 0.0000 0.0000 19.8852 0.0000 0.1090
# 5 -14.9767 -4.5371 -22.4903 0.0000 33.2076 0.0000
# 6 0.0000 0.0000 0.0000 0.1090 0.0000 8.0159
#
#
#
# Elastic Compliance Matrix: (Units=1/GPa)
#
#
# Indices 1 2 3 4 5 6 
#
# 1 0.037363 -0.002835 0.003926 0.000000 0.019123 0.000000
# 2 -0.002835 0.027535 -0.001454 0.000000 0.001499 0.000000
# 3 0.003926 -0.001454 0.018731 0.000000 0.014258 0.000000
# 4 0.000000 0.000000 0.000000 0.050292 0.000000 -0.000684
# 5 0.019123 0.001499 0.014258 0.000000 0.048599 0.000000
# 6 0.000000 0.000000 0.000000 -0.000684 0.000000 0.124761
#
#
# Mechanical properties :
#
#
# Convention : Reuss Voigt Hill
#
# Bulk Modulus (GPa) = 12.06199 18.96358 15.51278
# Shear Modulus (GPa) = 14.89680 20.69119 17.79399
#
# Velocity S-wave (km/s) = 2.85961 3.37018 3.12534
# Velocity P-wave (km/s) = 4.18622 5.05509 4.64103
#
# Compressibility (1/GPa) = 0.08290507
#
# Stress axis : x y z
#
# Youngs Moduli (GPa) = 26.76442 36.31682 53.38636
#
# Poissons Ratio (x) = 0.10294 -0.20961
# Poissons Ratio (y) = 0.07587 0.07763
# Poissons Ratio (z) = -0.10508 0.05281
#
# Static dielectric constant tensor:
#      x y z
#    x 1.660300 0.000000 -0.044680 
#    y 0.000000 1.607780 0.000000 
#    z -0.044680 0.000000 1.664960 
# 
# From -- ./inp_files/155945.got.cif
#   From: 2010.05.17/outbox.cif.g08.bks.cpg/sg12_78_cif.got.tgz:155945.got - 2010.06.03 13:09:07.
