data_PCOD9174282
_publ_section_title
;
Structure prediction by ZEFSAII (Michael W. Deem and Ramdas Pophale) SiO2 
 PCOD9174282
Probable space group: C 2/M
;
_chemical_formula_sum "Si O2"
_cell_formula_units_Z 48
_cell_length_a 16.527951
_cell_length_b 8.900306
_cell_length_c 34.697863
_cell_angle_alpha 90.000000
_cell_angle_beta 152.172898
_cell_angle_gamma 90.000000
_cell_volume 2382.660654
_symmetry_space_group_name_H-M "C 2/M"
_symmetry_group_IT_number 12
_symmetry_cell_setting 'monoclinic'
loop_
_space_group_symop_operation_xyz
x,y,z
-x,y,-z
-x,-y,-z
x,-y,z
1/2+x,1/2+y,z
1/2-x,1/2+y,-z
1/2-x,1/2-y,-z
1/2+x,1/2-y,z
loop_
_atom_site_type_symbol
_atom_site_label
_atom_site_fract_x
_atom_site_fract_y
_atom_site_fract_z
Si Si1 0.189207 0.178991 0.836324
Si Si2 0.958193 0.175451 0.665625
Si Si3 0.601550 0.332867 0.504188
Si Si4 0.946955 0.322669 0.585262
Si Si5 0.488148 0.674850 0.910560
Si Si6 0.378290 0.825094 0.108999
O O1 0.360144 0.246548 0.887390
O O2 0.134542 0.249044 0.854284
O O3 0.042858 0.206380 0.742238
O O4 0.212354 0.000000 0.850957
O O5 0.758235 0.222163 0.580552
O O6 0.030736 0.273473 0.660650
O O7 0.979518 0.000000 0.665625
O O8 0.500000 0.350133 0.500000
O O9 0.666008 0.500000 0.519475
O O10 0.477434 0.262290 0.419601
O O11 0.946306 0.500000 0.579675
O O12 0.750000 0.250000 0.500000
O O13 0.438943 0.500000 0.886075
O O14 0.502316 0.749582 0.873967
O O15 0.682004 0.682423 0.009680
O O16 0.426633 0.000000 0.133295
#
# Coordination Sequence:
#
# PCOD9174282 Si02
#       6
#     8   8   8   8   8   8
#     4  11  23  38  58  86 120 158 195 240 295 347
#     4  10  21  37  55  78 110 144 183 228 276 334
#     4  10  20  35  56  81 107 140 182 227 276 331
#     4  10  18  31  54  77 101 136 175 218 266 320
#     4  10  21  38  61  88 117 153 198 242 289 348
#     4  10  21  38  61  88 118 154 196 243 290 344
#
# _framework density 20.145546
#
# number of rings (size 3 to 8) (size 9 to 14) (size 15 to 20)
#    0.000    1.833    0.000    6.500    0.000    8.000 
#    3.000    0.000    0.000    0.000    0.000    0.000 
#    0.000    0.000    0.000    0.000    0.000    0.000 
#
# Total GULP energy -133788.036399 kJ/mol
# GULP energy per Si atom -5574.501517 kJ/mol
# Density = 2.009969 g / cm^3
# Si number density = 20.145546 Si / 1000 Ang^3
#
#
#
# Elastic Constant Matrix: (Units=GPa)
#
#
# Indices 1 2 3 4 5 6 
#
# 1 107.6240 52.8182 22.7092 0.0000 -49.5027 0.0001
# 2 52.8182 129.2567 44.5623 -0.0001 -45.8874 0.0001
# 3 22.7092 44.5623 40.7968 0.0001 -26.8067 0.0000
# 4 0.0000 -0.0001 0.0001 27.1434 0.0001 -8.3794
# 5 -49.5027 -45.8874 -26.8067 0.0001 33.6314 -0.0001
# 6 0.0001 0.0001 0.0000 -8.3794 -0.0001 37.6239
#
#
#
# Elastic Compliance Matrix: (Units=1/GPa)
#
#
# Indices 1 2 3 4 5 6 
#
# 1 0.051670 0.006393 0.041910 0.000000 0.118182 0.000000
# 2 0.006393 0.016573 -0.001302 0.000000 0.030985 0.000000
# 3 0.041910 -0.001302 0.088127 0.000000 0.130156 0.000000
# 4 0.000000 0.000000 0.000000 0.039561 -0.000001 0.008811
# 5 0.118182 0.030985 0.130156 -0.000001 0.349708 0.000000
# 6 0.000000 0.000000 0.000000 0.008811 0.000000 0.028541
#
#
# Mechanical properties :
#
#
# Convention : Reuss Voigt Hill
#
# Bulk Modulus (GPa) = 3.99404 57.53966 30.76685
# Shear Modulus (GPa) = 8.87098 30.18560 19.52829
#
# Velocity S-wave (km/s) = 2.10071 3.87509 3.11683
# Velocity P-wave (km/s) = 2.80551 6.97465 5.31585
#
# Compressibility (1/GPa) = 0.25037298
#
# Stress axis : x y z
#
# Youngs Moduli (GPa) = 19.35364 60.33984 11.34720
#
# Poissons Ratio (x) = -0.38575 -0.47556
# Poissons Ratio (y) = -0.12373 0.01477
# Poissons Ratio (z) = -0.81111 0.07854
#
# Static dielectric constant tensor:
#      x y z
#    x 1.864670 0.000000 -0.024760 
#    y 0.000000 1.754460 0.000000 
#    z -0.024760 0.000000 1.725350 
# 
# From -- ./inp_files/375155.got.cif
#   From: 2010.05.17/outbox.cif.g08.bks.cpg/sg12_188_cif.got.tgz:375155.got - 2010.06.03 13:09:07.
