data_PCOD9174552
_publ_section_title
;
Structure prediction by ZEFSAII (Michael W. Deem and Ramdas Pophale) SiO2 
 PCOD9174552
Probable space group: C 2/M
;
_chemical_formula_sum "Si O2"
_cell_formula_units_Z 64
_cell_length_a 15.636665
_cell_length_b 25.350875
_cell_length_c 9.198798
_cell_angle_alpha 90.000000
_cell_angle_beta 98.466546
_cell_angle_gamma 90.000000
_cell_volume 3606.693583
_symmetry_space_group_name_H-M "C 2/M"
_symmetry_group_IT_number 12
_symmetry_cell_setting 'monoclinic'
loop_
_space_group_symop_operation_xyz
x,y,z
-x,y,-z
-x,-y,-z
x,-y,z
1/2+x,1/2+y,z
1/2-x,1/2+y,-z
1/2-x,1/2-y,-z
1/2+x,1/2-y,z
loop_
_atom_site_type_symbol
_atom_site_label
_atom_site_fract_x
_atom_site_fract_y
_atom_site_fract_z
Si Si1 0.988583 0.751331 0.826619
Si Si2 0.230725 0.152387 0.272253
Si Si3 0.370034 0.061323 0.345201
Si Si4 0.065453 0.560192 0.307567
Si Si5 0.265660 0.688035 0.032724
Si Si6 0.091781 0.348912 0.105348
Si Si7 0.345536 0.256361 0.305775
Si Si8 0.078905 0.827945 0.426658
O O1 0.919149 0.704463 0.802959
O O2 0.961526 0.800718 0.725450
O O3 0.077362 0.732555 0.774131
O O4 0.000000 0.763084 0.000000
O O5 0.299589 0.104953 0.287934
O O6 0.278332 0.208872 0.316173
O O7 0.159948 0.141206 0.379344
O O8 0.191982 0.162567 0.099885
O O9 0.462353 0.070686 0.290494
O O10 0.394354 0.065557 0.522092
O O11 0.344620 0.000000 0.310991
O O12 0.077091 0.500000 0.263268
O O13 0.105963 0.601300 0.208977
O O14 0.173893 0.659881 0.025732
O O15 0.311882 0.693789 0.200246
O O16 0.250000 0.750000 0.000000
O O17 0.000000 0.353738 0.000000
O O18 0.384154 0.281126 0.461475
O O19 0.000000 0.853040 0.500000
#
# Coordination Sequence:
#
# PCOD9174552 Si02
#       8
#     8   8   8   8   8   8   8   8
#     4  10  18  32  48  68 105 140 171 206 250 310
#     4  11  19  33  53  71  99 139 174 210 262 308
#     4   9  19  34  53  75 102 137 175 217 263 309
#     4   9  19  34  49  73 106 136 173 220 263 301
#     4  10  20  33  48  71 105 137 172 210 254 303
#     4  11  20  30  49  72  99 143 182 208 253 310
#     4  10  20  31  47  75 103 134 171 213 253 306
#     4  10  22  33  48  76 103 131 171 218 260 311
#
# _framework density 17.744783999999999
#
# number of rings (size 3 to 8) (size 9 to 14) (size 15 to 20)
#    0.000    2.000    0.000    7.875    3.500    0.250 
#    0.000    0.625    0.000    0.375    0.000    0.000 
#    0.000    5.000    0.000    0.000    0.000    0.000 
#
# Total GULP energy -178337.513560 kJ/mol
# GULP energy per Si atom -5573.047299 kJ/mol
# Density = 1.770440 g / cm^3
# Si number density = 17.744784 Si / 1000 Ang^3
#
#
#
# Elastic Constant Matrix: (Units=GPa)
#
#
# Indices 1 2 3 4 5 6 
#
# 1 65.3859 22.0961 29.4080 0.0000 -18.3693 0.0000
# 2 22.0961 58.6265 33.0055 0.0000 -4.0493 0.0000
# 3 29.4080 33.0055 72.4245 0.0000 -13.8364 0.0000
# 4 0.0000 0.0000 0.0000 24.1655 0.0000 0.0216
# 5 -18.3693 -4.0493 -13.8364 0.0000 29.0566 0.0000
# 6 0.0000 0.0000 0.0000 0.0216 0.0000 20.5385
#
#
#
# Elastic Compliance Matrix: (Units=1/GPa)
#
#
# Indices 1 2 3 4 5 6 
#
# 1 0.022181 -0.005001 -0.004600 0.000000 0.011135 0.000000
# 2 -0.005001 0.024173 -0.009841 0.000000 -0.004479 0.000000
# 3 -0.004600 -0.009841 0.021278 0.000000 0.005853 0.000000
# 4 0.000000 0.000000 0.000000 0.041381 0.000000 -0.000043
# 5 0.011135 -0.004479 0.005853 0.000000 0.043618 0.000000
# 6 0.000000 0.000000 0.000000 -0.000043 0.000000 0.048689
#
#
# Mechanical properties :
#
#
# Convention : Reuss Voigt Hill
#
# Bulk Modulus (GPa) = 34.78559 40.60624 37.69591
# Shear Modulus (GPa) = 20.01691 22.21394 21.11543
#
# Velocity S-wave (km/s) = 3.36228 3.54200 3.45331
# Velocity P-wave (km/s) = 5.89229 6.29768 6.09836
#
# Compressibility (1/GPa) = 0.02874754
#
# Stress axis : x y z
#
# Youngs Moduli (GPa) = 45.08343 41.36829 46.99580
#
# Poissons Ratio (x) = 0.20688 0.21619
# Poissons Ratio (y) = 0.22546 0.46250
# Poissons Ratio (z) = 0.20739 0.40712
#
# Static dielectric constant tensor:
#      x y z
#    x 1.679560 0.000000 0.008900 
#    y 0.000000 1.571040 0.000000 
#    z 0.008900 0.000000 1.669650 
# 
# From -- ./inp_files/65862.got.cif
#   From: 2010.05.17/outbox.cif.g08.bks.cpg/sg12_33_cif.got.tgz:65862.got - 2010.06.03 13:09:07.
