data_PCOD9174258
_publ_section_title
;
Structure prediction by ZEFSAII (Michael W. Deem and Ramdas Pophale) SiO2 
 PCOD9174258
Probable space group: C 2/M
;
_chemical_formula_sum "Si O2"
_cell_formula_units_Z 40
_cell_length_a 28.215533
_cell_length_b 8.678055
_cell_length_c 19.093207
_cell_angle_alpha 90.000000
_cell_angle_beta 153.164008
_cell_angle_gamma 90.000000
_cell_volume 2110.511877
_symmetry_space_group_name_H-M "C 2/M"
_symmetry_group_IT_number 12
_symmetry_cell_setting 'monoclinic'
loop_
_space_group_symop_operation_xyz
x,y,z
-x,y,-z
-x,-y,-z
x,-y,z
1/2+x,1/2+y,z
1/2-x,1/2+y,-z
1/2-x,1/2-y,-z
1/2+x,1/2-y,z
loop_
_atom_site_type_symbol
_atom_site_label
_atom_site_fract_x
_atom_site_fract_y
_atom_site_fract_z
Si Si1 0.509792 0.683864 0.728114
Si Si2 0.377838 0.816131 0.851704
Si Si3 0.323176 0.815938 0.940706
Si Si4 0.284713 0.182505 0.471175
Si Si5 0.833713 0.684105 0.166885
O O1 0.515534 0.500000 0.733120
O O2 0.585256 0.744446 0.890106
O O3 0.393054 0.740306 0.589480
O O4 0.556505 0.752990 0.717529
O O5 0.304848 0.723489 0.702759
O O6 0.363284 0.000000 0.820007
O O7 0.500000 0.781114 0.000000
O O8 0.346884 0.784336 0.891106
O O9 0.322707 0.000000 0.951127
O O10 0.212695 0.746899 0.821673
O O11 0.250000 0.250000 0.500000
O O12 0.299696 0.000000 0.496812
O O13 0.832496 0.500000 0.164290
O O14 0.750000 0.750000 0.000000
#
# Coordination Sequence:
#
# PCOD9174258 Si02
#       5
#     8   8   8   8   8
#     4  11  21  36  59  86 117 151 192 237 283 335
#     4  10  22  40  61  85 115 150 188 233 285 339
#     4  10  19  34  58  87 119 153 191 235 284 337
#     4  12  25  41  61  85 115 149 189 234 283 339
#     4  10  18  31  53  82 116 152 193 235 279 333
#
# _framework density 18.952746999999999
#
# number of rings (size 3 to 8) (size 9 to 14) (size 15 to 20)
#    0.000    1.400    0.000    9.600    0.000    3.600 
#    0.000    1.000    0.000    6.000    0.000    0.000 
#    0.000    0.000    0.000    0.000    0.000    0.000 
#
# Total GULP energy -111784.226716 kJ/mol
# GULP energy per Si atom -5589.211336 kJ/mol
# Density = 1.890961 g / cm^3
# Si number density = 18.952747 Si / 1000 Ang^3
#
#
#
# Elastic Constant Matrix: (Units=GPa)
#
#
# Indices 1 2 3 4 5 6 
#
# 1 180.3685 90.7631 53.7050 0.0000 26.8136 0.0000
# 2 90.7631 163.4346 48.4287 0.0000 5.2514 0.0000
# 3 53.7050 48.4287 63.1570 0.0000 15.0518 0.0000
# 4 0.0000 0.0000 0.0000 31.3310 0.0000 3.0387
# 5 26.8136 5.2514 15.0518 0.0000 31.4716 0.0000
# 6 0.0000 0.0000 0.0000 3.0387 0.0000 31.5206
#
#
#
# Elastic Compliance Matrix: (Units=1/GPa)
#
#
# Indices 1 2 3 4 5 6 
#
# 1 0.009489 -0.004008 -0.003644 0.000000 -0.005673 0.000000
# 2 -0.004008 0.009700 -0.005032 0.000000 0.004203 0.000000
# 3 -0.003644 -0.005032 0.024661 0.000000 -0.007851 0.000000
# 4 0.000000 0.000000 0.000000 0.032218 0.000000 -0.003106
# 5 -0.005673 0.004203 -0.007851 0.000000 0.039662 0.000000
# 6 0.000000 0.000000 0.000000 -0.003106 0.000000 0.032025
#
#
# Mechanical properties :
#
#
# Convention : Reuss Voigt Hill
#
# Bulk Modulus (GPa) = 54.10038 88.08375 71.09207
# Shear Modulus (GPa) = 27.88864 33.13554 30.51209
#
# Velocity S-wave (km/s) = 3.84015 4.18583 4.01671
# Velocity P-wave (km/s) = 6.94760 8.36289 7.68788
#
# Compressibility (1/GPa) = 0.01848416
#
# Stress axis : x y z
#
# Youngs Moduli (GPa) = 105.38096 103.08879 40.54919
#
# Poissons Ratio (x) = 0.41317 0.14776
# Poissons Ratio (y) = 0.42235 0.20403
# Poissons Ratio (z) = 0.38400 0.51872
#
# Static dielectric constant tensor:
#      x y z
#    x 1.679870 0.000000 0.011060 
#    y 0.000000 1.635960 0.000000 
#    z 0.011060 0.000000 1.640850 
# 
# From -- ./inp_files/292326.got.cif
#   From: 2010.05.17/outbox.cif.g08.bks.cpg/sg12_147_cif.got.tgz:292326.got - 2010.06.03 13:09:07.
