data_PCOD9174318
_publ_section_title
;
Structure prediction by ZEFSAII (Michael W. Deem and Ramdas Pophale) SiO2 
 PCOD9174318
Probable space group: C 2/M
;
_chemical_formula_sum "Si O2"
_cell_formula_units_Z 64
_cell_length_a 12.288839
_cell_length_b 22.926391
_cell_length_c 13.162508
_cell_angle_alpha 90.000000
_cell_angle_beta 122.178648
_cell_angle_gamma 90.000000
_cell_volume 3138.749008
_symmetry_space_group_name_H-M "C 2/M"
_symmetry_group_IT_number 12
_symmetry_cell_setting 'monoclinic'
loop_
_space_group_symop_operation_xyz
x,y,z
-x,y,-z
-x,-y,-z
x,-y,z
1/2+x,1/2+y,z
1/2-x,1/2+y,-z
1/2-x,1/2-y,-z
1/2+x,1/2-y,z
loop_
_atom_site_type_symbol
_atom_site_label
_atom_site_fract_x
_atom_site_fract_y
_atom_site_fract_z
Si Si1 0.853810 0.736852 0.408713
Si Si2 0.119565 0.068339 0.926305
Si Si3 0.600157 0.263248 0.781221
Si Si4 0.642904 0.329623 0.433948
Si Si5 0.676015 0.070217 0.799939
Si Si6 0.000706 0.649113 0.166974
Si Si7 0.792924 0.637433 0.889374
Si Si8 0.148011 0.069501 0.296480
O O1 0.828148 0.732195 0.277222
O O2 0.757621 0.699843 0.427714
O O3 0.845023 0.803541 0.447075
O O4 0.000000 0.717329 0.500000
O O5 0.202511 0.082385 0.866947
O O6 0.976368 0.090556 0.831427
O O7 0.104510 0.000000 0.936711
O O8 0.207040 0.088797 0.064829
O O9 0.488709 0.301966 0.674466
O O10 0.531416 0.214979 0.815126
O O11 0.704544 0.307383 0.876970
O O12 0.647030 0.396466 0.402453
O O13 0.548801 0.105701 0.769197
O O14 0.727799 0.081017 0.712242
O O15 0.657740 0.000000 0.803421
O O16 0.142098 0.642391 0.188804
O O17 0.906129 0.634592 0.027113
O O18 0.137741 0.000000 0.304989
#
# Coordination Sequence:
#
# PCOD9174318 Si02
#       8
#     8   8   8   8   8   8   8   8
#     4   9  20  34  54  76  99 128 172 217 265 320
#     4   9  17  31  50  74 104 142 181 217 256 304
#     4  11  19  34  52  73 103 138 174 220 261 309
#     4  10  19  34  54  79 101 131 170 217 267 315
#     4   9  18  31  48  73 106 142 182 219 255 306
#     4  10  21  32  49  74 109 145 182 213 260 311
#     4  10  20  34  48  75 108 145 178 217 258 312
#     4  10  18  31  54  80 106 136 172 217 267 312
#
# _framework density 20.390288999999999
#
# number of rings (size 3 to 8) (size 9 to 14) (size 15 to 20)
#    0.000    2.250    1.250    2.250    0.000    2.000 
#    0.000    3.750    0.000    4.500    0.000   10.500 
#    0.000    0.000    0.000    0.000    0.000    0.000 
#
# Total GULP energy -178264.149017 kJ/mol
# GULP energy per Si atom -5570.754657 kJ/mol
# Density = 2.034388 g / cm^3
# Si number density = 20.390289 Si / 1000 Ang^3
#
#
#
# Elastic Constant Matrix: (Units=GPa)
#
#
# Indices 1 2 3 4 5 6 
#
# 1 94.6773 10.4781 5.2127 0.0000 -17.4209 0.0000
# 2 10.4781 40.4502 -2.7138 0.0000 -3.0425 0.0000
# 3 5.2127 -2.7138 7.5137 0.0000 -3.8049 0.0000
# 4 0.0000 0.0000 0.0000 3.2150 0.0000 4.2474
# 5 -17.4209 -3.0425 -3.8049 0.0000 17.5501 0.0000
# 6 0.0000 0.0000 0.0000 4.2474 0.0000 19.7714
#
#
#
# Elastic Compliance Matrix: (Units=1/GPa)
#
#
# Indices 1 2 3 4 5 6 
#
# 1 0.013276 -0.002842 -0.004283 0.000000 0.011757 0.000000
# 2 -0.002842 0.026772 0.014112 0.000000 0.004880 0.000000
# 3 -0.004283 0.014112 0.157542 0.000000 0.032351 0.000000
# 4 0.000000 0.000000 0.000000 0.434293 0.000000 -0.093297
# 5 0.011757 0.004880 0.032351 0.000000 0.076510 0.000000
# 6 0.000000 0.000000 0.000000 -0.093297 0.000000 0.070621
#
#
# Mechanical properties :
#
#
# Convention : Reuss Voigt Hill
#
# Bulk Modulus (GPa) = 4.72670 18.73279 11.72974
# Shear Modulus (GPa) = 5.98401 16.75159 11.36780
#
# Velocity S-wave (km/s) = 1.71497 2.86937 2.36373
# Velocity P-wave (km/s) = 2.49892 4.49275 3.63520
#
# Compressibility (1/GPa) = 0.21156419
#
# Stress axis : x y z
#
# Youngs Moduli (GPa) = 75.32496 37.35279 6.34752
#
# Poissons Ratio (x) = 0.10615 0.02719
# Poissons Ratio (y) = 0.21407 -0.08958
# Poissons Ratio (z) = 0.32262 -0.52714
#
# Static dielectric constant tensor:
#      x y z
#    x 1.774970 0.000000 -0.010790 
#    y 0.000000 1.751620 0.000000 
#    z -0.010790 0.000000 1.763800 
# 
# From -- ./inp_files/136005.got.cif
#   From: 2010.05.17/outbox.cif.g08.bks.cpg/sg12_69_cif.got.tgz:136005.got - 2010.06.03 13:09:07.
