data_PCOD9174072
_publ_section_title
;
Structure prediction by ZEFSAII (Michael W. Deem and Ramdas Pophale) SiO2 
 PCOD9174072
Probable space group: C 2/M
;
_chemical_formula_sum "Si O2"
_cell_formula_units_Z 64
_cell_length_a 20.876352
_cell_length_b 8.920134
_cell_length_c 24.451207
_cell_angle_alpha 90.000000
_cell_angle_beta 126.150804
_cell_angle_gamma 90.000000
_cell_volume 3676.640297
_symmetry_space_group_name_H-M "C 2/M"
_symmetry_group_IT_number 12
_symmetry_cell_setting 'monoclinic'
loop_
_space_group_symop_operation_xyz
x,y,z
-x,y,-z
-x,-y,-z
x,-y,z
1/2+x,1/2+y,z
1/2-x,1/2+y,-z
1/2-x,1/2-y,-z
1/2+x,1/2-y,z
loop_
_atom_site_type_symbol
_atom_site_label
_atom_site_fract_x
_atom_site_fract_y
_atom_site_fract_z
Si Si1 0.073424 0.179152 0.996355
Si Si2 0.332781 0.817994 0.768038
Si Si3 0.782541 0.680333 0.865780
Si Si4 0.514747 0.819261 0.854375
Si Si5 0.389890 0.179131 0.207814
Si Si6 0.431029 0.172492 0.511741
Si Si7 0.954901 0.177584 0.349201
Si Si8 0.819245 0.820816 0.372395
O O1 0.151837 0.254687 0.060363
O O2 0.083049 0.000000 0.999396
O O3 0.052281 0.242587 0.926297
O O4 0.000000 0.214138 0.000000
O O5 0.306779 0.774126 0.816142
O O6 0.422834 0.771280 0.802680
O O7 0.266688 0.767637 0.691337
O O8 0.330888 0.000000 0.765811
O O9 0.781878 0.500000 0.867872
O O10 0.695897 0.743614 0.834787
O O11 0.563269 0.784654 0.824130
O O12 0.515717 0.000000 0.862726
O O13 0.437669 0.237433 0.284517
O O14 0.380584 0.000000 0.206489
O O15 0.500000 0.177118 0.500000
O O16 0.467053 0.264614 0.580230
O O17 0.354822 0.241945 0.443608
O O18 0.418322 0.000000 0.520554
O O19 0.880751 0.205283 0.353178
O O20 0.958802 0.000000 0.341853
O O21 0.817802 0.000000 0.380793
#
# Coordination Sequence:
#
# PCOD9174072 Si02
#       8
#     8   8   8   8   8   8   8   8
#     4  11  23  38  58  87 116 141 176 232 287 325
#     4   9  17  33  57  82 105 138 188 228 264 322
#     4  11  21  37  62  84 107 147 189 226 270 330
#     4  10  22  40  60  81 109 150 188 222 272 337
#     4  11  23  37  55  83 117 146 181 231 280 325
#     4   9  17  28  44  74 111 144 176 220 277 325
#     4  10  18  31  52  77 107 147 186 221 271 330
#     4   9  16  29  50  78 106 136 180 229 268 318
#
# _framework density 17.407197
#
# number of rings (size 3 to 8) (size 9 to 14) (size 15 to 20)
#    0.000    2.000    2.500    1.875    0.000    4.000 
#    0.000    0.625    0.000    0.750    0.000    0.000 
#    0.000    0.000    0.000    0.000    0.000    0.000 
#
# Total GULP energy -178612.080872 kJ/mol
# GULP energy per Si atom -5581.627527 kJ/mol
# Density = 1.736758 g / cm^3
# Si number density = 17.407197 Si / 1000 Ang^3
#
#
#
# Elastic Constant Matrix: (Units=GPa)
#
#
# Indices 1 2 3 4 5 6 
#
# 1 103.6370 47.4469 71.2172 0.0000 7.0348 0.0000
# 2 47.4469 50.6158 53.9827 0.0000 -3.6726 0.0000
# 3 71.2172 53.9827 173.8369 0.0000 18.8097 0.0000
# 4 0.0000 0.0000 0.0000 32.4121 0.0000 -2.0643
# 5 7.0348 -3.6726 18.8097 0.0000 22.1977 0.0000
# 6 0.0000 0.0000 0.0000 -2.0643 0.0000 16.8087
#
#
#
# Elastic Compliance Matrix: (Units=1/GPa)
#
#
# Indices 1 2 3 4 5 6 
#
# 1 0.018822 -0.016035 -0.001981 0.000000 -0.006940 0.000000
# 2 -0.016035 0.047717 -0.010627 0.000000 0.021982 0.000000
# 3 -0.001981 -0.010627 0.010994 0.000000 -0.010447 0.000000
# 4 0.000000 0.000000 0.000000 0.031096 0.000000 0.003819
# 5 -0.006940 0.021982 -0.010447 0.000000 0.059738 0.000000
# 6 0.000000 0.000000 0.000000 0.003819 0.000000 0.059962
#
#
# Mechanical properties :
#
#
# Convention : Reuss Voigt Hill
#
# Bulk Modulus (GPa) = 49.38783 74.82037 62.10410
# Shear Modulus (GPa) = 17.10194 24.64656 20.87425
#
# Velocity S-wave (km/s) = 3.13783 3.76690 3.46667
# Velocity P-wave (km/s) = 6.44683 7.87370 7.19572
#
# Compressibility (1/GPa) = 0.02024790
#
# Stress axis : x y z
#
# Youngs Moduli (GPa) = 53.12827 20.95707 90.95476
#
# Poissons Ratio (x) = 0.33605 0.18016
# Poissons Ratio (y) = 0.85191 0.96658
# Poissons Ratio (z) = 0.10524 0.22271
#
# Static dielectric constant tensor:
#      x y z
#    x 1.572780 0.000000 0.010190 
#    y 0.000000 1.582520 0.000000 
#    z 0.010190 0.000000 1.576440 
# 
# From -- ./inp_files/346182.got.cif
#   From: 2010.05.17/outbox.cif.g08.bks.cpg/sg12_174_cif.got.tgz:346182.got - 2010.06.03 13:09:07.
