data_PCOD9174050
_publ_section_title
;
Structure prediction by ZEFSAII (Michael W. Deem and Ramdas Pophale) SiO2 
 PCOD9174050
Probable space group: C 2/M
;
_chemical_formula_sum "Si O2"
_cell_formula_units_Z 64
_cell_length_a 11.511190
_cell_length_b 19.140661
_cell_length_c 13.759500
_cell_angle_alpha 90.000000
_cell_angle_beta 111.600441
_cell_angle_gamma 90.000000
_cell_volume 2818.753131
_symmetry_space_group_name_H-M "C 2/M"
_symmetry_group_IT_number 12
_symmetry_cell_setting 'monoclinic'
loop_
_space_group_symop_operation_xyz
x,y,z
-x,y,-z
-x,-y,-z
x,-y,z
1/2+x,1/2+y,z
1/2-x,1/2+y,-z
1/2-x,1/2-y,-z
1/2+x,1/2-y,z
loop_
_atom_site_type_symbol
_atom_site_label
_atom_site_fract_x
_atom_site_fract_y
_atom_site_fract_z
Si Si1 0.629363 0.581035 0.604058
Si Si2 0.737061 0.580310 0.043928
Si Si3 0.365928 0.146633 0.907344
Si Si4 0.995971 0.826149 0.698110
Si Si5 0.146822 0.194895 0.157375
Si Si6 0.909297 0.318063 0.354000
Si Si7 0.511017 0.920501 0.233143
Si Si8 0.244936 0.332972 0.515858
O O1 0.500000 0.585624 0.500000
O O2 0.660161 0.500000 0.623079
O O3 0.597958 0.617802 0.696664
O O4 0.731701 0.624428 0.574965
O O5 0.693280 0.500000 0.027329
O O6 0.651831 0.632288 0.081281
O O7 0.874357 0.579976 0.138036
O O8 0.764133 0.611452 0.945680
O O9 0.347853 0.229389 0.890430
O O10 0.388525 0.111372 0.810056
O O11 0.500000 0.136518 0.000000
O O12 0.969033 0.808655 0.802252
O O13 0.863801 0.853637 0.618159
O O14 0.028454 0.757304 0.644947
O O15 0.275386 0.189338 0.257984
O O16 0.873322 0.340996 0.451119
O O17 0.990311 0.373284 0.320304
O O18 0.540904 0.000000 0.265927
O O19 0.250000 0.250000 0.500000
#
# Coordination Sequence:
#
# PCOD9174050 Si02
#       8
#     8   8   8   8   8   8   8   8
#     4   9  18  32  51  77 104 130 167 209 245 286
#     4   9  18  31  48  73 101 127 165 212 253 292
#     4  10  18  31  52  76  98 131 166 209 252 297
#     4  10  19  33  52  75 102 134 164 204 249 295
#     4  10  20  32  51  78  99 131 171 205 249 297
#     4  10  19  32  51  75 104 132 164 204 249 297
#     4   9  17  30  49  74 102 128 161 207 254 295
#     4  10  19  31  53  78  99 131 168 204 247 294
#
# _framework density 22.705074
#
# number of rings (size 3 to 8) (size 9 to 14) (size 15 to 20)
#    0.000    2.375    2.500    0.750    0.000    2.500 
#    0.000    5.000    0.000    4.125    0.000    1.750 
#    0.000    0.000    0.000    0.000    0.000    0.000 
#
# Total GULP energy -178897.943628 kJ/mol
# GULP energy per Si atom -5590.560738 kJ/mol
# Density = 2.265340 g / cm^3
# Si number density = 22.705074 Si / 1000 Ang^3
#
#
#
# Elastic Constant Matrix: (Units=GPa)
#
#
# Indices 1 2 3 4 5 6 
#
# 1 117.5897 35.8234 38.1162 0.0000 -29.5739 0.0000
# 2 35.8234 152.0341 28.8169 0.0000 -40.5738 0.0000
# 3 38.1162 28.8169 78.8919 0.0000 -29.5389 0.0000
# 4 0.0000 0.0000 0.0000 28.3887 0.0000 -10.7754
# 5 -29.5739 -40.5738 -29.5389 0.0000 44.9400 0.0000
# 6 0.0000 0.0000 0.0000 -10.7754 0.0000 24.8845
#
#
#
# Elastic Compliance Matrix: (Units=1/GPa)
#
#
# Indices 1 2 3 4 5 6 
#
# 1 0.010912 -0.000799 -0.003398 0.000000 0.004226 0.000000
# 2 -0.000799 0.008730 -0.000064 0.000000 0.007313 0.000000
# 3 -0.003398 -0.000064 0.017883 0.000000 0.009460 0.000000
# 4 0.000000 0.000000 0.000000 0.042154 0.000000 0.018253
# 5 0.004226 0.007313 0.009460 0.000000 0.037854 0.000000
# 6 0.000000 0.000000 0.000000 0.018253 0.000000 0.048090
#
#
# Mechanical properties :
#
#
# Convention : Reuss Voigt Hill
#
# Bulk Modulus (GPa) = 34.48089 61.55875 48.01982
# Shear Modulus (GPa) = 27.20180 36.02657 31.61418
#
# Velocity S-wave (km/s) = 3.46504 3.98769 3.73551
# Velocity P-wave (km/s) = 5.58821 6.95510 6.30878
#
# Compressibility (1/GPa) = 0.02900157
#
# Stress axis : x y z
#
# Youngs Moduli (GPa) = 91.64358 114.55119 55.91963
#
# Poissons Ratio (x) = 0.09157 0.19000
# Poissons Ratio (y) = 0.07326 0.00359
# Poissons Ratio (z) = 0.31139 0.00736
#
# Static dielectric constant tensor:
#      x y z
#    x 1.888180 0.000000 0.054040 
#    y 0.000000 1.774010 0.000000 
#    z 0.054040 0.000000 1.880190 
# 
# From -- ./inp_files/206677.got.cif
#   From: 2010.05.17/outbox.cif.g08.bks.cpg/sg12_104_cif.got.tgz:206677.got - 2010.06.03 13:09:07.
