data_PCOD9174243
_publ_section_title
;
Structure prediction by ZEFSAII (Michael W. Deem and Ramdas Pophale) SiO2 
 PCOD9174243
Probable space group: C 2/M
;
_chemical_formula_sum "Si O2"
_cell_formula_units_Z 64
_cell_length_a 22.256823
_cell_length_b 9.170393
_cell_length_c 17.151182
_cell_angle_alpha 90.000000
_cell_angle_beta 93.694147
_cell_angle_gamma 90.000000
_cell_volume 3493.348085
_symmetry_space_group_name_H-M "C 2/M"
_symmetry_group_IT_number 12
_symmetry_cell_setting 'monoclinic'
loop_
_space_group_symop_operation_xyz
x,y,z
-x,y,-z
-x,-y,-z
x,-y,z
1/2+x,1/2+y,z
1/2-x,1/2+y,-z
1/2-x,1/2-y,-z
1/2+x,1/2-y,z
loop_
_atom_site_type_symbol
_atom_site_label
_atom_site_fract_x
_atom_site_fract_y
_atom_site_fract_z
Si Si1 0.649594 0.171726 0.739494
Si Si2 0.686142 0.326302 0.587287
Si Si3 0.173440 0.674314 0.425855
Si Si4 0.539623 0.329672 0.130720
Si Si5 0.417447 0.173809 0.115220
Si Si6 0.117815 0.325722 0.259793
Si Si7 0.778845 0.172638 0.829166
Si Si8 0.151514 0.169275 0.019293
O O1 0.654782 0.261303 0.660842
O O2 0.598029 0.212633 0.796588
O O3 0.711758 0.190195 0.792798
O O4 0.643967 0.000000 0.720341
O O5 0.680824 0.500000 0.585259
O O6 0.757897 0.289496 0.594836
O O7 0.661922 0.257138 0.505249
O O8 0.171645 0.500000 0.438746
O O9 0.128747 0.710133 0.351318
O O10 0.527259 0.500000 0.141363
O O11 0.479771 0.249395 0.097717
O O12 0.563453 0.254166 0.211649
O O13 0.593954 0.318369 0.073041
O O14 0.364667 0.230996 0.054698
O O15 0.421625 0.000000 0.109577
O O16 0.112123 0.500000 0.251486
O O17 0.177204 0.269795 0.219595
O O18 0.795397 0.000000 0.822003
O O19 0.792300 0.209039 0.920564
O O20 0.156802 0.000000 0.995632
#
# Coordination Sequence:
#
# PCOD9174243 Si02
#       8
#     8   8   8   8   8   8   8   8
#     4  10  21  36  52  72 107 145 175 211 257 311
#     4  10  19  31  50  78 107 139 176 209 247 303
#     4   9  18  31  49  78 111 138 166 206 257 305
#     4  10  21  37  56  77 102 135 174 217 266 311
#     4  11  23  36  52  76 102 137 180 218 261 307
#     4  10  18  31  53  81 109 133 167 215 260 304
#     4   9  18  33  52  74 104 141 173 206 258 313
#     4   9  19  35  54  76 101 131 171 219 267 311
#
# _framework density 18.320533000000001
#
# number of rings (size 3 to 8) (size 9 to 14) (size 15 to 20)
#    0.000    2.250    1.250    2.625    0.000    7.000 
#    0.000    0.000    0.000    0.750    0.000    5.250 
#    0.000    0.000    0.000    0.000    0.000    0.000 
#
# Total GULP energy -178590.983786 kJ/mol
# GULP energy per Si atom -5580.968243 kJ/mol
# Density = 1.827883 g / cm^3
# Si number density = 18.320533 Si / 1000 Ang^3
#
#
#
# Elastic Constant Matrix: (Units=GPa)
#
#
# Indices 1 2 3 4 5 6 
#
# 1 14.4311 6.3267 5.6194 0.0000 1.4960 0.0000
# 2 6.3267 52.4581 49.0115 0.0000 1.1704 0.0000
# 3 5.6194 49.0115 109.3842 0.0000 9.7996 0.0000
# 4 0.0000 0.0000 0.0000 35.0432 0.0000 4.9286
# 5 1.4960 1.1704 9.7996 0.0000 20.4698 0.0000
# 6 0.0000 0.0000 0.0000 4.9286 0.0000 16.0684
#
#
#
# Elastic Compliance Matrix: (Units=1/GPa)
#
#
# Indices 1 2 3 4 5 6 
#
# 1 0.073716 -0.009770 0.001069 0.000000 -0.005341 0.000000
# 2 -0.009770 0.034664 -0.015584 0.000000 0.006193 0.000000
# 3 0.001069 -0.015584 0.016714 0.000000 -0.007189 0.000000
# 4 0.000000 0.000000 0.000000 0.029823 0.000000 -0.009147
# 5 -0.005341 0.006193 -0.007189 0.000000 0.052330 0.000000
# 6 0.000000 0.000000 0.000000 -0.009147 0.000000 0.065040
#
#
# Mechanical properties :
#
#
# Convention : Reuss Voigt Hill
#
# Bulk Modulus (GPa) = 13.06811 33.13206 23.10009
# Shear Modulus (GPa) = 14.43566 22.00398 18.21982
#
# Velocity S-wave (km/s) = 2.81009 3.46939 3.15700
# Velocity P-wave (km/s) = 4.20444 5.84575 5.09166
#
# Compressibility (1/GPa) = 0.07652214
#
# Stress axis : x y z
#
# Youngs Moduli (GPa) = 13.56563 28.84876 59.82985
#
# Poissons Ratio (x) = 0.28186 -0.06397
# Poissons Ratio (y) = 0.13254 0.93242
# Poissons Ratio (z) = -0.01450 0.44959
#
# Static dielectric constant tensor:
#      x y z
#    x 1.631760 0.000000 0.009920 
#    y 0.000000 1.605260 0.000000 
#    z 0.009920 0.000000 1.630920 
# 
# From -- ./inp_files/238811.got.cif
#   From: 2010.05.17/outbox.cif.g08.bks.cpg/sg12_120_cif.got.tgz:238811.got - 2010.06.03 13:09:07.
