data_PCOD9174824
_publ_section_title
;
Structure prediction by ZEFSAII (Michael W. Deem and Ramdas Pophale) SiO2 
 PCOD9174824
Probable space group: C 2/M
;
_chemical_formula_sum "Si O2"
_cell_formula_units_Z 48
_cell_length_a 8.285881
_cell_length_b 19.735011
_cell_length_c 19.511578
_cell_angle_alpha 90.000000
_cell_angle_beta 53.285967
_cell_angle_gamma 90.000000
_cell_volume 2557.655301
_symmetry_space_group_name_H-M "C 2/M"
_symmetry_group_IT_number 12
_symmetry_cell_setting 'monoclinic'
loop_
_space_group_symop_operation_xyz
x,y,z
-x,y,-z
-x,-y,-z
x,-y,z
1/2+x,1/2+y,z
1/2-x,1/2+y,-z
1/2-x,1/2-y,-z
1/2+x,1/2-y,z
loop_
_atom_site_type_symbol
_atom_site_label
_atom_site_fract_x
_atom_site_fract_y
_atom_site_fract_z
Si Si1 0.660228 0.335715 0.593008
Si Si2 0.012339 0.669222 0.233016
Si Si3 0.535065 0.818033 0.597856
Si Si4 0.192992 0.079938 0.247121
Si Si5 0.811727 0.648006 0.082166
Si Si6 0.557156 0.275627 0.862945
O O1 0.569219 0.262840 0.595296
O O2 0.792783 0.353092 0.492205
O O3 0.481834 0.383417 0.664560
O O4 0.824829 0.329497 0.612073
O O5 0.252148 0.676700 0.173211
O O6 0.953130 0.660284 0.326803
O O7 0.906414 0.608972 0.219483
O O8 0.942308 0.739515 0.212844
O O9 0.190300 0.104930 0.169103
O O10 0.176968 0.000000 0.256612
O O11 0.645515 0.682307 0.076029
O O12 0.915781 0.711531 0.094650
O O13 0.000000 0.610511 0.000000
#
# Coordination Sequence:
#
# PCOD9174824 Si02
#       6
#     8   8   8   8   8   8
#     4  10  20  33  54  83 111 135 169 219 266 318
#     4  10  18  32  53  77 107 139 172 214 264 316
#     4  10  18  32  57  85 106 130 170 221 275 313
#     4  11  24  39  51  70 107 150 186 216 254 312
#     4  10  19  34  59  85 109 136 170 219 273 323
#     4   9  18  32  56  88 112 130 165 221 280 319
#
# _framework density 18.767188999999998
#
# number of rings (size 3 to 8) (size 9 to 14) (size 15 to 20)
#    0.000    2.000    0.000    6.500    0.000    2.333 
#    0.000    6.667    0.000    1.000    0.000    0.000 
#    0.000    0.000    0.000    0.000    0.000    0.000 
#
# Total GULP energy -133817.802046 kJ/mol
# GULP energy per Si atom -5575.741752 kJ/mol
# Density = 1.872447 g / cm^3
# Si number density = 18.767189 Si / 1000 Ang^3
#
#
#
# Elastic Constant Matrix: (Units=GPa)
#
#
# Indices 1 2 3 4 5 6 
#
# 1 82.3857 13.4022 14.2067 0.0000 -18.4095 0.0000
# 2 13.4022 70.9135 27.4487 0.0000 -21.3074 0.0000
# 3 14.2067 27.4487 76.7592 0.0000 -23.7952 0.0000
# 4 0.0000 0.0000 0.0000 4.2450 0.0000 0.1519
# 5 -18.4095 -21.3074 -23.7952 0.0000 24.8773 0.0000
# 6 0.0000 0.0000 0.0000 0.1519 0.0000 6.7284
#
#
#
# Elastic Compliance Matrix: (Units=1/GPa)
#
#
# Indices 1 2 3 4 5 6 
#
# 1 0.014603 0.000542 0.000849 0.000000 0.012083 0.000000
# 2 0.000542 0.019348 -0.002498 0.000000 0.014583 0.000000
# 3 0.000849 -0.002498 0.018899 0.000000 0.016566 0.000000
# 4 0.000000 0.000000 0.000000 0.235759 0.000000 -0.005322
# 5 0.012083 0.014583 0.016566 0.000000 0.077474 0.000000
# 6 0.000000 0.000000 0.000000 -0.005322 0.000000 0.148744
#
#
# Mechanical properties :
#
#
# Convention : Reuss Voigt Hill
#
# Bulk Modulus (GPa) = 19.74871 37.79708 28.77289
# Shear Modulus (GPa) = 9.36467 18.83686 14.10077
#
# Velocity S-wave (km/s) = 2.23624 3.17158 2.74405
# Velocity P-wave (km/s) = 4.14892 5.79617 5.04029
#
# Compressibility (1/GPa) = 0.05063622
#
# Stress axis : x y z
#
# Youngs Moduli (GPa) = 68.47692 51.68478 52.91185
#
# Poissons Ratio (x) = -0.02801 -0.04493
# Poissons Ratio (y) = -0.03711 0.13219
# Poissons Ratio (z) = -0.05814 0.12913
#
# Static dielectric constant tensor:
#      x y z
#    x 1.670850 0.000000 0.014580 
#    y 0.000000 1.604890 0.000000 
#    z 0.014580 0.000000 1.731460 
# 
# From -- ./inp_files/300621.got.cif
#   From: 2010.05.17/outbox.cif.g08.bks.cpg/sg12_151_cif.got.tgz:300621.got - 2010.06.03 13:09:07.
