data_PCOD9174677
_publ_section_title
;
Structure prediction by ZEFSAII (Michael W. Deem and Ramdas Pophale) SiO2 
 PCOD9174677
Probable space group: C 2/M
;
_chemical_formula_sum "Si O2"
_cell_formula_units_Z 64
_cell_length_a 5.597125
_cell_length_b 27.785781
_cell_length_c 21.216987
_cell_angle_alpha 90.000000
_cell_angle_beta 91.748526
_cell_angle_gamma 90.000000
_cell_volume 3298.139796
_symmetry_space_group_name_H-M "C 2/M"
_symmetry_group_IT_number 12
_symmetry_cell_setting 'monoclinic'
loop_
_space_group_symop_operation_xyz
x,y,z
-x,y,-z
-x,-y,-z
x,-y,z
1/2+x,1/2+y,z
1/2-x,1/2+y,-z
1/2-x,1/2-y,-z
1/2+x,1/2-y,z
loop_
_atom_site_type_symbol
_atom_site_label
_atom_site_fract_x
_atom_site_fract_y
_atom_site_fract_z
Si Si1 0.481266 0.146728 0.639152
Si Si2 0.733897 0.052945 0.663984
Si Si3 0.703601 0.647180 0.169336
Si Si4 0.530263 0.053849 0.806353
Si Si5 0.616845 0.779350 0.738634
Si Si6 0.130917 0.099720 0.734313
Si Si7 0.219448 0.268432 0.428401
Si Si8 0.498058 0.278054 0.924984
O O1 0.623332 0.097900 0.625792
O O2 0.636671 0.185442 0.678491
O O3 0.356767 0.176156 0.582188
O O4 0.296241 0.131975 0.692035
O O5 0.626371 0.053714 0.734484
O O6 0.006437 0.064326 0.683249
O O7 0.696098 0.000000 0.636722
O O8 0.542097 0.633927 0.228200
O O9 0.552590 0.673242 0.114319
O O10 0.839161 0.597100 0.156096
O O11 0.881501 0.686877 0.199379
O O12 0.259538 0.068952 0.789861
O O13 0.558235 0.000000 0.831920
O O14 0.859650 0.747540 0.738863
O O15 0.250000 0.250000 0.500000
O O16 0.484234 0.260519 0.402251
O O17 0.759209 0.255141 0.911361
O O18 0.500000 0.287091 0.000000
#
# Coordination Sequence:
#
# PCOD9174677 Si02
#       8
#     8   8   8   8   8   8   8   8
#     4  11  21  34  54  81 118 151 188 231 283 344
#     4   9  18  32  51  78 115 152 190 230 283 348
#     4  11  21  34  54  80 114 149 193 233 290 348
#     4   9  18  32  51  77 113 151 190 230 284 353
#     4  12  23  32  48  78 114 146 177 221 279 334
#     4  10  18  32  51  82 117 151 188 225 293 346
#     4  10  23  41  60  83 113 152 199 231 274 330
#     4  10  23  41  60  82 110 151 200 245 286 337
#
# _framework density 19.404876999999999
#
# number of rings (size 3 to 8) (size 9 to 14) (size 15 to 20)
#    0.000    1.750    3.750    2.625    3.500    1.000 
#    0.000    0.000    0.000    0.375    0.000    4.375 
#    0.000    0.000    0.000    0.000    0.000    0.000 
#
# Total GULP energy -178179.000932 kJ/mol
# GULP energy per Si atom -5568.093779 kJ/mol
# Density = 1.936071 g / cm^3
# Si number density = 19.404877 Si / 1000 Ang^3
#
#
#
# Elastic Constant Matrix: (Units=GPa)
#
#
# Indices 1 2 3 4 5 6 
#
# 1 103.7432 55.2066 12.5832 0.0000 19.3088 0.0000
# 2 55.2066 169.4769 49.3372 0.0000 28.5364 0.0000
# 3 12.5832 49.3372 50.8280 0.0000 16.5200 0.0000
# 4 0.0000 0.0000 0.0000 24.6773 0.0000 11.0774
# 5 19.3088 28.5364 16.5200 0.0000 23.8457 0.0000
# 6 0.0000 0.0000 0.0000 11.0774 0.0000 24.1414
#
#
#
# Elastic Compliance Matrix: (Units=1/GPa)
#
#
# Indices 1 2 3 4 5 6 
#
# 1 0.012716 -0.003675 0.003015 0.000000 -0.007988 0.000000
# 2 -0.003675 0.009902 -0.007508 0.000000 -0.003672 0.000000
# 3 0.003015 -0.007508 0.031089 0.000000 -0.014995 0.000000
# 4 0.000000 0.000000 0.000000 0.051035 0.000000 -0.023418
# 5 -0.007988 -0.003672 -0.014995 0.000000 0.063187 0.000000
# 6 0.000000 0.000000 0.000000 -0.023418 0.000000 0.052168
#
#
# Mechanical properties :
#
#
# Convention : Reuss Voigt Hill
#
# Bulk Modulus (GPa) = 26.75855 62.03354 44.39605
# Shear Modulus (GPa) = 20.08932 28.32762 24.20847
#
# Velocity S-wave (km/s) = 3.22105 3.82490 3.53589
# Velocity P-wave (km/s) = 5.25862 7.17941 6.29274
#
# Compressibility (1/GPa) = 0.03737123
#
# Stress axis : x y z
#
# Youngs Moduli (GPa) = 78.64281 100.99383 32.16576
#
# Poissons Ratio (x) = 0.37115 -0.09699
# Poissons Ratio (y) = 0.28901 0.24150
# Poissons Ratio (z) = -0.23713 0.75825
#
# Static dielectric constant tensor:
#      x y z
#    x 1.569950 0.000000 0.346940 
#    y 0.000000 1.733500 0.000000 
#    z 0.346940 0.000000 1.416280 
# 
# From -- ./inp_files/331549.got.cif
#   From: 2010.05.17/outbox.cif.g08.bks.cpg/sg12_166_cif.got.tgz:331549.got - 2010.06.03 13:09:07.
