data_PCOD9174240
_publ_section_title
;
Structure prediction by ZEFSAII (Michael W. Deem and Ramdas Pophale) SiO2 
 PCOD9174240
Probable space group: C 2/M
;
_chemical_formula_sum "Si O2"
_cell_formula_units_Z 56
_cell_length_a 31.041228
_cell_length_b 8.263468
_cell_length_c 12.183310
_cell_angle_alpha 90.000000
_cell_angle_beta 117.666329
_cell_angle_gamma 90.000000
_cell_volume 2767.813530
_symmetry_space_group_name_H-M "C 2/M"
_symmetry_group_IT_number 12
_symmetry_cell_setting 'monoclinic'
loop_
_space_group_symop_operation_xyz
x,y,z
-x,y,-z
-x,-y,-z
x,-y,z
1/2+x,1/2+y,z
1/2-x,1/2+y,-z
1/2-x,1/2-y,-z
1/2+x,1/2-y,z
loop_
_atom_site_type_symbol
_atom_site_label
_atom_site_fract_x
_atom_site_fract_y
_atom_site_fract_z
Si Si1 0.839623 0.693261 0.365857
Si Si2 0.245534 0.306088 0.122169
Si Si3 0.944796 0.806314 0.909439
Si Si4 0.360427 0.193371 0.967590
Si Si5 0.509032 0.188909 0.380575
Si Si6 0.399334 0.687035 0.629228
Si Si7 0.595147 0.194462 0.752269
O O1 0.839429 0.500000 0.358498
O O2 0.789996 0.754060 0.252360
O O3 0.854773 0.738854 0.507282
O O4 0.882039 0.755801 0.333347
O O5 0.243765 0.500000 0.115793
O O6 0.194601 0.249052 0.116695
O O7 0.250000 0.250000 0.000000
O O8 0.905237 0.771275 0.956468
O O9 0.918942 0.741337 0.767564
O O10 0.949741 0.000000 0.901236
O O11 0.000000 0.744731 0.000000
O O12 0.363327 0.000000 0.951568
O O13 0.368201 0.221834 0.106094
O O14 0.500000 0.192132 0.500000
O O15 0.553684 0.291723 0.392510
O O16 0.457853 0.253414 0.274832
O O17 0.518158 0.000000 0.361090
O O18 0.387518 0.500000 0.633340
O O19 0.588499 0.000000 0.731363
#
# Coordination Sequence:
#
# PCOD9174240 Si02
#       7
#     8   8   8   8   8   8   8
#     4  11  21  38  60  85 120 158 198 244 302 362
#     4  11  22  38  61  93 128 161 200 250 304 360
#     4  10  23  43  63  86 121 161 203 253 303 356
#     4  10  21  38  61  88 119 155 203 251 293 354
#     4  10  18  31  53  80 113 153 192 235 292 361
#     4  11  23  38  56  84 121 157 200 253 305 363
#     4   9  17  32  53  82 117 150 188 240 294 349
#
# _framework density 20.232578
#
# number of rings (size 3 to 8) (size 9 to 14) (size 15 to 20)
#    0.000    1.714    2.857    2.143    0.000    2.857 
#    0.000    0.714    0.000    0.000    0.000    0.000 
#    0.000    0.000    0.000    0.000    0.000    0.000 
#
# Total GULP energy -156120.184655 kJ/mol
# GULP energy per Si atom -5575.720881 kJ/mol
# Density = 2.018653 g / cm^3
# Si number density = 20.232578 Si / 1000 Ang^3
#
#
#
# Elastic Constant Matrix: (Units=GPa)
#
#
# Indices 1 2 3 4 5 6 
#
# 1 85.0399 4.1924 50.3774 0.0000 18.6663 0.0000
# 2 4.1924 19.4824 13.4972 0.0000 5.9766 0.0000
# 3 50.3774 13.4972 122.1776 0.0000 24.0151 0.0000
# 4 0.0000 0.0000 0.0000 18.1824 0.0000 1.8185
# 5 18.6663 5.9766 24.0151 0.0000 37.0765 0.0000
# 6 0.0000 0.0000 0.0000 1.8185 0.0000 23.4851
#
#
#
# Elastic Compliance Matrix: (Units=1/GPa)
#
#
# Indices 1 2 3 4 5 6 
#
# 1 0.016233 0.002091 -0.006018 0.000000 -0.004612 0.000000
# 2 0.002091 0.056927 -0.005890 0.000000 -0.006414 0.000000
# 3 -0.006018 -0.005890 0.012072 0.000000 -0.003840 0.000000
# 4 0.000000 0.000000 0.000000 0.055427 0.000000 -0.004292
# 5 -0.004612 -0.006414 -0.003840 0.000000 0.032814 0.000000
# 6 0.000000 0.000000 0.000000 -0.004292 0.000000 0.042913
#
#
# Mechanical properties :
#
#
# Convention : Reuss Voigt Hill
#
# Bulk Modulus (GPa) = 15.24459 40.31488 27.77974
# Shear Modulus (GPa) = 19.38837 26.32433 22.85635
#
# Velocity S-wave (km/s) = 3.09896 3.61097 3.36472
# Velocity P-wave (km/s) = 4.51174 6.11183 5.37170
#
# Compressibility (1/GPa) = 0.06559702
#
# Stress axis : x y z
#
# Youngs Moduli (GPa) = 61.60114 17.56640 82.83869
#
# Poissons Ratio (x) = -0.03673 0.49852
# Poissons Ratio (y) = -0.12879 0.48794
# Poissons Ratio (z) = 0.37072 0.10347
#
# Static dielectric constant tensor:
#      x y z
#    x 1.740950 0.000000 0.032030 
#    y 0.000000 1.710640 0.000000 
#    z 0.032030 0.000000 1.784910 
# 
# From -- ./inp_files/187720.got.cif
#   From: 2010.05.17/outbox.cif.g08.bks.cpg/sg12_94_cif.got.tgz:187720.got - 2010.06.03 13:09:07.
