data_PCOD9174571
_publ_section_title
;
Structure prediction by ZEFSAII (Michael W. Deem and Ramdas Pophale) SiO2 
 PCOD9174571
Probable space group: C 2/M
;
_chemical_formula_sum "Si O2"
_cell_formula_units_Z 48
_cell_length_a 13.960114
_cell_length_b 23.149850
_cell_length_c 14.221465
_cell_angle_alpha 90.000000
_cell_angle_beta 138.596482
_cell_angle_gamma 90.000000
_cell_volume 3039.611246
_symmetry_space_group_name_H-M "C 2/M"
_symmetry_group_IT_number 12
_symmetry_cell_setting 'monoclinic'
loop_
_space_group_symop_operation_xyz
x,y,z
-x,y,-z
-x,-y,-z
x,-y,z
1/2+x,1/2+y,z
1/2-x,1/2+y,-z
1/2-x,1/2-y,-z
1/2+x,1/2-y,z
loop_
_atom_site_type_symbol
_atom_site_label
_atom_site_fract_x
_atom_site_fract_y
_atom_site_fract_z
Si Si1 0.897058 0.672325 0.612564
Si Si2 0.356376 0.932253 0.454364
Si Si3 0.538367 0.566641 0.138298
Si Si4 0.309761 0.234107 0.184019
Si Si5 0.569197 0.316248 0.880967
Si Si6 0.236083 0.750928 0.342544
O O1 0.859464 0.609514 0.546199
O O2 0.813239 0.691177 0.645128
O O3 0.844316 0.717114 0.493198
O O4 0.067006 0.686043 0.745648
O O5 0.500000 0.917879 0.500000
O O6 0.209010 0.923290 0.286131
O O7 0.363322 0.000000 0.483864
O O8 0.506715 0.500000 0.140625
O O9 0.448617 0.615119 0.127445
O O10 0.500000 0.573597 0.000000
O O11 0.352748 0.289493 0.152797
O O12 0.299027 0.250559 0.284825
O O13 0.160217 0.207810 0.035973
O O14 0.409328 0.289321 0.766355
#
# Coordination Sequence:
#
# PCOD9174571 Si02
#       6
#     8   8   8   8   8   8
#     4  10  20  30  47  73  94 127 160 191 241 285
#     4  10  20  33  49  70  98 129 162 200 240 285
#     4  10  20  33  50  70  96 130 162 198 243 287
#     4  10  20  32  49  72  98 127 158 199 241 286
#     4  10  20  32  49  73  97 126 161 197 242 284
#     4  10  18  32  49  68  98 125 158 197 236 289
#
# _framework density 15.791494
#
# number of rings (size 3 to 8) (size 9 to 14) (size 15 to 20)
#    0.000    2.000    1.667    3.000    2.333    0.000 
#    0.000    0.000    0.000    1.000    0.000    2.333 
#    0.000    8.000    0.000    0.000    0.000    0.000 
#
# Total GULP energy -133829.855075 kJ/mol
# GULP energy per Si atom -5576.243961 kJ/mol
# Density = 1.575555 g / cm^3
# Si number density = 15.791494 Si / 1000 Ang^3
#
#
#
# Elastic Constant Matrix: (Units=GPa)
#
#
# Indices 1 2 3 4 5 6 
#
# 1 51.7912 24.0893 3.3072 0.0000 -9.4969 0.0000
# 2 24.0893 86.1152 19.1378 0.0000 3.5677 0.0000
# 3 3.3072 19.1378 48.8207 0.0000 1.9027 0.0000
# 4 0.0000 0.0000 0.0000 22.4594 0.0000 -3.7724
# 5 -9.4969 3.5677 1.9027 0.0000 21.8113 0.0000
# 6 0.0000 0.0000 0.0000 -3.7724 0.0000 18.1030
#
#
#
# Elastic Compliance Matrix: (Units=1/GPa)
#
#
# Indices 1 2 3 4 5 6 
#
# 1 0.025052 -0.007698 0.000849 0.000000 0.012093 0.000000
# 2 -0.007698 0.015145 -0.005206 0.000000 -0.005375 0.000000
# 3 0.000849 -0.005206 0.022495 0.000000 -0.000741 0.000000
# 4 0.000000 0.000000 0.000000 0.046140 0.000000 0.009615
# 5 0.012093 -0.005375 -0.000741 0.000000 0.052057 0.000000
# 6 0.000000 0.000000 0.000000 0.009615 0.000000 0.057243
#
#
# Mechanical properties :
#
#
# Convention : Reuss Voigt Hill
#
# Bulk Modulus (GPa) = 25.91790 31.08841 28.50315
# Shear Modulus (GPa) = 19.59998 21.82093 20.71045
#
# Velocity S-wave (km/s) = 3.52685 3.72131 3.62538
# Velocity P-wave (km/s) = 5.74744 6.18011 5.96770
#
# Compressibility (1/GPa) = 0.03858338
#
# Stress axis : x y z
#
# Youngs Moduli (GPa) = 39.91724 66.02728 44.45376
#
# Poissons Ratio (x) = 0.50825 -0.03775
# Poissons Ratio (y) = 0.30726 0.23143
# Poissons Ratio (z) = -0.03389 0.34374
#
# Static dielectric constant tensor:
#      x y z
#    x 1.515770 0.000000 0.008010 
#    y 0.000000 1.528890 0.000000 
#    z 0.008010 0.000000 1.545280 
# 
# From -- ./inp_files/50595.got.cif
#   From: 2010.05.17/outbox.cif.g08.bks.cpg/sg12_26_cif.got.tgz:50595.got - 2010.06.03 13:09:07.
