data_PCOD9174109
_publ_section_title
;
Structure prediction by ZEFSAII (Michael W. Deem and Ramdas Pophale) SiO2 
 PCOD9174109
Probable space group: C 2/M
;
_chemical_formula_sum "Si O2"
_cell_formula_units_Z 56
_cell_length_a 10.599897
_cell_length_b 17.207441
_cell_length_c 17.927117
_cell_angle_alpha 90.000000
_cell_angle_beta 107.195786
_cell_angle_gamma 90.000000
_cell_volume 3123.692064
_symmetry_space_group_name_H-M "C 2/M"
_symmetry_group_IT_number 12
_symmetry_cell_setting 'monoclinic'
loop_
_space_group_symop_operation_xyz
x,y,z
-x,y,-z
-x,-y,-z
x,-y,z
1/2+x,1/2+y,z
1/2-x,1/2+y,-z
1/2-x,1/2-y,-z
1/2+x,1/2-y,z
loop_
_atom_site_type_symbol
_atom_site_label
_atom_site_fract_x
_atom_site_fract_y
_atom_site_fract_z
Si Si1 0.352036 0.182010 0.500000
Si Si2 0.092521 0.155987 0.182591
Si Si3 0.409932 0.155986 0.817409
Si Si4 0.065257 0.407751 0.338300
Si Si5 0.794021 0.344708 0.088044
Si Si6 0.226958 0.592249 0.661700
Si Si7 0.795919 0.844935 0.091839
O O1 0.500000 0.207827 0.500000
O O2 0.250000 0.250000 0.500000
O O3 0.371649 0.131669 0.578143
O O4 0.293506 0.131668 0.421857
O O5 0.092895 0.250000 0.185793
O O6 0.190409 0.130831 0.133128
O O7 0.150909 0.124443 0.269882
O O8 0.944031 0.130871 0.138176
O O9 0.381028 0.124441 0.730119
O O10 0.557284 0.130831 0.866872
O O11 0.305858 0.130871 0.861826
O O12 0.081942 0.500000 0.345101
O O13 0.908041 0.390421 0.316084
O O14 0.794454 0.249919 0.088910
O O15 0.749077 0.370577 0.998156
O O16 0.236843 0.500000 0.654900
#
# Coordination Sequence:
#
# PCOD9174109 Si02
#       7
#     8   8   8   8   8   8   8
#     4  10  21  39  63  89 111 136 176 224 268 314
#     4  10  18  31  52  79 108 140 184 228 270 318
#     4  10  18  31  52  79 108 140 184 228 270 318
#     4  10  20  36  58  81 109 146 184 216 258 321
#     4   9  16  30  49  76 107 142 183 227 274 319
#     4  10  20  36  58  81 109 146 184 216 258 321
#     4   9  18  28  49  78 109 140 177 233 280 313
#
# _framework density 17.927503999999999
#
# number of rings (size 3 to 8) (size 9 to 14) (size 15 to 20)
#    0.000    2.286    1.429    2.143    0.000    5.143 
#    2.571    0.714    0.000    6.000    0.000    0.000 
#    0.000    0.000    0.000    0.000    0.000    0.000 
#
# Total GULP energy -156237.823222 kJ/mol
# GULP energy per Si atom -5579.922258 kJ/mol
# Density = 1.788670 g / cm^3
# Si number density = 17.927504 Si / 1000 Ang^3
#
#
#
# Elastic Constant Matrix: (Units=GPa)
#
#
# Indices 1 2 3 4 5 6 
#
# 1 143.0409 33.1173 95.8180 0.0000 -0.2793 0.0000
# 2 33.1173 23.1473 34.3249 0.0000 0.0328 0.0000
# 3 95.8180 34.3249 179.3690 0.0000 1.2314 0.0000
# 4 0.0000 0.0000 0.0000 -18.9816 0.0000 -0.8773
# 5 -0.2793 0.0328 1.2314 0.0000 18.2095 0.0000
# 6 0.0000 0.0000 0.0000 -0.8773 0.0000 14.7518
#
#
#
# Elastic Compliance Matrix: (Units=1/GPa)
#
#
# Indices 1 2 3 4 5 6 
#
# 1 0.012715 -0.011330 -0.004628 0.000000 0.000528 0.000000
# 2 -0.011330 0.070422 -0.007425 0.000000 0.000201 0.000000
# 3 -0.004628 -0.007425 0.009473 0.000000 -0.000698 0.000000
# 4 0.000000 0.000000 0.000000 -0.052538 0.000000 -0.003124
# 5 0.000528 0.000201 -0.000698 0.000000 0.054971 0.000000
# 6 0.000000 0.000000 0.000000 -0.003124 0.000000 0.067603
#
#
# Mechanical properties :
#
#
# Convention : Reuss Voigt Hill
#
# Bulk Modulus (GPa) = 21.81308 74.67528 48.24418
# Shear Modulus (GPa) = 22.25251 14.94909 18.60080
#
# Velocity S-wave (km/s) = 3.52696 2.89080 3.22461
# Velocity P-wave (km/s) = 5.36467 7.27233 6.39009
#
# Compressibility (1/GPa) = 0.04584405
#
# Stress axis : x y z
#
# Youngs Moduli (GPa) = 78.64556 14.20008 105.56316
#
# Poissons Ratio (x) = 0.16089 0.48853
# Poissons Ratio (y) = 0.89106 0.78383
# Poissons Ratio (z) = 0.36396 0.10544
#
# Static dielectric constant tensor:
#      x y z
#    x 1.607190 0.000000 -0.000370 
#    y 0.000000 1.591430 0.000000 
#    z -0.000370 0.000000 1.592930 
# 
# From -- ./inp_files/206268.got.cif
#   From: 2010.05.17/outbox.cif.g08.bks.cpg/sg12_104_cif.got.tgz:206268.got - 2010.06.03 13:09:07.
