data_PCOD9174681
_publ_section_title
;
Structure prediction by ZEFSAII (Michael W. Deem and Ramdas Pophale) SiO2 
 PCOD9174681
Probable space group: C 2/M
;
_chemical_formula_sum "Si O2"
_cell_formula_units_Z 48
_cell_length_a 17.914283
_cell_length_b 19.508447
_cell_length_c 7.535177
_cell_angle_alpha 90.000000
_cell_angle_beta 52.704043
_cell_angle_gamma 90.000000
_cell_volume 2094.906464
_symmetry_space_group_name_H-M "C 2/M"
_symmetry_group_IT_number 12
_symmetry_cell_setting 'monoclinic'
loop_
_space_group_symop_operation_xyz
x,y,z
-x,y,-z
-x,-y,-z
x,-y,z
1/2+x,1/2+y,z
1/2-x,1/2+y,-z
1/2-x,1/2-y,-z
1/2+x,1/2-y,z
loop_
_atom_site_type_symbol
_atom_site_label
_atom_site_fract_x
_atom_site_fract_y
_atom_site_fract_z
Si Si1 0.739106 0.784256 0.293328
Si Si2 0.067138 0.722886 0.066346
Si Si3 0.766942 0.889044 0.961582
Si Si4 0.467502 0.368402 0.743459
Si Si5 0.833573 0.846258 0.480460
Si Si6 0.060853 0.427015 0.233960
O O1 0.766447 0.839434 0.405939
O O2 0.656178 0.733661 0.469394
O O3 0.827682 0.733183 0.156519
O O4 0.732489 0.820316 0.114509
O O5 0.056174 0.787056 0.215313
O O6 0.048100 0.645691 0.155126
O O7 0.000000 0.738355 0.000000
O O8 0.866649 0.904750 0.915128
O O9 0.793693 0.882833 0.714561
O O10 0.672000 0.930854 0.113582
O O11 0.500000 0.387274 0.500000
O O12 0.563807 0.376210 0.715592
O O13 0.034626 0.500000 0.182300
O O14 0.000000 0.422808 0.500000
#
# Coordination Sequence:
#
# PCOD9174681 Si02
#       6
#     8   8   8   8   8   8
#     4  10  20  30  55  91 121 151 176 220 299 365
#     4  11  20  34  56  85 120 151 180 234 294 348
#     4  10  21  36  56  81 113 152 189 235 295 343
#     4   9  19  30  55  88 121 147 175 220 297 374
#     4  10  18  32  51  92 125 142 176 218 289 377
#     4  11  26  43  58  75 105 158 216 252 282 329
#
# _framework density 22.912718000000002
#
# number of rings (size 3 to 8) (size 9 to 14) (size 15 to 20)
#    0.000    1.833    3.333    1.000    7.000    0.333 
#    0.000    0.000    0.000    4.500    0.000    1.167 
#    0.000    0.000    0.000    0.000    0.000    0.000 
#
# Total GULP energy -133653.125432 kJ/mol
# GULP energy per Si atom -5568.880226 kJ/mol
# Density = 2.286057 g / cm^3
# Si number density = 22.912718 Si / 1000 Ang^3
#
#
#
# Elastic Constant Matrix: (Units=GPa)
#
#
# Indices 1 2 3 4 5 6 
#
# 1 78.0708 -7.0749 29.4693 0.0000 -6.3269 0.0000
# 2 -7.0749 37.7462 7.8464 0.0000 16.7352 0.0000
# 3 29.4693 7.8464 114.2677 0.0000 -11.3282 0.0000
# 4 0.0000 0.0000 0.0000 -163.3721 0.0000 48.0219
# 5 -6.3269 16.7352 -11.3282 0.0000 35.3031 0.0000
# 6 0.0000 0.0000 0.0000 48.0219 0.0000 -7.6557
#
#
#
# Elastic Compliance Matrix: (Units=1/GPa)
#
#
# Indices 1 2 3 4 5 6 
#
# 1 0.014659 0.003818 -0.004092 0.000000 -0.000496 0.000000
# 2 0.003818 0.036413 -0.005297 0.000000 -0.018277 0.000000
# 3 -0.004092 -0.005297 0.010687 0.000000 0.005207 0.000000
# 4 0.000000 0.000000 0.000000 0.007254 0.000000 0.045502
# 5 -0.000496 -0.018277 0.005207 0.000000 0.038572 0.000000
# 6 0.000000 0.000000 0.000000 0.045502 0.000000 0.154800
#
#
# Mechanical properties :
#
#
# Convention : Reuss Voigt Hill
#
# Bulk Modulus (GPa) = 19.75625 32.28515 26.02070
# Shear Modulus (GPa) = 17.21775 -13.82202 1.69786
#
# Velocity S-wave (km/s) = 2.74423 -2.45877 0.86175
# Velocity P-wave (km/s) = 4.32229 2.46177 3.51728
#
# Compressibility (1/GPa) = 0.05061689
#
# Stress axis : x y z
#
# Youngs Moduli (GPa) = 68.21621 27.46305 93.57536
#
# Poissons Ratio (x) = -0.10485 0.38290
# Poissons Ratio (y) = -0.26045 0.49566
# Poissons Ratio (z) = 0.27913 0.14547
#
# Static dielectric constant tensor:
#      x y z
#    x 1.921180 0.000000 -0.028630 
#    y 0.000000 1.867170 0.000000 
#    z -0.028630 0.000000 1.898350 
# 
# From -- ./inp_files/87745.got.cif
#   From: 2010.05.17/outbox.cif.g08.bks.cpg/sg12_44_cif.got.tgz:87745.got - 2010.06.03 13:09:07.
