data_PCOD9174145
_publ_section_title
;
Structure prediction by ZEFSAII (Michael W. Deem and Ramdas Pophale) SiO2 
 PCOD9174145
Probable space group: C 2/M
;
_chemical_formula_sum "Si O2"
_cell_formula_units_Z 64
_cell_length_a 17.744666
_cell_length_b 14.814792
_cell_length_c 16.493317
_cell_angle_alpha 90.000000
_cell_angle_beta 53.858010
_cell_angle_gamma 90.000000
_cell_volume 3501.426752
_symmetry_space_group_name_H-M "C 2/M"
_symmetry_group_IT_number 12
_symmetry_cell_setting 'monoclinic'
loop_
_space_group_symop_operation_xyz
x,y,z
-x,y,-z
-x,-y,-z
x,-y,z
1/2+x,1/2+y,z
1/2-x,1/2+y,-z
1/2-x,1/2-y,-z
1/2+x,1/2-y,z
loop_
_atom_site_type_symbol
_atom_site_label
_atom_site_fract_x
_atom_site_fract_y
_atom_site_fract_z
Si Si1 0.414930 0.608145 0.742011
Si Si2 0.281544 0.280610 0.234153
Si Si3 0.401313 0.721421 0.586649
Si Si4 0.047839 0.398058 0.058047
Si Si5 0.637916 0.893574 0.742285
Si Si6 0.387681 0.607765 0.296748
Si Si7 0.792182 0.106987 0.522415
Si Si8 0.765127 0.712194 0.078409
O O1 0.408216 0.500000 0.738305
O O2 0.420060 0.654424 0.650468
O O3 0.508835 0.628362 0.734346
O O4 0.322568 0.649847 0.841230
O O5 0.178159 0.291495 0.335948
O O6 0.306259 0.174703 0.235300
O O7 0.355574 0.338586 0.237489
O O8 0.277319 0.287822 0.140575
O O9 0.500000 0.762697 0.500000
O O10 0.358318 0.663736 0.539934
O O11 0.075175 0.500000 0.060542
O O12 0.970089 0.370512 0.173885
O O13 0.138392 0.339910 0.990455
O O14 0.000000 0.397549 0.000000
O O15 0.686947 0.880505 0.623723
O O16 0.649044 0.000000 0.756925
O O17 0.383053 0.500000 0.285744
O O18 0.315247 0.631560 0.415506
O O19 0.813791 0.000000 0.517021
O O20 0.750000 0.750000 0.000000
#
# Coordination Sequence:
#
# PCOD9174145 Si02
#       8
#     8   8   8   8   8   8   8   8
#     4  10  21  36  56  83 114 146 184 235 285 333
#     4  10  22  37  56  81 112 149 184 233 278 331
#     4  10  18  31  52  86 119 145 177 221 288 344
#     4  10  19  34  57  82 107 140 176 224 284 339
#     4   9  18  32  55  86 113 136 174 223 278 335
#     4  10  21  38  58  81 113 154 194 227 268 327
#     4   9  17  30  51  83 117 146 178 221 274 332
#     4  11  24  38  55  79 108 144 185 234 287 336
#
# _framework density 18.278264
#
# number of rings (size 3 to 8) (size 9 to 14) (size 15 to 20)
#    0.000    2.125    2.500    0.750    1.750    5.500 
#    0.000    1.250    0.000    1.875    0.000    0.000 
#    0.000    0.000    0.000    0.000    0.000    0.000 
#
# Total GULP energy -178397.031533 kJ/mol
# GULP energy per Si atom -5574.907235 kJ/mol
# Density = 1.823666 g / cm^3
# Si number density = 18.278264 Si / 1000 Ang^3
#
#
#
# Elastic Constant Matrix: (Units=GPa)
#
#
# Indices 1 2 3 4 5 6 
#
# 1 97.5724 33.2090 50.8065 0.0000 5.7634 0.0000
# 2 33.2090 29.5426 18.7327 0.0000 2.4441 0.0000
# 3 50.8065 18.7327 89.8553 0.0000 -14.2192 0.0000
# 4 0.0000 0.0000 0.0000 9.0309 0.0000 -2.4313
# 5 5.7634 2.4441 -14.2192 0.0000 36.6771 0.0000
# 6 0.0000 0.0000 0.0000 -2.4313 0.0000 12.1975
#
#
#
# Elastic Compliance Matrix: (Units=1/GPa)
#
#
# Indices 1 2 3 4 5 6 
#
# 1 0.021532 -0.017763 -0.009396 0.000000 -0.005843 0.000000
# 2 -0.017763 0.054997 -0.001662 0.000000 -0.001518 0.000000
# 3 -0.009396 -0.001662 0.018153 0.000000 0.008625 0.000000
# 4 0.000000 0.000000 0.000000 0.117010 0.000000 0.023323
# 5 -0.005843 -0.001518 0.008625 0.000000 0.031628 0.000000
# 6 0.000000 0.000000 0.000000 0.023323 0.000000 0.086633
#
#
# Mechanical properties :
#
#
# Convention : Reuss Voigt Hill
#
# Bulk Modulus (GPa) = 26.99832 46.94073 36.96953
# Shear Modulus (GPa) = 12.50181 19.19591 15.84886
#
# Velocity S-wave (km/s) = 2.61812 3.24420 2.94783
# Velocity P-wave (km/s) = 4.89308 6.30635 5.64412
#
# Compressibility (1/GPa) = 0.03703934
#
# Stress axis : x y z
#
# Youngs Moduli (GPa) = 46.44177 18.18296 55.08652
#
# Poissons Ratio (x) = 0.32299 0.51761
# Poissons Ratio (y) = 0.82495 0.09155
# Poissons Ratio (z) = 0.43638 0.03022
#
# Static dielectric constant tensor:
#      x y z
#    x 1.603660 0.000000 -0.018550 
#    y 0.000000 1.679510 0.000000 
#    z -0.018550 0.000000 1.678090 
# 
# From -- ./inp_files/270283.got.cif
#   From: 2010.05.17/outbox.cif.g08.bks.cpg/sg12_136_cif.got.tgz:270283.got - 2010.06.03 13:09:07.
