data_PCOD9174975
_publ_section_title
;
Structure prediction by ZEFSAII (Michael W. Deem and Ramdas Pophale) SiO2 
 PCOD9174975
Probable space group: C 2/M
;
_chemical_formula_sum "Si O2"
_cell_formula_units_Z 44
_cell_length_a 17.038132
_cell_length_b 19.567680
_cell_length_c 6.808335
_cell_angle_alpha 90.000000
_cell_angle_beta 62.106609
_cell_angle_gamma 90.000000
_cell_volume 2006.161358
_symmetry_space_group_name_H-M "C 2/M"
_symmetry_group_IT_number 12
_symmetry_cell_setting 'monoclinic'
loop_
_space_group_symop_operation_xyz
x,y,z
-x,y,-z
-x,-y,-z
x,-y,z
1/2+x,1/2+y,z
1/2-x,1/2+y,-z
1/2-x,1/2-y,-z
1/2+x,1/2-y,z
loop_
_atom_site_type_symbol
_atom_site_label
_atom_site_fract_x
_atom_site_fract_y
_atom_site_fract_z
Si Si1 0.500000 0.704200 0.500000
Si Si2 0.351118 0.223858 0.163799
Si Si3 0.922492 0.863227 0.204934
Si Si4 0.228938 0.424437 0.382398
Si Si5 0.105145 0.425943 0.915336
Si Si6 0.834450 0.288057 0.657052
O O1 0.541391 0.658763 0.624697
O O2 0.419556 0.754393 0.656297
O O3 0.404872 0.294812 0.093532
O O4 0.380104 0.152579 0.034639
O O5 0.251631 0.241130 0.213443
O O6 0.350681 0.213795 0.401593
O O7 0.827321 0.899560 0.329519
O O8 0.000000 0.902915 0.000000
O O9 0.234371 0.500000 0.290527
O O10 0.164983 0.427953 0.647305
O O11 0.190325 0.366915 0.282850
O O12 0.124960 0.500000 0.994215
O O13 0.000000 0.427764 0.000000
#
# Coordination Sequence:
#
# PCOD9174975 Si02
#       6
#     4   8   8   8   8   8
#     4  10  18  32  54  84 114 132 176 238 268 316
#     4   8  14  28  46  69 103 138 176 217 262 322
#     4  10  20  34  56  83 107 143 184 221 273 321
#     4   9  18  34  53  75 109 148 183 221 268 325
#     4   9  15  23  42  72 100 132 174 216 261 311
#     4   8  15  28  50  75 102 141 177 217 273 317
#
# _framework density 21.932431999999999
#
# number of rings (size 3 to 8) (size 9 to 14) (size 15 to 20)
#    0.000    3.091    0.000    3.818    0.000    0.364 
#    0.000    4.545    0.000   10.909    0.000   20.364 
#    0.000    0.000    0.000    0.000    0.000    0.000 
#
# Total GULP energy -122562.004563 kJ/mol
# GULP energy per Si atom -5571.000207 kJ/mol
# Density = 2.188251 g / cm^3
# Si number density = 21.932432 Si / 1000 Ang^3
#
#
#
# Elastic Constant Matrix: (Units=GPa)
#
#
# Indices 1 2 3 4 5 6 
#
# 1 116.2130 31.1004 57.6282 0.0000 -16.8081 0.0000
# 2 31.1004 121.7360 27.2912 0.0000 -13.4041 0.0000
# 3 57.6282 27.2912 77.0346 0.0000 -20.3493 0.0000
# 4 0.0000 0.0000 0.0000 34.3463 0.0000 -30.4007
# 5 -16.8081 -13.4041 -20.3493 0.0000 51.8672 0.0000
# 6 0.0000 0.0000 0.0000 -30.4007 0.0000 5.3865
#
#
#
# Elastic Compliance Matrix: (Units=1/GPa)
#
#
# Indices 1 2 3 4 5 6 
#
# 1 0.013877 -0.001306 -0.009839 0.000000 0.000299 0.000000
# 2 -0.001306 0.009112 -0.001942 0.000000 0.001170 0.000000
# 3 -0.009839 -0.001942 0.022374 0.000000 0.005088 0.000000
# 4 0.000000 0.000000 0.000000 -0.007287 0.000000 -0.041127
# 5 0.000299 0.001170 0.005088 0.000000 0.021675 0.000000
# 6 0.000000 0.000000 0.000000 -0.041127 0.000000 -0.046464
#
#
# Mechanical properties :
#
#
# Convention : Reuss Voigt Hill
#
# Bulk Modulus (GPa) = 52.11681 60.78036 56.44858
# Shear Modulus (GPa) = 109.03187 31.58424 70.30806
#
# Velocity S-wave (km/s) = 7.05837 3.79894 5.66800
# Velocity P-wave (km/s) = 9.49955 6.85677 8.28422
#
# Compressibility (1/GPa) = 0.01918767
#
# Stress axis : x y z
#
# Youngs Moduli (GPa) = 72.06226 109.74053 44.69547
#
# Poissons Ratio (x) = 0.14337 0.43977
# Poissons Ratio (y) = 0.09415 0.08680
# Poissons Ratio (z) = 0.70904 0.21311
#
# Static dielectric constant tensor:
#      x y z
#    x 1.783480 0.000000 0.019490 
#    y 0.000000 1.862740 0.000000 
#    z 0.019490 0.000000 1.871660 
# 
# From -- ./inp_files/76658.got.cif
#   From: 2010.05.17/outbox.cif.g08.bks.cpg/sg12_39_cif.got.tgz:76658.got - 2010.06.03 13:09:07.
