data_PCOD9174191
_publ_section_title
;
Structure prediction by ZEFSAII (Michael W. Deem and Ramdas Pophale) SiO2 
 PCOD9174191
Probable space group: C 2/M
;
_chemical_formula_sum "Si O2"
_cell_formula_units_Z 44
_cell_length_a 15.211450
_cell_length_b 23.301086
_cell_length_c 8.461659
_cell_angle_alpha 90.000000
_cell_angle_beta 121.866353
_cell_angle_gamma 90.000000
_cell_volume 2547.147813
_symmetry_space_group_name_H-M "C 2/M"
_symmetry_group_IT_number 12
_symmetry_cell_setting 'monoclinic'
loop_
_space_group_symop_operation_xyz
x,y,z
-x,y,-z
-x,-y,-z
x,-y,z
1/2+x,1/2+y,z
1/2-x,1/2+y,-z
1/2-x,1/2-y,-z
1/2+x,1/2-y,z
loop_
_atom_site_type_symbol
_atom_site_label
_atom_site_fract_x
_atom_site_fract_y
_atom_site_fract_z
Si Si1 0.880197 0.775810 0.940567
Si Si2 0.001301 0.500000 0.746835
Si Si3 0.269782 0.869564 0.299329
Si Si4 0.940274 0.290752 0.295699
Si Si5 0.644255 0.825718 0.297770
Si Si6 0.500000 0.096277 0.000000
Si Si7 0.320747 0.000000 0.344969
O O1 0.827134 0.836812 0.867964
O O2 0.823724 0.732089 0.763290
O O3 0.879088 0.750502 0.117255
O O4 0.000000 0.777468 0.000000
O O5 0.886085 0.500000 0.568481
O O6 0.013040 0.444063 0.862720
O O7 0.089077 0.500000 0.699621
O O8 0.368394 0.840704 0.301506
O O9 0.283044 0.851153 0.497110
O O10 0.265418 0.938301 0.280978
O O11 0.000000 0.261304 0.500000
O O12 0.034357 0.315289 0.281285
O O13 0.605463 0.868321 0.124477
#
# Coordination Sequence:
#
# PCOD9174191 Si02
#       7
#     8   4   8   8   8   4   4
#     4  10  20  35  53  73 101 133 171 212 254 287
#     4  10  22  30  50  72 107 143 152 194 243 313
#     4  11  21  33  50  77 104 135 169 205 246 297
#     4   9  18  31  52  77 102 128 160 205 257 308
#     4  10  18  31  53  77 106 129 162 204 250 305
#     4  11  16  32  50  74 106 137 158 182 254 305
#     4  11  22  32  47  74 102 134 173 196 241 299
#
# _framework density 17.274222999999999
#
# number of rings (size 3 to 8) (size 9 to 14) (size 15 to 20)
#    0.000    1.818    4.545    2.182    5.091    0.000 
#    0.000    0.455    0.000    0.000    0.000    0.636 
#    0.000    0.000    0.000    0.000    0.000    0.000 
#
# Total GULP energy -122572.719809 kJ/mol
# GULP energy per Si atom -5571.487264 kJ/mol
# Density = 1.723491 g / cm^3
# Si number density = 17.274223 Si / 1000 Ang^3
#
#
#
# Elastic Constant Matrix: (Units=GPa)
#
#
# Indices 1 2 3 4 5 6 
#
# 1 19.1022 14.3773 13.3560 0.0000 -5.6089 0.0000
# 2 14.3773 139.5569 59.6485 0.0000 -2.0342 0.0000
# 3 13.3560 59.6485 87.2953 0.0000 -10.2784 0.0000
# 4 0.0000 0.0000 0.0000 26.8975 0.0000 -0.5693
# 5 -5.6089 -2.0342 -10.2784 0.0000 15.5309 0.0000
# 6 0.0000 0.0000 0.0000 -0.5693 0.0000 14.2553
#
#
#
# Elastic Compliance Matrix: (Units=1/GPa)
#
#
# Indices 1 2 3 4 5 6 
#
# 1 0.064664 -0.004435 -0.004535 0.000000 0.019771 0.000000
# 2 -0.004435 0.010607 -0.007151 0.000000 -0.004945 0.000000
# 3 -0.004535 -0.007151 0.018147 0.000000 0.009435 0.000000
# 4 0.000000 0.000000 0.000000 0.037210 0.000000 0.001486
# 5 0.019771 -0.004945 0.009435 0.000000 0.077124 0.000000
# 6 0.000000 0.000000 0.000000 0.001486 0.000000 0.070209
#
#
# Mechanical properties :
#
#
# Convention : Reuss Voigt Hill
#
# Bulk Modulus (GPa) = 16.34668 46.74647 31.54658
# Shear Modulus (GPa) = 15.12423 21.90825 18.51624
#
# Velocity S-wave (km/s) = 2.96216 3.56513 3.27754
# Velocity P-wave (km/s) = 4.60247 6.63830 5.71182
#
# Compressibility (1/GPa) = 0.06117449
#
# Stress axis : x y z
#
# Youngs Moduli (GPa) = 15.46450 94.27748 55.10657
#
# Poissons Ratio (x) = 0.41815 0.24991
# Poissons Ratio (y) = 0.06859 0.39409
# Poissons Ratio (z) = 0.07013 0.67422
#
# Static dielectric constant tensor:
#      x y z
#    x 1.588920 0.000000 -0.025340 
#    y 0.000000 1.613860 0.000000 
#    z -0.025340 0.000000 1.654270 
# 
# From -- ./inp_files/63278.got.cif
#   From: 2010.05.17/outbox.cif.g08.bks.cpg/sg12_32_cif.got.tgz:63278.got - 2010.06.03 13:09:07.
