data_PCOD9174650
_publ_section_title
;
Structure prediction by ZEFSAII (Michael W. Deem and Ramdas Pophale) SiO2 
 PCOD9174650
Probable space group: C 2/M
;
_chemical_formula_sum "Si O2"
_cell_formula_units_Z 48
_cell_length_a 34.622586
_cell_length_b 8.653006
_cell_length_c 15.818110
_cell_angle_alpha 90.000000
_cell_angle_beta 144.109563
_cell_angle_gamma 90.000000
_cell_volume 2778.141958
_symmetry_space_group_name_H-M "C 2/M"
_symmetry_group_IT_number 12
_symmetry_cell_setting 'monoclinic'
loop_
_space_group_symop_operation_xyz
x,y,z
-x,y,-z
-x,-y,-z
x,-y,z
1/2+x,1/2+y,z
1/2-x,1/2+y,-z
1/2-x,1/2-y,-z
1/2+x,1/2-y,z
loop_
_atom_site_type_symbol
_atom_site_label
_atom_site_fract_x
_atom_site_fract_y
_atom_site_fract_z
Si Si1 0.181037 0.183454 0.909400
Si Si2 0.960570 0.816289 0.645435
Si Si3 0.892456 0.686714 0.062643
Si Si4 0.433610 0.816838 0.772525
Si Si5 0.927036 0.316500 0.408008
Si Si6 0.409735 0.817347 0.910602
O O1 0.158817 0.256021 0.959154
O O2 0.125459 0.230331 0.743068
O O3 0.184520 0.000000 0.923617
O O4 0.250000 0.250000 0.000000
O O5 0.924028 0.769746 0.667564
O O6 0.927188 0.742442 0.504194
O O7 0.035061 0.749381 0.784015
O O8 0.963965 0.000000 0.643135
O O9 0.895917 0.500000 0.068995
O O10 0.877157 0.741253 0.939346
O O11 0.398728 0.755458 0.796264
O O12 0.419923 0.000000 0.737589
O O13 0.511997 0.804688 0.931339
O O14 0.914653 0.500000 0.382552
O O15 0.000000 0.288409 0.500000
O O16 0.395146 0.000000 0.878947
#
# Coordination Sequence:
#
# PCOD9174650 Si02
#       6
#     8   8   8   8   8   8
#     4  12  25  40  57  79 108 140 177 220 266 316
#     4  11  20  29  46  75 107 138 172 215 265 314
#     4  10  18  32  51  73 101 137 178 218 261 310
#     4   8  13  25  42  64  96 134 171 209 254 306
#     4  11  22  37  58  79 103 139 181 221 266 315
#     4   7  12  23  43  66  93 131 172 210 253 305
#
# _framework density 17.277735
#
# number of rings (size 3 to 8) (size 9 to 14) (size 15 to 20)
#    0.000    2.167    1.667    6.000    0.000    0.667 
#    0.000    7.500    0.000    0.000    0.000    1.167 
#    0.000    0.000    0.000    0.000    0.000    0.000 
#
# Total GULP energy -133774.451060 kJ/mol
# GULP energy per Si atom -5573.935461 kJ/mol
# Density = 1.723841 g / cm^3
# Si number density = 17.277735 Si / 1000 Ang^3
#
#
#
# Elastic Constant Matrix: (Units=GPa)
#
#
# Indices 1 2 3 4 5 6 
#
# 1 143.6026 21.7885 35.3498 0.0000 -29.5312 0.0000
# 2 21.7885 59.0752 11.9419 0.0000 0.3876 0.0000
# 3 35.3498 11.9419 18.8771 0.0000 -7.6951 0.0000
# 4 0.0000 0.0000 0.0000 13.8249 0.0000 13.1733
# 5 -29.5312 0.3876 -7.6951 0.0000 27.1873 0.0000
# 6 0.0000 0.0000 0.0000 13.1733 0.0000 -13.7952
#
#
#
# Elastic Compliance Matrix: (Units=1/GPa)
#
#
# Indices 1 2 3 4 5 6 
#
# 1 0.014760 -0.000800 -0.023280 0.000000 0.009455 0.000000
# 2 -0.000800 0.019896 -0.013065 0.000000 -0.004851 0.000000
# 3 -0.023280 -0.013065 0.106940 0.000000 0.005168 0.000000
# 4 0.000000 0.000000 0.000000 0.037873 0.000000 0.036165
# 5 0.009455 -0.004851 0.005168 0.000000 0.048584 0.000000
# 6 0.000000 0.000000 0.000000 0.036165 0.000000 -0.037954
#
#
# Mechanical properties :
#
#
# Convention : Reuss Voigt Hill
#
# Bulk Modulus (GPa) = 14.85758 39.96837 27.41298
# Shear Modulus (GPa) = 17.43234 15.60838 16.52036
#
# Velocity S-wave (km/s) = 3.17984 3.00889 3.09555
# Velocity P-wave (km/s) = 4.70104 5.93754 5.35510
#
# Compressibility (1/GPa) = 0.06730569
#
# Stress axis : x y z
#
# Youngs Moduli (GPa) = 67.75066 50.26242 9.35103
#
# Poissons Ratio (x) = 0.04021 0.21769
# Poissons Ratio (y) = 0.05420 0.12217
# Poissons Ratio (z) = 1.57721 0.65670
#
# Static dielectric constant tensor:
#      x y z
#    x 1.635050 0.000000 -0.033380 
#    y 0.000000 1.572740 0.000000 
#    z -0.033380 0.000000 1.565870 
# 
# From -- ./inp_files/249366.got.cif
#   From: 2010.05.17/outbox.cif.g08.bks.cpg/sg12_125_cif.got.tgz:249366.got - 2010.06.03 13:09:07.
