data_PCOD9174651
_publ_section_title
;
Structure prediction by ZEFSAII (Michael W. Deem and Ramdas Pophale) SiO2 
 PCOD9174651
Probable space group: C 2/M
;
_chemical_formula_sum "Si O2"
_cell_formula_units_Z 56
_cell_length_a 21.036902
_cell_length_b 13.957706
_cell_length_c 12.967605
_cell_angle_alpha 90.000000
_cell_angle_beta 118.810952
_cell_angle_gamma 90.000000
_cell_volume 3336.307544
_symmetry_space_group_name_H-M "C 2/M"
_symmetry_group_IT_number 12
_symmetry_cell_setting 'monoclinic'
loop_
_space_group_symop_operation_xyz
x,y,z
-x,y,-z
-x,-y,-z
x,-y,z
1/2+x,1/2+y,z
1/2-x,1/2+y,-z
1/2-x,1/2-y,-z
1/2+x,1/2-y,z
loop_
_atom_site_type_symbol
_atom_site_label
_atom_site_fract_x
_atom_site_fract_y
_atom_site_fract_z
Si Si1 0.171545 0.282268 0.403041
Si Si2 0.903897 0.107512 0.776120
Si Si3 0.631403 0.389573 0.657298
Si Si4 0.801839 0.612341 0.781484
Si Si5 0.081559 0.750571 0.029181
Si Si6 0.045962 0.171084 0.785754
Si Si7 0.947961 0.271872 0.541729
O O1 0.250000 0.250000 0.500000
O O2 0.137342 0.185774 0.325921
O O3 0.176812 0.361195 0.318650
O O4 0.121594 0.317372 0.458147
O O5 0.905747 0.154249 0.891258
O O6 0.985302 0.106563 0.794008
O O7 0.874133 0.000000 0.750871
O O8 0.625036 0.500000 0.617416
O O9 0.716406 0.362483 0.725325
O O10 0.599289 0.380140 0.747470
O O11 0.585307 0.320514 0.545662
O O12 0.809518 0.500000 0.808688
O O13 0.856467 0.675078 0.892745
O O14 0.082748 0.774304 0.909473
O O15 0.000000 0.717733 0.000000
O O16 0.000049 0.241551 0.676139
O O17 0.000000 0.323514 0.500000
#
# Coordination Sequence:
#
# PCOD9174651 Si02
#       7
#     8   8   8   8   8   8   8
#     4  10  18  32  51  73 103 134 165 206 254 306
#     4   9  18  30  48  74 101 128 162 203 251 309
#     4  10  19  30  47  76 108 134 166 205 253 311
#     4  10  21  35  52  76 102 133 175 219 255 294
#     4   9  19  35  51  71 101 133 175 213 250 298
#     4   9  18  30  48  73 103 138 162 197 251 309
#     4   9  18  31  49  74 102 131 163 205 256 309
#
# _framework density 16.785022999999999
#
# number of rings (size 3 to 8) (size 9 to 14) (size 15 to 20)
#    0.000    2.571    1.429    1.286    0.000    9.429 
#    0.000    0.000    0.000    0.429    0.000    3.000 
#    0.000    0.000    0.000    0.000    0.000    0.000 
#
# Total GULP energy -155873.916406 kJ/mol
# GULP energy per Si atom -5566.925586 kJ/mol
# Density = 1.674682 g / cm^3
# Si number density = 16.785023 Si / 1000 Ang^3
#
#
#
# Elastic Constant Matrix: (Units=GPa)
#
#
# Indices 1 2 3 4 5 6 
#
# 1 97.4730 12.7224 27.1081 0.0000 -7.4380 0.0000
# 2 12.7224 31.4019 10.7259 0.0000 0.0377 0.0000
# 3 27.1081 10.7259 93.7077 0.0000 -10.0086 0.0000
# 4 0.0000 0.0000 0.0000 9.4873 0.0000 2.3714
# 5 -7.4380 0.0377 -10.0086 0.0000 26.5103 0.0000
# 6 0.0000 0.0000 0.0000 2.3714 0.0000 13.2150
#
#
#
# Elastic Compliance Matrix: (Units=1/GPa)
#
#
# Indices 1 2 3 4 5 6 
#
# 1 0.011681 -0.003813 -0.002701 0.000000 0.002263 0.000000
# 2 -0.003813 0.034446 -0.003084 0.000000 -0.002283 0.000000
# 3 -0.002701 -0.003084 0.012218 0.000000 0.003859 0.000000
# 4 0.000000 0.000000 0.000000 0.110354 0.000000 -0.019803
# 5 0.002263 -0.002283 0.003859 0.000000 0.039816 0.000000
# 6 0.000000 0.000000 0.000000 -0.019803 0.000000 0.079225
#
#
# Mechanical properties :
#
#
# Convention : Reuss Voigt Hill
#
# Bulk Modulus (GPa) = 25.54257 35.96613 30.75435
# Shear Modulus (GPa) = 15.62575 21.31093 18.46834
#
# Velocity S-wave (km/s) = 3.05443 3.56707 3.32066
# Velocity P-wave (km/s) = 5.26212 6.19994 5.75018
#
# Compressibility (1/GPa) = 0.03915032
#
# Stress axis : x y z
#
# Youngs Moduli (GPa) = 85.61118 29.03103 81.84664
#
# Poissons Ratio (x) = 0.11068 0.22106
# Poissons Ratio (y) = 0.32640 0.25238
# Poissons Ratio (z) = 0.23123 0.08952
#
# Static dielectric constant tensor:
#      x y z
#    x 1.599020 0.000000 -0.006710 
#    y 0.000000 1.547230 0.000000 
#    z -0.006710 0.000000 1.569070 
# 
# From -- ./inp_files/166773.got.cif
#   From: 2010.05.17/outbox.cif.g08.bks.cpg/sg12_84_cif.got.tgz:166773.got - 2010.06.03 13:09:07.
