data_PCOD9174347
_publ_section_title
;
Structure prediction by ZEFSAII (Michael W. Deem and Ramdas Pophale) SiO2 
 PCOD9174347
Probable space group: C 2/M
;
_chemical_formula_sum "Si O2"
_cell_formula_units_Z 64
_cell_length_a 14.796127
_cell_length_b 18.124452
_cell_length_c 13.856825
_cell_angle_alpha 90.000000
_cell_angle_beta 121.871270
_cell_angle_gamma 90.000000
_cell_volume 3155.770035
_symmetry_space_group_name_H-M "C 2/M"
_symmetry_group_IT_number 12
_symmetry_cell_setting 'monoclinic'
loop_
_space_group_symop_operation_xyz
x,y,z
-x,y,-z
-x,-y,-z
x,-y,z
1/2+x,1/2+y,z
1/2-x,1/2+y,-z
1/2-x,1/2-y,-z
1/2+x,1/2-y,z
loop_
_atom_site_type_symbol
_atom_site_label
_atom_site_fract_x
_atom_site_fract_y
_atom_site_fract_z
Si Si1 0.267784 0.084418 0.824164
Si Si2 0.033023 0.129403 0.120778
Si Si3 0.439861 0.648989 0.373573
Si Si4 0.245253 0.416559 0.761559
Si Si5 0.438246 0.199440 0.867500
Si Si6 0.192709 0.912339 0.985001
Si Si7 0.323565 0.788250 0.407199
Si Si8 0.086612 0.743146 0.345521
O O1 0.146389 0.095564 0.721849
O O2 0.337992 0.145486 0.811477
O O3 0.301510 0.000000 0.825906
O O4 0.271801 0.100505 0.941069
O O5 0.134624 0.086247 0.215582
O O6 0.075302 0.212248 0.125689
O O7 0.916758 0.130038 0.101496
O O8 0.000000 0.093917 0.000000
O O9 0.500000 0.615295 0.500000
O O10 0.376842 0.719472 0.382600
O O11 0.523180 0.684347 0.345017
O O12 0.205092 0.500000 0.735744
O O13 0.261672 0.394294 0.883549
O O14 0.178932 0.357725 0.664619
O O15 0.474917 0.201149 0.775612
O O16 0.500000 0.176424 0.000000
O O17 0.168876 0.000000 0.971234
O O18 0.202776 0.766723 0.369903
O O19 0.388567 0.801254 0.542749
#
# Coordination Sequence:
#
# PCOD9174347 Si02
#       8
#     8   8   8   8   8   8   8   8
#     4  11  23  39  57  85 124 157 198 250 305 366
#     4   9  16  30  51  79 111 144 192 239 289 346
#     4  10  21  39  65  89 112 158 203 250 306 356
#     4  10  18  31  54  82 115 150 190 239 295 355
#     4  11  22  38  59  84 115 158 207 245 286 356
#     4   9  19  33  52  81 120 155 182 237 310 356
#     4  10  20  37  60  86 121 156 199 245 301 358
#     4  10  20  38  62  84 120 155 196 247 299 351
#
# _framework density 20.280311000000001
#
# number of rings (size 3 to 8) (size 9 to 14) (size 15 to 20)
#    0.000    2.000    2.500    1.125    0.000    3.000 
#    0.000    7.500    0.000    4.125    0.000    0.000 
#    0.000    0.000    0.000    0.000    0.000    0.000 
#
# Total GULP energy -178209.219525 kJ/mol
# GULP energy per Si atom -5569.038110 kJ/mol
# Density = 2.023415 g / cm^3
# Si number density = 20.280311 Si / 1000 Ang^3
#
#
#
# Elastic Constant Matrix: (Units=GPa)
#
#
# Indices 1 2 3 4 5 6 
#
# 1 45.8890 16.9273 -8.8763 0.0000 -10.9535 0.0000
# 2 16.9273 67.7919 25.3744 0.0000 -10.5456 0.0000
# 3 -8.8763 25.3744 133.5408 0.0000 -16.7954 0.0000
# 4 0.0000 0.0000 0.0000 30.1983 0.0000 0.9223
# 5 -10.9535 -10.5456 -16.7954 0.0000 25.1378 0.0000
# 6 0.0000 0.0000 0.0000 0.9223 0.0000 15.7235
#
#
#
# Elastic Compliance Matrix: (Units=1/GPa)
#
#
# Indices 1 2 3 4 5 6 
#
# 1 0.028265 -0.006881 0.004773 0.000000 0.012619 0.000000
# 2 -0.006881 0.018171 -0.003634 0.000000 0.002197 0.000000
# 3 0.004773 -0.003634 0.009352 0.000000 0.006804 0.000000
# 4 0.000000 0.000000 0.000000 0.033174 0.000000 -0.001946
# 5 0.012619 0.002197 0.006804 0.000000 0.050747 0.000000
# 6 0.000000 0.000000 0.000000 -0.001946 0.000000 0.063713
#
#
# Mechanical properties :
#
#
# Convention : Reuss Voigt Hill
#
# Bulk Modulus (GPa) = 22.57106 34.89695 28.73401
# Shear Modulus (GPa) = 21.76997 28.46500 25.11749
#
# Velocity S-wave (km/s) = 3.27991 3.75050 3.52307
# Velocity P-wave (km/s) = 5.04950 5.99997 5.54514
#
# Compressibility (1/GPa) = 0.04430451
#
# Stress axis : x y z
#
# Youngs Moduli (GPa) = 35.37889 55.03232 106.93102
#
# Poissons Ratio (x) = 0.37870 -0.51042
# Poissons Ratio (y) = 0.24346 0.38857
# Poissons Ratio (z) = -0.16888 0.19998
#
# Static dielectric constant tensor:
#      x y z
#    x 1.790230 0.000000 -0.010140 
#    y 0.000000 1.676620 0.000000 
#    z -0.010140 0.000000 1.795180 
# 
# From -- ./inp_files/216393.got.cif
#   From: 2010.05.17/outbox.cif.g08.bks.cpg/sg12_109_cif.got.tgz:216393.got - 2010.06.03 13:09:07.
