data_PCOD9174376
_publ_section_title
;
Structure prediction by ZEFSAII (Michael W. Deem and Ramdas Pophale) SiO2 
 PCOD9174376
Probable space group: C 2/M
;
_chemical_formula_sum "Si O2"
_cell_formula_units_Z 44
_cell_length_a 25.218962
_cell_length_b 14.824831
_cell_length_c 10.052152
_cell_angle_alpha 90.000000
_cell_angle_beta 35.288616
_cell_angle_gamma 90.000000
_cell_volume 2171.075652
_symmetry_space_group_name_H-M "C 2/M"
_symmetry_group_IT_number 12
_symmetry_cell_setting 'monoclinic'
loop_
_space_group_symop_operation_xyz
x,y,z
-x,y,-z
-x,-y,-z
x,-y,z
1/2+x,1/2+y,z
1/2-x,1/2+y,-z
1/2-x,1/2-y,-z
1/2+x,1/2-y,z
loop_
_atom_site_type_symbol
_atom_site_label
_atom_site_fract_x
_atom_site_fract_y
_atom_site_fract_z
Si Si1 0.134516 0.904242 0.926742
Si Si2 0.443425 0.893377 0.752066
Si Si3 0.200286 0.400195 0.616793
Si Si4 0.000000 0.843351 0.000000
Si Si5 0.786547 0.724095 0.152783
Si Si6 0.594195 0.202225 0.624326
O O1 0.206459 0.900307 0.658020
O O2 0.040302 0.898210 0.040154
O O3 0.155419 0.816608 0.969657
O O4 0.144911 0.000000 0.976266
O O5 0.500000 0.888181 0.500000
O O6 0.505540 0.834235 0.727315
O O7 0.438093 0.000000 0.798209
O O8 0.342182 0.847643 0.948660
O O9 0.186671 0.500000 0.702128
O O10 0.203631 0.324324 0.722784
O O11 0.128242 0.379117 0.648207
O O12 0.070355 0.777986 0.781152
O O13 0.680026 0.757188 0.362297
#
# Coordination Sequence:
#
# PCOD9174376 Si02
#       6
#     8   8   8   4   8   8
#     4  10  19  30  49  82 118 150 181 218 273 350
#     4  11  25  43  62  84 111 151 206 257 294 333
#     4  10  18  31  54  86 119 147 179 227 287 352
#     4  12  17  32  53  84 118 152 181 220 285 350
#     4  11  20  37  59  85 120 152 191 235 291 355
#     4  11  20  35  60  85 119 155 188 232 291 354
#
# _framework density 20.266452000000001
#
# number of rings (size 3 to 8) (size 9 to 14) (size 15 to 20)
#    0.000    1.273    5.455    2.455    0.000    1.455 
#    0.000    2.727    0.000    0.545    0.000    0.000 
#    0.000    0.000    0.000    0.000    0.000    0.000 
#
# Total GULP energy -122523.322652 kJ/mol
# GULP energy per Si atom -5569.241939 kJ/mol
# Density = 2.022032 g / cm^3
# Si number density = 20.266452 Si / 1000 Ang^3
#
#
#
# Elastic Constant Matrix: (Units=GPa)
#
#
# Indices 1 2 3 4 5 6 
#
# 1 8.8328 5.7062 -1.9517 0.0000 -7.0482 0.0000
# 2 5.7062 136.8716 21.0714 0.0000 -9.2278 0.0000
# 3 -1.9517 21.0714 68.8373 0.0000 -2.1571 0.0000
# 4 0.0000 0.0000 0.0000 35.1114 0.0000 -12.7222
# 5 -7.0482 -9.2278 -2.1571 0.0000 21.4451 0.0000
# 6 0.0000 0.0000 0.0000 -12.7222 0.0000 27.7081
#
#
#
# Elastic Compliance Matrix: (Units=1/GPa)
#
#
# Indices 1 2 3 4 5 6 
#
# 1 0.158248 -0.004305 0.007400 0.000000 0.050902 0.000000
# 2 -0.004305 0.007992 -0.002513 0.000000 0.001771 0.000000
# 3 0.007400 -0.002513 0.015597 0.000000 0.002920 0.000000
# 4 0.000000 0.000000 0.000000 0.034165 0.000000 0.015687
# 5 0.050902 0.001771 0.002920 0.000000 0.064416 0.000000
# 6 0.000000 0.000000 0.000000 0.015687 0.000000 0.043293
#
#
# Mechanical properties :
#
#
# Convention : Reuss Voigt Hill
#
# Bulk Modulus (GPa) = 5.46446 29.35485 17.40966
# Shear Modulus (GPa) = 13.03619 29.50064 21.26841
#
# Velocity S-wave (km/s) = 2.53897 3.81942 3.24302
# Velocity P-wave (km/s) = 3.36115 5.82808 4.75730
#
# Compressibility (1/GPa) = 0.18300073
#
# Stress axis : x y z
#
# Youngs Moduli (GPa) = 6.31921 125.12725 64.11285
#
# Poissons Ratio (x) = 0.53865 -0.47440
# Poissons Ratio (y) = 0.02720 0.16111
# Poissons Ratio (z) = -0.04676 0.31443
#
# Static dielectric constant tensor:
#      x y z
#    x 1.784610 0.000000 -0.071480 
#    y 0.000000 1.753560 0.000000 
#    z -0.071480 0.000000 1.778880 
# 
# From -- ./inp_files/141978.got.cif
#   From: 2010.05.17/outbox.cif.g08.bks.cpg/sg12_71_cif.got.tgz:141978.got - 2010.06.03 13:09:07.
