data_PCOD9174529
_publ_section_title
;
Structure prediction by ZEFSAII (Michael W. Deem and Ramdas Pophale) SiO2 
 PCOD9174529
Probable space group: C 2/M
;
_chemical_formula_sum "Si O2"
_cell_formula_units_Z 64
_cell_length_a 29.027538
_cell_length_b 16.042288
_cell_length_c 9.092130
_cell_angle_alpha 90.000000
_cell_angle_beta 133.323508
_cell_angle_gamma 90.000000
_cell_volume 3080.136463
_symmetry_space_group_name_H-M "C 2/M"
_symmetry_group_IT_number 12
_symmetry_cell_setting 'monoclinic'
loop_
_space_group_symop_operation_xyz
x,y,z
-x,y,-z
-x,-y,-z
x,-y,z
1/2+x,1/2+y,z
1/2-x,1/2+y,-z
1/2-x,1/2-y,-z
1/2+x,1/2-y,z
loop_
_atom_site_type_symbol
_atom_site_label
_atom_site_fract_x
_atom_site_fract_y
_atom_site_fract_z
Si Si1 0.168229 0.592668 0.926547
Si Si2 0.313223 0.168698 0.528125
Si Si3 0.403200 0.092494 0.938742
Si Si4 0.869197 0.730189 0.367628
Si Si5 0.684039 0.405869 0.722471
Si Si6 0.046254 0.090231 0.957403
Si Si7 0.501114 0.237147 0.824081
Si Si8 0.682097 0.640522 0.374276
O O1 0.148232 0.500000 0.830413
O O2 0.153687 0.595156 0.068059
O O3 0.131825 0.667858 0.770216
O O4 0.243154 0.600652 0.068126
O O5 0.316648 0.192827 0.365151
O O6 0.322291 0.258470 0.628349
O O7 0.247478 0.126276 0.431093
O O8 0.371939 0.114522 0.714271
O O9 0.453493 0.159584 0.103100
O O10 0.430637 0.000000 0.996767
O O11 0.853508 0.826232 0.298029
O O12 0.933454 0.726909 0.601643
O O13 0.660961 0.500000 0.704032
O O14 0.684296 0.392686 0.545967
O O15 0.118747 0.103518 0.165598
O O16 0.039045 0.000000 0.868355
O O17 0.027352 0.173375 0.830006
O O18 0.000000 0.088095 0.000000
O O19 0.500000 0.241107 0.000000
#
# Coordination Sequence:
#
# PCOD9174529 Si02
#       8
#     8   8   8   8   8   8   8   8
#     4  10  23  41  60  86 117 151 198 246 294 354
#     4  10  19  35  57  88 118 150 194 242 293 344
#     4  11  22  39  62  83 114 159 197 240 296 350
#     4  11  23  38  61  87 119 156 195 248 292 344
#     4  10  19  35  60  88 118 153 191 233 294 359
#     4  10  19  32  54  86 124 155 185 235 292 346
#     4  11  21  38  57  86 119 151 198 241 289 347
#     4  10  18  31  59  89 120 153 189 238 290 349
#
# _framework density 20.778302
#
# number of rings (size 3 to 8) (size 9 to 14) (size 15 to 20)
#    0.000    1.625    3.750    3.000    0.000    3.750 
#    0.000    1.250    0.000    2.250    0.000    1.750 
#    0.000    0.000    0.000    0.000    0.000    0.000 
#
# Total GULP energy -178590.682882 kJ/mol
# GULP energy per Si atom -5580.958840 kJ/mol
# Density = 2.073101 g / cm^3
# Si number density = 20.778302 Si / 1000 Ang^3
#
#
#
# Elastic Constant Matrix: (Units=GPa)
#
#
# Indices 1 2 3 4 5 6 
#
# 1 26.0893 34.0614 6.7472 0.0000 17.2556 0.0000
# 2 34.0614 157.8340 41.1661 0.0000 10.9530 0.0000
# 3 6.7472 41.1661 57.8251 0.0000 12.8466 0.0000
# 4 0.0000 0.0000 0.0000 7.9302 0.0000 -7.0897
# 5 17.2556 10.9530 12.8466 0.0000 26.8098 0.0000
# 6 0.0000 0.0000 0.0000 -7.0897 0.0000 12.1150
#
#
#
# Elastic Compliance Matrix: (Units=1/GPa)
#
#
# Indices 1 2 3 4 5 6 
#
# 1 0.113614 -0.024839 0.020611 0.000000 -0.072854 0.000000
# 2 -0.024839 0.013219 -0.009920 0.000000 0.015340 0.000000
# 3 0.020611 -0.009920 0.026857 0.000000 -0.022082 0.000000
# 4 0.000000 0.000000 0.000000 0.264462 0.000000 0.154764
# 5 -0.072854 0.015340 -0.022082 0.000000 0.088505 0.000000
# 6 0.000000 0.000000 0.000000 0.154764 0.000000 0.173110
#
#
# Mechanical properties :
#
#
# Convention : Reuss Voigt Hill
#
# Bulk Modulus (GPa) = 7.97483 45.07755 26.52619
# Shear Modulus (GPa) = 6.66791 20.02259 13.34525
#
# Velocity S-wave (km/s) = 1.79333 3.10761 2.53705
# Velocity P-wave (km/s) = 2.85209 5.88370 4.62344
#
# Compressibility (1/GPa) = 0.12539455
#
# Stress axis : x y z
#
# Youngs Moduli (GPa) = 8.80173 75.64874 37.23455
#
# Poissons Ratio (x) = 1.87901 -0.76746
# Poissons Ratio (y) = 0.21862 0.36938
# Poissons Ratio (z) = -0.18142 0.75047
#
# Static dielectric constant tensor:
#      x y z
#    x 1.776860 0.000000 0.004320 
#    y 0.000000 1.791790 0.000000 
#    z 0.004320 0.000000 1.702120 
# 
# From -- ./inp_files/112032.got.cif
#   From: 2010.05.17/outbox.cif.g08.bks.cpg/sg12_57_cif.got.tgz:112032.got - 2010.06.03 13:09:07.
