data_PCOD9174946
_publ_section_title
;
Structure prediction by ZEFSAII (Michael W. Deem and Ramdas Pophale) SiO2 
 PCOD9174946
Probable space group: C 2/M
;
_chemical_formula_sum "Si O2"
_cell_formula_units_Z 56
_cell_length_a 15.253835
_cell_length_b 16.349893
_cell_length_c 14.845271
_cell_angle_alpha 90.000000
_cell_angle_beta 48.063909
_cell_angle_gamma 90.000000
_cell_volume 2754.173110
_symmetry_space_group_name_H-M "C 2/M"
_symmetry_group_IT_number 12
_symmetry_cell_setting 'monoclinic'
loop_
_space_group_symop_operation_xyz
x,y,z
-x,y,-z
-x,-y,-z
x,-y,z
1/2+x,1/2+y,z
1/2-x,1/2+y,-z
1/2-x,1/2-y,-z
1/2+x,1/2-y,z
loop_
_atom_site_type_symbol
_atom_site_label
_atom_site_fract_x
_atom_site_fract_y
_atom_site_fract_z
Si Si1 0.600058 0.911119 0.045864
Si Si2 0.724364 0.757885 0.709629
Si Si3 0.450353 0.733236 0.914238
Si Si4 0.086620 0.649152 0.516620
Si Si5 0.614600 0.232106 0.248351
Si Si6 0.721383 0.407059 0.919680
Si Si7 0.860484 0.413523 0.329598
O O1 0.588670 0.819958 0.013648
O O2 0.718776 0.911695 0.022759
O O3 0.487086 0.911310 0.191410
O O4 0.596998 0.000000 0.999093
O O5 0.591176 0.728578 0.818979
O O6 0.800154 0.688420 0.608008
O O7 0.797513 0.782269 0.748653
O O8 0.710930 0.836213 0.655282
O O9 0.405152 0.740648 0.840891
O O10 0.388416 0.654243 0.998800
O O11 0.118509 0.592952 0.578542
O O12 0.000000 0.613294 0.500000
O O13 0.009348 0.721355 0.616748
O O14 0.678597 0.142880 0.203086
O O15 0.699386 0.500000 0.904107
O O16 0.803966 0.500000 0.345162
#
# Coordination Sequence:
#
# PCOD9174946 Si02
#       7
#     8   8   8   8   8   8   8
#     4   8  14  27  52  78 100 132 180 227 268 322
#     4  10  21  35  56  82 114 145 188 231 276 339
#     4  10  19  34  55  80 109 150 185 225 288 337
#     4  10  19  33  58  85 108 144 187 230 274 331
#     4  10  19  35  58  83 105 149 191 231 276 330
#     4  10  19  34  56  80 111 147 187 233 285 339
#     4  10  18  32  54  81 111 144 182 231 286 326
#
# _framework density 20.332781000000001
#
# number of rings (size 3 to 8) (size 9 to 14) (size 15 to 20)
#    0.000    2.286    4.286    2.143    0.000    0.857 
#    0.000    5.000    0.000    4.714    0.000   12.000 
#    0.000    0.000    0.000    0.000    0.000    0.000 
#
# Total GULP energy -156079.947132 kJ/mol
# GULP energy per Si atom -5574.283826 kJ/mol
# Density = 2.028650 g / cm^3
# Si number density = 20.332781 Si / 1000 Ang^3
#
#
#
# Elastic Constant Matrix: (Units=GPa)
#
#
# Indices 1 2 3 4 5 6 
#
# 1 103.9158 36.4910 16.0781 0.0000 5.7762 0.0000
# 2 36.4910 107.0850 27.8771 0.0000 -12.0643 0.0000
# 3 16.0781 27.8771 70.0238 0.0000 -16.5253 0.0000
# 4 0.0000 0.0000 0.0000 15.7549 0.0000 -1.1019
# 5 5.7762 -12.0643 -16.5253 0.0000 35.1482 0.0000
# 6 0.0000 0.0000 0.0000 -1.1019 0.0000 -7.9466
#
#
#
# Elastic Compliance Matrix: (Units=1/GPa)
#
#
# Indices 1 2 3 4 5 6 
#
# 1 0.011538 -0.003858 -0.002107 0.000000 -0.004211 0.000000
# 2 -0.003858 0.011813 -0.003049 0.000000 0.003255 0.000000
# 3 -0.002107 -0.003049 0.017787 0.000000 0.007662 0.000000
# 4 0.000000 0.000000 0.000000 0.062863 0.000000 -0.008716
# 5 -0.004211 0.003255 0.007662 0.000000 0.033863 0.000000
# 6 0.000000 0.000000 0.000000 -0.008716 0.000000 -0.124632
#
#
# Mechanical properties :
#
#
# Convention : Reuss Voigt Hill
#
# Bulk Modulus (GPa) = 43.27054 49.10188 46.18621
# Shear Modulus (GPa) = 128.32701 21.96319 75.14510
#
# Velocity S-wave (km/s) = 7.95301 3.29018 6.08587
# Velocity P-wave (km/s) = 10.27916 6.21573 8.49401
#
# Compressibility (1/GPa) = 0.02311041
#
# Stress axis : x y z
#
# Youngs Moduli (GPa) = 86.67087 84.64967 56.22131
#
# Poissons Ratio (x) = 0.32654 0.11847
# Poissons Ratio (y) = 0.33434 0.17142
# Poissons Ratio (z) = 0.18264 0.25810
#
# Static dielectric constant tensor:
#      x y z
#    x 1.757130 0.000000 0.022180 
#    y 0.000000 1.747970 0.000000 
#    z 0.022180 0.000000 1.725470 
# 
# From -- ./inp_files/270207.got.cif
#   From: 2010.05.17/outbox.cif.g08.bks.cpg/sg12_136_cif.got.tgz:270207.got - 2010.06.03 13:09:07.
