data_PCOD9174132
_publ_section_title
;
Structure prediction by ZEFSAII (Michael W. Deem and Ramdas Pophale) SiO2 
 PCOD9174132
Probable space group: C 2/M
;
_chemical_formula_sum "Si O2"
_cell_formula_units_Z 64
_cell_length_a 21.302398
_cell_length_b 18.070908
_cell_length_c 10.474346
_cell_angle_alpha 90.000000
_cell_angle_beta 122.066540
_cell_angle_gamma 90.000000
_cell_volume 3416.963184
_symmetry_space_group_name_H-M "C 2/M"
_symmetry_group_IT_number 12
_symmetry_cell_setting 'monoclinic'
loop_
_space_group_symop_operation_xyz
x,y,z
-x,y,-z
-x,-y,-z
x,-y,z
1/2+x,1/2+y,z
1/2-x,1/2+y,-z
1/2-x,1/2-y,-z
1/2+x,1/2-y,z
loop_
_atom_site_type_symbol
_atom_site_label
_atom_site_fract_x
_atom_site_fract_y
_atom_site_fract_z
Si Si1 0.926289 0.717918 0.221079
Si Si2 0.661854 0.084078 0.758411
Si Si3 0.919522 0.132240 0.372806
Si Si4 0.320073 0.784951 0.869689
Si Si5 0.053407 0.255953 0.173220
Si Si6 0.721736 0.827432 0.604376
Si Si7 0.847628 0.823349 0.553095
Si Si8 0.772256 0.916801 0.110460
O O1 0.897398 0.644272 0.257953
O O2 0.932395 0.786246 0.325231
O O3 0.002611 0.706882 0.226433
O O4 0.864237 0.736083 0.045974
O O5 0.684438 0.106975 0.640401
O O6 0.635341 0.000000 0.738492
O O7 0.733496 0.090367 0.929857
O O8 0.874585 0.137160 0.456636
O O9 0.860980 0.093660 0.214237
O O10 0.000000 0.101391 0.500000
O O11 0.380927 0.801424 0.825420
O O12 0.272004 0.718072 0.761059
O O13 0.267495 0.853388 0.848286
O O14 0.088224 0.182834 0.273199
O O15 0.000000 0.235214 0.000000
O O16 0.773573 0.850369 0.542456
O O17 0.667014 0.763152 0.497244
O O18 0.754981 0.000000 0.137324
#
# Coordination Sequence:
#
# PCOD9174132 Si02
#       8
#     8   8   8   8   8   8   8   8
#     4  10  18  31  52  82 110 137 175 221 261 324
#     4  10  20  35  56  79 108 147 180 215 260 312
#     4  12  21  33  55  81 107 139 174 222 280 315
#     4   9  17  32  55  78 103 140 180 221 271 303
#     4   9  18  31  50  79 110 136 172 218 265 315
#     4  10  18  32  55  77 106 133 180 230 261 311
#     4  10  19  31  52  80 104 133 170 221 273 311
#     4  10  21  36  53  77 108 143 186 222 260 317
#
# _framework density 18.730081999999999
#
# number of rings (size 3 to 8) (size 9 to 14) (size 15 to 20)
#    0.000    2.000    3.750    0.750    0.000    2.250 
#    0.000    1.250    0.000    7.125    0.000    1.750 
#    0.000    0.000    0.000    0.000    0.000    0.000 
#
# Total GULP energy -178320.825742 kJ/mol
# GULP energy per Si atom -5572.525804 kJ/mol
# Density = 1.868745 g / cm^3
# Si number density = 18.730082 Si / 1000 Ang^3
#
#
#
# Elastic Constant Matrix: (Units=GPa)
#
#
# Indices 1 2 3 4 5 6 
#
# 1 44.6027 3.7022 16.1711 0.0000 -8.4449 0.0000
# 2 3.7022 34.9758 -2.2245 0.0000 -6.2845 0.0000
# 3 16.1711 -2.2245 32.3685 0.0000 0.5213 0.0000
# 4 0.0000 0.0000 0.0000 14.0520 0.0000 -1.6584
# 5 -8.4449 -6.2845 0.5213 0.0000 33.2760 0.0000
# 6 0.0000 0.0000 0.0000 -1.6584 0.0000 7.8933
#
#
#
# Elastic Compliance Matrix: (Units=1/GPa)
#
#
# Indices 1 2 3 4 5 6 
#
# 1 0.029459 -0.002783 -0.015025 0.000000 0.007186 0.000000
# 2 -0.002783 0.029981 0.003372 0.000000 0.004903 0.000000
# 3 -0.015025 0.003372 0.038693 0.000000 -0.003782 0.000000
# 4 0.000000 0.000000 0.000000 0.072973 0.000000 0.015331
# 5 0.007186 0.004903 -0.003782 0.000000 0.032861 0.000000
# 6 0.000000 0.000000 0.000000 0.015331 0.000000 0.129910
#
#
# Mechanical properties :
#
#
# Convention : Reuss Voigt Hill
#
# Bulk Modulus (GPa) = 14.43790 16.36054 15.39922
# Shear Modulus (GPa) = 12.95886 17.33081 15.14484
#
# Velocity S-wave (km/s) = 2.63320 3.04516 2.84665
# Velocity P-wave (km/s) = 4.11948 4.59542 4.36395
#
# Compressibility (1/GPa) = 0.06926215
#
# Stress axis : x y z
#
# Youngs Moduli (GPa) = 33.94546 33.35426 25.84443
#
# Poissons Ratio (x) = 0.09281 0.38830
# Poissons Ratio (y) = 0.09446 -0.08714
# Poissons Ratio (z) = 0.51002 -0.11246
#
# Static dielectric constant tensor:
#      x y z
#    x 1.679690 0.000000 0.022130 
#    y 0.000000 1.614810 0.000000 
#    z 0.022130 0.000000 1.722250 
# 
# From -- ./inp_files/168505.got.cif
#   From: 2010.05.17/outbox.cif.g08.bks.cpg/sg12_85_cif.got.tgz:168505.got - 2010.06.03 13:09:07.
