data_PCOD9174280
_publ_section_title
;
Structure prediction by ZEFSAII (Michael W. Deem and Ramdas Pophale) SiO2 
 PCOD9174280
Probable space group: C 2/M
;
_chemical_formula_sum "Si O2"
_cell_formula_units_Z 44
_cell_length_a 16.202393
_cell_length_b 14.724192
_cell_length_c 19.206922
_cell_angle_alpha 90.000000
_cell_angle_beta 29.573418
_cell_angle_gamma 90.000000
_cell_volume 2261.462395
_symmetry_space_group_name_H-M "C 2/M"
_symmetry_group_IT_number 12
_symmetry_cell_setting 'monoclinic'
loop_
_space_group_symop_operation_xyz
x,y,z
-x,y,-z
-x,-y,-z
x,-y,z
1/2+x,1/2+y,z
1/2-x,1/2+y,-z
1/2-x,1/2-y,-z
1/2+x,1/2-y,z
loop_
_atom_site_type_symbol
_atom_site_label
_atom_site_fract_x
_atom_site_fract_y
_atom_site_fract_z
Si Si1 0.017744 0.195906 0.115882
Si Si2 0.464048 0.000000 0.255639
Si Si3 0.863635 0.867393 0.766275
Si Si4 0.000000 0.669807 0.000000
Si Si5 0.010798 0.000000 0.907115
Si Si6 0.215642 0.000000 0.055364
Si Si7 0.573687 0.500000 0.522420
Si Si8 0.415815 0.193093 0.800797
O O1 0.987780 0.251577 0.208932
O O2 0.983167 0.265620 0.079129
O O3 0.925517 0.100055 0.165159
O O4 0.220162 0.182485 0.964729
O O5 0.506796 0.093703 0.264028
O O6 0.271961 0.000000 0.376477
O O7 0.584935 0.000000 0.098731
O O8 0.854985 0.915225 0.848830
O O9 0.906292 0.761824 0.743400
O O10 0.998739 0.915338 0.619806
O O11 0.674925 0.882227 0.877725
O O12 0.845511 0.000000 0.979396
O O13 0.000000 0.000000 0.000000
O O14 0.500000 0.500000 0.500000
#
# Coordination Sequence:
#
# PCOD9174280 Si02
#       8
#     8   4   8   4   4   4   4   8
#     4  10  18  31  53  92 123 145 195 245 301 352
#     4  12  22  37  66  86 123 157 205 247 302 351
#     4  10  23  41  62  87 126 156 210 242 310 364
#     4  10  20  32  60  92 120 162 192 254 310 348
#     4  12  19  31  52  95 135 151 184 257 311 357
#     4  11  20  38  64  90 119 168 198 248 297 375
#     4  11  29  42  55  91 124 159 206 265 296 356
#     4  10  19  35  60  82 113 159 200 242 289 364
#
# _framework density 19.456436
#
# number of rings (size 3 to 8) (size 9 to 14) (size 15 to 20)
#    0.000    1.455    4.545    2.182    5.091    1.455 
#    0.000    0.000    0.000    0.000    0.000    3.182 
#    0.000    0.000    0.000    0.000    0.000    0.000 
#
# Total GULP energy -122507.572650 kJ/mol
# GULP energy per Si atom -5568.526030 kJ/mol
# Density = 1.941215 g / cm^3
# Si number density = 19.456436 Si / 1000 Ang^3
#
#
#
# Elastic Constant Matrix: (Units=GPa)
#
#
# Indices 1 2 3 4 5 6 
#
# 1 93.7008 24.7449 30.8107 -0.0041 -2.9777 0.0020
# 2 24.7449 133.9466 30.0587 0.0035 -0.6905 -0.0026
# 3 30.8107 30.0587 72.2756 0.0030 -1.9319 -0.0034
# 4 -0.0041 0.0035 0.0030 12.4575 0.0013 -4.9954
# 5 -2.9777 -0.6905 -1.9319 0.0013 20.5082 -0.0008
# 6 0.0020 -0.0026 -0.0034 -4.9954 -0.0008 11.4577
#
#
#
# Elastic Compliance Matrix: (Units=1/GPa)
#
#
# Indices 1 2 3 4 5 6 
#
# 1 0.012632 -0.001242 -0.004833 0.000005 0.001337 -0.000002
# 2 -0.001242 0.008356 -0.002950 -0.000002 -0.000177 0.000000
# 3 -0.004833 -0.002950 0.017145 -0.000003 0.000814 0.000004
# 4 0.000005 -0.000002 -0.000003 0.097280 -0.000004 0.042412
# 5 0.001337 -0.000177 0.000814 -0.000004 0.049026 0.000002
# 6 -0.000002 0.000000 0.000004 0.042412 0.000002 0.105769
#
#
# Mechanical properties :
#
#
# Convention : Reuss Voigt Hill
#
# Bulk Modulus (GPa) = 49.79445 52.35017 51.07231
# Shear Modulus (GPa) = 15.87544 23.17193 19.52368
#
# Velocity S-wave (km/s) = 2.85958 3.45478 3.17117
# Velocity P-wave (km/s) = 6.04576 6.54819 6.30199
#
# Compressibility (1/GPa) = 0.02008256
#
# Stress axis : x y z
#
# Youngs Moduli (GPa) = 79.16504 119.66950 58.32657
#
# Poissons Ratio (x) = 0.14866 0.28186
# Poissons Ratio (y) = 0.09834 0.17209
# Poissons Ratio (z) = 0.38257 0.35308
#
# Static dielectric constant tensor:
#      x y z
#    x 1.738450 0.000000 -0.006850 
#    y 0.000000 1.848700 0.000000 
#    z -0.006850 0.000000 1.637410 
# 
# From -- ./inp_files/271357.got.cif
#   From: 2010.05.17/outbox.cif.g08.bks.cpg/sg12_136_cif.got.tgz:271357.got - 2010.06.03 13:09:07.
