data_PCOD9174136
_publ_section_title
;
Structure prediction by ZEFSAII (Michael W. Deem and Ramdas Pophale) SiO2 
 PCOD9174136
Probable space group: C 2/M
;
_chemical_formula_sum "Si O2"
_cell_formula_units_Z 64
_cell_length_a 20.686415
_cell_length_b 8.646774
_cell_length_c 32.069586
_cell_angle_alpha 90.000000
_cell_angle_beta 141.630725
_cell_angle_gamma 90.000000
_cell_volume 3560.685650
_symmetry_space_group_name_H-M "C 2/M"
_symmetry_group_IT_number 12
_symmetry_cell_setting 'monoclinic'
loop_
_space_group_symop_operation_xyz
x,y,z
-x,y,-z
-x,-y,-z
x,-y,z
1/2+x,1/2+y,z
1/2-x,1/2+y,-z
1/2-x,1/2-y,-z
1/2+x,1/2-y,z
loop_
_atom_site_type_symbol
_atom_site_label
_atom_site_fract_x
_atom_site_fract_y
_atom_site_fract_z
Si Si1 0.816428 0.685810 0.994966
Si Si2 0.871587 0.186420 0.152058
Si Si3 0.717191 0.816230 0.360835
Si Si4 0.552830 0.683585 0.643208
Si Si5 0.925069 0.684493 0.501331
Si Si6 0.993915 0.686409 0.858080
Si Si7 0.727925 0.316490 0.273515
Si Si8 0.495711 0.184808 0.291098
O O1 0.814439 0.500000 0.995445
O O2 0.747660 0.730780 0.920160
O O3 0.750000 0.750000 0.000000
O O4 0.934539 0.731093 0.065797
O O5 0.911113 0.254036 0.215358
O O6 0.945840 0.251955 0.152695
O O7 0.880180 0.000000 0.156612
O O8 0.815486 0.767389 0.438222
O O9 0.724150 0.728484 0.320433
O O10 0.608892 0.779501 0.328799
O O11 0.719773 0.000000 0.353860
O O12 0.545245 0.500000 0.635313
O O13 0.481681 0.761724 0.571823
O O14 0.671156 0.736763 0.695048
O O15 0.518244 0.737434 0.671332
O O16 0.909829 0.500000 0.494177
O O17 0.000000 0.721915 0.500000
O O18 0.987867 0.500000 0.852227
O O19 0.879405 0.756636 0.800602
O O20 0.736994 0.500000 0.273909
O O21 0.487051 0.000000 0.290845
#
# Coordination Sequence:
#
# PCOD9174136 Si02
#       8
#     8   8   8   8   8   8   8   8
#     4   8  16  28  46  76 114 151 190 238 287 340
#     4  10  18  31  53  82 116 155 196 238 291 345
#     4  11  23  39  63  90 117 154 197 239 288 345
#     4  12  26  43  64  87 116 154 197 240 293 354
#     4  11  23  40  64  91 120 153 191 238 292 344
#     4  10  18  31  52  82 117 153 195 242 291 340
#     4  12  23  37  59  87 119 153 195 244 294 345
#     4  11  24  41  60  86 122 157 196 243 293 347
#
# _framework density 17.974067000000002
#
# number of rings (size 3 to 8) (size 9 to 14) (size 15 to 20)
#    0.000    1.375    2.500    4.125    0.000    3.500 
#    0.000    0.000    0.000    0.750    0.000    5.250 
#    0.000    0.000    0.000    0.000    0.000    0.000 
#
# Total GULP energy -178721.439905 kJ/mol
# GULP energy per Si atom -5585.044997 kJ/mol
# Density = 1.793316 g / cm^3
# Si number density = 17.974067 Si / 1000 Ang^3
#
#
#
# Elastic Constant Matrix: (Units=GPa)
#
#
# Indices 1 2 3 4 5 6 
#
# 1 43.0709 12.5623 10.8201 0.0000 -8.0547 0.0000
# 2 12.5623 29.9242 0.8588 0.0001 -4.1740 0.0000
# 3 10.8201 0.8588 119.5834 0.0000 -1.4794 0.0000
# 4 0.0000 0.0001 0.0000 26.2515 0.0000 -1.9575
# 5 -8.0547 -4.1740 -1.4794 0.0000 21.4409 0.0000
# 6 0.0000 0.0000 0.0000 -1.9575 0.0000 25.1773
#
#
#
# Elastic Compliance Matrix: (Units=1/GPa)
#
#
# Indices 1 2 3 4 5 6 
#
# 1 0.028533 -0.010728 -0.002400 0.000000 0.008465 0.000000
# 2 -0.010728 0.038388 0.000738 0.000000 0.003494 0.000000
# 3 -0.002400 0.000738 0.008572 0.000000 -0.000166 0.000000
# 4 0.000000 0.000000 0.000000 0.038315 0.000000 0.002979
# 5 0.008465 0.003494 -0.000166 0.000000 0.050488 0.000000
# 6 0.000000 0.000000 0.000000 0.002979 0.000000 0.039950
#
#
# Mechanical properties :
#
#
# Convention : Reuss Voigt Hill
#
# Bulk Modulus (GPa) = 19.71912 26.78453 23.25183
# Shear Modulus (GPa) = 20.33097 25.79643 23.06370
#
# Velocity S-wave (km/s) = 3.36687 3.79252 3.58602
# Velocity P-wave (km/s) = 5.10971 5.84052 5.48730
#
# Compressibility (1/GPa) = 0.05071219
#
# Stress axis : x y z
#
# Youngs Moduli (GPa) = 35.04773 26.04999 116.65679
#
# Poissons Ratio (x) = 0.27948 0.27997
# Poissons Ratio (y) = 0.37601 -0.08613
# Poissons Ratio (z) = 0.08411 -0.01923
#
# Static dielectric constant tensor:
#      x y z
#    x 1.575940 0.000000 0.006280 
#    y 0.000000 1.601590 0.000000 
#    z 0.006280 0.000000 1.641090 
# 
# From -- ./inp_files/378464.got.cif
#   From: 2010.05.17/outbox.cif.g08.bks.cpg/sg12_190_cif.got.tgz:378464.got - 2010.06.03 13:09:07.
