data_PCOD9174129
_publ_section_title
;
Structure prediction by ZEFSAII (Michael W. Deem and Ramdas Pophale) SiO2 
 PCOD9174129
Probable space group: C 2/M
;
_chemical_formula_sum "Si O2"
_cell_formula_units_Z 48
_cell_length_a 15.340937
_cell_length_b 20.931190
_cell_length_c 22.152546
_cell_angle_alpha 90.000000
_cell_angle_beta 22.403473
_cell_angle_gamma 90.000000
_cell_volume 2711.056108
_symmetry_space_group_name_H-M "C 2/M"
_symmetry_group_IT_number 12
_symmetry_cell_setting 'monoclinic'
loop_
_space_group_symop_operation_xyz
x,y,z
-x,y,-z
-x,-y,-z
x,-y,z
1/2+x,1/2+y,z
1/2-x,1/2+y,-z
1/2-x,1/2-y,-z
1/2+x,1/2-y,z
loop_
_atom_site_type_symbol
_atom_site_label
_atom_site_fract_x
_atom_site_fract_y
_atom_site_fract_z
Si Si1 0.445759 0.777823 0.300267
Si Si2 0.492792 0.331687 0.641386
Si Si3 0.227364 0.835348 0.676455
Si Si4 0.494994 0.845106 0.076287
Si Si5 0.426624 0.299569 0.977440
Si Si6 0.426062 0.424586 0.795626
O O1 0.527272 0.734380 0.306117
O O2 0.232842 0.821673 0.454990
O O3 0.361680 0.725207 0.305924
O O4 0.662202 0.819046 0.140364
O O5 0.482072 0.388934 0.696525
O O6 0.275359 0.343235 0.737026
O O7 0.500000 0.834754 0.500000
O O8 0.122089 0.898482 0.713873
O O9 0.115178 0.830178 0.814032
O O10 0.584707 0.775098 0.034031
O O11 0.500000 0.849694 0.000000
O O12 0.680522 0.897338 0.976487
O O13 0.500000 0.305241 0.000000
O O14 0.418053 0.500000 0.794409
#
# Coordination Sequence:
#
# PCOD9174129 Si02
#       6
#     8   8   8   8   8   8
#     4  10  18  31  52  81 115 138 167 215 279 334
#     4   9  17  30  52  81 110 139 171 221 272 325
#     4  11  23  34  54  83 110 145 180 220 277 322
#     4   9  15  30  49  79 108 131 170 219 268 319
#     4  11  19  33  56  84 114 138 173 221 281 334
#     4  10  21  35  53  75 107 149 193 228 259 308
#
# _framework density 17.705276999999999
#
# number of rings (size 3 to 8) (size 9 to 14) (size 15 to 20)
#    0.000    2.000    6.667    1.500    4.667    3.333 
#    0.000    0.000    0.000    1.500    0.000    1.167 
#    0.000    0.000    0.000    0.000    0.000    0.000 
#
# Total GULP energy -133723.107382 kJ/mol
# GULP energy per Si atom -5571.796141 kJ/mol
# Density = 1.766498 g / cm^3
# Si number density = 17.705277 Si / 1000 Ang^3
#
#
#
# Elastic Constant Matrix: (Units=GPa)
#
#
# Indices 1 2 3 4 5 6 
#
# 1 36.6659 10.8717 42.9663 -0.0003 -0.9290 0.0038
# 2 10.8717 62.0084 40.3720 -0.0368 1.7423 0.0202
# 3 42.9663 40.3720 190.2890 -0.1230 -9.5960 -0.0416
# 4 -0.0003 -0.0368 -0.1230 14.3822 -0.0184 1.6563
# 5 -0.9290 1.7423 -9.5960 -0.0184 27.4180 -0.0094
# 6 0.0038 0.0202 -0.0416 1.6563 -0.0094 7.1789
#
#
#
# Elastic Compliance Matrix: (Units=1/GPa)
#
#
# Indices 1 2 3 4 5 6 
#
# 1 0.037230 -0.001113 -0.008249 -0.000069 -0.001555 -0.000051
# 2 -0.001113 0.018932 -0.003897 0.000021 -0.002605 -0.000084
# 3 -0.008249 -0.003897 0.008086 0.000057 0.002798 0.000053
# 4 -0.000069 0.000021 0.000057 0.071429 0.000058 -0.016480
# 5 -0.001555 -0.002605 0.002798 0.000058 0.037565 0.000060
# 6 -0.000051 -0.000084 0.000053 -0.016480 0.000060 0.143099
#
#
# Mechanical properties :
#
#
# Convention : Reuss Voigt Hill
#
# Bulk Modulus (GPa) = 26.50365 53.04260 39.77313
# Shear Modulus (GPa) = 14.06728 22.77937 18.42333
#
# Velocity S-wave (km/s) = 2.82179 3.59079 3.22926
# Velocity P-wave (km/s) = 5.06147 6.87135 6.03465
#
# Compressibility (1/GPa) = 0.03773065
#
# Stress axis : x y z
#
# Youngs Moduli (GPa) = 26.86003 52.81987 123.67763
#
# Poissons Ratio (x) = 0.05880 1.02017
# Poissons Ratio (y) = 0.02990 0.48193
# Poissons Ratio (z) = 0.22156 0.20582
#
# Static dielectric constant tensor:
#      x y z
#    x 1.664020 -0.000010 -0.004740 
#    y -0.000010 1.561530 0.000050 
#    z -0.004740 0.000050 1.696550 
# 
# From -- ./inp_files/227228.got.cif
#   From: 2010.05.17/outbox.cif.g08.bks.cpg/sg12_114_cif.got.tgz:227228.got - 2010.06.03 13:09:07.
