data_PCOD9174013
_publ_section_title
;
Structure prediction by ZEFSAII (Michael W. Deem and Ramdas Pophale) SiO2 
 PCOD9174013
Probable space group: C 2/M
;
_chemical_formula_sum "Si O2"
_cell_formula_units_Z 48
_cell_length_a 19.032636
_cell_length_b 8.563970
_cell_length_c 19.450033
_cell_angle_alpha 90.000000
_cell_angle_beta 60.255650
_cell_angle_gamma 90.000000
_cell_volume 2752.568176
_symmetry_space_group_name_H-M "C 2/M"
_symmetry_group_IT_number 12
_symmetry_cell_setting 'monoclinic'
loop_
_space_group_symop_operation_xyz
x,y,z
-x,y,-z
-x,-y,-z
x,-y,z
1/2+x,1/2+y,z
1/2-x,1/2+y,-z
1/2-x,1/2-y,-z
1/2+x,1/2-y,z
loop_
_atom_site_type_symbol
_atom_site_label
_atom_site_fract_x
_atom_site_fract_y
_atom_site_fract_z
Si Si1 0.414903 0.687316 0.007108
Si Si2 0.244532 0.314318 0.839710
Si Si3 0.169708 0.686252 0.077251
Si Si4 0.821600 0.310749 0.512113
Si Si5 0.502318 0.179674 0.582358
Si Si6 0.675276 0.189758 0.329812
O O1 0.410347 0.500000 0.006269
O O2 0.339510 0.747864 0.089198
O O3 0.500000 0.732816 0.000000
O O4 0.402380 0.753267 0.936091
O O5 0.242413 0.500000 0.845814
O O6 0.317548 0.249832 0.852320
O O7 0.261593 0.258077 0.754467
O O8 0.170394 0.500000 0.077560
O O9 0.250000 0.750000 0.000000
O O10 0.824441 0.500000 0.508917
O O11 0.750000 0.250000 0.500000
O O12 0.909924 0.251028 0.443962
O O13 0.809943 0.267066 0.597866
O O14 0.500000 0.174362 0.500000
O O15 0.415718 0.247422 0.645243
O O16 0.502716 0.000000 0.606691
O O17 0.675579 0.000000 0.325964
#
# Coordination Sequence:
#
# PCOD9174013 Si02
#       6
#     8   8   8   8   8   8
#     4  10  20  35  55  77 102 132 166 205 250 300
#     4  11  21  33  51  75 103 132 167 210 252 297
#     4  10  18  31  52  74  98 128 164 201 240 292
#     4   9  17  30  50  74  99 128 162 201 248 301
#     4   7  12  26  48  69  88 118 161 199 231 279
#     4   9  17  32  52  71  94 128 169 209 248 290
#
# _framework density 17.43826
#
# number of rings (size 3 to 8) (size 9 to 14) (size 15 to 20)
#    0.000    2.667    0.000    7.500    0.000    2.000 
#    0.000    2.500    0.000    7.000    0.000    0.000 
#    0.000    0.000    0.000    0.000    0.000    0.000 
#
# Total GULP energy -133655.237186 kJ/mol
# GULP energy per Si atom -5568.968216 kJ/mol
# Density = 1.739857 g / cm^3
# Si number density = 17.438260 Si / 1000 Ang^3
#
#
#
# Elastic Constant Matrix: (Units=GPa)
#
#
# Indices 1 2 3 4 5 6 
#
# 1 148.2243 37.0583 41.3763 0.0000 0.7904 0.0000
# 2 37.0583 64.3214 21.3538 0.0000 3.8374 -0.0001
# 3 41.3763 21.3538 74.4099 0.0000 1.1101 0.0000
# 4 0.0000 0.0000 0.0000 12.9244 0.0000 3.1871
# 5 0.7904 3.8374 1.1101 0.0000 18.2623 0.0000
# 6 0.0000 -0.0001 0.0000 3.1871 0.0000 28.2676
#
#
#
# Elastic Compliance Matrix: (Units=1/GPa)
#
#
# Indices 1 2 3 4 5 6 
#
# 1 0.008755 -0.003829 -0.003780 0.000000 0.000655 0.000000
# 2 -0.003829 0.019061 -0.003287 0.000000 -0.003640 0.000000
# 3 -0.003780 -0.003287 0.016486 0.000000 -0.000148 0.000000
# 4 0.000000 0.000000 0.000000 0.079586 0.000000 -0.008973
# 5 0.000655 -0.003640 -0.000148 0.000000 0.055503 0.000000
# 6 0.000000 0.000000 0.000000 -0.008973 0.000000 0.036388
#
#
# Mechanical properties :
#
#
# Convention : Reuss Voigt Hill
#
# Bulk Modulus (GPa) = 44.41955 54.05914 49.23934
# Shear Modulus (GPa) = 20.40203 24.36865 22.38534
#
# Velocity S-wave (km/s) = 3.42418 3.74227 3.58675
# Velocity P-wave (km/s) = 6.41569 7.05269 6.74172
#
# Compressibility (1/GPa) = 0.02251261
#
# Stress axis : x y z
#
# Youngs Moduli (GPa) = 114.21660 52.46287 60.65697
#
# Poissons Ratio (x) = 0.20086 0.22925
# Poissons Ratio (y) = 0.43730 0.19937
# Poissons Ratio (z) = 0.43168 0.17244
#
# Static dielectric constant tensor:
#      x y z
#    x 1.622620 0.000000 -0.000060 
#    y 0.000000 1.593270 0.000000 
#    z -0.000060 0.000000 1.594940 
# 
# From -- ./inp_files/313224.got.cif
#   From: 2010.05.17/outbox.cif.g08.bks.cpg/sg12_157_cif.got.tgz:313224.got - 2010.06.03 13:09:07.
