data_PCOD9174391
_publ_section_title
;
Structure prediction by ZEFSAII (Michael W. Deem and Ramdas Pophale) SiO2 
 PCOD9174391
Probable space group: C 2/M
;
_chemical_formula_sum "Si O2"
_cell_formula_units_Z 64
_cell_length_a 22.625240
_cell_length_b 14.245263
_cell_length_c 10.522145
_cell_angle_alpha 90.000000
_cell_angle_beta 94.532574
_cell_angle_gamma 90.000000
_cell_volume 3380.707471
_symmetry_space_group_name_H-M "C 2/M"
_symmetry_group_IT_number 12
_symmetry_cell_setting 'monoclinic'
loop_
_space_group_symop_operation_xyz
x,y,z
-x,y,-z
-x,-y,-z
x,-y,z
1/2+x,1/2+y,z
1/2-x,1/2+y,-z
1/2-x,1/2-y,-z
1/2+x,1/2-y,z
loop_
_atom_site_type_symbol
_atom_site_label
_atom_site_fract_x
_atom_site_fract_y
_atom_site_fract_z
Si Si1 0.443040 0.390165 0.209624
Si Si2 0.063195 0.892195 0.354333
Si Si3 0.649973 0.389981 0.585373
Si Si4 0.341693 0.107486 0.168779
Si Si5 0.730242 0.393787 0.962087
Si Si6 0.648017 0.315151 0.169531
Si Si7 0.434306 0.781974 0.025646
Si Si8 0.233542 0.240757 0.718482
O O1 0.452609 0.500000 0.177280
O O2 0.498593 0.356119 0.305241
O O3 0.384292 0.385091 0.285440
O O4 0.439575 0.321219 0.090389
O O5 0.102548 0.852171 0.475017
O O6 0.104134 0.882889 0.237377
O O7 0.052907 0.000000 0.389519
O O8 0.662655 0.500000 0.560219
O O9 0.708751 0.327941 0.606660
O O10 0.400799 0.152690 0.120945
O O11 0.312284 0.173560 0.270245
O O12 0.349615 0.000000 0.210229
O O13 0.292537 0.108486 0.047507
O O14 0.719505 0.500000 0.914685
O O15 0.731435 0.319810 0.849089
O O16 0.681698 0.364966 0.058556
O O17 0.699763 0.279086 0.272058
O O18 0.608001 0.232595 0.103310
O O19 0.500000 0.813952 0.000000
#
# Coordination Sequence:
#
# PCOD9174391 Si02
#       8
#     8   8   8   8   8   8   8   8
#     4  10  20  34  55  81 110 140 172 212 260 323
#     4  10  21  35  51  78 113 144 174 213 261 315
#     4  10  20  35  56  80 106 141 179 215 261 314
#     4  10  20  35  52  76 105 137 175 218 262 306
#     4  10  18  31  55  80 106 137 164 209 270 323
#     4  11  20  33  49  78 113 140 172 211 258 318
#     4  12  21  34  54  79 108 141 175 212 267 323
#     4  11  19  34  56  78 106 136 180 219 259 317
#
# _framework density 18.930948999999998
#
# number of rings (size 3 to 8) (size 9 to 14) (size 15 to 20)
#    0.000    1.500    5.000    1.875    0.000    5.000 
#    0.000    0.000    0.000    0.000    0.000    2.625 
#    0.000    0.000    0.000    0.000    0.000    0.000 
#
# Total GULP energy -178630.282321 kJ/mol
# GULP energy per Si atom -5582.196323 kJ/mol
# Density = 1.888786 g / cm^3
# Si number density = 18.930949 Si / 1000 Ang^3
#
#
#
# Elastic Constant Matrix: (Units=GPa)
#
#
# Indices 1 2 3 4 5 6 
#
# 1 74.4743 20.5787 -4.8975 0.0000 11.9670 0.0000
# 2 20.5787 76.9205 0.1791 0.0000 10.3160 0.0000
# 3 -4.8975 0.1791 26.6797 0.0000 13.5770 0.0000
# 4 0.0000 0.0000 0.0000 17.6900 0.0000 4.9710
# 5 11.9670 10.3160 13.5770 0.0000 26.9866 0.0000
# 6 0.0000 0.0000 0.0000 4.9710 0.0000 22.4245
#
#
#
# Elastic Compliance Matrix: (Units=1/GPa)
#
#
# Indices 1 2 3 4 5 6 
#
# 1 0.016470 -0.003043 0.008292 0.000000 -0.010312 0.000000
# 2 -0.003043 0.014507 0.001989 0.000000 -0.005197 0.000000
# 3 0.008292 0.001989 0.055443 0.000000 -0.032330 0.000000
# 4 0.000000 0.000000 0.000000 0.060284 0.000000 -0.013364
# 5 -0.010312 -0.005197 -0.032330 0.000000 0.059880 0.000000
# 6 0.000000 0.000000 0.000000 -0.013364 0.000000 0.047556
#
#
# Mechanical properties :
#
#
# Convention : Reuss Voigt Hill
#
# Bulk Modulus (GPa) = 9.91128 23.31055 16.61091
# Shear Modulus (GPa) = 18.29505 24.23452 21.26478
#
# Velocity S-wave (km/s) = 3.11209 3.58180 3.35518
# Velocity P-wave (km/s) = 4.26149 5.42641 4.87884
#
# Compressibility (1/GPa) = 0.10089517
#
# Stress axis : x y z
#
# Youngs Moduli (GPa) = 60.71461 68.93343 18.03654
#
# Poissons Ratio (x) = 0.20974 -0.14955
# Poissons Ratio (y) = 0.18474 -0.03587
# Poissons Ratio (z) = -0.50342 -0.13708
#
# Static dielectric constant tensor:
#      x y z
#    x 1.669910 0.000000 0.030370 
#    y 0.000000 1.662790 0.000000 
#    z 0.030370 0.000000 1.690830 
# 
# From -- ./inp_files/167250.got.cif
#   From: 2010.05.17/outbox.cif.g08.bks.cpg/sg12_84_cif.got.tgz:167250.got - 2010.06.03 13:09:07.
