data_PCOD9174508
_publ_section_title
;
Structure prediction by ZEFSAII (Michael W. Deem and Ramdas Pophale) SiO2 
 PCOD9174508
Probable space group: C 2/M
;
_chemical_formula_sum "Si O2"
_cell_formula_units_Z 64
_cell_length_a 12.589862
_cell_length_b 22.014661
_cell_length_c 11.882911
_cell_angle_alpha 90.000000
_cell_angle_beta 73.770015
_cell_angle_gamma 90.000000
_cell_volume 3162.232468
_symmetry_space_group_name_H-M "C 2/M"
_symmetry_group_IT_number 12
_symmetry_cell_setting 'monoclinic'
loop_
_space_group_symop_operation_xyz
x,y,z
-x,y,-z
-x,-y,-z
x,-y,z
1/2+x,1/2+y,z
1/2-x,1/2+y,-z
1/2-x,1/2-y,-z
1/2+x,1/2-y,z
loop_
_atom_site_type_symbol
_atom_site_label
_atom_site_fract_x
_atom_site_fract_y
_atom_site_fract_z
Si Si1 0.731150 0.617317 0.173972
Si Si2 0.233261 0.872727 0.776185
Si Si3 0.543322 0.752207 0.149568
Si Si4 0.993707 0.108603 0.867619
Si Si5 0.629946 0.930493 0.067529
Si Si6 0.415195 0.928458 0.271351
Si Si7 0.452231 0.831352 0.629811
Si Si8 0.815646 0.260423 0.105616
O O1 0.615555 0.587044 0.167495
O O2 0.793971 0.590348 0.263078
O O3 0.727837 0.690826 0.179550
O O4 0.815744 0.607785 0.046143
O O5 0.115499 0.902301 0.780582
O O6 0.296412 0.915875 0.844995
O O7 0.326661 0.856728 0.657010
O O8 0.205519 0.808877 0.847859
O O9 0.523188 0.680912 0.138407
O O10 0.552114 0.781961 0.269044
O O11 0.646484 0.765440 0.036353
O O12 0.430223 0.779716 0.133367
O O13 0.000000 0.092683 0.000000
O O14 0.504533 0.919974 0.143111
O O15 0.640181 0.000000 0.029670
O O16 0.466009 0.885252 0.352316
O O17 0.417844 0.000000 0.299568
O O18 0.500000 0.806477 0.500000
#
# Coordination Sequence:
#
# PCOD9174508 Si02
#       8
#     8   8   8   8   8   8   8   8
#     4  12  20  30  54  82 121 149 189 232 291 357
#     4  10  20  38  55  84 120 153 196 236 282 351
#     4  10  18  33  55  85 119 146 195 233 286 345
#     4  11  20  34  53  86 118 155 191 223 279 358
#     4  10  20  33  53  82 120 153 186 238 294 344
#     4  10  22  38  56  82 112 150 200 248 295 342
#     4  11  23  39  61  84 113 151 200 251 297 340
#     4  10  18  31  57  89 112 156 184 237 287 352
#
# _framework density 20.238865000000001
#
# number of rings (size 3 to 8) (size 9 to 14) (size 15 to 20)
#    0.000    1.500    5.000    3.000    1.750    2.750 
#    0.000    4.375    0.000    0.000    0.000    0.875 
#    0.000    0.000    0.000    0.000    0.000    0.000 
#
# Total GULP energy -178431.905261 kJ/mol
# GULP energy per Si atom -5575.997039 kJ/mol
# Density = 2.019280 g / cm^3
# Si number density = 20.238865 Si / 1000 Ang^3
#
#
#
# Elastic Constant Matrix: (Units=GPa)
#
#
# Indices 1 2 3 4 5 6 
#
# 1 143.3102 -3.3716 20.1793 0.0000 0.0219 0.0000
# 2 -3.3716 48.9506 6.6293 0.0000 6.0640 0.0000
# 3 20.1793 6.6293 75.2508 0.0000 -11.2179 0.0000
# 4 0.0000 0.0000 0.0000 7.7612 0.0000 -1.6856
# 5 0.0219 6.0640 -11.2179 0.0000 12.1049 0.0000
# 6 0.0000 0.0000 0.0000 -1.6856 0.0000 19.6192
#
#
#
# Elastic Compliance Matrix: (Units=1/GPa)
#
#
# Indices 1 2 3 4 5 6 
#
# 1 0.007362 0.001215 -0.002523 0.000000 -0.002960 0.000000
# 2 0.001215 0.023137 -0.004748 0.000000 -0.015993 0.000000
# 3 -0.002523 -0.004748 0.017102 0.000000 0.018232 0.000000
# 4 0.000000 0.000000 0.000000 0.131296 0.000000 0.011281
# 5 -0.002960 -0.015993 0.018232 0.000000 0.107524 0.000000
# 6 0.000000 0.000000 0.000000 0.011281 0.000000 0.051940
#
#
# Mechanical properties :
#
#
# Convention : Reuss Voigt Hill
#
# Bulk Modulus (GPa) = 28.17741 34.93173 31.55457
# Shear Modulus (GPa) = 13.80069 24.16870 18.98469
#
# Velocity S-wave (km/s) = 2.61414 3.45943 3.06605
# Velocity P-wave (km/s) = 4.80253 5.76663 5.30652
#
# Compressibility (1/GPa) = 0.03548942
#
# Stress axis : x y z
#
# Youngs Moduli (GPa) = 135.83064 43.22129 58.47440
#
# Poissons Ratio (x) = -0.05253 0.14750
# Poissons Ratio (y) = -0.16509 0.27765
# Poissons Ratio (z) = 0.34264 0.20523
#
# Static dielectric constant tensor:
#      x y z
#    x 1.893590 0.000000 0.031910 
#    y 0.000000 1.756290 0.000000 
#    z 0.031910 0.000000 1.682860 
# 
# From -- ./inp_files/135344.got.cif
#   From: 2010.05.17/outbox.cif.g08.bks.cpg/sg12_68_cif.got.tgz:135344.got - 2010.06.03 13:09:07.
