data_PCOD9174001
_publ_section_title
;
Structure prediction by ZEFSAII (Michael W. Deem and Ramdas Pophale) SiO2 
 PCOD9174001
Probable space group: C 2/M
;
_chemical_formula_sum "Si O2"
_cell_formula_units_Z 56
_cell_length_a 12.407955
_cell_length_b 12.801371
_cell_length_c 27.551833
_cell_angle_alpha 90.000000
_cell_angle_beta 36.757316
_cell_angle_gamma 90.000000
_cell_volume 2618.896307
_symmetry_space_group_name_H-M "C 2/M"
_symmetry_group_IT_number 12
_symmetry_cell_setting 'monoclinic'
loop_
_space_group_symop_operation_xyz
x,y,z
-x,y,-z
-x,-y,-z
x,-y,z
1/2+x,1/2+y,z
1/2-x,1/2+y,-z
1/2-x,1/2-y,-z
1/2+x,1/2-y,z
loop_
_atom_site_type_symbol
_atom_site_label
_atom_site_fract_x
_atom_site_fract_y
_atom_site_fract_z
Si Si1 0.984747 0.212949 0.304493
Si Si2 0.686579 0.841279 0.955213
Si Si3 0.158276 0.114393 0.998177
Si Si4 0.566583 0.665109 0.779224
Si Si5 0.204923 0.117982 0.410931
Si Si6 0.741066 0.387945 0.812036
Si Si7 0.730153 0.883767 0.727980
O O1 0.896498 0.152930 0.290995
O O2 0.840513 0.292160 0.379713
O O3 0.130736 0.290301 0.225994
O O4 0.095803 0.143888 0.302076
O O5 0.712374 0.875178 0.001681
O O6 0.866006 0.874136 0.862640
O O7 0.500000 0.877303 0.000000
O O8 0.686933 0.714958 0.955334
O O9 0.954783 0.122040 0.092846
O O10 0.180504 0.000000 0.967606
O O11 0.700915 0.612517 0.768810
O O12 0.592430 0.787960 0.784382
O O13 0.219036 0.118801 0.347206
O O14 0.000000 0.137794 0.500000
O O15 0.253947 0.000000 0.409491
O O16 0.821971 0.500000 0.797085
O O17 0.663784 0.000000 0.764240
#
# Coordination Sequence:
#
# PCOD9174001 Si02
#       7
#     8   8   8   8   8   8   8
#     4  10  18  31  52  73  95 125 159 192 230 276
#     4  10  19  32  48  66  92 123 157 196 239 287
#     4   9  19  33  47  66  92 121 156 200 242 280
#     4   9  19  32  46  68  95 123 155 195 239 280
#     4   9  18  33  52  75 102 128 155 189 229 274
#     4   9  17  31  49  68  91 120 158 199 237 279
#     4   9  19  34  51  72  97 125 157 193 231 274
#
# _framework density 21.383053
#
# number of rings (size 3 to 8) (size 9 to 14) (size 15 to 20)
#    0.000    2.714    0.000    1.286    0.000    4.000 
#    0.000    0.000    0.000    0.429    0.000    0.000 
#    0.000    0.000    0.000    0.000    0.000    0.000 
#
# Total GULP energy -156350.656604 kJ/mol
# GULP energy per Si atom -5583.952022 kJ/mol
# Density = 2.133438 g / cm^3
# Si number density = 21.383053 Si / 1000 Ang^3
#
#
#
# Elastic Constant Matrix: (Units=GPa)
#
#
# Indices 1 2 3 4 5 6 
#
# 1 95.7910 7.9754 4.2230 0.0001 -8.5071 0.0000
# 2 7.9754 101.5004 4.8223 0.0001 -0.6082 0.0000
# 3 4.2230 4.8223 43.2476 0.0002 -13.7746 0.0000
# 4 0.0001 0.0001 0.0002 8.1891 0.0000 -5.1410
# 5 -8.5071 -0.6082 -13.7746 0.0000 17.2764 0.0000
# 6 0.0000 0.0000 0.0000 -5.1410 0.0000 8.0213
#
#
#
# Elastic Compliance Matrix: (Units=1/GPa)
#
#
# Indices 1 2 3 4 5 6 
#
# 1 0.011018 -0.000876 0.000992 0.000000 0.006185 0.000000
# 2 -0.000876 0.009981 -0.001411 0.000000 -0.001205 0.000000
# 3 0.000992 -0.001411 0.031262 -0.000001 0.025364 -0.000001
# 4 0.000000 0.000000 -0.000001 0.204325 -0.000001 0.130956
# 5 0.006185 -0.001205 0.025364 -0.000001 0.081108 0.000000
# 6 0.000000 0.000000 -0.000001 0.130956 0.000000 0.208600
#
#
# Mechanical properties :
#
#
# Convention : Reuss Voigt Hill
#
# Bulk Modulus (GPa) = 20.13286 30.50894 25.32090
# Shear Modulus (GPa) = 8.84265 21.59859 15.22062
#
# Velocity S-wave (km/s) = 2.03576 3.18162 2.67087
# Velocity P-wave (km/s) = 3.86802 5.27217 4.62371
#
# Compressibility (1/GPa) = 0.04967004
#
# Stress axis : x y z
#
# Youngs Moduli (GPa) = 90.76143 100.19214 31.98807
#
# Poissons Ratio (x) = 0.08775 -0.03173
# Poissons Ratio (y) = 0.07949 0.04514
# Poissons Ratio (z) = -0.09002 0.14139
#
# Static dielectric constant tensor:
#      x y z
#    x 1.794000 0.000000 0.005690 
#    y 0.000000 1.851530 0.000000 
#    z 0.005690 0.000000 1.732020 
# 
# From -- ./inp_files/263400.got.cif
#   From: 2010.05.17/outbox.cif.g08.bks.cpg/sg12_132_cif.got.tgz:263400.got - 2010.06.03 13:09:07.
