data_PCOD9174409
_publ_section_title
;
Structure prediction by ZEFSAII (Michael W. Deem and Ramdas Pophale) SiO2 
 PCOD9174409
Probable space group: C 2/M
;
_chemical_formula_sum "Si O2"
_cell_formula_units_Z 52
_cell_length_a 15.212876
_cell_length_b 22.729602
_cell_length_c 9.905379
_cell_angle_alpha 90.000000
_cell_angle_beta 131.087060
_cell_angle_gamma 90.000000
_cell_volume 2581.544350
_symmetry_space_group_name_H-M "C 2/M"
_symmetry_group_IT_number 12
_symmetry_cell_setting 'monoclinic'
loop_
_space_group_symop_operation_xyz
x,y,z
-x,y,-z
-x,-y,-z
x,-y,z
1/2+x,1/2+y,z
1/2-x,1/2+y,-z
1/2-x,1/2-y,-z
1/2+x,1/2-y,z
loop_
_atom_site_type_symbol
_atom_site_label
_atom_site_fract_x
_atom_site_fract_y
_atom_site_fract_z
Si Si1 0.639479 0.681910 0.923477
Si Si2 0.432275 0.062584 0.130032
Si Si3 0.897681 0.388741 0.509138
Si Si4 0.784270 0.067998 0.879748
Si Si5 0.000000 0.336830 0.000000
Si Si6 0.234862 0.721269 0.212397
Si Si7 0.562726 0.244680 0.415646
O O1 0.709062 0.681563 0.850869
O O2 0.524441 0.720974 0.772793
O O3 0.626365 0.616471 0.970464
O O4 0.717416 0.717247 0.112667
O O5 0.553513 0.065233 0.334294
O O6 0.323722 0.067698 0.122529
O O7 0.443018 0.118988 0.049107
O O8 0.419250 0.000000 0.045606
O O9 0.777205 0.407685 0.318598
O O10 0.905233 0.323235 0.578229
O O11 0.000000 0.388925 0.500000
O O12 0.823744 0.000000 0.905686
O O13 0.890657 0.296113 0.859993
O O14 0.319053 0.722690 0.425524
O O15 0.500000 0.243580 0.500000
#
# Coordination Sequence:
#
# PCOD9174409 Si02
#       7
#     8   8   8   8   4   8   8
#     4  10  18  34  55  79 108 145 184 232 274 322
#     4  10  20  32  48  75 112 148 177 217 277 339
#     4   9  16  30  50  80 104 133 179 232 283 318
#     4  10  18  31  55  82 110 141 186 234 272 324
#     4  12  21  34  52  80 115 148 176 220 282 348
#     4  10  20  33  53  80 109 143 182 228 282 328
#     4   9  17  29  53  78 106 138 174 230 279 317
#
# _framework density 20.142980999999999
#
# number of rings (size 3 to 8) (size 9 to 14) (size 15 to 20)
#    0.000    2.154    3.077    1.615    4.308    1.846 
#    0.000    3.077    0.000    6.000    0.000    0.538 
#    0.000    0.000    0.000    0.000    0.000    0.000 
#
# Total GULP energy -144813.045741 kJ/mol
# GULP energy per Si atom -5569.732528 kJ/mol
# Density = 2.009713 g / cm^3
# Si number density = 20.142981 Si / 1000 Ang^3
#
#
#
# Elastic Constant Matrix: (Units=GPa)
#
#
# Indices 1 2 3 4 5 6 
#
# 1 32.8828 2.3032 2.8545 0.0000 6.0007 0.0000
# 2 2.3032 117.0547 38.6226 0.0000 7.0015 0.0000
# 3 2.8545 38.6226 80.2640 0.0000 12.9222 0.0000
# 4 0.0000 0.0000 0.0000 -10.4872 0.0000 -15.6318
# 5 6.0007 7.0015 12.9222 0.0000 21.7680 0.0000
# 6 0.0000 0.0000 0.0000 -15.6318 0.0000 3.3749
#
#
#
# Elastic Compliance Matrix: (Units=1/GPa)
#
#
# Indices 1 2 3 4 5 6 
#
# 1 0.032034 -0.000231 0.000422 0.000000 -0.009007 0.000000
# 2 -0.000231 0.010160 -0.004826 0.000000 -0.000339 0.000000
# 3 0.000422 -0.004826 0.016071 0.000000 -0.008104 0.000000
# 4 0.000000 0.000000 0.000000 -0.012064 0.000000 -0.055878
# 5 -0.009007 -0.000339 -0.008104 0.000000 0.053342 0.000000
# 6 0.000000 0.000000 0.000000 -0.055878 0.000000 0.037488
#
#
# Mechanical properties :
#
#
# Convention : Reuss Voigt Hill
#
# Bulk Modulus (GPa) = 20.41016 35.30691 27.85854
# Shear Modulus (GPa) = 30.74391 15.35920 23.05156
#
# Velocity S-wave (km/s) = 3.91101 2.76435 3.38656
# Velocity P-wave (km/s) = 5.52714 5.26831 5.39927
#
# Compressibility (1/GPa) = 0.04899520
#
# Stress axis : x y z
#
# Youngs Moduli (GPa) = 31.21662 98.42243 62.22399
#
# Poissons Ratio (x) = 0.02271 -0.02625
# Poissons Ratio (y) = 0.00720 0.30031
# Poissons Ratio (z) = -0.01317 0.47501
#
# Static dielectric constant tensor:
#      x y z
#    x 1.740900 0.000000 -0.026040 
#    y 0.000000 1.735210 0.000000 
#    z -0.026040 0.000000 1.764170 
# 
# From -- ./inp_files/148686.got.cif
#   From: 2010.05.17/outbox.cif.g08.bks.cpg/sg12_75_cif.got.tgz:148686.got - 2010.06.03 13:09:07.
