data_PCOD9174321
_publ_section_title
;
Structure prediction by ZEFSAII (Michael W. Deem and Ramdas Pophale) SiO2 
 PCOD9174321
Probable space group: C 2/M
;
_chemical_formula_sum "Si O2"
_cell_formula_units_Z 64
_cell_length_a 26.415007
_cell_length_b 7.625215
_cell_length_c 14.992846
_cell_angle_alpha 90.000000
_cell_angle_beta 101.894492
_cell_angle_gamma 90.000000
_cell_volume 2955.020633
_symmetry_space_group_name_H-M "C 2/M"
_symmetry_group_IT_number 12
_symmetry_cell_setting 'monoclinic'
loop_
_space_group_symop_operation_xyz
x,y,z
-x,y,-z
-x,-y,-z
x,-y,z
1/2+x,1/2+y,z
1/2-x,1/2+y,-z
1/2-x,1/2-y,-z
1/2+x,1/2-y,z
loop_
_atom_site_type_symbol
_atom_site_label
_atom_site_fract_x
_atom_site_fract_y
_atom_site_fract_z
Si Si1 0.589662 0.712300 0.117841
Si Si2 0.601500 0.793190 0.918413
Si Si3 0.298519 0.801626 0.131545
Si Si4 0.295217 0.714697 0.791982
Si Si5 0.524577 0.284836 0.601132
Si Si6 0.497934 0.706145 0.781242
Si Si7 0.358669 0.297010 0.326579
Si Si8 0.233630 0.291365 0.594288
O O1 0.588875 0.500000 0.119204
O O2 0.646102 0.770508 0.171832
O O3 0.543204 0.779334 0.163168
O O4 0.584570 0.764203 0.013352
O O5 0.659279 0.719649 0.920035
O O6 0.556416 0.721977 0.838652
O O7 0.604755 0.000000 0.901809
O O8 0.243897 0.722551 0.143778
O O9 0.330509 0.803645 0.236388
O O10 0.287369 0.000000 0.096720
O O11 0.293880 0.500000 0.793878
O O12 0.272711 0.768959 0.687284
O O13 0.500000 0.225540 0.500000
O O14 0.523819 0.500000 0.600440
O O15 0.495900 0.223169 0.680194
O O16 0.584287 0.232182 0.631847
O O17 0.486329 0.500000 0.770433
O O18 0.361905 0.500000 0.298989
O O19 0.321844 0.285320 0.398860
O O20 0.230017 0.500000 0.601132
O O21 0.250000 0.250000 0.500000
#
# Coordination Sequence:
#
# PCOD9174321 Si02
#       8
#     8   8   8   8   8   8   8   8
#     4  10  21  36  56  79 107 144 183 227 275 326
#     4  11  22  35  55  80 108 145 184 225 277 330
#     4   9  18  34  55  76 105 143 179 220 272 328
#     4   8  17  35  55  77 106 140 178 223 275 325
#     4   9  18  32  53  82 110 137 178 231 277 324
#     4  10  20  36  56  79 107 141 183 227 270 324
#     4  10  18  31  54  80 106 139 179 225 275 320
#     4  10  20  35  56  81 110 144 184 225 270 329
#
# _framework density 21.658055000000001
#
# number of rings (size 3 to 8) (size 9 to 14) (size 15 to 20)
#    0.000    2.375    1.250    2.250    0.000    4.000 
#    0.000    6.875    0.000    4.875    0.000    0.000 
#    0.000    0.000    0.000    0.000    0.000    0.000 
#
# Total GULP energy -178652.375249 kJ/mol
# GULP energy per Si atom -5582.886727 kJ/mol
# Density = 2.160876 g / cm^3
# Si number density = 21.658055 Si / 1000 Ang^3
#
#
#
# Elastic Constant Matrix: (Units=GPa)
#
#
# Indices 1 2 3 4 5 6 
#
# 1 97.2116 -1.7194 45.0522 0.0000 -23.8922 0.0000
# 2 -1.7194 48.9158 -5.6539 0.0000 -2.3057 0.0000
# 3 45.0522 -5.6539 116.6481 0.0000 -27.7790 0.0000
# 4 0.0000 0.0000 0.0000 2.1950 0.0000 -2.4901
# 5 -23.8922 -2.3057 -27.7790 0.0000 36.4508 0.0000
# 6 0.0000 0.0000 0.0000 -2.4901 0.0000 16.0855
#
#
#
# Elastic Compliance Matrix: (Units=1/GPa)
#
#
# Indices 1 2 3 4 5 6 
#
# 1 0.013518 0.000322 -0.003776 0.000000 0.006003 0.000000
# 2 0.000322 0.020757 0.001521 0.000000 0.002683 0.000000
# 3 -0.003776 0.001521 0.011653 0.000000 0.006502 0.000000
# 4 0.000000 0.000000 0.000000 0.552646 0.000000 0.085552
# 5 0.006003 0.002683 0.006502 0.000000 0.036494 0.000000
# 6 0.000000 0.000000 0.000000 0.085552 0.000000 0.075412
#
#
# Mechanical properties :
#
#
# Convention : Reuss Voigt Hill
#
# Bulk Modulus (GPa) = 23.77475 37.57037 30.67256
# Shear Modulus (GPa) = 6.86467 25.95269 16.40868
#
# Velocity S-wave (km/s) = 1.78226 3.46539 2.75548
# Velocity P-wave (km/s) = 3.90339 5.77898 4.93118
#
# Compressibility (1/GPa) = 0.04206143
#
# Stress axis : x y z
#
# Youngs Moduli (GPa) = 73.97649 48.17695 85.81328
#
# Poissons Ratio (x) = -0.01550 0.32400
# Poissons Ratio (y) = -0.02380 -0.13050
# Poissons Ratio (z) = 0.27931 -0.07326
#
# Static dielectric constant tensor:
#      x y z
#    x 1.803300 0.000000 -0.029700 
#    y 0.000000 1.658800 0.000000 
#    z -0.029700 0.000000 1.763940 
# 
# From -- ./inp_files/243951.got.cif
#   From: 2010.05.17/outbox.cif.g08.bks.cpg/sg12_122_cif.got.tgz:243951.got - 2010.06.03 13:09:07.
