data_PCOD9174987
_publ_section_title
;
Structure prediction by ZEFSAII (Michael W. Deem and Ramdas Pophale) SiO2 
 PCOD9174987
Probable space group: C 2/M
;
_chemical_formula_sum "Si O2"
_cell_formula_units_Z 64
_cell_length_a 24.934371
_cell_length_b 18.029693
_cell_length_c 16.427632
_cell_angle_alpha 90.000000
_cell_angle_beta 27.753824
_cell_angle_gamma 90.000000
_cell_volume 3439.088229
_symmetry_space_group_name_H-M "C 2/M"
_symmetry_group_IT_number 12
_symmetry_cell_setting 'monoclinic'
loop_
_space_group_symop_operation_xyz
x,y,z
-x,y,-z
-x,-y,-z
x,-y,z
1/2+x,1/2+y,z
1/2-x,1/2+y,-z
1/2-x,1/2-y,-z
1/2+x,1/2-y,z
loop_
_atom_site_type_symbol
_atom_site_label
_atom_site_fract_x
_atom_site_fract_y
_atom_site_fract_z
Si Si1 0.871751 0.722839 0.870679
Si Si2 0.559278 0.298439 0.505467
Si Si3 0.532690 0.915910 0.185382
Si Si4 0.724690 0.912517 0.501936
Si Si5 0.815045 0.765572 0.129265
Si Si6 0.389995 0.884734 0.095021
Si Si7 0.630326 0.584375 0.856931
Si Si8 0.158077 0.916476 0.495139
O O1 0.895241 0.635511 0.851162
O O2 0.971382 0.749077 0.675919
O O3 0.750000 0.750000 0.000000
O O4 0.868363 0.753442 0.967969
O O5 0.500000 0.321101 0.500000
O O6 0.679609 0.257393 0.319767
O O7 0.584332 0.365880 0.533885
O O8 0.405169 0.883182 0.335595
O O9 0.518314 0.000000 0.234351
O O10 0.597834 0.914819 0.012062
O O11 0.788509 0.907576 0.330792
O O12 0.806795 0.882666 0.463758
O O13 0.710483 0.000000 0.542302
O O14 0.875390 0.704277 0.106117
O O15 0.837715 0.849214 0.126143
O O16 0.280335 0.917974 0.285903
O O17 0.500000 0.903460 0.000000
O O18 0.643466 0.500000 0.871759
O O19 0.500000 0.591839 0.000000
O O20 0.111113 0.000000 0.568192
#
# Coordination Sequence:
#
# PCOD9174987 Si02
#       8
#     8   8   8   8   8   8   8   8
#     4  11  23  42  63  83 113 152 195 243 293 339
#     4  11  23  42  61  80 114 156 195 243 293 333
#     4  10  20  35  60  87 115 149 189 236 288 343
#     4   9  18  34  55  85 119 149 184 233 289 340
#     4  10  22  39  59  84 115 151 197 237 286 348
#     4  10  18  32  54  88 122 152 181 225 285 343
#     4  10  21  37  58  83 117 155 189 233 287 344
#     4  10  21  35  56  87 121 155 192 230 282 349
#
# _framework density 18.609583000000001
#
# number of rings (size 3 to 8) (size 9 to 14) (size 15 to 20)
#    0.000    1.875    2.500    1.500    1.750    0.750 
#    0.000    3.125    0.000    0.750    0.000    0.000 
#    0.000    0.000    0.000    0.000    0.000    0.000 
#
# Total GULP energy -178371.721823 kJ/mol
# GULP energy per Si atom -5574.116307 kJ/mol
# Density = 1.856723 g / cm^3
# Si number density = 18.609583 Si / 1000 Ang^3
#
#
#
# Elastic Constant Matrix: (Units=GPa)
#
#
# Indices 1 2 3 4 5 6 
#
# 1 76.2128 48.8932 -5.1607 0.0000 -5.1545 0.0000
# 2 48.8932 102.1470 1.0493 0.0000 -3.3022 0.0000
# 3 -5.1607 1.0493 48.5736 0.0000 4.6542 0.0000
# 4 0.0000 0.0000 0.0000 45.6560 0.0000 4.4829
# 5 -5.1545 -3.3022 4.6542 0.0000 24.3828 0.0000
# 6 0.0000 0.0000 0.0000 4.4829 0.0000 3.5996
#
#
#
# Elastic Compliance Matrix: (Units=1/GPa)
#
#
# Indices 1 2 3 4 5 6 
#
# 1 0.019318 -0.009188 0.002016 0.000000 0.002455 0.000000
# 2 -0.009188 0.014209 -0.001305 0.000000 0.000231 0.000000
# 3 0.002016 -0.001305 0.021193 0.000000 -0.003796 0.000000
# 4 0.000000 0.000000 0.000000 0.024954 0.000000 -0.031078
# 5 0.002455 0.000231 -0.003796 0.000000 0.042287 0.000000
# 6 0.000000 0.000000 0.000000 -0.031078 0.000000 0.316512
#
#
# Mechanical properties :
#
#
# Convention : Reuss Voigt Hill
#
# Bulk Modulus (GPa) = 26.47958 35.16631 30.82295
# Shear Modulus (GPa) = 10.68336 26.87114 18.77725
#
# Velocity S-wave (km/s) = 2.39859 3.80404 3.17994
# Velocity P-wave (km/s) = 4.68304 6.18322 5.48467
#
# Compressibility (1/GPa) = 0.03776495
#
# Stress axis : x y z
#
# Youngs Moduli (GPa) = 51.76483 70.37986 47.18447
#
# Poissons Ratio (x) = 0.64666 -0.09511
# Poissons Ratio (y) = 0.47562 0.06159
# Poissons Ratio (z) = -0.10434 0.09186
#
# Static dielectric constant tensor:
#      x y z
#    x 1.641750 0.000000 -0.010520 
#    y 0.000000 1.679130 0.000000 
#    z -0.010520 0.000000 1.637660 
# 
# From -- ./inp_files/241445.got.cif
#   From: 2010.05.17/outbox.cif.g08.bks.cpg/sg12_121_cif.got.tgz:241445.got - 2010.06.03 13:09:07.
