data_PCOD9174895
_publ_section_title
;
Structure prediction by ZEFSAII (Michael W. Deem and Ramdas Pophale) SiO2 
 PCOD9174895
Probable space group: C 2/M
;
_chemical_formula_sum "Si O2"
_cell_formula_units_Z 48
_cell_length_a 16.478877
_cell_length_b 7.522064
_cell_length_c 23.988175
_cell_angle_alpha 90.000000
_cell_angle_beta 46.819467
_cell_angle_gamma 90.000000
_cell_volume 2168.249232
_symmetry_space_group_name_H-M "C 2/M"
_symmetry_group_IT_number 12
_symmetry_cell_setting 'monoclinic'
loop_
_space_group_symop_operation_xyz
x,y,z
-x,y,-z
-x,-y,-z
x,-y,z
1/2+x,1/2+y,z
1/2-x,1/2+y,-z
1/2-x,1/2-y,-z
1/2+x,1/2-y,z
loop_
_atom_site_type_symbol
_atom_site_label
_atom_site_fract_x
_atom_site_fract_y
_atom_site_fract_z
Si Si1 0.085481 0.781880 0.822808
Si Si2 0.337924 0.710303 0.910435
Si Si3 0.186603 0.209064 0.661451
Si Si4 0.002892 0.284620 0.335906
Si Si5 0.593197 0.216408 0.501434
Si Si6 0.733775 0.789648 0.181094
O O1 0.162684 0.723643 0.734590
O O2 0.149066 0.724016 0.849071
O O3 0.960071 0.718161 0.869959
O O4 0.079826 0.000000 0.825145
O O5 0.350203 0.500000 0.900013
O O6 0.291926 0.768688 0.871993
O O7 0.250000 0.750000 0.000000
O O8 0.074540 0.231835 0.679097
O O9 0.288792 0.282833 0.577282
O O10 0.210684 0.000000 0.656989
O O11 0.006183 0.500000 0.336651
O O12 0.945846 0.220416 0.419661
O O13 0.127444 0.218977 0.265490
O O14 0.500000 0.260772 0.500000
O O15 0.598676 0.000000 0.502551
O O16 0.735163 0.000000 0.190923
#
# Coordination Sequence:
#
# PCOD9174895 Si02
#       6
#     8   8   8   8   8   8
#     4   9  19  36  59  83 110 149 191 226 269 334
#     4  11  23  41  62  86 115 144 181 228 281 339
#     4  10  18  32  54  77 107 148 190 227 271 327
#     4  10  19  31  51  80 111 142 183 233 278 318
#     4   9  17  29  48  76 107 143 190 235 268 312
#     4  10  20  37  60  84 112 149 189 229 275 329
#
# _framework density 22.137677
#
# number of rings (size 3 to 8) (size 9 to 14) (size 15 to 20)
#    0.000    2.167    1.667    2.000    0.000    4.667 
#    0.000    5.833    0.000    4.000    0.000    0.000 
#    0.000    0.000    0.000    0.000    0.000    0.000 
#
# Total GULP energy -134028.694705 kJ/mol
# GULP energy per Si atom -5584.528946 kJ/mol
# Density = 2.208729 g / cm^3
# Si number density = 22.137677 Si / 1000 Ang^3
#
#
#
# Elastic Constant Matrix: (Units=GPa)
#
#
# Indices 1 2 3 4 5 6 
#
# 1 174.1740 -10.9000 78.1052 0.0002 6.8987 0.0006
# 2 -10.9000 47.2049 -4.0992 0.0005 -2.7809 0.0015
# 3 78.1052 -4.0992 137.6196 0.0000 -1.2177 0.0000
# 4 0.0002 0.0005 0.0000 38.3525 -0.0001 -2.8470
# 5 6.8987 -2.7809 -1.2177 -0.0001 11.6790 0.0003
# 6 0.0006 0.0015 0.0000 -2.8470 0.0003 16.1191
#
#
#
# Elastic Compliance Matrix: (Units=1/GPa)
#
#
# Indices 1 2 3 4 5 6 
#
# 1 0.008069 0.001172 -0.004589 0.000000 -0.004966 0.000000
# 2 0.001172 0.021721 0.000021 0.000000 0.004482 -0.000002
# 3 -0.004589 0.000021 0.009904 0.000000 0.003748 0.000000
# 4 0.000000 0.000000 0.000000 0.026420 0.000000 0.004666
# 5 -0.004966 0.004482 0.003748 0.000000 0.090015 -0.000002
# 6 0.000000 -0.000002 0.000000 0.004666 -0.000002 0.062862
#
#
# Mechanical properties :
#
#
# Convention : Reuss Voigt Hill
#
# Bulk Modulus (GPa) = 30.39117 53.91226 42.15172
# Shear Modulus (GPa) = 21.11930 32.95628 27.03779
#
# Velocity S-wave (km/s) = 3.09204 3.86255 3.49857
# Velocity P-wave (km/s) = 5.14836 6.65571 5.94996
#
# Compressibility (1/GPa) = 0.03290430
#
# Stress axis : x y z
#
# Youngs Moduli (GPa) = 123.92957 46.03886 100.96484
#
# Poissons Ratio (x) = -0.05397 0.46329
# Poissons Ratio (y) = -0.14527 -0.00216
# Poissons Ratio (z) = 0.56866 -0.00098
#
# Static dielectric constant tensor:
#      x y z
#    x 1.799160 0.000000 -0.019030 
#    y 0.000000 1.882420 0.000000 
#    z -0.019030 0.000000 1.793440 
# 
# From -- ./inp_files/309417.got.cif
#   From: 2010.05.17/outbox.cif.g08.bks.cpg/sg12_155_cif.got.tgz:309417.got - 2010.06.03 13:09:07.
