data_PCOD9174380
_publ_section_title
;
Structure prediction by ZEFSAII (Michael W. Deem and Ramdas Pophale) SiO2 
 PCOD9174380
Probable space group: C 2/M
;
_chemical_formula_sum "Si O2"
_cell_formula_units_Z 64
_cell_length_a 19.013919
_cell_length_b 20.094875
_cell_length_c 9.353912
_cell_angle_alpha 90.000000
_cell_angle_beta 118.476596
_cell_angle_gamma 90.000000
_cell_volume 3141.557452
_symmetry_space_group_name_H-M "C 2/M"
_symmetry_group_IT_number 12
_symmetry_cell_setting 'monoclinic'
loop_
_space_group_symop_operation_xyz
x,y,z
-x,y,-z
-x,-y,-z
x,-y,z
1/2+x,1/2+y,z
1/2-x,1/2+y,-z
1/2-x,1/2-y,-z
1/2+x,1/2-y,z
loop_
_atom_site_type_symbol
_atom_site_label
_atom_site_fract_x
_atom_site_fract_y
_atom_site_fract_z
Si Si1 0.171717 0.576263 0.241375
Si Si2 0.026245 0.126470 0.368167
Si Si3 0.352754 0.179824 0.015336
Si Si4 0.906603 0.075784 0.071251
Si Si5 0.778299 0.178178 0.865664
Si Si6 0.310532 0.190352 0.513573
Si Si7 0.646564 0.573256 0.648931
Si Si8 0.505460 0.221402 0.342700
O O1 0.141943 0.500000 0.234728
O O2 0.186581 0.621490 0.395081
O O3 0.259061 0.571154 0.257414
O O4 0.128619 0.623729 0.084490
O O5 0.119262 0.125108 0.499848
O O6 0.990038 0.199464 0.328650
O O7 0.000000 0.096457 0.500000
O O8 0.999772 0.092300 0.195340
O O9 0.279358 0.164532 0.053537
O O10 0.435032 0.191220 0.180332
O O11 0.320510 0.249213 0.915924
O O12 0.878332 0.083823 0.210567
O O13 0.897027 0.000000 0.017052
O O14 0.851162 0.125734 0.931321
O O15 0.719029 0.175418 0.674823
O O16 0.250000 0.250000 0.500000
O O17 0.402775 0.213778 0.614451
O O18 0.618927 0.500000 0.572859
O O19 0.500000 0.196486 0.500000
#
# Coordination Sequence:
#
# PCOD9174380 Si02
#       8
#     8   8   8   8   8   8   8   8
#     4  11  24  43  66  91 126 173 221 271 338 400
#     4   9  17  27  50  88 126 157 200 255 307 376
#     4  11  22  40  66  95 125 168 227 273 314 380
#     4  10  18  31  54  90 128 163 206 259 313 377
#     4  11  22  37  64  95 130 170 217 268 316 383
#     4  12  25  43  66  99 135 168 211 274 341 395
#     4   9  17  31  54  85 123 167 205 249 311 382
#     4  11  22  39  65  96 126 169 220 271 331 388
#
# _framework density 20.372062
#
# number of rings (size 3 to 8) (size 9 to 14) (size 15 to 20)
#    0.000    1.500    5.000    1.125    0.000    2.500 
#    0.000    1.250    0.000    0.750    0.000    3.500 
#    0.000    0.000    0.000    0.000    0.000    0.000 
#
# Total GULP energy -178177.402942 kJ/mol
# GULP energy per Si atom -5568.043842 kJ/mol
# Density = 2.032569 g / cm^3
# Si number density = 20.372062 Si / 1000 Ang^3
#
#
#
# Elastic Constant Matrix: (Units=GPa)
#
#
# Indices 1 2 3 4 5 6 
#
# 1 41.9168 14.4462 10.1986 0.0000 15.0065 0.0000
# 2 14.4462 114.7288 56.7032 0.0000 2.5857 0.0000
# 3 10.1986 56.7032 114.5006 0.0000 23.3758 0.0000
# 4 0.0000 0.0000 0.0000 33.5165 0.0000 5.7566
# 5 15.0065 2.5857 23.3758 0.0000 30.6603 0.0000
# 6 0.0000 0.0000 0.0000 5.7566 0.0000 16.2104
#
#
#
# Elastic Compliance Matrix: (Units=1/GPa)
#
#
# Indices 1 2 3 4 5 6 
#
# 1 0.031010 -0.005155 0.003317 0.000000 -0.017271 0.000000
# 2 -0.005155 0.012829 -0.007329 0.000000 0.007029 0.000000
# 3 0.003317 -0.007329 0.014535 0.000000 -0.012087 0.000000
# 4 0.000000 0.000000 0.000000 0.031774 0.000000 -0.011283
# 5 -0.017271 0.007029 -0.012087 0.000000 0.049692 0.000000
# 6 0.000000 0.000000 0.000000 -0.011283 0.000000 0.065696
#
#
# Mechanical properties :
#
#
# Convention : Reuss Voigt Hill
#
# Bulk Modulus (GPa) = 24.97499 48.20469 36.58984
# Shear Modulus (GPa) = 21.07782 28.73066 24.90424
#
# Velocity S-wave (km/s) = 3.22008 3.75947 3.50018
# Velocity P-wave (km/s) = 5.10992 6.52367 5.85959
#
# Compressibility (1/GPa) = 0.04004006
#
# Stress axis : x y z
#
# Youngs Moduli (GPa) = 32.24809 77.94747 68.79785
#
# Poissons Ratio (x) = 0.40179 -0.22818
# Poissons Ratio (y) = 0.16623 0.50423
# Poissons Ratio (z) = -0.10696 0.57129
#
# Static dielectric constant tensor:
#      x y z
#    x 1.973120 0.000000 0.084140 
#    y 0.000000 1.776700 0.000000 
#    z 0.084140 0.000000 1.774120 
# 
# From -- ./inp_files/89649.got.cif
#   From: 2010.05.17/outbox.cif.g08.bks.cpg/sg12_45_cif.got.tgz:89649.got - 2010.06.03 13:09:07.
