data_PCOD9174304
_publ_section_title
;
Structure prediction by ZEFSAII (Michael W. Deem and Ramdas Pophale) SiO2 
 PCOD9174304
Probable space group: C 2/M
;
_chemical_formula_sum "Si O2"
_cell_formula_units_Z 48
_cell_length_a 13.970761
_cell_length_b 7.920120
_cell_length_c 27.740666
_cell_angle_alpha 90.000000
_cell_angle_beta 44.748419
_cell_angle_gamma 90.000000
_cell_volume 2160.918371
_symmetry_space_group_name_H-M "C 2/M"
_symmetry_group_IT_number 12
_symmetry_cell_setting 'monoclinic'
loop_
_space_group_symop_operation_xyz
x,y,z
-x,y,-z
-x,-y,-z
x,-y,z
1/2+x,1/2+y,z
1/2-x,1/2+y,-z
1/2-x,1/2-y,-z
1/2+x,1/2-y,z
loop_
_atom_site_type_symbol
_atom_site_label
_atom_site_fract_x
_atom_site_fract_y
_atom_site_fract_z
Si Si1 0.775898 0.500000 0.562836
Si Si2 0.876228 0.685973 0.347333
Si Si3 0.038123 0.702115 0.832921
Si Si4 0.125472 0.195158 0.199900
Si Si5 0.570988 0.206432 0.925944
Si Si6 0.808812 0.190619 0.684235
Si Si7 0.534624 0.000000 0.407924
O O1 0.681965 0.335212 0.599493
O O2 0.869627 0.500000 0.577966
O O3 0.881558 0.500000 0.481484
O O4 0.861893 0.500000 0.373673
O O5 0.783367 0.689770 0.331663
O O6 0.028133 0.716472 0.273365
O O7 0.018563 0.500000 0.833552
O O8 0.954513 0.795393 0.822048
O O9 0.000234 0.750534 0.900720
O O10 0.198462 0.730965 0.765097
O O11 0.274133 0.265612 0.135570
O O12 0.138629 0.000000 0.209999
O O13 0.574632 0.000000 0.926698
O O14 0.500000 0.266499 0.000000
O O15 0.921000 0.332774 0.636606
O O16 0.861276 0.000000 0.671836
#
# Coordination Sequence:
#
# PCOD9174304 Si02
#       7
#     4   8   8   8   8   8   4
#     4   9  16  26  40  72 105 138 177 219 276 331
#     4   9  16  28  46  69 102 140 180 225 269 324
#     4   9  18  33  53  76 106 144 185 229 277 330
#     4  10  18  31  54  79 105 143 190 231 272 330
#     4   9  19  35  54  79 111 144 184 229 278 338
#     4   8  15  26  43  68  97 136 181 219 265 325
#     4   9  16  24  42  68 107 138 169 227 276 319
#
# _framework density 22.212778
#
# number of rings (size 3 to 8) (size 9 to 14) (size 15 to 20)
#    0.000    3.000    0.833    1.500    3.500    1.333 
#    0.000    5.000    0.000    3.500    0.000    1.167 
#    0.000    0.000    0.000    0.000    0.000    0.000 
#
# Total GULP energy -134150.508711 kJ/mol
# GULP energy per Si atom -5589.604530 kJ/mol
# Density = 2.216222 g / cm^3
# Si number density = 22.212778 Si / 1000 Ang^3
#
#
#
# Elastic Constant Matrix: (Units=GPa)
#
#
# Indices 1 2 3 4 5 6 
#
# 1 63.2643 17.1029 35.6710 0.0001 2.3532 0.0007
# 2 17.1029 92.0317 56.0465 0.0004 -4.1882 0.0012
# 3 35.6710 56.0465 121.9207 0.0000 5.7193 0.0001
# 4 0.0001 0.0004 0.0000 15.8713 0.0000 4.8837
# 5 2.3532 -4.1882 5.7193 0.0000 32.3979 0.0001
# 6 0.0007 0.0012 0.0001 4.8837 0.0001 8.0403
#
#
#
# Elastic Compliance Matrix: (Units=1/GPa)
#
#
# Indices 1 2 3 4 5 6 
#
# 1 0.018939 -0.000248 -0.005406 0.000000 -0.000453 -0.000002
# 2 -0.000248 0.015430 -0.007175 0.000000 0.003279 -0.000002
# 3 -0.005406 -0.007175 0.013216 0.000000 -0.002868 0.000001
# 4 0.000000 0.000000 0.000000 0.077490 0.000000 -0.047067
# 5 -0.000453 0.003279 -0.002868 0.000000 0.031829 -0.000001
# 6 -0.000002 -0.000002 0.000001 -0.047067 -0.000001 0.152962
#
#
# Mechanical properties :
#
#
# Convention : Reuss Voigt Hill
#
# Bulk Modulus (GPa) = 45.60252 54.98418 50.29335
# Shear Modulus (GPa) = 14.58437 22.48833 18.53635
#
# Velocity S-wave (km/s) = 2.56515 3.18528 2.89189
# Velocity P-wave (km/s) = 5.41736 6.19154 5.81734
#
# Compressibility (1/GPa) = 0.02192861
#
# Stress axis : x y z
#
# Youngs Moduli (GPa) = 52.80235 64.80715 75.66441
#
# Poissons Ratio (x) = 0.01608 0.40901
# Poissons Ratio (y) = 0.01310 0.54286
# Poissons Ratio (z) = 0.28543 0.46496
#
# Static dielectric constant tensor:
#      x y z
#    x 1.875510 0.000000 0.017530 
#    y 0.000000 1.778660 0.000000 
#    z 0.017530 0.000000 1.764610 
# 
# From -- ./inp_files/360287.got.cif
#   From: 2010.05.17/outbox.cif.g08.bks.cpg/sg12_181_cif.got.tgz:360287.got - 2010.06.03 13:09:07.
