data_PCOD9174758
_publ_section_title
;
Structure prediction by ZEFSAII (Michael W. Deem and Ramdas Pophale) SiO2 
 PCOD9174758
Probable space group: C 2/M
;
_chemical_formula_sum "Si O2"
_cell_formula_units_Z 52
_cell_length_a 30.785300
_cell_length_b 18.838923
_cell_length_c 12.094392
_cell_angle_alpha 90.000000
_cell_angle_beta 153.880708
_cell_angle_gamma 90.000000
_cell_volume 3087.980150
_symmetry_space_group_name_H-M "C 2/M"
_symmetry_group_IT_number 12
_symmetry_cell_setting 'monoclinic'
loop_
_space_group_symop_operation_xyz
x,y,z
-x,y,-z
-x,-y,-z
x,-y,z
1/2+x,1/2+y,z
1/2-x,1/2+y,-z
1/2-x,1/2-y,-z
1/2+x,1/2-y,z
loop_
_atom_site_type_symbol
_atom_site_label
_atom_site_fract_x
_atom_site_fract_y
_atom_site_fract_z
Si Si1 0.091067 0.265027 0.945128
Si Si2 0.366094 0.248732 0.359361
Si Si3 0.887175 0.652434 0.785324
Si Si4 0.793621 0.500000 0.308940
Si Si5 0.885340 0.500000 0.278078
Si Si6 0.255804 0.652360 0.752927
Si Si7 0.114322 0.500000 0.234683
Si Si8 0.312960 0.844763 0.035203
O O1 0.140450 0.323405 0.976354
O O2 0.975515 0.254771 0.658099
O O3 0.116108 0.290452 0.125851
O O4 0.142585 0.190439 0.039457
O O5 0.300165 0.196419 0.282039
O O6 0.365394 0.211553 0.238206
O O7 0.303106 0.322047 0.220132
O O8 0.813057 0.660125 0.513265
O O9 0.862891 0.573130 0.774186
O O10 0.000000 0.652500 0.000000
O O11 0.866483 0.500000 0.368976
O O12 0.734373 0.573130 0.178463
O O13 0.842944 0.500000 0.543366
O O14 0.837107 0.425976 0.123547
O O15 0.000000 0.500000 0.500000
O O16 0.000000 0.500000 0.000000
#
# Coordination Sequence:
#
# PCOD9174758 Si02
#       8
#     8   8   8   4   4   8   4   8
#     4  11  21  34  56  79 108 144 184 217 268 327
#     4  10  19  38  53  74 111 141 176 224 269 312
#     4  10  18  32  52  80 111 142 176 222 274 324
#     4  10  20  36  53  74 111 138 175 224 272 316
#     4  12  22  34  57  83 108 143 180 222 275 331
#     4  10  20  35  56  80 105 142 181 225 267 323
#     4   8  18  28  48  77 108 143 160 212 281 318
#     4  10  23  34  53  80 108 142 179 221 267 321
#
# _framework density 16.839486000000001
#
# number of rings (size 3 to 8) (size 9 to 14) (size 15 to 20)
#    0.000    1.846    3.077    1.846    0.000    0.615 
#    0.000    0.769    0.000    0.923    0.000    0.538 
#    0.000    0.000    0.000    0.000    0.000    0.000 
#
# Total GULP energy -144747.374470 kJ/mol
# GULP energy per Si atom -5567.206710 kJ/mol
# Density = 1.680116 g / cm^3
# Si number density = 16.839486 Si / 1000 Ang^3
#
#
#
# Elastic Constant Matrix: (Units=GPa)
#
#
# Indices 1 2 3 4 5 6 
#
# 1 69.5963 40.9748 4.3276 0.0000 -3.9955 0.0000
# 2 40.9748 123.6644 27.3041 0.0000 10.7427 0.0000
# 3 4.3276 27.3041 26.0888 0.0000 -4.3974 0.0000
# 4 0.0000 0.0000 0.0000 22.6567 0.0000 -2.7959
# 5 -3.9955 10.7427 -4.3974 0.0000 15.4525 0.0000
# 6 0.0000 0.0000 0.0000 -2.7959 0.0000 0.7993
#
#
#
# Elastic Compliance Matrix: (Units=1/GPa)
#
#
# Indices 1 2 3 4 5 6 
#
# 1 0.020803 -0.010483 0.010142 0.000000 0.015553 0.000000
# 2 -0.010483 0.017928 -0.020568 0.000000 -0.021027 0.000000
# 3 0.010142 -0.020568 0.064101 0.000000 0.035163 0.000000
# 4 0.000000 0.000000 0.000000 0.077659 0.000000 0.271647
# 5 0.015553 -0.021027 0.035163 0.000000 0.093361 0.000000
# 6 0.000000 0.000000 0.000000 0.271647 0.000000 2.201300
#
#
# Mechanical properties :
#
#
# Convention : Reuss Voigt Hill
#
# Bulk Modulus (GPa) = 16.38974 40.50693 28.44833
# Shear Modulus (GPa) = 1.97059 17.56457 9.76758
#
# Velocity S-wave (km/s) = 1.08294 3.23315 2.41102
# Velocity P-wave (km/s) = 3.36418 6.16803 4.96801
#
# Compressibility (1/GPa) = 0.06101380
#
# Stress axis : x y z
#
# Youngs Moduli (GPa) = 48.07051 55.77927 15.60029
#
# Poissons Ratio (x) = 0.58474 -0.15822
# Poissons Ratio (y) = 0.50393 0.32087
# Poissons Ratio (z) = -0.48755 1.14728
#
# Static dielectric constant tensor:
#      x y z
#    x 1.573550 0.000000 -0.015120 
#    y 0.000000 1.604780 0.000000 
#    z -0.015120 0.000000 1.563560 
# 
# From -- ./inp_files/133121.got.cif
#   From: 2010.05.17/outbox.cif.g08.bks.cpg/sg12_67_cif.got.tgz:133121.got - 2010.06.03 13:09:07.
