data_PCOD9174582
_publ_section_title
;
Structure prediction by ZEFSAII (Michael W. Deem and Ramdas Pophale) SiO2 
 PCOD9174582
Probable space group: C 2/M
;
_chemical_formula_sum "Si O2"
_cell_formula_units_Z 64
_cell_length_a 24.585826
_cell_length_b 16.001171
_cell_length_c 9.162542
_cell_angle_alpha 90.000000
_cell_angle_beta 122.839638
_cell_angle_gamma 90.000000
_cell_volume 3028.523201
_symmetry_space_group_name_H-M "C 2/M"
_symmetry_group_IT_number 12
_symmetry_cell_setting 'monoclinic'
loop_
_space_group_symop_operation_xyz
x,y,z
-x,y,-z
-x,-y,-z
x,-y,z
1/2+x,1/2+y,z
1/2-x,1/2+y,-z
1/2-x,1/2-y,-z
1/2+x,1/2-y,z
loop_
_atom_site_type_symbol
_atom_site_label
_atom_site_fract_x
_atom_site_fract_y
_atom_site_fract_z
Si Si1 0.236256 0.189395 0.272323
Si Si2 0.961050 0.596349 0.791412
Si Si3 0.203392 0.095102 0.949065
Si Si4 0.311644 0.147695 0.902928
Si Si5 0.729012 0.587472 0.538948
Si Si6 0.575478 0.093832 0.724783
Si Si7 0.604748 0.404937 0.568942
Si Si8 0.609543 0.217876 0.512180
O O1 0.184685 0.259759 0.153411
O O2 0.227264 0.161436 0.423744
O O3 0.311489 0.217334 0.362854
O O4 0.217362 0.114933 0.135680
O O5 0.935877 0.500000 0.766453
O O6 0.910618 0.667381 0.664562
O O7 0.011197 0.597317 0.728470
O O8 0.000000 0.613627 0.000000
O O9 0.252087 0.152112 0.929294
O O10 0.132588 0.105690 0.774560
O O11 0.222095 0.000000 0.942937
O O12 0.289800 0.094050 0.733762
O O13 0.369636 0.109976 0.075492
O O14 0.730913 0.500000 0.459792
O O15 0.667168 0.588339 0.554140
O O16 0.585106 0.162735 0.614257
O O17 0.581863 0.000000 0.671456
O O18 0.573883 0.500000 0.515182
O O19 0.579863 0.312269 0.485149
#
# Coordination Sequence:
#
# PCOD9174582 Si02
#       8
#     8   8   8   8   8   8   8   8
#     4  12  22  31  52  88 118 149 198 241 281 345
#     4  10  25  45  62  85 117 153 195 240 289 348
#     4  10  18  32  49  76 116 152 182 224 281 340
#     4  11  20  34  53  78 118 152 187 228 282 346
#     4  10  21  34  48  75 117 158 190 230 283 341
#     4  11  23  39  61  88 117 155 195 236 287 348
#     4   9  20  38  58  82 117 157 193 233 287 348
#     4  12  22  37  62  84 117 152 197 247 291 336
#
# _framework density 21.132411999999999
#
# number of rings (size 3 to 8) (size 9 to 14) (size 15 to 20)
#    0.000    1.375    3.750    4.500    1.750    2.500 
#    0.000    0.000    0.000    1.875    0.000    0.000 
#    0.000    0.000    0.000    0.000    0.000    0.000 
#
# Total GULP energy -178415.612497 kJ/mol
# GULP energy per Si atom -5575.487891 kJ/mol
# Density = 2.108431 g / cm^3
# Si number density = 21.132412 Si / 1000 Ang^3
#
#
#
# Elastic Constant Matrix: (Units=GPa)
#
#
# Indices 1 2 3 4 5 6 
#
# 1 26.1989 9.7491 6.5213 0.0000 -8.8716 0.0000
# 2 9.7491 144.8565 51.9652 0.0000 -2.5172 0.0000
# 3 6.5213 51.9652 103.4031 0.0000 -8.1919 0.0000
# 4 0.0000 0.0000 0.0000 54.1353 0.0000 -5.4054
# 5 -8.8716 -2.5172 -8.1919 0.0000 22.1312 0.0000
# 6 0.0000 0.0000 0.0000 -5.4054 0.0000 12.7299
#
#
#
# Elastic Compliance Matrix: (Units=1/GPa)
#
#
# Indices 1 2 3 4 5 6 
#
# 1 0.045220 -0.002704 -0.000084 0.000000 0.017789 0.000000
# 2 -0.002704 0.008592 -0.004281 0.000000 -0.001692 0.000000
# 3 -0.000084 -0.004281 0.012143 0.000000 0.003974 0.000000
# 4 0.000000 0.000000 0.000000 0.019290 0.000000 0.008191
# 5 0.017789 -0.001692 0.003974 0.000000 0.053595 0.000000
# 6 0.000000 0.000000 0.000000 0.008191 0.000000 0.082033
#
#
# Mechanical properties :
#
#
# Convention : Reuss Voigt Hill
#
# Bulk Modulus (GPa) = 19.29894 45.65884 32.47889
# Shear Modulus (GPa) = 19.81902 31.54747 25.68324
#
# Velocity S-wave (km/s) = 3.06576 3.86793 3.48997
# Velocity P-wave (km/s) = 4.65661 6.44987 5.62516
#
# Compressibility (1/GPa) = 0.05181631
#
# Stress axis : x y z
#
# Youngs Moduli (GPa) = 22.11401 116.38945 82.35496
#
# Poissons Ratio (x) = 0.31475 0.00688
# Poissons Ratio (y) = 0.05980 0.35258
# Poissons Ratio (z) = 0.00185 0.49830
#
# Static dielectric constant tensor:
#      x y z
#    x 1.769970 0.000000 0.017660 
#    y 0.000000 1.827030 0.000000 
#    z 0.017660 0.000000 1.770260 
# 
# From -- ./inp_files/111657.got.cif
#   From: 2010.05.17/outbox.cif.g08.bks.cpg/sg12_56_cif.got.tgz:111657.got - 2010.06.03 13:09:07.
