data_PCOD9174005
_publ_section_title
;
Structure prediction by ZEFSAII (Michael W. Deem and Ramdas Pophale) SiO2 
 PCOD9174005
Probable space group: C 2/M
;
_chemical_formula_sum "Si O2"
_cell_formula_units_Z 48
_cell_length_a 26.578884
_cell_length_b 7.788749
_cell_length_c 12.031813
_cell_angle_alpha 90.000000
_cell_angle_beta 90.739595
_cell_angle_gamma 90.000000
_cell_volume 2490.573371
_symmetry_space_group_name_H-M "C 2/M"
_symmetry_group_IT_number 12
_symmetry_cell_setting 'monoclinic'
loop_
_space_group_symop_operation_xyz
x,y,z
-x,y,-z
-x,-y,-z
x,-y,z
1/2+x,1/2+y,z
1/2-x,1/2+y,-z
1/2-x,1/2-y,-z
1/2+x,1/2-y,z
loop_
_atom_site_type_symbol
_atom_site_label
_atom_site_fract_x
_atom_site_fract_y
_atom_site_fract_z
Si Si1 0.404161 0.802282 0.261304
Si Si2 0.903211 0.696271 0.733420
Si Si3 0.806662 0.704793 0.365220
Si Si4 0.000507 0.290035 0.129820
Si Si5 0.059629 0.196704 0.501821
Si Si6 0.194576 0.201806 0.381673
O O1 0.348554 0.724337 0.280935
O O2 0.449081 0.726667 0.187486
O O3 0.425007 0.794460 0.387165
O O4 0.397983 0.000000 0.224296
O O5 0.896448 0.500000 0.767987
O O6 0.924781 0.709854 0.609638
O O7 0.847585 0.771569 0.713352
O O8 0.947652 0.772757 0.811209
O O9 0.805991 0.500000 0.346296
O O10 0.820474 0.729076 0.496313
O O11 0.749778 0.773451 0.352832
O O12 0.000671 0.500000 0.142216
O O13 0.000000 0.249485 0.000000
O O14 0.000000 0.184339 0.500000
O O15 0.080141 0.000000 0.502624
O O16 0.200764 0.000000 0.398623
#
# Coordination Sequence:
#
# PCOD9174005 Si02
#       6
#     8   8   8   8   8   8
#     4  10  18  31  52  73  97 129 164 203 244 291
#     4  11  20  31  50  73  99 132 167 201 245 299
#     4   9  18  30  46  71 101 134 168 197 238 294
#     4   9  19  34  52  74  96 123 166 215 254 289
#     4  11  21  30  44  72 106 132 157 193 247 305
#     4  10  19  30  45  70 104 136 163 199 243 291
#
# _framework density 19.272670000000002
#
# number of rings (size 3 to 8) (size 9 to 14) (size 15 to 20)
#    0.000    2.000    3.333    1.500    0.000    1.333 
#    0.000    0.000    0.000    5.500    0.000    0.000 
#    0.000    0.000    0.000    0.000    0.000    0.667 
#
# Total GULP energy -133689.432607 kJ/mol
# GULP energy per Si atom -5570.393025 kJ/mol
# Density = 1.922880 g / cm^3
# Si number density = 19.272670 Si / 1000 Ang^3
#
#
#
# Elastic Constant Matrix: (Units=GPa)
#
#
# Indices 1 2 3 4 5 6 
#
# 1 172.5966 -0.2976 64.1207 0.0000 3.7215 0.0000
# 2 -0.2976 30.8731 -9.9665 0.0000 -0.3337 0.0000
# 3 64.1207 -9.9665 88.8522 0.0000 -0.7448 0.0000
# 4 0.0000 0.0000 0.0000 -2.9431 0.0000 2.4469
# 5 3.7215 -0.3337 -0.7448 0.0000 12.8944 0.0000
# 6 0.0000 0.0000 0.0000 2.4469 0.0000 18.5098
#
#
#
# Elastic Compliance Matrix: (Units=1/GPa)
#
#
# Indices 1 2 3 4 5 6 
#
# 1 0.008113 -0.001918 -0.006093 0.000000 -0.002743 0.000000
# 2 -0.001918 0.034077 0.005221 0.000000 0.001737 0.000000
# 3 -0.006093 0.005221 0.016261 0.000000 0.002833 0.000000
# 4 0.000000 0.000000 0.000000 -0.306131 0.000000 0.040470
# 5 -0.002743 0.001737 0.002833 0.000000 0.078554 0.000000
# 6 0.000000 0.000000 0.000000 0.040470 0.000000 0.048676
#
#
# Mechanical properties :
#
#
# Convention : Reuss Voigt Hill
#
# Bulk Modulus (GPa) = 18.91413 44.44836 31.68125
# Shear Modulus (GPa) = -51.41583 21.58988 -14.91297
#
# Velocity S-wave (km/s) = -5.17069 3.35062 -2.78472
# Velocity P-wave (km/s) = 5.08063 6.17105 2.47680
#
# Compressibility (1/GPa) = 0.05287052
#
# Stress axis : x y z
#
# Youngs Moduli (GPa) = 123.25316 29.34569 61.49567
#
# Poissons Ratio (x) = 0.05630 0.37471
# Poissons Ratio (y) = 0.23646 -0.32109
# Poissons Ratio (z) = 0.75101 -0.15322
#
# Static dielectric constant tensor:
#      x y z
#    x 1.780220 0.000000 0.006560 
#    y 0.000000 1.743770 0.000000 
#    z 0.006560 0.000000 1.612260 
# 
# From -- ./inp_files/179187.got.cif
#   From: 2010.05.17/outbox.cif.g08.bks.cpg/sg12_90_cif.got.tgz:179187.got - 2010.06.03 13:09:07.
