data_PCOD9174994
_publ_section_title
;
Structure prediction by ZEFSAII (Michael W. Deem and Ramdas Pophale) SiO2 
 PCOD9174994
Probable space group: C 2/M
;
_chemical_formula_sum "Si O2"
_cell_formula_units_Z 64
_cell_length_a 14.792246
_cell_length_b 7.639364
_cell_length_c 27.494400
_cell_angle_alpha 90.000000
_cell_angle_beta 70.162398
_cell_angle_gamma 90.000000
_cell_volume 2922.586975
_symmetry_space_group_name_H-M "C 2/M"
_symmetry_group_IT_number 12
_symmetry_cell_setting 'monoclinic'
loop_
_space_group_symop_operation_xyz
x,y,z
-x,y,-z
-x,-y,-z
x,-y,z
1/2+x,1/2+y,z
1/2-x,1/2+y,-z
1/2-x,1/2-y,-z
1/2+x,1/2-y,z
loop_
_atom_site_type_symbol
_atom_site_label
_atom_site_fract_x
_atom_site_fract_y
_atom_site_fract_z
Si Si1 0.943621 0.800549 0.580704
Si Si2 0.516969 0.298074 0.321754
Si Si3 0.432736 0.714711 0.056193
Si Si4 0.987673 0.204310 0.855679
Si Si5 0.790507 0.288678 0.762940
Si Si6 0.396124 0.285428 0.258887
Si Si7 0.856366 0.699033 0.498376
Si Si8 0.728863 0.211087 0.122309
O O1 0.950846 0.717887 0.632934
O O2 0.875561 0.713409 0.552787
O O3 0.053657 0.801511 0.541082
O O4 0.908692 0.000000 0.591047
O O5 0.491739 0.500000 0.337790
O O6 0.608188 0.292433 0.269472
O O7 0.431163 0.221429 0.305001
O O8 0.435163 0.500000 0.055494
O O9 0.472147 0.776517 0.101189
O O10 0.321199 0.767298 0.074656
O O11 0.500000 0.773974 0.000000
O O12 0.873400 0.219272 0.875721
O O13 0.033226 0.276030 0.797534
O O14 0.015852 0.000000 0.850490
O O15 0.799916 0.500000 0.760145
O O16 0.709888 0.236819 0.738846
O O17 0.758399 0.240166 0.823216
O O18 0.400710 0.500000 0.259913
O O19 0.872109 0.500000 0.480615
O O20 0.750000 0.750000 0.500000
O O21 0.724191 0.000000 0.121469
#
# Coordination Sequence:
#
# PCOD9174994 Si02
#       8
#     8   8   8   8   8   8   8   8
#     4  10  21  38  58  86 121 154 192 238 284 333
#     4  10  21  36  55  81 114 145 178 226 276 321
#     4   9  18  33  53  76 102 136 178 221 268 328
#     4  10  18  32  55  75  98 136 178 216 265 329
#     4  10  19  32  52  76 103 140 184 223 265 321
#     4   9  17  32  52  74 101 139 181 215 259 322
#     4  11  22  39  64  89 116 154 196 236 284 336
#     4  10  19  32  51  76 103 133 174 225 271 317
#
# _framework density 21.898408
#
# number of rings (size 3 to 8) (size 9 to 14) (size 15 to 20)
#    0.000    2.125    2.500    2.250    0.000    2.500 
#    0.000    3.125    0.000    0.750    0.000    0.000 
#    0.000    0.000    0.000    0.000    0.000    0.000 
#
# Total GULP energy -178631.016781 kJ/mol
# GULP energy per Si atom -5582.219274 kJ/mol
# Density = 2.184857 g / cm^3
# Si number density = 21.898408 Si / 1000 Ang^3
#
#
#
# Elastic Constant Matrix: (Units=GPa)
#
#
# Indices 1 2 3 4 5 6 
#
# 1 82.1031 -6.0705 -13.2612 0.0000 23.2884 0.0000
# 2 -6.0705 47.2236 -0.4145 0.0000 3.4730 0.0001
# 3 -13.2612 -0.4145 43.7828 0.0000 14.9976 0.0000
# 4 0.0000 0.0000 0.0000 7.2818 0.0000 -3.8336
# 5 23.2884 3.4730 14.9976 0.0000 21.9261 0.0000
# 6 0.0000 0.0001 0.0000 -3.8336 0.0000 -4.0479
#
#
#
# Elastic Compliance Matrix: (Units=1/GPa)
#
#
# Indices 1 2 3 4 5 6 
#
# 1 0.034781 0.009128 0.031044 0.000000 -0.059622 0.000000
# 2 0.009128 0.023928 0.009940 0.000000 -0.020284 0.000000
# 3 0.031044 0.009940 0.057688 0.000000 -0.074006 0.000000
# 4 0.000000 0.000000 0.000000 0.091638 0.000000 -0.086787
# 5 -0.059622 -0.020284 -0.074006 0.000000 0.162769 0.000000
# 6 0.000000 0.000000 0.000000 -0.086787 0.000000 -0.164847
#
#
# Mechanical properties :
#
#
# Convention : Reuss Voigt Hill
#
# Bulk Modulus (GPa) = 4.61635 14.84635 9.73135
# Shear Modulus (GPa) = 28.09953 17.88904 22.99428
#
# Velocity S-wave (km/s) = 3.58603 2.86127 3.24395
# Velocity P-wave (km/s) = 4.38849 4.20834 4.29936
#
# Compressibility (1/GPa) = 0.21662157
#
# Stress axis : x y z
#
# Youngs Moduli (GPa) = 28.75153 41.79152 17.33474
#
# Poissons Ratio (x) = -0.38149 -0.53815
# Poissons Ratio (y) = -0.26245 -0.17230
# Poissons Ratio (z) = -0.89257 -0.41540
#
# Static dielectric constant tensor:
#      x y z
#    x 1.781370 0.000000 0.018630 
#    y 0.000000 1.833840 0.000000 
#    z 0.018630 0.000000 1.815080 
# 
# From -- ./inp_files/359807.got.cif
#   From: 2010.05.17/outbox.cif.g08.bks.cpg/sg12_180_cif.got.tgz:359807.got - 2010.06.03 13:09:07.
