data_PCOD9174912
_publ_section_title
;
Structure prediction by ZEFSAII (Michael W. Deem and Ramdas Pophale) SiO2 
 PCOD9174912
Probable space group: C 2/M
;
_chemical_formula_sum "Si O2"
_cell_formula_units_Z 48
_cell_length_a 20.443322
_cell_length_b 7.875251
_cell_length_c 15.566957
_cell_angle_alpha 90.000000
_cell_angle_beta 65.328230
_cell_angle_gamma 90.000000
_cell_volume 2277.439224
_symmetry_space_group_name_H-M "C 2/M"
_symmetry_group_IT_number 12
_symmetry_cell_setting 'monoclinic'
loop_
_space_group_symop_operation_xyz
x,y,z
-x,y,-z
-x,-y,-z
x,-y,z
1/2+x,1/2+y,z
1/2-x,1/2+y,-z
1/2-x,1/2-y,-z
1/2+x,1/2-y,z
loop_
_atom_site_type_symbol
_atom_site_label
_atom_site_fract_x
_atom_site_fract_y
_atom_site_fract_z
Si Si1 0.927714 0.798219 0.400105
Si Si2 0.416360 0.200606 0.749832
Si Si3 0.352930 0.205845 0.608836
Si Si4 0.192967 0.206739 0.664998
Si Si5 0.912243 0.197839 0.127926
Si Si6 0.926181 0.302804 0.932953
O O1 0.912676 0.759296 0.507440
O O2 0.858263 0.735827 0.384359
O O3 0.000375 0.720371 0.322882
O O4 0.933526 0.000000 0.384986
O O5 0.370852 0.269085 0.694681
O O6 0.404955 0.271294 0.851856
O O7 0.400985 0.000000 0.764536
O O8 0.274786 0.267488 0.620340
O O9 0.352471 0.000000 0.611350
O O10 0.152065 0.254220 0.775345
O O11 0.195845 0.000000 0.660041
O O12 0.986776 0.291343 0.108394
O O13 0.926259 0.000000 0.139007
O O14 0.897323 0.216648 0.035088
O O15 0.905719 0.500000 0.948527
#
# Coordination Sequence:
#
# PCOD9174912 Si02
#       6
#     8   8   8   8   8   8
#     4  11  21  35  55  80 106 135 176 223 263 302
#     4  10  21  36  55  77 105 142 177 211 258 312
#     4  10  21  38  55  74 105 143 179 212 255 315
#     4   9  19  35  55  78 105 138 175 214 259 310
#     4  10  18  32  54  79 103 134 171 211 260 309
#     4  10  19  32  51  79 106 132 170 216 258 301
#
# _framework density 21.076301999999998
#
# number of rings (size 3 to 8) (size 9 to 14) (size 15 to 20)
#    0.000    2.000    1.667    3.500    0.000    3.333 
#    0.000    3.333    0.000    0.000    0.000    0.000 
#    0.000    0.000    0.000    0.000    0.000    0.000 
#
# Total GULP energy -134031.104810 kJ/mol
# GULP energy per Si atom -5584.629367 kJ/mol
# Density = 2.102833 g / cm^3
# Si number density = 21.076302 Si / 1000 Ang^3
#
#
#
# Elastic Constant Matrix: (Units=GPa)
#
#
# Indices 1 2 3 4 5 6 
#
# 1 45.8969 -6.8836 -11.4943 0.0000 11.7194 0.0000
# 2 -6.8836 26.3116 -6.2875 0.0000 1.5747 0.0000
# 3 -11.4943 -6.2875 82.3581 0.0000 12.7706 0.0000
# 4 0.0000 0.0000 0.0000 15.9054 0.0000 0.6242
# 5 11.7194 1.5747 12.7706 0.0000 29.9702 0.0000
# 6 0.0000 0.0000 0.0000 0.6242 0.0000 11.0358
#
#
#
# Elastic Compliance Matrix: (Units=1/GPa)
#
#
# Indices 1 2 3 4 5 6 
#
# 1 0.028884 0.010145 0.007109 0.000000 -0.014857 0.000000
# 2 0.010145 0.042627 0.006031 0.000000 -0.008776 0.000000
# 3 0.007109 0.006031 0.015071 0.000000 -0.009519 0.000000
# 4 0.000000 0.000000 0.000000 0.063011 0.000000 -0.003564
# 5 -0.014857 -0.008776 -0.009519 0.000000 0.043693 0.000000
# 6 0.000000 0.000000 0.000000 -0.003564 0.000000 0.090816
#
#
# Mechanical properties :
#
#
# Convention : Reuss Voigt Hill
#
# Bulk Modulus (GPa) = 7.51030 11.69285 9.60157
# Shear Modulus (GPa) = 17.73583 23.33108 20.53346
#
# Velocity S-wave (km/s) = 2.90402 3.33074 3.12467
# Velocity P-wave (km/s) = 3.84910 4.51129 4.19328
#
# Compressibility (1/GPa) = 0.13315048
#
# Stress axis : x y z
#
# Youngs Moduli (GPa) = 34.62183 23.45958 66.35379
#
# Poissons Ratio (x) = -0.23799 -0.47173
# Poissons Ratio (y) = -0.35122 -0.40018
# Poissons Ratio (z) = -0.24614 -0.14148
#
# Static dielectric constant tensor:
#      x y z
#    x 1.752990 0.000000 0.040180 
#    y 0.000000 1.757210 0.000000 
#    z 0.040180 0.000000 1.759650 
# 
# From -- ./inp_files/229895.got.cif
#   From: 2010.05.17/outbox.cif.g08.bks.cpg/sg12_115_cif.got.tgz:229895.got - 2010.06.03 13:09:07.
