data_PCOD9174371
_publ_section_title
;
Structure prediction by ZEFSAII (Michael W. Deem and Ramdas Pophale) SiO2 
 PCOD9174371
Probable space group: C 2/M
;
_chemical_formula_sum "Si O2"
_cell_formula_units_Z 40
_cell_length_a 8.967676
_cell_length_b 26.778529
_cell_length_c 9.845322
_cell_angle_alpha 90.000000
_cell_angle_beta 46.899097
_cell_angle_gamma 90.000000
_cell_volume 1726.273234
_symmetry_space_group_name_H-M "C 2/M"
_symmetry_group_IT_number 12
_symmetry_cell_setting 'monoclinic'
loop_
_space_group_symop_operation_xyz
x,y,z
-x,y,-z
-x,-y,-z
x,-y,z
1/2+x,1/2+y,z
1/2-x,1/2+y,-z
1/2-x,1/2-y,-z
1/2+x,1/2-y,z
loop_
_atom_site_type_symbol
_atom_site_label
_atom_site_fract_x
_atom_site_fract_y
_atom_site_fract_z
Si Si1 0.583486 0.098117 0.298638
Si Si2 0.273241 0.000000 0.195599
Si Si3 0.766700 0.112155 0.686657
Si Si4 0.404610 0.705810 0.713540
Si Si5 0.767632 0.695215 0.705939
Si Si6 0.291848 0.500000 0.052562
O O1 0.500000 0.083150 0.500000
O O2 0.398993 0.122115 0.326150
O O3 0.752793 0.141143 0.212088
O O4 0.666913 0.049566 0.169760
O O5 0.252930 0.946641 0.274984
O O6 0.500000 0.000000 0.000000
O O7 0.137549 0.000000 0.146874
O O8 0.763555 0.155805 0.802710
O O9 0.000000 0.115192 0.500000
O O10 0.500000 0.709140 0.500000
O O11 0.592290 0.703058 0.702203
O O12 0.278220 0.757364 0.799851
O O13 0.000000 0.691114 0.500000
O O14 0.500000 0.500000 0.000000
#
# Coordination Sequence:
#
# PCOD9174371 Si02
#       6
#     8   4   8   8   8   4
#     4  11  22  40  61  92 122 156 201 249 294 352
#     4  12  25  46  60  86 119 162 202 246 304 352
#     4  11  22  38  65  90 121 157 201 248 294 354
#     4  10  18  31  54  87 118 155 191 243 298 347
#     4  10  18  31  54  85 122 151 194 243 295 350
#     4  12  29  42  64  84 121 162 200 249 302 356
#
# _framework density 23.171303000000002
#
# number of rings (size 3 to 8) (size 9 to 14) (size 15 to 20)
#    0.000    1.200    2.000    9.000    5.600    0.000 
#    0.000    0.000    0.000    2.400    0.000    0.000 
#    0.000    0.000    0.000    0.000    0.000    0.000 
#
# Total GULP energy -111575.435594 kJ/mol
# GULP energy per Si atom -5578.771780 kJ/mol
# Density = 2.311856 g / cm^3
# Si number density = 23.171303 Si / 1000 Ang^3
#
#
#
# Elastic Constant Matrix: (Units=GPa)
#
#
# Indices 1 2 3 4 5 6 
#
# 1 223.7280 39.4850 7.3258 0.0000 -6.9625 0.0000
# 2 39.4850 196.5592 8.1451 0.0000 5.7667 0.0000
# 3 7.3258 8.1451 17.3123 0.0000 -10.4022 0.0000
# 4 0.0000 0.0000 0.0000 -109.7939 0.0000 -31.2224
# 5 -6.9625 5.7667 -10.4022 0.0000 24.3854 0.0000
# 6 0.0000 0.0000 0.0000 -31.2224 0.0000 20.1382
#
#
#
# Elastic Compliance Matrix: (Units=1/GPa)
#
#
# Indices 1 2 3 4 5 6 
#
# 1 0.004701 -0.000947 -0.000811 0.000000 0.001220 0.000000
# 2 -0.000947 0.005554 -0.004254 0.000000 -0.003398 0.000000
# 3 -0.000811 -0.004254 0.081448 0.000000 0.035518 0.000000
# 4 0.000000 0.000000 0.000000 -0.006321 0.000000 -0.009800
# 5 0.001220 -0.003398 0.035518 0.000000 0.057311 0.000000
# 6 0.000000 0.000000 0.000000 -0.009800 0.000000 0.034462
#
#
# Mechanical properties :
#
#
# Convention : Reuss Voigt Hill
#
# Bulk Modulus (GPa) = 12.55018 60.83457 36.69237
# Shear Modulus (GPa) = 23.17609 12.45554 17.81582
#
# Velocity S-wave (km/s) = 3.16604 2.32101 2.77587
# Velocity P-wave (km/s) = 4.33510 5.78740 5.11308
#
# Compressibility (1/GPa) = 0.07968015
#
# Stress axis : x y z
#
# Youngs Moduli (GPa) = 212.70706 180.06107 12.27770
#
# Poissons Ratio (x) = 0.17045 0.00995
# Poissons Ratio (y) = 0.20135 0.05223
# Poissons Ratio (z) = 0.17246 0.76603
#
# Static dielectric constant tensor:
#      x y z
#    x 1.527180 0.000000 -0.070590 
#    y 0.000000 3.365470 0.000000 
#    z -0.070590 0.000000 1.876330 
# 
# From -- ./inp_files/123429.got.cif
#   From: 2010.05.17/outbox.cif.g08.bks.cpg/sg12_62_cif.got.tgz:123429.got - 2010.06.03 13:09:07.
