data_PCOD9174830
_publ_section_title
;
Structure prediction by ZEFSAII (Michael W. Deem and Ramdas Pophale) SiO2 
 PCOD9174830
Probable space group: C 2/M
;
_chemical_formula_sum "Si O2"
_cell_formula_units_Z 64
_cell_length_a 16.405555
_cell_length_b 8.671793
_cell_length_c 19.317409
_cell_angle_alpha 90.000000
_cell_angle_beta 90.104816
_cell_angle_gamma 90.000000
_cell_volume 2748.197739
_symmetry_space_group_name_H-M "C 2/M"
_symmetry_group_IT_number 12
_symmetry_cell_setting 'monoclinic'
loop_
_space_group_symop_operation_xyz
x,y,z
-x,y,-z
-x,-y,-z
x,-y,z
1/2+x,1/2+y,z
1/2-x,1/2+y,-z
1/2-x,1/2-y,-z
1/2+x,1/2-y,z
loop_
_atom_site_type_symbol
_atom_site_label
_atom_site_fract_x
_atom_site_fract_y
_atom_site_fract_z
Si Si1 0.261586 0.818481 0.160880
Si Si2 0.410872 0.318820 0.593461
Si Si3 0.670858 0.184251 0.040692
Si Si4 0.583576 0.319175 0.918236
Si Si5 0.325113 0.179202 0.718418
Si Si6 0.673342 0.315173 0.540875
Si Si7 0.996635 0.320270 0.797956
Si Si8 0.916967 0.183474 0.329520
O O1 0.994162 0.500000 0.185718
O O2 0.338023 0.727768 0.128824
O O3 0.241126 0.775595 0.239497
O O4 0.184173 0.762652 0.114780
O O5 0.391516 0.500000 0.601417
O O6 0.347123 0.226433 0.640744
O O7 0.400050 0.280825 0.513060
O O8 0.500436 0.297756 0.624785
O O9 0.596774 0.232575 0.990946
O O10 0.674195 0.000000 0.047569
O O11 0.750000 0.250000 0.000000
O O12 0.583615 0.500000 0.931794
O O13 0.509373 0.271145 0.868924
O O14 0.410834 0.202488 0.759358
O O15 0.302643 0.000000 0.721933
O O16 0.680509 0.500000 0.546312
O O17 0.750000 0.250000 0.500000
O O18 0.653213 0.260295 0.618305
O O19 0.225289 0.500000 0.848250
O O20 0.064171 0.269828 0.741484
O O21 0.907016 0.000000 0.315230
#
# Coordination Sequence:
#
# PCOD9174830 Si02
#       8
#     8   8   8   8   8   8   8   8
#     4  11  21  35  56  81 109 142 182 224 268 319
#     4   9  18  35  57  77 100 137 182 220 258 312
#     4  10  18  32  53  78 109 142 179 221 267 319
#     4  11  21  35  56  81 109 142 182 224 268 319
#     4  10  21  37  56  80 110 142 178 222 271 321
#     4  10  21  35  53  79 109 138 170 216 268 316
#     4  10  21  37  56  80 110 142 178 222 271 321
#     4   9  18  35  57  77 100 137 182 220 258 312
#
# _framework density 23.287989
#
# number of rings (size 3 to 8) (size 9 to 14) (size 15 to 20)
#    0.000    2.000    0.000    6.000    0.000    5.000 
#    0.000    3.125    0.000    7.500    0.000    0.000 
#    0.000    0.000    0.000    0.000    0.000    0.000 
#
# Total GULP energy -178972.347796 kJ/mol
# GULP energy per Si atom -5592.885869 kJ/mol
# Density = 2.323498 g / cm^3
# Si number density = 23.287989 Si / 1000 Ang^3
#
#
#
# Elastic Constant Matrix: (Units=GPa)
#
#
# Indices 1 2 3 4 5 6 
#
# 1 60.2966 8.0379 5.5569 0.0000 -1.1889 0.0000
# 2 8.0379 48.3541 6.6259 0.0000 3.2155 0.0000
# 3 5.5569 6.6259 104.4330 0.0000 -5.4000 0.0000
# 4 0.0000 0.0000 0.0000 28.8197 0.0000 2.2427
# 5 -1.1889 3.2155 -5.4000 0.0000 42.0482 0.0000
# 6 0.0000 0.0000 0.0000 2.2427 0.0000 15.0193
#
#
#
# Elastic Compliance Matrix: (Units=1/GPa)
#
#
# Indices 1 2 3 4 5 6 
#
# 1 0.017031 -0.002775 -0.000699 0.000000 0.000604 0.000000
# 2 -0.002775 0.021447 -0.001311 0.000000 -0.001887 0.000000
# 3 -0.000699 -0.001311 0.009765 0.000000 0.001334 0.000000
# 4 0.000000 0.000000 0.000000 0.035106 0.000000 -0.005242
# 5 0.000604 -0.001887 0.001334 0.000000 0.024115 0.000000
# 6 0.000000 0.000000 0.000000 -0.005242 0.000000 0.067364
#
#
# Mechanical properties :
#
#
# Convention : Reuss Voigt Hill
#
# Bulk Modulus (GPa) = 25.85779 28.16947 27.01363
# Shear Modulus (GPa) = 25.34353 30.03498 27.68925
#
# Velocity S-wave (km/s) = 3.30247 3.59516 3.45192
# Velocity P-wave (km/s) = 5.06649 5.41812 5.24525
#
# Compressibility (1/GPa) = 0.03867307
#
# Stress axis : x y z
#
# Youngs Moduli (GPa) = 58.71652 46.62618 102.40801
#
# Poissons Ratio (x) = 0.12941 0.07157
# Poissons Ratio (y) = 0.16296 0.13422
# Poissons Ratio (z) = 0.04104 0.06111
#
# Static dielectric constant tensor:
#      x y z
#    x 1.915190 0.000000 0.139090 
#    y 0.000000 1.788430 0.000000 
#    z 0.139090 0.000000 1.744060 
# 
# From -- ./inp_files/314174.got.cif
#   From: 2010.05.17/outbox.cif.g08.bks.cpg/sg12_158_cif.got.tgz:314174.got - 2010.06.03 13:09:07.
