data_PCOD9174532
_publ_section_title
;
Structure prediction by ZEFSAII (Michael W. Deem and Ramdas Pophale) SiO2 
 PCOD9174532
Probable space group: C 2/M
;
_chemical_formula_sum "Si O2"
_cell_formula_units_Z 50
_cell_length_a 24.021069
_cell_length_b 14.453255
_cell_length_c 9.889585
_cell_angle_alpha 90.000000
_cell_angle_beta 138.148406
_cell_angle_gamma 90.000000
_cell_volume 2290.837969
_symmetry_space_group_name_H-M "C 2/M"
_symmetry_group_IT_number 12
_symmetry_cell_setting 'monoclinic'
loop_
_space_group_symop_operation_xyz
x,y,z
-x,y,-z
-x,-y,-z
x,-y,z
1/2+x,1/2+y,z
1/2-x,1/2+y,-z
1/2-x,1/2-y,-z
1/2+x,1/2-y,z
loop_
_atom_site_type_symbol
_atom_site_label
_atom_site_fract_x
_atom_site_fract_y
_atom_site_fract_z
Si Si1 0.611246 0.396950 0.682468
Si Si2 0.679831 0.781102 0.175302
Si Si3 0.575110 0.398244 0.925390
Si Si4 0.811671 0.393070 0.078673
Si Si5 0.000000 0.000000 0.000000
Si Si6 0.135720 0.722674 0.565259
Si Si7 0.411329 0.893064 0.765149
O O1 0.596210 0.500000 0.600314
O O2 0.569537 0.390399 0.754447
O O3 0.593069 0.312900 0.550738
O O4 0.710681 0.389573 0.893333
O O5 0.777173 0.755320 0.344039
O O6 0.655078 0.844757 0.255868
O O7 0.627233 0.686730 0.076148
O O8 0.659668 0.837411 0.001413
O O9 0.619108 0.500000 0.033196
O O10 0.494784 0.418801 0.871475
O O11 0.837339 0.500000 0.119849
O O12 0.842096 0.342927 0.268235
O O13 0.084157 0.665984 0.363060
O O14 0.388973 0.000000 0.697427
O O15 0.500000 0.890940 0.000000
#
# Coordination Sequence:
#
# PCOD9174532 Si02
#       7
#     8   8   8   8   2   8   8
#     4   9  16  31  59  97 135 159 202 269 336 387
#     4  11  20  38  64  96 127 168 219 270 337 392
#     4   9  17  31  54  93 130 169 210 246 311 399
#     4  10  18  31  60  99 131 161 208 276 337 389
#     4   8  20  28  52  92 140 184 208 226 314 416
#     4  11  20  38  64 100 124 167 227 277 333 391
#     4  11  27  46  62  85 132 183 223 277 336 396
#
# _framework density 21.826073000000001
#
# number of rings (size 3 to 8) (size 9 to 14) (size 15 to 20)
#    0.480    1.440    3.200    2.400    1.120    1.280 
#    0.000    1.600    0.000    4.320    0.000    3.360 
#    0.000    0.000    0.000    0.000    0.000    0.000 
#
# Total GULP energy -139453.697610 kJ/mol
# GULP energy per Si atom -5578.147904 kJ/mol
# Density = 2.177640 g / cm^3
# Si number density = 21.826073 Si / 1000 Ang^3
#
#
#
# Elastic Constant Matrix: (Units=GPa)
#
#
# Indices 1 2 3 4 5 6 
#
# 1 -351.0182 -211.4247 -61.6544 0.0000 -3.2380 0.0000
# 2 -211.4247 22.4309 8.7655 0.0000 -4.9543 0.0000
# 3 -61.6544 8.7655 59.5113 0.0000 -25.8555 0.0000
# 4 0.0000 0.0000 0.0000 37.6555 0.0000 -14.5522
# 5 -3.2380 -4.9543 -25.8555 0.0000 32.2464 0.0000
# 6 0.0000 0.0000 0.0000 -14.5522 0.0000 31.2379
#
#
#
# Elastic Compliance Matrix: (Units=1/GPa)
#
#
# Indices 1 2 3 4 5 6 
#
# 1 -0.000411 -0.003980 -0.000189 0.000000 -0.000805 0.000000
# 2 -0.003980 0.008931 -0.007697 0.000000 -0.005199 0.000000
# 3 -0.000189 -0.007697 0.026424 0.000000 0.019985 0.000000
# 4 0.000000 0.000000 0.000000 0.032387 0.000000 0.015088
# 5 -0.000805 -0.005199 0.019985 0.000000 0.046156 0.000000
# 6 0.000000 0.000000 0.000000 0.015088 0.000000 0.039041
#
#
# Mechanical properties :
#
#
# Convention : Reuss Voigt Hill
#
# Bulk Modulus (GPa) = 89.19255 -88.63369 0.27943
# Shear Modulus (GPa) = 27.77812 19.91047 23.84430
#
# Velocity S-wave (km/s) = 3.57137 3.02360 3.30884
# Velocity P-wave (km/s) = 7.61315 5.33926 3.83747
#
# Compressibility (1/GPa) = 0.01121170
#
# Stress axis : x y z
#
# Youngs Moduli (GPa) = -2431.87166 111.96602 37.84452
#
# Poissons Ratio (x) = 0.44557 0.00717
# Poissons Ratio (y) = -9.67775 0.29130
# Poissons Ratio (z) = -0.46066 0.86182
#
# Static dielectric constant tensor:
#      x y z
#    x 1.924490 0.000000 0.016570 
#    y 0.000000 1.784680 0.000000 
#    z 0.016570 0.000000 1.807150 
# 
# From -- ./inp_files/104778.got.cif
#   From: 2010.05.17/outbox.cif.g08.bks.cpg/sg12_53_cif.got.tgz:104778.got - 2010.06.03 13:09:07.
