data_PCOD9174554
_publ_section_title
;
Structure prediction by ZEFSAII (Michael W. Deem and Ramdas Pophale) SiO2 
 PCOD9174554
Probable space group: C 2/M
;
_chemical_formula_sum "Si O2"
_cell_formula_units_Z 36
_cell_length_a 22.662215
_cell_length_b 10.491038
_cell_length_c 22.432190
_cell_angle_alpha 90.000000
_cell_angle_beta 162.389998
_cell_angle_gamma 90.000000
_cell_volume 1613.503666
_symmetry_space_group_name_H-M "C 2/M"
_symmetry_group_IT_number 12
_symmetry_cell_setting 'monoclinic'
loop_
_space_group_symop_operation_xyz
x,y,z
-x,y,-z
-x,-y,-z
x,-y,z
1/2+x,1/2+y,z
1/2-x,1/2+y,-z
1/2-x,1/2-y,-z
1/2+x,1/2-y,z
loop_
_atom_site_type_symbol
_atom_site_label
_atom_site_fract_x
_atom_site_fract_y
_atom_site_fract_z
Si Si1 0.629370 0.500000 0.215427
Si Si2 0.028392 0.500000 0.845846
Si Si3 0.715672 0.000000 0.770431
Si Si4 0.579791 0.784852 0.474644
Si Si5 0.024184 0.262742 0.765447
Si Si6 0.683173 0.500000 0.584095
Si Si7 0.001600 0.000000 0.723591
O O1 0.698037 0.500000 0.212426
O O2 0.726050 0.371176 0.333986
O O3 0.395408 0.500000 0.990028
O O4 0.919414 0.500000 0.804377
O O5 0.955469 0.377279 0.739586
O O6 0.264784 0.500000 0.068489
O O7 0.584650 0.126116 0.653247
O O8 0.512210 0.777612 0.340087
O O9 0.612214 0.643092 0.534666
O O10 0.943876 0.124601 0.703618
O O11 0.250000 0.250000 0.000000
O O12 0.600819 0.500000 0.437959
#
# Coordination Sequence:
#
# PCOD9174554 Si02
#       7
#     4   4   4   8   8   4   4
#     4  10  22  41  68  92 109 147 200 256 316 362
#     4  10  18  32  48  71 113 155 201 240 264 327
#     4  10  22  43  66  88 115 145 198 265 311 359
#     4  10  20  38  60  87 121 156 196 243 301 362
#     4   9  18  33  52  78 115 159 198 235 280 332
#     4  10  22  34  52  84 118 156 189 228 292 354
#     4   8  18  32  45  67 106 151 192 235 279 318
#
# _framework density 22.311693999999999
#
# number of rings (size 3 to 8) (size 9 to 14) (size 15 to 20)
#    0.000    2.444    0.000    2.667    0.000    8.889 
#    0.000   13.333    0.000    2.667    0.000    0.000 
#    0.000    0.000    0.000    0.000    0.000    0.000 
#
# Total GULP energy -100351.230918 kJ/mol
# GULP energy per Si atom -5575.068384 kJ/mol
# Density = 2.226091 g / cm^3
# Si number density = 22.311694 Si / 1000 Ang^3
#
#
#
# Elastic Constant Matrix: (Units=GPa)
#
#
# Indices 1 2 3 4 5 6 
#
# 1 58.7491 20.0417 14.9433 0.0004 8.1453 -0.0001
# 2 20.0417 201.6066 29.3435 -0.0133 10.1827 -0.0029
# 3 14.9433 29.3435 136.2700 -0.0092 7.8629 -0.0016
# 4 0.0004 -0.0133 -0.0092 8.1082 -0.0026 -21.2427
# 5 8.1453 10.1827 7.8629 -0.0026 33.7892 -0.0007
# 6 -0.0001 -0.0029 -0.0016 -21.2427 -0.0007 2.7565
#
#
#
# Elastic Compliance Matrix: (Units=1/GPa)
#
#
# Indices 1 2 3 4 5 6 
#
# 1 0.018396 -0.001426 -0.001499 0.000001 -0.003656 0.000003
# 2 -0.001426 0.005288 -0.000923 -0.000001 -0.001035 -0.000003
# 3 -0.001499 -0.000923 0.007769 -0.000001 -0.001168 -0.000003
# 4 0.000001 -0.000001 -0.000001 -0.006427 -0.000001 -0.049528
# 5 -0.003656 -0.001035 -0.001168 -0.000001 0.031060 -0.000003
# 6 0.000003 -0.000003 -0.000003 -0.049528 -0.000003 -0.018904
#
#
# Mechanical properties :
#
#
# Convention : Reuss Voigt Hill
#
# Bulk Modulus (GPa) = 42.09143 58.36474 50.22809
# Shear Modulus (GPa) = 94.70098 31.08393 62.89245
#
# Velocity S-wave (km/s) = 6.52202 3.73657 5.31501
# Velocity P-wave (km/s) = 8.69608 6.69563 7.76058
#
# Compressibility (1/GPa) = 0.02375780
#
# Stress axis : x y z
#
# Youngs Moduli (GPa) = 54.35897 189.08991 128.71852
#
# Poissons Ratio (x) = 0.26962 0.19299
# Poissons Ratio (y) = 0.07751 0.11877
# Poissons Ratio (z) = 0.08150 0.17447
#
# Static dielectric constant tensor:
#      x y z
#    x 1.853080 -0.000020 0.093290 
#    y -0.000020 1.888580 -0.000030 
#    z 0.093290 -0.000030 1.982280 
# 
# From -- ./inp_files/321666.got.cif
#   From: 2010.05.17/outbox.cif.g08.bks.cpg/sg12_161_cif.got.tgz:321666.got - 2010.06.03 13:09:07.
