data_PCOD9174991
_publ_section_title
;
Structure prediction by ZEFSAII (Michael W. Deem and Ramdas Pophale) SiO2 
 PCOD9174991
Probable space group: C 2/M
;
_chemical_formula_sum "Si O2"
_cell_formula_units_Z 58
_cell_length_a 15.059209
_cell_length_b 7.338805
_cell_length_c 23.731963
_cell_angle_alpha 90.000000
_cell_angle_beta 99.485854
_cell_angle_gamma 90.000000
_cell_volume 2586.912827
_symmetry_space_group_name_H-M "C 2/M"
_symmetry_group_IT_number 12
_symmetry_cell_setting 'monoclinic'
loop_
_space_group_symop_operation_xyz
x,y,z
-x,y,-z
-x,-y,-z
x,-y,z
1/2+x,1/2+y,z
1/2-x,1/2+y,-z
1/2-x,1/2-y,-z
1/2+x,1/2-y,z
loop_
_atom_site_type_symbol
_atom_site_label
_atom_site_fract_x
_atom_site_fract_y
_atom_site_fract_z
Si Si1 0.851168 0.282498 0.987140
Si Si2 0.827119 0.290120 0.858039
Si Si3 0.354301 0.219952 0.217460
Si Si4 0.000000 0.000000 0.000000
Si Si5 0.491352 0.222957 0.563282
Si Si6 0.649122 0.780381 0.361728
Si Si7 0.345020 0.788875 0.343392
Si Si8 0.440702 0.777829 0.764754
O O1 0.868310 0.500000 0.993005
O O2 0.848755 0.214951 0.921473
O O3 0.750000 0.250000 0.000000
O O4 0.931898 0.160765 0.019497
O O5 0.855286 0.500000 0.864072
O O6 0.721616 0.283635 0.833173
O O7 0.878498 0.211625 0.809285
O O8 0.333051 0.285584 0.279017
O O9 0.456156 0.275177 0.215609
O O10 0.350075 0.000000 0.215655
O O11 0.500000 0.283963 0.500000
O O12 0.401628 0.278268 0.587175
O O13 0.574510 0.286354 0.610593
O O14 0.492979 0.000000 0.562174
O O15 0.751627 0.722101 0.366284
O O16 0.595936 0.718621 0.300047
O O17 0.647962 0.000000 0.360931
O O18 0.369496 0.000000 0.336765
O O19 0.437638 0.000000 0.763097
#
# Coordination Sequence:
#
# PCOD9174991 Si02
#       8
#     8   8   8   2   8   8   8   8
#     4  11  25  48  75 107 146 193 245 297 355 423
#     4  10  22  39  61  94 130 157 206 268 316 385
#     4  10  19  32  56  84 114 157 197 240 311 379
#     4  12  26  48  84 108 144 196 242 300 364 420
#     4   9  18  33  53  75 102 143 195 240 283 356
#     4  10  18  32  55  75 104 147 188 232 295 364
#     4  10  19  32  51  79 109 144 190 241 296 362
#     4   9  17  33  54  81 116 153 193 242 304 374
#
# _framework density 22.420545000000001
#
# number of rings (size 3 to 8) (size 9 to 14) (size 15 to 20)
#    0.000    2.069    3.448    0.207    0.966    1.655 
#    0.000    3.448    0.000    0.828    0.000    0.000 
#    0.000    0.000    0.000    0.000    0.000    0.000 
#
# Total GULP energy -161756.626494 kJ/mol
# GULP energy per Si atom -5577.814707 kJ/mol
# Density = 2.236952 g / cm^3
# Si number density = 22.420545 Si / 1000 Ang^3
#
#
#
# Elastic Constant Matrix: (Units=GPa)
#
#
# Indices 1 2 3 4 5 6 
#
# 1 84.6142 2.7685 -19.7789 0.0000 -8.5798 0.0000
# 2 2.7685 114.8087 1.7251 0.0000 -7.4564 0.0000
# 3 -19.7789 1.7251 48.5355 0.0000 -8.3581 0.0000
# 4 0.0000 0.0000 0.0000 1.1897 0.0000 -1.1578
# 5 -8.5798 -7.4564 -8.3581 0.0000 27.3529 0.0000
# 6 0.0000 0.0000 0.0000 -1.1578 0.0000 25.5729
#
#
#
# Elastic Compliance Matrix: (Units=1/GPa)
#
#
# Indices 1 2 3 4 5 6 
#
# 1 0.014083 -0.000020 0.006860 0.000000 0.006508 0.000000
# 2 -0.000020 0.008868 0.000097 0.000000 0.002441 0.000000
# 3 0.006860 0.000097 0.025091 0.000000 0.009845 0.000000
# 4 0.000000 0.000000 0.000000 0.879298 0.000000 0.039809
# 5 0.006508 0.002441 0.009845 0.000000 0.042274 0.000000
# 6 0.000000 0.000000 0.000000 0.039809 0.000000 0.040906
#
#
# Mechanical properties :
#
#
# Convention : Reuss Voigt Hill
#
# Bulk Modulus (GPa) = 16.15097 24.15420 20.15258
# Shear Modulus (GPa) = 4.91505 28.37269 16.64387
#
# Velocity S-wave (km/s) = 1.48222 3.56121 2.72756
# Velocity P-wave (km/s) = 3.18568 5.26368 4.35057
#
# Compressibility (1/GPa) = 0.06191580
#
# Stress axis : x y z
#
# Youngs Moduli (GPa) = 71.00997 112.76907 39.85479
#
# Poissons Ratio (x) = 0.00225 -0.27341
# Poissons Ratio (y) = 0.00142 -0.00386
# Poissons Ratio (z) = -0.48715 -0.01093
#
# Static dielectric constant tensor:
#      x y z
#    x 1.796960 0.000000 0.002850 
#    y 0.000000 1.909990 0.000000 
#    z 0.002850 0.000000 1.841850 
# 
# From -- ./inp_files/338072.got.cif
#   From: 2010.05.17/outbox.cif.g08.bks.cpg/sg12_170_cif.got.tgz:338072.got - 2010.06.03 13:09:07.
