data_PCOD9174029
_publ_section_title
;
Structure prediction by ZEFSAII (Michael W. Deem and Ramdas Pophale) SiO2 
 PCOD9174029
Probable space group: C 2/M
;
_chemical_formula_sum "Si O2"
_cell_formula_units_Z 40
_cell_length_a 12.019977
_cell_length_b 14.172784
_cell_length_c 11.634218
_cell_angle_alpha 90.000000
_cell_angle_beta 117.464801
_cell_angle_gamma 90.000000
_cell_volume 1758.586404
_symmetry_space_group_name_H-M "C 2/M"
_symmetry_group_IT_number 12
_symmetry_cell_setting 'monoclinic'
loop_
_space_group_symop_operation_xyz
x,y,z
-x,y,-z
-x,-y,-z
x,-y,z
1/2+x,1/2+y,z
1/2-x,1/2+y,-z
1/2-x,1/2-y,-z
1/2+x,1/2-y,z
loop_
_atom_site_type_symbol
_atom_site_label
_atom_site_fract_x
_atom_site_fract_y
_atom_site_fract_z
Si Si1 0.415342 0.607242 0.302640
Si Si2 0.871872 0.103213 0.009076
Si Si3 0.211410 0.709250 0.766466
Si Si4 0.302458 0.614136 0.578709
Si Si5 0.037438 0.392207 0.382399
O O1 0.392232 0.500000 0.332289
O O2 0.313074 0.684469 0.285526
O O3 0.558557 0.635628 0.400966
O O4 0.405208 0.607952 0.158785
O O5 0.790680 0.186890 0.917201
O O6 0.809162 0.000000 0.958724
O O7 0.000000 0.103087 0.000000
O O8 0.278744 0.653808 0.694948
O O9 0.071744 0.669107 0.724197
O O10 0.297008 0.500000 0.584207
O O11 0.179846 0.644054 0.448413
O O12 0.033552 0.500000 0.338164
O O13 0.000000 0.394133 0.500000
#
# Coordination Sequence:
#
# PCOD9174029 Si02
#       5
#     8   8   8   8   8
#     4  10  21  33  48  73 101 130 161 198 240 286
#     4  10  18  31  52  75  97 122 159 205 245 283
#     4  11  18  29  52  75  98 126 163 199 242 286
#     4   9  17  33  53  75 100 125 159 203 245 282
#     4   8  15  27  48  76 100 121 155 204 246 278
#
# _framework density 22.745543000000001
#
# number of rings (size 3 to 8) (size 9 to 14) (size 15 to 20)
#    0.000    2.400    2.000    3.600    0.000    0.800 
#    0.000    0.000    0.000    9.600    0.000    0.000 
#    0.000    0.000    0.000    0.000    0.000    0.000 
#
# Total GULP energy -111784.063440 kJ/mol
# GULP energy per Si atom -5589.203172 kJ/mol
# Density = 2.269377 g / cm^3
# Si number density = 22.745543 Si / 1000 Ang^3
#
#
#
# Elastic Constant Matrix: (Units=GPa)
#
#
# Indices 1 2 3 4 5 6 
#
# 1 74.3145 36.8573 31.0081 0.0000 1.4868 0.0000
# 2 36.8573 76.1294 30.8899 0.0000 20.4860 0.0000
# 3 31.0081 30.8899 71.6935 0.0000 19.6220 0.0000
# 4 0.0000 0.0000 0.0000 26.4411 0.0000 12.5916
# 5 1.4868 20.4860 19.6220 0.0000 33.0582 0.0000
# 6 0.0000 0.0000 0.0000 12.5916 0.0000 26.7169
#
#
#
# Elastic Compliance Matrix: (Units=1/GPa)
#
#
# Indices 1 2 3 4 5 6 
#
# 1 0.021320 -0.009825 -0.007632 0.000000 0.009659 0.000000
# 2 -0.009825 0.021891 -0.001899 0.000000 -0.011996 0.000000
# 3 -0.007632 -0.001899 0.021075 0.000000 -0.010989 0.000000
# 4 0.000000 0.000000 0.000000 0.048765 0.000000 -0.022983
# 5 0.009659 -0.011996 -0.010989 0.000000 0.043772 0.000000
# 6 0.000000 0.000000 0.000000 -0.022983 0.000000 0.048261
#
#
# Mechanical properties :
#
#
# Convention : Reuss Voigt Hill
#
# Bulk Modulus (GPa) = 39.10134 46.62758 42.86446
# Shear Modulus (GPa) = 19.81609 25.46871 22.64240
#
# Velocity S-wave (km/s) = 2.95482 3.34986 3.15852
# Velocity P-wave (km/s) = 5.37303 5.95871 5.67343
#
# Compressibility (1/GPa) = 0.02557457
#
# Stress axis : x y z
#
# Youngs Moduli (GPa) = 46.90407 45.68120 47.44939
#
# Poissons Ratio (x) = 0.44880 0.36213
# Poissons Ratio (y) = 0.46081 0.09012
# Poissons Ratio (z) = 0.35796 0.08676
#
# Static dielectric constant tensor:
#      x y z
#    x 1.829850 0.000000 0.002810 
#    y 0.000000 1.921400 0.000000 
#    z 0.002810 0.000000 1.837740 
# 
# From -- ./inp_files/129567.got.cif
#   From: 2010.05.17/outbox.cif.g08.bks.cpg/sg12_65_cif.got.tgz:129567.got - 2010.06.03 13:09:07.
