data_PCOD9174772
_publ_section_title
;
Structure prediction by ZEFSAII (Michael W. Deem and Ramdas Pophale) SiO2 
 PCOD9174772
Probable space group: C 2/M
;
_chemical_formula_sum "Si O2"
_cell_formula_units_Z 64
_cell_length_a 16.121406
_cell_length_b 17.272449
_cell_length_c 13.954879
_cell_angle_alpha 90.000000
_cell_angle_beta 121.864492
_cell_angle_gamma 90.000000
_cell_volume 3300.224847
_symmetry_space_group_name_H-M "C 2/M"
_symmetry_group_IT_number 12
_symmetry_cell_setting 'monoclinic'
loop_
_space_group_symop_operation_xyz
x,y,z
-x,y,-z
-x,-y,-z
x,-y,z
1/2+x,1/2+y,z
1/2-x,1/2+y,-z
1/2-x,1/2-y,-z
1/2+x,1/2-y,z
loop_
_atom_site_type_symbol
_atom_site_label
_atom_site_fract_x
_atom_site_fract_y
_atom_site_fract_z
Si Si1 0.532837 0.179076 0.794136
Si Si2 0.129499 0.759648 0.181774
Si Si3 0.389896 0.344172 0.236702
Si Si4 0.305871 0.813960 0.970860
Si Si5 0.226618 0.915826 0.487129
Si Si6 0.438567 0.414759 0.775274
Si Si7 0.833440 0.215092 0.400671
Si Si8 0.934264 0.367550 0.545323
O O1 0.438065 0.201664 0.798303
O O2 0.576992 0.259654 0.781189
O O3 0.498793 0.133839 0.680332
O O4 0.616487 0.144255 0.913274
O O5 0.136314 0.731178 0.077244
O O6 0.081704 0.844040 0.165271
O O7 0.239443 0.755648 0.292465
O O8 0.280232 0.361255 0.133194
O O9 0.466229 0.400354 0.232389
O O10 0.387724 0.333187 0.349927
O O11 0.250000 0.750000 0.000000
O O12 0.150394 0.911328 0.354060
O O13 0.205988 0.844621 0.544751
O O14 0.334154 0.909515 0.509054
O O15 0.214629 0.000000 0.527826
O O16 0.442194 0.500000 0.822020
O O17 0.899445 0.280845 0.490794
O O18 0.000000 0.399402 0.500000
#
# Coordination Sequence:
#
# PCOD9174772 Si02
#       8
#     8   8   8   8   8   8   8   8
#     4  10  18  32  52  86 112 143 186 241 291 330
#     4  10  18  33  59  83 113 152 192 244 287 337
#     4   9  19  33  54  84 112 146 188 237 293 330
#     4   9  19  32  53  83 115 138 187 252 287 329
#     4  11  24  37  52  82 123 160 190 230 288 356
#     4  10  21  36  56  84 123 157 190 230 288 358
#     4  11  19  34  57  86 113 148 196 240 287 335
#     4  12  22  35  61  86 117 150 194 242 287 347
#
# _framework density 19.392617999999999
#
# number of rings (size 3 to 8) (size 9 to 14) (size 15 to 20)
#    0.000    1.750    3.750    2.250    0.000    0.750 
#    0.000    1.250    0.000   14.250    0.000    3.500 
#    0.000    0.000    0.000    0.000    0.000    0.000 
#
# Total GULP energy -178562.971179 kJ/mol
# GULP energy per Si atom -5580.092849 kJ/mol
# Density = 1.934848 g / cm^3
# Si number density = 19.392618 Si / 1000 Ang^3
#
#
#
# Elastic Constant Matrix: (Units=GPa)
#
#
# Indices 1 2 3 4 5 6 
#
# 1 102.0537 8.3000 35.9574 0.0000 -9.9285 0.0000
# 2 8.3000 38.3831 12.5849 0.0000 0.8621 0.0000
# 3 35.9574 12.5849 102.3784 0.0000 6.0416 0.0000
# 4 0.0000 0.0000 0.0000 1.5799 0.0000 -3.4372
# 5 -9.9285 0.8621 6.0416 0.0000 34.5538 0.0000
# 6 0.0000 0.0000 0.0000 -3.4372 0.0000 10.5380
#
#
#
# Elastic Compliance Matrix: (Units=1/GPa)
#
#
# Indices 1 2 3 4 5 6 
#
# 1 0.011798 -0.001256 -0.004235 0.000000 0.004162 0.000000
# 2 -0.001256 0.027281 -0.002881 0.000000 -0.000538 0.000000
# 3 -0.004235 -0.002881 0.011798 0.000000 -0.003208 0.000000
# 4 0.000000 0.000000 0.000000 2.179848 0.000000 0.711018
# 5 0.004162 -0.000538 -0.003208 0.000000 0.030710 0.000000
# 6 0.000000 0.000000 0.000000 0.711018 0.000000 0.326813
#
#
# Mechanical properties :
#
#
# Convention : Reuss Voigt Hill
#
# Bulk Modulus (GPa) = 29.29596 39.61111 34.45353
# Shear Modulus (GPa) = 1.91104 21.73252 11.82178
#
# Velocity S-wave (km/s) = 0.99377 3.35126 2.47169
# Velocity P-wave (km/s) = 4.05664 5.95355 5.09417
#
# Compressibility (1/GPa) = 0.03413440
#
# Stress axis : x y z
#
# Youngs Moduli (GPa) = 84.76079 36.65506 84.75683
#
# Poissons Ratio (x) = 0.04605 0.35893
# Poissons Ratio (y) = 0.10647 0.24415
# Poissons Ratio (z) = 0.35895 0.10559
#
# Static dielectric constant tensor:
#      x y z
#    x 1.694730 0.000000 0.025330 
#    y 0.000000 1.650050 0.000000 
#    z 0.025330 0.000000 1.704780 
# 
# From -- ./inp_files/216390.got.cif
#   From: 2010.05.17/outbox.cif.g08.bks.cpg/sg12_109_cif.got.tgz:216390.got - 2010.06.03 13:09:07.
