data_PCOD9174440
_publ_section_title
;
Structure prediction by ZEFSAII (Michael W. Deem and Ramdas Pophale) SiO2 
 PCOD9174440
Probable space group: C 2/M
;
_chemical_formula_sum "Si O2"
_cell_formula_units_Z 40
_cell_length_a 8.413165
_cell_length_b 24.611066
_cell_length_c 11.204175
_cell_angle_alpha 90.000000
_cell_angle_beta 133.438394
_cell_angle_gamma 90.000000
_cell_volume 1684.513822
_symmetry_space_group_name_H-M "C 2/M"
_symmetry_group_IT_number 12
_symmetry_cell_setting 'monoclinic'
loop_
_space_group_symop_operation_xyz
x,y,z
-x,y,-z
-x,-y,-z
x,-y,z
1/2+x,1/2+y,z
1/2-x,1/2+y,-z
1/2-x,1/2-y,-z
1/2+x,1/2-y,z
loop_
_atom_site_type_symbol
_atom_site_label
_atom_site_fract_x
_atom_site_fract_y
_atom_site_fract_z
Si Si1 0.182110 0.910654 0.843546
Si Si2 0.311518 0.372529 0.797591
Si Si3 0.238132 0.712197 0.137308
Si Si4 0.517202 0.939457 0.214274
Si Si5 0.686810 0.743431 0.332115
O O1 0.249088 0.847925 0.902616
O O2 0.266352 0.923713 0.752988
O O3 0.930654 0.910849 0.758608
O O4 0.330548 0.942273 0.014593
O O5 0.094497 0.398438 0.746863
O O6 0.266132 0.315302 0.704996
O O7 0.500000 0.366601 0.000000
O O8 0.426132 0.750281 0.188547
O O9 0.287439 0.710023 0.303508
O O10 0.000000 0.735331 0.000000
O O11 0.548135 0.000000 0.280867
O O12 0.750000 0.750000 0.500000
#
# Coordination Sequence:
#
# PCOD9174440 Si02
#       5
#     8   8   8   8   8
#     4   9  18  32  51  84 120 155 200 255 310 365
#     4   9  20  35  55  85 122 167 208 258 309 376
#     4  11  21  37  60  84 119 168 208 253 314 374
#     4  10  18  31  55  86 122 157 201 266 321 356
#     4  11  24  38  56  88 126 168 210 259 314 374
#
# _framework density 23.745723000000002
#
# number of rings (size 3 to 8) (size 9 to 14) (size 15 to 20)
#    0.000    2.000    2.000    3.000    2.800    4.400 
#    0.000    0.000    0.000    0.000    0.000    4.200 
#    0.000   24.000    0.000    0.000    0.000    0.000 
#
# Total GULP energy -111401.975456 kJ/mol
# GULP energy per Si atom -5570.098773 kJ/mol
# Density = 2.369168 g / cm^3
# Si number density = 23.745723 Si / 1000 Ang^3
#
#
#
# Elastic Constant Matrix: (Units=GPa)
#
#
# Indices 1 2 3 4 5 6 
#
# 1 190.6146 43.5312 40.3631 0.0000 -22.4640 0.0000
# 2 43.5312 85.3160 13.0759 0.0000 -15.8678 0.0000
# 3 40.3631 13.0759 51.0850 0.0000 -10.1527 0.0000
# 4 0.0000 0.0000 0.0000 2.3606 0.0000 -5.6300
# 5 -22.4640 -15.8678 -10.1527 0.0000 36.2544 0.0000
# 6 0.0000 0.0000 0.0000 -5.6300 0.0000 25.5950
#
#
#
# Elastic Compliance Matrix: (Units=1/GPa)
#
#
# Indices 1 2 3 4 5 6 
#
# 1 0.007007 -0.002518 -0.004498 0.000000 0.001980 0.000000
# 2 -0.002518 0.013921 -0.000713 0.000000 0.004333 0.000000
# 3 -0.004498 -0.000713 0.024034 0.000000 0.003631 0.000000
# 4 0.000000 0.000000 0.000000 0.891092 0.000000 0.196010
# 5 0.001980 0.004333 0.003631 0.000000 0.031723 0.000000
# 6 0.000000 0.000000 0.000000 0.196010 0.000000 0.082186
#
#
# Mechanical properties :
#
#
# Convention : Reuss Voigt Hill
#
# Bulk Modulus (GPa) = 33.89394 57.88399 45.88896
# Shear Modulus (GPa) = 4.65006 28.17836 16.41421
#
# Velocity S-wave (km/s) = 1.40090 3.44855 2.63201
# Velocity P-wave (km/s) = 4.11356 6.34714 5.34825
#
# Compressibility (1/GPa) = 0.02950380
#
# Stress axis : x y z
#
# Youngs Moduli (GPa) = 142.71381 71.83469 41.60842
#
# Poissons Ratio (x) = 0.18084 0.18717
# Poissons Ratio (y) = 0.35928 0.02966
# Poissons Ratio (z) = 0.64199 0.05121
#
# Static dielectric constant tensor:
#      x y z
#    x 2.091540 0.000000 -0.028760 
#    y 0.000000 1.874200 0.000000 
#    z -0.028760 0.000000 1.973120 
# 
# From -- ./inp_files/123953.got.cif
#   From: 2010.05.17/outbox.cif.g08.bks.cpg/sg12_62_cif.got.tgz:123953.got - 2010.06.03 13:09:07.
