data_PCOD9174856
_publ_section_title
;
Structure prediction by ZEFSAII (Michael W. Deem and Ramdas Pophale) SiO2 
 PCOD9174856
Probable space group: C 2/M
;
_chemical_formula_sum "Si O2"
_cell_formula_units_Z 32
_cell_length_a 14.965683
_cell_length_b 11.144667
_cell_length_c 15.691592
_cell_angle_alpha 90.000000
_cell_angle_beta 153.155791
_cell_angle_gamma 90.000000
_cell_volume 1181.821795
_symmetry_space_group_name_H-M "C 2/M"
_symmetry_group_IT_number 12
_symmetry_cell_setting 'monoclinic'
loop_
_space_group_symop_operation_xyz
x,y,z
-x,y,-z
-x,-y,-z
x,-y,z
1/2+x,1/2+y,z
1/2-x,1/2+y,-z
1/2-x,1/2-y,-z
1/2+x,1/2-y,z
loop_
_atom_site_type_symbol
_atom_site_label
_atom_site_fract_x
_atom_site_fract_y
_atom_site_fract_z
Si Si1 0.626486 0.754151 0.307177
Si Si2 0.615707 0.000000 0.347344
Si Si3 0.891733 0.000000 0.732092
Si Si4 0.265164 0.758260 0.792317
Si Si5 0.444385 0.500000 0.354415
Si Si6 0.321971 0.000000 0.282444
O O1 0.750000 0.750000 0.500000
O O2 0.513595 0.627865 0.208064
O O3 0.759519 0.756304 0.333200
O O4 0.520367 0.881344 0.226748
O O5 0.674383 0.000000 0.497667
O O6 0.845045 0.000000 0.511694
O O7 0.863267 0.000000 0.808785
O O8 0.172901 0.875867 0.756311
O O9 0.190873 0.632389 0.768602
O O10 0.500000 0.766086 0.000000
O O11 0.500000 0.500000 0.500000
O O12 0.500000 0.000000 0.500000
#
# Coordination Sequence:
#
# PCOD9174856 Si02
#       6
#     8   4   4   8   4   4
#     4   9  17  32  54  79 103 147 189 222 269 341
#     4  10  18  32  53  83 107 143 192 237 265 324
#     4   8  18  31  53  82 105 136 184 240 272 317
#     4  11  22  36  55  88 118 146 183 243 298 327
#     4  12  21  34  57  86 115 149 198 236 269 347
#     4  10  21  37  62  85 109 148 198 236 270 346
#
# _framework density 27.076840000000001
#
# number of rings (size 3 to 8) (size 9 to 14) (size 15 to 20)
#    0.000    2.000    2.500    1.500    3.500    0.000 
#    0.000    0.000    0.000   13.500   45.500    0.000 
#    0.000    0.000    0.000    0.000    0.000    0.000 
#
# Total GULP energy -89402.517624 kJ/mol
# GULP energy per Si atom -5587.657351 kJ/mol
# Density = 2.701521 g / cm^3
# Si number density = 27.076840 Si / 1000 Ang^3
#
#
#
# Elastic Constant Matrix: (Units=GPa)
#
#
# Indices 1 2 3 4 5 6 
#
# 1 136.8824 26.1487 12.8105 0.0012 -7.1552 0.0005
# 2 26.1487 346.0846 40.7641 0.0015 12.9576 0.0014
# 3 12.8105 40.7641 84.4412 0.0026 9.1835 0.0027
# 4 0.0012 0.0015 0.0026 11.0413 0.0015 6.7980
# 5 -7.1552 12.9576 9.1835 0.0015 32.8419 0.0012
# 6 0.0005 0.0014 0.0027 6.7980 0.0012 16.1622
#
#
#
# Elastic Compliance Matrix: (Units=1/GPa)
#
#
# Indices 1 2 3 4 5 6 
#
# 1 0.007627 -0.000524 -0.001142 -0.000001 0.002188 0.000000
# 2 -0.000524 0.003121 -0.001321 0.000000 -0.000976 0.000000
# 3 -0.001142 -0.001321 0.013020 -0.000002 -0.003368 -0.000001
# 4 -0.000001 0.000000 -0.000002 0.122220 -0.000003 -0.051407
# 5 0.002188 -0.000976 -0.003368 -0.000003 0.032253 0.000000
# 6 0.000000 0.000000 -0.000001 -0.051407 0.000000 0.083495
#
#
# Mechanical properties :
#
#
# Convention : Reuss Voigt Hill
#
# Bulk Modulus (GPa) = 56.19869 80.76164 68.48017
# Shear Modulus (GPa) = 18.27214 44.52140 31.39677
#
# Velocity S-wave (km/s) = 2.60056 4.05935 3.40890
# Velocity P-wave (km/s) = 5.46054 7.20157 6.39063
#
# Compressibility (1/GPa) = 0.01779401
#
# Stress axis : x y z
#
# Youngs Moduli (GPa) = 131.11630 320.39065 76.80509
#
# Poissons Ratio (x) = 0.16776 0.08773
# Poissons Ratio (y) = 0.06866 0.10147
# Poissons Ratio (z) = 0.14976 0.42329
#
# Static dielectric constant tensor:
#      x y z
#    x 2.391750 0.000000 -0.008960 
#    y 0.000000 2.207810 0.000000 
#    z -0.008960 0.000000 2.067300 
# 
# From -- ./inp_files/321415.got.cif
#   From: 2010.05.17/outbox.cif.g08.bks.cpg/sg12_161_cif.got.tgz:321415.got - 2010.06.03 13:09:07.
