data_PCOD9174101
_publ_section_title
;
Structure prediction by ZEFSAII (Michael W. Deem and Ramdas Pophale) SiO2 
 PCOD9174101
Probable space group: C 2/M
;
_chemical_formula_sum "Si O2"
_cell_formula_units_Z 44
_cell_length_a 12.677014
_cell_length_b 24.227887
_cell_length_c 10.399892
_cell_angle_alpha 90.000000
_cell_angle_beta 128.326563
_cell_angle_gamma 90.000000
_cell_volume 2505.810178
_symmetry_space_group_name_H-M "C 2/M"
_symmetry_group_IT_number 12
_symmetry_cell_setting 'monoclinic'
loop_
_space_group_symop_operation_xyz
x,y,z
-x,y,-z
-x,-y,-z
x,-y,z
1/2+x,1/2+y,z
1/2-x,1/2+y,-z
1/2-x,1/2-y,-z
1/2+x,1/2-y,z
loop_
_atom_site_type_symbol
_atom_site_label
_atom_site_fract_x
_atom_site_fract_y
_atom_site_fract_z
Si Si1 0.272006 0.387937 0.057002
Si Si2 0.759974 0.772515 0.153181
Si Si3 0.143991 0.000000 0.537687
Si Si4 0.091692 0.112379 0.366521
Si Si5 0.000000 0.195529 0.500000
Si Si6 0.846011 0.500000 0.927350
Si Si7 0.154814 0.161847 0.152521
O O1 0.222543 0.336950 0.109397
O O2 0.431850 0.394561 0.211391
O O3 0.195792 0.444606 0.027192
O O4 0.264465 0.367008 0.903279
O O5 0.677886 0.727653 0.171537
O O6 0.907942 0.771897 0.329296
O O7 0.750000 0.750000 0.000000
O O8 0.148334 0.054594 0.455954
O O9 0.000000 0.000000 0.500000
O O10 0.255808 0.000000 0.731010
O O11 0.170673 0.135363 0.303680
O O12 0.093600 0.155926 0.484480
O O13 0.000000 0.500000 0.000000
O O14 0.000000 0.153083 0.000000
#
# Coordination Sequence:
#
# PCOD9174101 Si02
#       7
#     8   8   4   8   4   4   8
#     4   9  18  36  56  77 109 144 178 231 278 324
#     4   9  18  34  53  76 109 148 182 221 278 326
#     4  12  18  35  59  79 105 144 181 231 277 322
#     4  10  18  32  57  84 103 135 192 236 272 316
#     4  10  18  31  52  78 110 147 184 230 272 326
#     4  12  24  37  55  83 109 141 184 224 277 344
#     4   9  19  33  54  83 110 139 185 233 273 325
#
# _framework density 17.559193
#
# number of rings (size 3 to 8) (size 9 to 14) (size 15 to 20)
#    0.000    2.182    2.727    2.182    0.000    2.182 
#    0.000    6.364    0.000    1.091    0.000    0.000 
#    0.000    0.000    0.000    0.000    0.000    0.000 
#
# Total GULP energy -122526.889663 kJ/mol
# GULP energy per Si atom -5569.404076 kJ/mol
# Density = 1.751923 g / cm^3
# Si number density = 17.559193 Si / 1000 Ang^3
#
#
#
# Elastic Constant Matrix: (Units=GPa)
#
#
# Indices 1 2 3 4 5 6 
#
# 1 80.8693 60.1119 30.4902 0.0000 -18.8000 0.0000
# 2 60.1119 129.4705 33.9093 0.0000 -19.6263 0.0000
# 3 30.4902 33.9093 82.7488 0.0000 -18.6079 0.0000
# 4 0.0000 0.0000 0.0000 17.9947 0.0000 -13.5985
# 5 -18.8000 -19.6263 -18.6079 0.0000 24.9502 0.0000
# 6 0.0000 0.0000 0.0000 -13.5985 0.0000 32.8195
#
#
#
# Elastic Compliance Matrix: (Units=1/GPa)
#
#
# Indices 1 2 3 4 5 6 
#
# 1 0.021050 -0.007889 -0.002826 0.000000 0.007548 0.000000
# 2 -0.007889 0.012161 -0.001517 0.000000 0.002491 0.000000
# 3 -0.002826 -0.001517 0.015620 0.000000 0.008327 0.000000
# 4 0.000000 0.000000 0.000000 0.080905 0.000000 0.033522
# 5 0.007548 0.002491 0.008327 0.000000 0.053937 0.000000
# 6 0.000000 0.000000 0.000000 0.033522 0.000000 0.044359
#
#
# Mechanical properties :
#
#
# Convention : Reuss Voigt Hill
#
# Bulk Modulus (GPa) = 41.03741 60.23462 50.63601
# Shear Modulus (GPa) = 19.18517 26.39135 22.78826
#
# Velocity S-wave (km/s) = 3.30904 3.88105 3.60640
# Velocity P-wave (km/s) = 6.16614 7.37981 6.80011
#
# Compressibility (1/GPa) = 0.02436801
#
# Stress axis : x y z
#
# Youngs Moduli (GPa) = 47.50633 82.22794 64.02005
#
# Poissons Ratio (x) = 0.64869 0.18093
# Poissons Ratio (y) = 0.37477 0.09709
# Poissons Ratio (z) = 0.13426 0.12471
#
# Static dielectric constant tensor:
#      x y z
#    x 1.579570 0.000000 -0.028220 
#    y 0.000000 1.627150 0.000000 
#    z -0.028220 0.000000 1.611320 
# 
# From -- ./inp_files/147819.got.cif
#   From: 2010.05.17/outbox.cif.g08.bks.cpg/sg12_74_cif.got.tgz:147819.got - 2010.06.03 13:09:07.
