data_PCOD9174232
_publ_section_title
;
Structure prediction by ZEFSAII (Michael W. Deem and Ramdas Pophale) SiO2 
 PCOD9174232
Probable space group: C 2/M
;
_chemical_formula_sum "Si O2"
_cell_formula_units_Z 56
_cell_length_a 11.194647
_cell_length_b 14.059363
_cell_length_c 20.228706
_cell_angle_alpha 90.000000
_cell_angle_beta 129.719429
_cell_angle_gamma 90.000000
_cell_volume 2448.915351
_symmetry_space_group_name_H-M "C 2/M"
_symmetry_group_IT_number 12
_symmetry_cell_setting 'monoclinic'
loop_
_space_group_symop_operation_xyz
x,y,z
-x,y,-z
-x,-y,-z
x,-y,z
1/2+x,1/2+y,z
1/2-x,1/2+y,-z
1/2-x,1/2-y,-z
1/2+x,1/2-y,z
loop_
_atom_site_type_symbol
_atom_site_label
_atom_site_fract_x
_atom_site_fract_y
_atom_site_fract_z
Si Si1 0.444730 0.145979 0.050918
Si Si2 0.641734 0.888697 0.646180
Si Si3 0.175912 0.387706 0.500347
Si Si4 0.382979 0.364410 0.016188
Si Si5 0.977366 0.110564 0.790033
Si Si6 0.988942 0.883840 0.421314
Si Si7 0.270487 0.383979 0.228075
O O1 0.385719 0.250449 0.009796
O O2 0.598568 0.150837 0.149941
O O3 0.500000 0.101675 0.000000
O O4 0.297610 0.105116 0.039752
O O5 0.654195 0.885147 0.571207
O O6 0.468252 0.848146 0.593418
O O7 0.803621 0.847537 0.729215
O O8 0.637016 0.000000 0.666028
O O9 0.179321 0.500000 0.484116
O O10 0.347416 0.351585 0.549785
O O11 0.455676 0.386930 0.113083
O O12 0.500000 0.399078 0.000000
O O13 0.105106 0.149444 0.783815
O O14 0.957665 0.000000 0.761712
O O15 0.844133 0.856489 0.324597
O O16 0.000000 0.849575 0.500000
O O17 0.984777 0.000000 0.420452
O O18 0.262189 0.500000 0.222075
#
# Coordination Sequence:
#
# PCOD9174232 Si02
#       7
#     8   8   8   8   8   8   8
#     4  10  20  38  60  79 102 140 187 220 263 330
#     4   8  13  22  40  66  94 125 163 203 244 297
#     4   8  12  21  38  61  94 131 162 197 242 298
#     4  10  22  38  55  77 107 140 179 220 268 329
#     4  10  18  31  53  80 108 136 173 223 273 317
#     4   9  16  27  43  69 107 141 170 211 261 311
#     4  10  19  32  55  85 108 135 182 227 267 318
#
# _framework density 22.867266999999998
#
# number of rings (size 3 to 8) (size 9 to 14) (size 15 to 20)
#    0.000    2.714    2.857    0.857    0.000    1.143 
#    2.571    0.000    0.000    0.000    3.714    2.000 
#    0.000    0.000    0.000    0.000    0.000    0.000 
#
# Total GULP energy -156063.430018 kJ/mol
# GULP energy per Si atom -5573.693929 kJ/mol
# Density = 2.281522 g / cm^3
# Si number density = 22.867267 Si / 1000 Ang^3
#
#
#
# Elastic Constant Matrix: (Units=GPa)
#
#
# Indices 1 2 3 4 5 6 
#
# 1 112.4860 21.3817 80.3550 0.0000 18.2347 0.0000
# 2 21.3817 70.5122 -8.1998 0.0000 9.8834 0.0000
# 3 80.3550 -8.1998 190.3545 0.0000 35.8068 0.0000
# 4 0.0000 0.0000 0.0000 1424.0356 0.0000-2395.7301
# 5 18.2347 9.8834 35.8068 0.0000 44.4732 0.0000
# 6 0.0000 0.0000 0.0000-2395.7301 0.0000 4091.8612
#
#
#
# Elastic Compliance Matrix: (Units=1/GPa)
#
#
# Indices 1 2 3 4 5 6 
#
# 1 0.014338 -0.005137 -0.006344 0.000000 0.000370 0.000000
# 2 -0.005137 0.016833 0.003773 0.000000 -0.004672 0.000000
# 3 -0.006344 0.003773 0.009148 0.000000 -0.005602 0.000000
# 4 0.000000 0.000000 0.000000 0.046800 0.000000 0.027401
# 5 0.000370 -0.004672 -0.005602 0.000000 0.027883 0.000000
# 6 0.000000 0.000000 0.000000 0.027401 0.000000 0.016287
#
#
# Mechanical properties :
#
#
# Convention : Reuss Voigt Hill
#
# Bulk Modulus (GPa) = 40.15689 62.26962 51.21325
# Shear Modulus (GPa) = 32.25692 1130.72838 581.49265
#
# Velocity S-wave (km/s) = 3.75989 22.26091 15.96379
# Velocity P-wave (km/s) = 6.03722 26.23015 19.03246
#
# Compressibility (1/GPa) = 0.02490233
#
# Stress axis : x y z
#
# Youngs Moduli (GPa) = 69.74456 59.40594 109.31921
#
# Poissons Ratio (x) = 0.30519 0.69347
# Poissons Ratio (y) = 0.35830 -0.41242
# Poissons Ratio (z) = 0.44243 -0.22411
#
# Static dielectric constant tensor:
#      x y z
#    x 1.863260 0.000000 0.047450 
#    y 0.000000 1.964820 0.000000 
#    z 0.047450 0.000000 1.819340 
# 
# From -- ./inp_files/306651.got.cif
#   From: 2010.05.17/outbox.cif.g08.bks.cpg/sg12_154_cif.got.tgz:306651.got - 2010.06.03 13:09:07.
