data_PCOD9174989
_publ_section_title
;
Structure prediction by ZEFSAII (Michael W. Deem and Ramdas Pophale) SiO2 
 PCOD9174989
Probable space group: C 2/M
;
_chemical_formula_sum "Si O2"
_cell_formula_units_Z 64
_cell_length_a 23.084787
_cell_length_b 23.349390
_cell_length_c 9.396657
_cell_angle_alpha 90.000000
_cell_angle_beta 138.516660
_cell_angle_gamma 90.000000
_cell_volume 3355.031337
_symmetry_space_group_name_H-M "C 2/M"
_symmetry_group_IT_number 12
_symmetry_cell_setting 'monoclinic'
loop_
_space_group_symop_operation_xyz
x,y,z
-x,y,-z
-x,-y,-z
x,-y,z
1/2+x,1/2+y,z
1/2-x,1/2+y,-z
1/2-x,1/2-y,-z
1/2+x,1/2-y,z
loop_
_atom_site_type_symbol
_atom_site_label
_atom_site_fract_x
_atom_site_fract_y
_atom_site_fract_z
Si Si1 0.277858 0.313591 0.503141
Si Si2 0.141654 0.795479 0.937323
Si Si3 0.409634 0.393180 0.381290
Si Si4 0.470617 0.820097 0.610618
Si Si5 0.786270 0.368667 0.339632
Si Si6 0.043138 0.194176 0.300823
Si Si7 0.731038 0.936904 0.960992
Si Si8 0.842146 0.332297 0.994393
O O1 0.250000 0.250000 0.500000
O O2 0.245457 0.361252 0.556783
O O3 0.382638 0.307554 0.681662
O O4 0.228016 0.327136 0.262107
O O5 0.112289 0.837339 0.757167
O O6 0.062287 0.803259 0.905103
O O7 0.231721 0.817895 0.164604
O O8 0.155690 0.729586 0.923763
O O9 0.500000 0.421135 0.500000
O O10 0.431353 0.363654 0.569528
O O11 0.326753 0.432802 0.208154
O O12 0.500000 0.828188 0.500000
O O13 0.388408 0.857196 0.506943
O O14 0.444576 0.753718 0.589164
O O15 0.555973 0.836095 0.861730
O O16 0.762494 0.422517 0.195589
O O17 0.680297 0.884971 0.944415
O O18 0.693308 0.000000 0.913093
#
# Coordination Sequence:
#
# PCOD9174989 Si02
#       8
#     8   8   8   8   8   8   8   8
#     4  12  22  36  57  94 130 164 184 244 316 396
#     4   9  19  32  57  89 123 161 181 246 307 372
#     4   9  18  33  59  93 118 149 192 255 308 366
#     4  11  20  34  58  90 122 164 197 249 305 362
#     4  11  23  39  56  85 128 155 203 244 313 366
#     4  10  18  32  54  90 129 150 193 220 315 381
#     4  11  24  41  63  85 114 165 223 264 295 345
#     4  11  21  37  60  87 121 158 205 248 300 358
#
# _framework density 19.075827
#
# number of rings (size 3 to 8) (size 9 to 14) (size 15 to 20)
#    0.000    1.500    5.000    1.875    0.000    2.250 
#    0.000    1.875    0.000    0.000    0.000    4.375 
#    0.000    0.000    0.000    0.000    0.000    0.000 
#
# Total GULP energy -178224.816179 kJ/mol
# GULP energy per Si atom -5569.525506 kJ/mol
# Density = 1.903241 g / cm^3
# Si number density = 19.075827 Si / 1000 Ang^3
#
#
#
# Elastic Constant Matrix: (Units=GPa)
#
#
# Indices 1 2 3 4 5 6 
#
# 1 96.3342 29.0957 15.1590 0.0000 7.7951 0.0000
# 2 29.0957 78.5093 24.3391 0.0000 0.9235 0.0000
# 3 15.1590 24.3391 47.7143 0.0000 5.6488 0.0000
# 4 0.0000 0.0000 0.0000 6.3275 0.0000 1.7003
# 5 7.7951 0.9235 5.6488 0.0000 35.2396 0.0000
# 6 0.0000 0.0000 0.0000 1.7003 0.0000 12.9045
#
#
#
# Elastic Compliance Matrix: (Units=1/GPa)
#
#
# Indices 1 2 3 4 5 6 
#
# 1 0.011999 -0.003947 -0.001526 0.000000 -0.002306 0.000000
# 2 -0.003947 0.016454 -0.007331 0.000000 0.001617 0.000000
# 3 -0.001526 -0.007331 0.025605 0.000000 -0.003575 0.000000
# 4 0.000000 0.000000 0.000000 0.163841 0.000000 -0.021587
# 5 -0.002306 0.001617 -0.003575 0.000000 0.029418 0.000000
# 6 0.000000 0.000000 0.000000 -0.021587 0.000000 0.080336
#
#
# Mechanical properties :
#
#
# Convention : Reuss Voigt Hill
#
# Bulk Modulus (GPa) = 35.14710 39.97171 37.55940
# Shear Modulus (GPa) = 13.78383 21.15861 17.47122
#
# Velocity S-wave (km/s) = 2.69100 3.33405 3.02964
# Velocity P-wave (km/s) = 5.30285 5.98505 5.65425
#
# Compressibility (1/GPa) = 0.02845185
#
# Stress axis : x y z
#
# Youngs Moduli (GPa) = 83.33826 60.77709 39.05425
#
# Poissons Ratio (x) = 0.23987 0.05959
# Poissons Ratio (y) = 0.32892 0.28629
# Poissons Ratio (z) = 0.12717 0.44553
#
# Static dielectric constant tensor:
#      x y z
#    x 1.760240 0.000000 -0.004950 
#    y 0.000000 1.641870 0.000000 
#    z -0.004950 0.000000 1.732460 
# 
# From -- ./inp_files/90690.got.cif
#   From: 2010.05.17/outbox.cif.g08.bks.cpg/sg12_46_cif.got.tgz:90690.got - 2010.06.03 13:09:07.
