data_PCOD9174322
_publ_section_title
;
Structure prediction by ZEFSAII (Michael W. Deem and Ramdas Pophale) SiO2 
 PCOD9174322
Probable space group: C 2/M
;
_chemical_formula_sum "Si O2"
_cell_formula_units_Z 48
_cell_length_a 12.828631
_cell_length_b 14.192845
_cell_length_c 18.211341
_cell_angle_alpha 90.000000
_cell_angle_beta 41.707033
_cell_angle_gamma 90.000000
_cell_volume 2206.091814
_symmetry_space_group_name_H-M "C 2/M"
_symmetry_group_IT_number 12
_symmetry_cell_setting 'monoclinic'
loop_
_space_group_symop_operation_xyz
x,y,z
-x,y,-z
-x,-y,-z
x,-y,z
1/2+x,1/2+y,z
1/2-x,1/2+y,-z
1/2-x,1/2-y,-z
1/2+x,1/2-y,z
loop_
_atom_site_type_symbol
_atom_site_label
_atom_site_fract_x
_atom_site_fract_y
_atom_site_fract_z
Si Si1 0.375592 0.893411 0.999523
Si Si2 0.820788 0.205124 0.655352
Si Si3 0.965773 0.394694 0.244067
Si Si4 0.902041 0.892261 0.425538
Si Si5 0.817853 0.605396 0.575329
Si Si6 0.871426 0.209612 0.788982
O O1 0.457906 0.888502 0.877365
O O2 0.311758 0.000000 0.040797
O O3 0.500000 0.881938 0.000000
O O4 0.236089 0.820445 0.087269
O O5 0.719674 0.124868 0.668717
O O6 0.771725 0.302708 0.644942
O O7 0.770517 0.210856 0.767188
O O8 0.006112 0.179406 0.569321
O O9 0.991531 0.500000 0.259828
O O10 0.044449 0.309573 0.246529
O O11 0.726974 0.877384 0.487130
O O12 0.000710 0.870305 0.298729
O O13 0.924065 0.000000 0.437289
O O14 0.755189 0.500000 0.624764
O O15 0.000000 0.600409 0.500000
#
# Coordination Sequence:
#
# PCOD9174322 Si02
#       6
#     8   8   8   8   8   8
#     4  10  18  31  54  80 107 142 187 223 256 304
#     4  10  19  35  56  79 102 143 177 220 264 314
#     4  11  21  34  52  79 112 145 178 225 270 307
#     4   9  18  33  54  80 103 135 181 217 258 316
#     4  10  21  38  58  81 109 138 172 218 272 328
#     4  10  20  32  54  80 107 143 177 223 264 310
#
# _framework density 21.757935
#
# number of rings (size 3 to 8) (size 9 to 14) (size 15 to 20)
#    1.000    1.000    3.333    1.500    0.000    1.333 
#    0.000    0.000    0.000    2.500    0.000    0.000 
#    0.000    0.000    0.000    0.000    0.000    0.000 
#
# Total GULP energy -133728.357173 kJ/mol
# GULP energy per Si atom -5572.014882 kJ/mol
# Density = 2.170841 g / cm^3
# Si number density = 21.757935 Si / 1000 Ang^3
#
#
#
# Elastic Constant Matrix: (Units=GPa)
#
#
# Indices 1 2 3 4 5 6 
#
# 1 99.9426 43.5538 1.0957 -0.0001 -8.2595 0.0000
# 2 43.5538 136.0613 21.3301 0.0000 -9.3496 0.0000
# 3 1.0957 21.3301 42.3451 -0.0003 -4.4814 0.0001
# 4 -0.0001 0.0000 -0.0003 29.5942 0.0001 -7.4493
# 5 -8.2595 -9.3496 -4.4814 0.0001 20.5625 0.0000
# 6 0.0000 0.0000 0.0001 -7.4493 0.0000 35.5233
#
#
#
# Elastic Compliance Matrix: (Units=1/GPa)
#
#
# Indices 1 2 3 4 5 6 
#
# 1 0.011976 -0.003913 0.002029 0.000000 0.003473 0.000000
# 2 -0.003913 0.009421 -0.004460 0.000000 0.001740 0.000000
# 3 0.002029 -0.004460 0.026288 0.000000 0.004516 0.000000
# 4 0.000000 0.000000 0.000000 0.035673 0.000000 0.007481
# 5 0.003473 0.001740 0.004516 0.000000 0.051803 0.000000
# 6 0.000000 0.000000 0.000000 0.007481 0.000000 0.029719
#
#
# Mechanical properties :
#
#
# Convention : Reuss Voigt Hill
#
# Bulk Modulus (GPa) = 28.57499 45.58981 37.08240
# Shear Modulus (GPa) = 26.42241 31.29398 28.85819
#
# Velocity S-wave (km/s) = 3.48858 3.79658 3.64583
# Velocity P-wave (km/s) = 5.42112 6.34172 5.89940
#
# Compressibility (1/GPa) = 0.03499564
#
# Stress axis : x y z
#
# Youngs Moduli (GPa) = 83.50230 106.14684 38.04079
#
# Poissons Ratio (x) = 0.41533 -0.07717
# Poissons Ratio (y) = 0.32673 0.16967
# Poissons Ratio (z) = -0.16940 0.47343
#
# Static dielectric constant tensor:
#      x y z
#    x 1.845480 0.000000 -0.003860 
#    y 0.000000 1.786130 0.000000 
#    z -0.003860 0.000000 1.910020 
# 
# From -- ./inp_files/310197.got.cif
#   From: 2010.05.17/outbox.cif.g08.bks.cpg/sg12_156_cif.got.tgz:310197.got - 2010.06.03 13:09:07.
