data_PCOD9174448
_publ_section_title
;
Structure prediction by ZEFSAII (Michael W. Deem and Ramdas Pophale) SiO2 
 PCOD9174448
Probable space group: C 2/M
;
_chemical_formula_sum "Si O2"
_cell_formula_units_Z 58
_cell_length_a 29.650994
_cell_length_b 7.333637
_cell_length_c 25.087972
_cell_angle_alpha 90.000000
_cell_angle_beta 29.949494
_cell_angle_gamma 90.000000
_cell_volume 2723.519395
_symmetry_space_group_name_H-M "C 2/M"
_symmetry_group_IT_number 12
_symmetry_cell_setting 'monoclinic'
loop_
_space_group_symop_operation_xyz
x,y,z
-x,y,-z
-x,-y,-z
x,-y,z
1/2+x,1/2+y,z
1/2-x,1/2+y,-z
1/2-x,1/2-y,-z
1/2+x,1/2-y,z
loop_
_atom_site_type_symbol
_atom_site_label
_atom_site_fract_x
_atom_site_fract_y
_atom_site_fract_z
Si Si1 0.590959 0.711448 0.323749
Si Si2 0.798919 0.278158 0.097655
Si Si3 0.213862 0.715574 0.478036
Si Si4 0.992763 0.721223 0.313556
Si Si5 0.500000 0.000000 0.500000
Si Si6 0.618355 0.792442 0.763614
Si Si7 0.452367 0.777235 0.860344
Si Si8 0.893761 0.719147 0.108338
O O1 0.592944 0.500000 0.340223
O O2 0.694325 0.773236 0.207207
O O3 0.542145 0.718175 0.316368
O O4 0.541436 0.840750 0.416799
O O5 0.801094 0.500000 0.094248
O O6 0.846434 0.213273 0.103515
O O7 0.860904 0.220689 0.984209
O O8 0.212933 0.500000 0.469006
O O9 0.250000 0.750000 0.500000
O O10 0.111673 0.781656 0.577831
O O11 0.288118 0.796244 0.363105
O O12 0.993107 0.500000 0.312961
O O13 0.035830 0.780706 0.213029
O O14 0.538702 0.715985 0.807727
O O15 0.636928 0.710907 0.802641
O O16 0.586998 0.000000 0.806205
O O17 0.454735 0.000000 0.856947
O O18 0.879802 0.500000 0.120574
O O19 0.000000 0.754966 0.000000
#
# Coordination Sequence:
#
# PCOD9174448 Si02
#       8
#     8   8   8   8   2   8   8   8
#     4  11  25  45  73 101 129 174 222 270 334 388
#     4   9  18  34  59  97 129 162 218 274 316 396
#     4  11  22  36  57  85 124 166 213 268 324 384
#     4  10  21  40  62  90 130 178 220 274 334 391
#     4  12  26  52  76  94 138 168 218 286 328 392
#     4  10  18  31  55  88 120 165 209 252 324 392
#     4   9  16  31  59  90 131 171 209 262 329 391
#     4   9  15  27  54  88 124 159 204 259 317 381
#
# _framework density 21.295976
#
# number of rings (size 3 to 8) (size 9 to 14) (size 15 to 20)
#    0.000    2.069    3.448    0.621    0.000    2.759 
#    0.000    1.379    3.034    0.414    0.000    0.000 
#    0.000    0.000    0.000    0.000    0.000    0.000 
#
# Total GULP energy -161652.801236 kJ/mol
# GULP energy per Si atom -5574.234525 kJ/mol
# Density = 2.124751 g / cm^3
# Si number density = 21.295976 Si / 1000 Ang^3
#
#
#
# Elastic Constant Matrix: (Units=GPa)
#
#
# Indices 1 2 3 4 5 6 
#
# 1 119.7950 14.2691 98.4515 0.0363 -2.8300 0.0216
# 2 14.2691 100.9699 28.1231 0.0400 -0.0765 0.0298
# 3 98.4515 28.1231 188.8592 0.0259 26.6174 0.0037
# 4 0.0363 0.0400 0.0259 -2.7576 0.0032 -7.1261
# 5 -2.8300 -0.0765 26.6174 0.0032 35.4515 -0.0122
# 6 0.0216 0.0298 0.0037 -7.1261 -0.0122 -6.5170
#
#
#
# Elastic Compliance Matrix: (Units=1/GPa)
#
#
# Indices 1 2 3 4 5 6 
#
# 1 0.016778 0.000439 -0.010066 -0.000028 0.008898 0.000066
# 2 0.000439 0.010399 -0.001997 -0.000013 0.001557 0.000059
# 3 -0.010066 -0.001997 0.012250 0.000008 -0.010005 -0.000026
# 4 -0.000028 -0.000013 0.000008 0.198627 -0.000101 -0.217191
# 5 0.008898 0.001557 -0.010005 -0.000101 0.036433 0.000073
# 6 0.000066 0.000059 -0.000026 -0.217191 0.000073 0.084047
#
#
# Mechanical properties :
#
#
# Convention : Reuss Voigt Hill
#
# Bulk Modulus (GPa) = 61.80499 76.81240 69.30869
# Shear Modulus (GPa) = 12.91413 23.15406 18.03409
#
# Velocity S-wave (km/s) = 2.46521 3.30093 2.91319
# Velocity P-wave (km/s) = 6.09819 7.11867 6.62810
#
# Compressibility (1/GPa) = 0.01617992
#
# Stress axis : x y z
#
# Youngs Moduli (GPa) = 59.60306 96.16083 81.63583
#
# Poissons Ratio (x) = -0.04224 0.82171
# Poissons Ratio (y) = -0.02618 0.16302
# Poissons Ratio (z) = 0.59994 0.19203
#
# Static dielectric constant tensor:
#      x y z
#    x 1.774070 0.000000 0.098770 
#    y 0.000000 1.892820 0.000020 
#    z 0.098770 0.000020 1.939720 
# 
# From -- ./inp_files/353021.got.cif
#   From: 2010.05.17/outbox.cif.g08.bks.cpg/sg12_177_cif.got.tgz:353021.got - 2010.06.03 13:09:07.
