data_PCOD9174130
_publ_section_title
;
Structure prediction by ZEFSAII (Michael W. Deem and Ramdas Pophale) SiO2 
 PCOD9174130
Probable space group: C 2/M
;
_chemical_formula_sum "Si O2"
_cell_formula_units_Z 44
_cell_length_a 18.772779
_cell_length_b 20.100279
_cell_length_c 9.079018
_cell_angle_alpha 90.000000
_cell_angle_beta 46.787965
_cell_angle_gamma 90.000000
_cell_volume 2496.851339
_symmetry_space_group_name_H-M "C 2/M"
_symmetry_group_IT_number 12
_symmetry_cell_setting 'monoclinic'
loop_
_space_group_symop_operation_xyz
x,y,z
-x,y,-z
-x,-y,-z
x,-y,z
1/2+x,1/2+y,z
1/2-x,1/2+y,-z
1/2-x,1/2-y,-z
1/2+x,1/2-y,z
loop_
_atom_site_type_symbol
_atom_site_label
_atom_site_fract_x
_atom_site_fract_y
_atom_site_fract_z
Si Si1 0.000000 0.237736 0.500000
Si Si2 0.883453 0.200049 0.148750
Si Si3 0.119028 0.142618 0.545822
Si Si4 0.237727 0.075291 0.140747
Si Si5 0.160721 0.290830 0.054649
Si Si6 0.085398 0.924430 0.091902
O O1 0.074944 0.192060 0.485606
O O2 0.064348 0.276624 0.288169
O O3 0.844831 0.185701 0.366669
O O4 0.847877 0.260072 0.097173
O O5 0.869397 0.131544 0.077476
O O6 0.000000 0.209519 0.000000
O O7 0.198444 0.096727 0.355982
O O8 0.026708 0.097558 0.726345
O O9 0.144751 0.078258 0.161072
O O10 0.274783 0.000000 0.085417
O O11 0.312876 0.131851 0.985622
O O12 0.250000 0.250000 0.000000
O O13 0.090997 0.000000 0.027819
#
# Coordination Sequence:
#
# PCOD9174130 Si02
#       6
#     4   8   8   8   8   8
#     4  12  20  36  60  88 110 152 190 244 282 340
#     4  10  20  33  55  88 118 146 188 237 289 340
#     4  11  18  33  54  85 117 146 186 226 299 347
#     4  11  22  36  57  82 115 155 193 231 284 347
#     4  12  21  40  60  85 118 152 193 242 284 339
#     4  10  18  31  52  81 120 153 180 225 289 356
#
# _framework density 17.622194
#
# number of rings (size 3 to 8) (size 9 to 14) (size 15 to 20)
#    0.000    1.091    9.091    0.545    0.000    6.182 
#    0.000    0.455    0.000    0.545    0.000    0.000 
#    0.000    0.000    0.000    0.000    0.000    0.000 
#
# Total GULP energy -122766.795170 kJ/mol
# GULP energy per Si atom -5580.308871 kJ/mol
# Density = 1.758209 g / cm^3
# Si number density = 17.622194 Si / 1000 Ang^3
#
#
#
# Elastic Constant Matrix: (Units=GPa)
#
#
# Indices 1 2 3 4 5 6 
#
# 1 59.5502 31.3696 9.9440 0.0000 19.1154 0.0000
# 2 31.3696 142.0683 39.3568 0.0000 0.3829 0.0000
# 3 9.9440 39.3568 51.6332 0.0000 12.4336 0.0000
# 4 0.0000 0.0000 0.0000 21.5269 0.0000 -1.9644
# 5 19.1154 0.3829 12.4336 0.0000 24.6541 0.0000
# 6 0.0000 0.0000 0.0000 -1.9644 0.0000 27.0037
#
#
#
# Elastic Compliance Matrix: (Units=1/GPa)
#
#
# Indices 1 2 3 4 5 6 
#
# 1 0.027810 -0.007915 0.006648 0.000000 -0.024792 0.000000
# 2 -0.007915 0.011491 -0.009868 0.000000 0.010935 0.000000
# 3 0.006648 -0.009868 0.030519 0.000000 -0.020392 0.000000
# 4 0.000000 0.000000 0.000000 0.046764 0.000000 0.003402
# 5 -0.024792 0.010935 -0.020392 0.000000 0.069898 0.000000
# 6 0.000000 0.000000 0.000000 0.003402 0.000000 0.037279
#
#
# Mechanical properties :
#
#
# Convention : Reuss Voigt Hill
#
# Bulk Modulus (GPa) = 21.03066 46.06583 33.54824
# Shear Modulus (GPa) = 19.09251 26.14234 22.61742
#
# Velocity S-wave (km/s) = 3.29513 3.85579 3.58643
# Velocity P-wave (km/s) = 5.14172 6.78383 6.01904
#
# Compressibility (1/GPa) = 0.04754963
#
# Stress axis : x y z
#
# Youngs Moduli (GPa) = 35.95776 87.02642 32.76627
#
# Poissons Ratio (x) = 0.68886 -0.21782
# Poissons Ratio (y) = 0.28462 0.32332
# Poissons Ratio (z) = -0.23903 0.85874
#
# Static dielectric constant tensor:
#      x y z
#    x 1.617250 0.000000 0.030870 
#    y 0.000000 1.601060 0.000000 
#    z 0.030870 0.000000 1.627870 
# 
# From -- ./inp_files/61288.got.cif
#   From: 2010.05.17/outbox.cif.g08.bks.cpg/sg12_31_cif.got.tgz:61288.got - 2010.06.03 13:09:07.
