data_PCOD9174567
_publ_section_title
;
Structure prediction by ZEFSAII (Michael W. Deem and Ramdas Pophale) SiO2 
 PCOD9174567
Probable space group: C 2/M
;
_chemical_formula_sum "Si O2"
_cell_formula_units_Z 56
_cell_length_a 17.236672
_cell_length_b 26.098422
_cell_length_c 13.668578
_cell_angle_alpha 90.000000
_cell_angle_beta 28.100003
_cell_angle_gamma 90.000000
_cell_volume 2896.162373
_symmetry_space_group_name_H-M "C 2/M"
_symmetry_group_IT_number 12
_symmetry_cell_setting 'monoclinic'
loop_
_space_group_symop_operation_xyz
x,y,z
-x,y,-z
-x,-y,-z
x,-y,z
1/2+x,1/2+y,z
1/2-x,1/2+y,-z
1/2-x,1/2-y,-z
1/2+x,1/2-y,z
loop_
_atom_site_type_symbol
_atom_site_label
_atom_site_fract_x
_atom_site_fract_y
_atom_site_fract_z
Si Si1 0.124020 0.742215 0.489728
Si Si2 0.183854 0.674590 0.812616
Si Si3 0.279760 0.500000 0.842734
Si Si4 0.577368 0.689779 0.741045
Si Si5 0.171791 0.000000 0.438170
Si Si6 0.724054 0.798642 0.102070
Si Si7 0.735290 0.895010 0.564795
Si Si8 0.857918 0.390228 0.944818
O O1 0.181586 0.781262 0.341863
O O2 0.281742 0.708190 0.342287
O O3 0.095309 0.775843 0.621473
O O4 0.958612 0.710905 0.654571
O O5 0.217962 0.638330 0.682705
O O6 0.183293 0.640600 0.909594
O O7 0.000000 0.695947 0.000000
O O8 0.476024 0.500000 0.639041
O O9 0.247995 0.500000 0.760174
O O10 0.208519 0.447814 0.968665
O O11 0.626370 0.632439 0.654116
O O12 0.389399 0.698114 0.982385
O O13 0.222758 0.049096 0.443833
O O14 0.717169 0.852968 0.053161
O O15 0.750000 0.750000 0.000000
O O16 0.555850 0.892311 0.714766
#
# Coordination Sequence:
#
# PCOD9174567 Si02
#       8
#     8   8   4   8   4   8   8   8
#     4   9  17  33  48  67  92 128 168 211 258 302
#     4   9  19  29  51  69  97 134 174 215 253 304
#     4  11  23  33  47  67 105 143 173 223 249 302
#     4   9  17  30  50  65  90 123 172 210 255 300
#     4  11  21  33  43  67 103 137 180 214 260 289
#     4  10  20  32  51  72  95 131 174 215 261 307
#     4  10  18  32  49  67  92 135 174 216 248 296
#     4  11  20  35  51  74  99 137 185 214 258 304
#
# _framework density 19.335932
#
# number of rings (size 3 to 8) (size 9 to 14) (size 15 to 20)
#    0.000    2.143    2.857    1.286    6.000    0.571 
#    0.000    0.000    0.000    0.000    0.000    0.000 
#    0.000    0.000    0.000    6.429    0.000    0.643 
#
# Total GULP energy -156312.258280 kJ/mol
# GULP energy per Si atom -5582.580653 kJ/mol
# Density = 1.929192 g / cm^3
# Si number density = 19.335932 Si / 1000 Ang^3
#
#
#
# Elastic Constant Matrix: (Units=GPa)
#
#
# Indices 1 2 3 4 5 6 
#
# 1 32.1726 32.1248 33.9049 -0.0105 -13.6608 0.0077
# 2 32.1248 133.5980 62.1763 0.0130 -12.3131 0.0228
# 3 33.9049 62.1763 127.1649 0.0077 -30.4958 0.0312
# 4 -0.0105 0.0130 0.0077 57.5182 0.0140 9.7532
# 5 -13.6608 -12.3131 -30.4958 0.0140 25.6968 -0.0061
# 6 0.0077 0.0228 0.0312 9.7532 -0.0061 32.2840
#
#
#
# Elastic Compliance Matrix: (Units=1/GPa)
#
#
# Indices 1 2 3 4 5 6 
#
# 1 0.052976 -0.008412 -0.005905 0.000008 0.017124 0.000000
# 2 -0.008412 0.011061 -0.004147 -0.000002 -0.004093 -0.000002
# 3 -0.005905 -0.004147 0.014309 -0.000004 0.011855 -0.000006
# 4 0.000008 -0.000002 -0.000004 0.018325 -0.000013 -0.005536
# 5 0.017124 -0.004093 0.011855 -0.000013 0.060126 0.000003
# 6 0.000000 -0.000002 -0.000006 -0.005536 0.000003 0.032648
#
#
# Mechanical properties :
#
#
# Convention : Reuss Voigt Hill
#
# Bulk Modulus (GPa) = 24.14432 61.03860 42.59146
# Shear Modulus (GPa) = 20.81803 34.08176 27.44989
#
# Velocity S-wave (km/s) = 3.28479 4.20290 3.77189
# Velocity P-wave (km/s) = 5.18656 7.42890 6.40659
#
# Compressibility (1/GPa) = 0.04141761
#
# Stress axis : x y z
#
# Youngs Moduli (GPa) = 18.87654 90.41159 69.88813
#
# Poissons Ratio (x) = 0.76055 0.41268
# Poissons Ratio (y) = 0.15879 0.28981
# Poissons Ratio (z) = 0.11146 0.37491
#
# Static dielectric constant tensor:
#      x y z
#    x 1.686130 -0.000010 -0.002660 
#    y -0.000010 1.670830 0.000020 
#    z -0.002660 0.000020 1.718050 
# 
# From -- ./inp_files/78437.got.cif
#   From: 2010.05.17/outbox.cif.g08.bks.cpg/sg12_40_cif.got.tgz:78437.got - 2010.06.03 13:09:07.
