data_PCOD9174331
_publ_section_title
;
Structure prediction by ZEFSAII (Michael W. Deem and Ramdas Pophale) SiO2 
 PCOD9174331
Probable space group: C 2/M
;
_chemical_formula_sum "Si O2"
_cell_formula_units_Z 56
_cell_length_a 15.598339
_cell_length_b 7.540186
_cell_length_c 25.600041
_cell_angle_alpha 90.000000
_cell_angle_beta 121.121126
_cell_angle_gamma 90.000000
_cell_volume 2577.589098
_symmetry_space_group_name_H-M "C 2/M"
_symmetry_group_IT_number 12
_symmetry_cell_setting 'monoclinic'
loop_
_space_group_symop_operation_xyz
x,y,z
-x,y,-z
-x,-y,-z
x,-y,z
1/2+x,1/2+y,z
1/2-x,1/2+y,-z
1/2-x,1/2-y,-z
1/2+x,1/2-y,z
loop_
_atom_site_type_symbol
_atom_site_label
_atom_site_fract_x
_atom_site_fract_y
_atom_site_fract_z
Si Si1 0.967747 0.786988 0.357689
Si Si2 0.076730 0.712020 0.288395
Si Si3 0.700343 0.282972 0.620459
Si Si4 0.858900 0.212209 0.510665
Si Si5 0.216945 0.211017 0.930369
Si Si6 0.086982 0.717369 0.067937
Si Si7 0.512949 0.793395 0.156044
O O1 0.994454 0.743888 0.306869
O O2 0.055776 0.718370 0.423765
O O3 0.862558 0.727717 0.348735
O O4 0.968407 0.000000 0.361198
O O5 0.085675 0.500000 0.286806
O O6 0.185081 0.778715 0.341729
O O7 0.048357 0.783608 0.222454
O O8 0.701960 0.500000 0.619399
O O9 0.644214 0.223881 0.550040
O O10 0.750000 0.250000 0.500000
O O11 0.872726 0.000000 0.512615
O O12 0.305273 0.274576 0.919901
O O13 0.107073 0.285424 0.885502
O O14 0.209507 0.000000 0.922000
O O15 0.250000 0.250000 0.000000
O O16 0.086325 0.500000 0.067854
O O17 0.059724 0.780991 0.117376
O O18 0.000000 0.771072 0.000000
O O19 0.542576 0.000000 0.165645
#
# Coordination Sequence:
#
# PCOD9174331 Si02
#       7
#     8   8   8   8   8   8   8
#     4  10  20  34  56  82 108 140 182 231 273 318
#     4  10  21  37  56  77 107 147 182 221 270 326
#     4   9  18  34  55  78 107 144 185 222 269 329
#     4  10  18  31  54  81 107 138 179 229 278 321
#     4  11  21  35  59  87 112 140 176 221 271 320
#     4   9  17  33  57  81 106 139 176 214 259 319
#     4  10  21  38  57  79 109 144 184 223 266 320
#
# _framework density 21.725726999999999
#
# number of rings (size 3 to 8) (size 9 to 14) (size 15 to 20)
#    0.000    2.143    2.857    0.857    0.000    3.429 
#    0.000    6.429    0.000    1.714    0.000    0.000 
#    0.000    0.000    0.000    0.000    0.000    0.000 
#
# Total GULP energy -156403.886026 kJ/mol
# GULP energy per Si atom -5585.853072 kJ/mol
# Density = 2.167628 g / cm^3
# Si number density = 21.725727 Si / 1000 Ang^3
#
#
#
# Elastic Constant Matrix: (Units=GPa)
#
#
# Indices 1 2 3 4 5 6 
#
# 1 136.6460 -6.5577 36.5818 0.0000 -43.2316 0.0000
# 2 -6.5577 53.3140 -0.2071 0.0000 -4.5667 0.0000
# 3 36.5818 -0.2071 110.0646 0.0000 -41.5689 0.0000
# 4 0.0000 0.0000 0.0000 8.8911 0.0000 -0.1684
# 5 -43.2316 -4.5667 -41.5689 0.0000 35.0094 0.0000
# 6 0.0000 0.0000 0.0000 -0.1684 0.0000 21.6150
#
#
#
# Elastic Compliance Matrix: (Units=1/GPa)
#
#
# Indices 1 2 3 4 5 6 
#
# 1 0.013132 0.003413 0.003507 0.000000 0.020825 0.000000
# 2 0.003413 0.020045 0.002688 0.000000 0.010020 0.000000
# 3 0.003507 0.002688 0.017574 0.000000 0.025548 0.000000
# 4 0.000000 0.000000 0.000000 0.112488 0.000000 0.000877
# 5 0.020825 0.010020 0.025548 0.000000 0.085921 0.000000
# 6 0.000000 0.000000 0.000000 0.000877 0.000000 0.046271
#
#
# Mechanical properties :
#
#
# Convention : Reuss Voigt Hill
#
# Bulk Modulus (GPa) = 14.29267 39.96207 27.12737
# Shear Modulus (GPa) = 16.69237 31.11693 23.90465
#
# Velocity S-wave (km/s) = 2.77487 3.78863 3.32066
# Velocity P-wave (km/s) = 4.10603 6.12961 5.21688
#
# Compressibility (1/GPa) = 0.06996596
#
# Stress axis : x y z
#
# Youngs Moduli (GPa) = 76.15216 49.88696 56.90272
#
# Poissons Ratio (x) = -0.17025 -0.19956
# Poissons Ratio (y) = -0.25988 -0.15295
# Poissons Ratio (z) = -0.26707 -0.13409
#
# Static dielectric constant tensor:
#      x y z
#    x 1.772180 0.000000 -0.017510 
#    y 0.000000 1.859210 0.000000 
#    z -0.017510 0.000000 1.763730 
# 
# From -- ./inp_files/338525.got.cif
#   From: 2010.05.17/outbox.cif.g08.bks.cpg/sg12_170_cif.got.tgz:338525.got - 2010.06.03 13:09:07.
