data_PCOD9174297
_publ_section_title
;
Structure prediction by ZEFSAII (Michael W. Deem and Ramdas Pophale) SiO2 
 PCOD9174297
Probable space group: C 2/M
;
_chemical_formula_sum "Si O2"
_cell_formula_units_Z 64
_cell_length_a 14.392572
_cell_length_b 13.674145
_cell_length_c 20.523547
_cell_angle_alpha 90.000000
_cell_angle_beta 64.756370
_cell_angle_gamma 90.000000
_cell_volume 3653.430200
_symmetry_space_group_name_H-M "C 2/M"
_symmetry_group_IT_number 12
_symmetry_cell_setting 'monoclinic'
loop_
_space_group_symop_operation_xyz
x,y,z
-x,y,-z
-x,-y,-z
x,-y,z
1/2+x,1/2+y,z
1/2-x,1/2+y,-z
1/2-x,1/2-y,-z
1/2+x,1/2-y,z
loop_
_atom_site_type_symbol
_atom_site_label
_atom_site_fract_x
_atom_site_fract_y
_atom_site_fract_z
Si Si1 0.534559 0.808147 0.060034
Si Si2 0.669138 0.618860 0.319106
Si Si3 0.846714 0.616169 0.173698
Si Si4 0.018131 0.117861 0.720073
Si Si5 0.201690 0.882200 0.570714
Si Si6 0.032016 0.888511 0.117775
Si Si7 0.378803 0.272418 0.532567
Si Si8 0.277493 0.113800 0.052013
O O1 0.467032 0.860056 0.135324
O O2 0.503525 0.695067 0.075552
O O3 0.500000 0.848234 0.000000
O O4 0.655687 0.828484 0.021469
O O5 0.666460 0.500000 0.327042
O O6 0.776852 0.650250 0.254122
O O7 0.578367 0.647974 0.295868
O O8 0.651463 0.669594 0.393089
O O9 0.833265 0.500000 0.176592
O O10 0.801482 0.652424 0.117852
O O11 0.124095 0.144344 0.653003
O O12 0.005761 0.144863 0.799264
O O13 0.013401 0.000000 0.722103
O O14 0.308345 0.824190 0.546941
O O15 0.147948 0.841379 0.521202
O O16 0.212987 0.000000 0.564721
O O17 0.155704 0.887053 0.081113
O O18 0.997867 0.000000 0.115270
O O19 0.500000 0.251054 0.500000
O O20 0.311104 0.000000 0.038155
#
# Coordination Sequence:
#
# PCOD9174297 Si02
#       8
#     8   8   8   8   8   8   8   8
#     4  10  20  30  45  69  98 130 166 205 255 305
#     4  10  18  31  54  79 104 131 168 218 269 309
#     4   9  17  30  47  71  98 124 156 204 258 303
#     4   9  17  32  53  74  97 132 172 215 262 305
#     4  10  22  38  55  80 115 146 180 218 264 323
#     4  10  19  31  48  69  95 130 170 209 249 297
#     4  11  22  35  57  86 110 141 182 221 269 315
#     4   9  16  30  49  68  91 121 162 206 253 304
#
# _framework density 17.517783000000001
#
# number of rings (size 3 to 8) (size 9 to 14) (size 15 to 20)
#    0.000    2.250    2.500    1.125    1.750    2.500 
#    0.000    0.000    0.000    0.000    0.000    1.750 
#    0.000    0.000    0.000    0.000    0.000    0.000 
#
# Total GULP energy -178199.911095 kJ/mol
# GULP energy per Si atom -5568.747222 kJ/mol
# Density = 1.747791 g / cm^3
# Si number density = 17.517783 Si / 1000 Ang^3
#
#
#
# Elastic Constant Matrix: (Units=GPa)
#
#
# Indices 1 2 3 4 5 6 
#
# 1 62.5272 20.5939 43.9010 0.0000 -21.2778 0.0000
# 2 20.5939 55.6754 34.0079 0.0000 -10.0220 0.0000
# 3 43.9010 34.0079 114.0707 0.0000 -28.5793 0.0000
# 4 0.0000 0.0000 0.0000 25.4650 0.0000 -1.5339
# 5 -21.2778 -10.0220 -28.5793 0.0000 26.5779 0.0000
# 6 0.0000 0.0000 0.0000 -1.5339 0.0000 15.2875
#
#
#
# Elastic Compliance Matrix: (Units=1/GPa)
#
#
# Indices 1 2 3 4 5 6 
#
# 1 0.025511 -0.003769 -0.005384 0.000000 0.013213 0.000000
# 2 -0.003769 0.022573 -0.005342 0.000000 -0.000250 0.000000
# 3 -0.005384 -0.005342 0.014846 0.000000 0.009640 0.000000
# 4 0.000000 0.000000 0.000000 0.039508 0.000000 0.003964
# 5 0.013213 -0.000250 0.009640 0.000000 0.058474 0.000000
# 6 0.000000 0.000000 0.000000 0.003964 0.000000 0.065811
#
#
# Mechanical properties :
#
#
# Convention : Reuss Voigt Hill
#
# Bulk Modulus (GPa) = 29.46318 47.69763 38.58041
# Shear Modulus (GPa) = 18.72466 22.38413 20.55439
#
# Velocity S-wave (km/s) = 3.27294 3.57850 3.42913
# Velocity P-wave (km/s) = 5.58018 6.66044 6.14410
#
# Compressibility (1/GPa) = 0.03394067
#
# Stress axis : x y z
#
# Youngs Moduli (GPa) = 39.19889 44.30000 67.35739
#
# Poissons Ratio (x) = 0.16697 0.36265
# Poissons Ratio (y) = 0.14775 0.35980
# Poissons Ratio (z) = 0.21105 0.23664
#
# Static dielectric constant tensor:
#      x y z
#    x 1.620310 0.000000 -0.025720 
#    y 0.000000 1.601390 0.000000 
#    z -0.025720 0.000000 1.620100 
# 
# From -- ./inp_files/269897.got.cif
#   From: 2010.05.17/outbox.cif.g08.bks.cpg/sg12_135_cif.got.tgz:269897.got - 2010.06.03 13:09:07.
