data_PCOD9174302
_publ_section_title
;
Structure prediction by ZEFSAII (Michael W. Deem and Ramdas Pophale) SiO2 
 PCOD9174302
Probable space group: C 2/M
;
_chemical_formula_sum "Si O2"
_cell_formula_units_Z 64
_cell_length_a 20.452508
_cell_length_b 7.422130
_cell_length_c 25.414082
_cell_angle_alpha 90.000000
_cell_angle_beta 132.727263
_cell_angle_gamma 90.000000
_cell_volume 2833.972588
_symmetry_space_group_name_H-M "C 2/M"
_symmetry_group_IT_number 12
_symmetry_cell_setting 'monoclinic'
loop_
_space_group_symop_operation_xyz
x,y,z
-x,y,-z
-x,-y,-z
x,-y,z
1/2+x,1/2+y,z
1/2-x,1/2+y,-z
1/2-x,1/2-y,-z
1/2+x,1/2-y,z
loop_
_atom_site_type_symbol
_atom_site_label
_atom_site_fract_x
_atom_site_fract_y
_atom_site_fract_z
Si Si1 0.778204 0.280106 0.275204
Si Si2 0.923763 0.781552 0.811833
Si Si3 0.550558 0.279799 0.975383
Si Si4 0.752945 0.215177 0.939541
Si Si5 0.375515 0.220794 0.221261
Si Si6 0.401556 0.791381 0.437890
Si Si7 0.744154 0.713805 0.558654
Si Si8 0.566468 0.207157 0.302687
O O1 0.776649 0.500000 0.275250
O O2 0.676227 0.223490 0.227753
O O3 0.818784 0.226823 0.241269
O O4 0.840772 0.216474 0.357346
O O5 0.947514 0.712539 0.767297
O O6 0.995210 0.724064 0.894066
O O7 0.924330 0.000000 0.810233
O O8 0.551620 0.500000 0.975969
O O9 0.500000 0.222280 0.000000
O O10 0.651964 0.217906 0.029149
O O11 0.672947 0.281462 0.858923
O O12 0.752625 0.000000 0.933107
O O13 0.750000 0.250000 0.000000
O O14 0.477402 0.284968 0.279665
O O15 0.378707 0.000000 0.222227
O O16 0.500000 0.712036 0.500000
O O17 0.341817 0.786859 0.457894
O O18 0.416152 0.000000 0.430944
O O19 0.739945 0.500000 0.565245
O O20 0.750000 0.750000 0.500000
O O21 0.836610 0.787633 0.633157
O O22 0.572482 0.000000 0.324300
#
# Coordination Sequence:
#
# PCOD9174302 Si02
#       8
#     8   8   8   8   8   8   8   8
#     4   9  17  31  53  79 105 135 176 222 262 312
#     4  10  18  31  54  79 105 137 176 224 271 319
#     4   9  17  29  49  78 106 135 177 225 268 312
#     4  10  19  32  51  75 105 140 178 222 270 320
#     4   9  18  32  52  77 104 140 184 222 261 315
#     4  10  21  37  61  88 113 144 182 225 275 336
#     4  11  24  40  60  84 115 149 185 230 277 332
#     4  10  21  36  55  78 106 141 179 220 265 320
#
# _framework density 22.583141000000001
#
# number of rings (size 3 to 8) (size 9 to 14) (size 15 to 20)
#    0.000    2.250    1.250    1.875    1.750    3.750 
#    0.000    0.000    0.000    5.250    0.000    0.000 
#    0.000    0.000    0.000    0.000    0.000    0.000 
#
# Total GULP energy -178830.079387 kJ/mol
# GULP energy per Si atom -5588.439981 kJ/mol
# Density = 2.253174 g / cm^3
# Si number density = 22.583141 Si / 1000 Ang^3
#
#
#
# Elastic Constant Matrix: (Units=GPa)
#
#
# Indices 1 2 3 4 5 6 
#
# 1 110.2594 -11.0988 9.0946 0.0000 15.3906 0.0000
# 2 -11.0988 74.7596 -5.2486 -0.0001 10.2717 0.0001
# 3 9.0946 -5.2486 84.6409 0.0000 10.7363 0.0000
# 4 0.0000 -0.0001 0.0000 2.8553 0.0000 -14.5555
# 5 15.3906 10.2717 10.7363 0.0000 46.7393 0.0000
# 6 0.0000 0.0001 0.0000 -14.5555 0.0000 5.2473
#
#
#
# Elastic Compliance Matrix: (Units=1/GPa)
#
#
# Indices 1 2 3 4 5 6 
#
# 1 0.009794 0.001905 -0.000486 0.000000 -0.003532 0.000000
# 2 0.001905 0.014299 0.001195 0.000000 -0.004044 0.000000
# 3 -0.000486 0.001195 0.012313 0.000000 -0.002931 0.000000
# 4 0.000000 0.000000 0.000000 -0.026652 0.000000 -0.073931
# 5 -0.003532 -0.004044 -0.002931 0.000000 0.024120 0.000000
# 6 0.000000 0.000000 0.000000 -0.073931 0.000000 -0.014503
#
#
# Mechanical properties :
#
#
# Convention : Reuss Voigt Hill
#
# Bulk Modulus (GPa) = 24.01895 28.35045 26.18470
# Shear Modulus (GPa) = 178.43964 29.42925 103.93444
#
# Velocity S-wave (km/s) = 8.89866 3.61383 6.79139
# Velocity P-wave (km/s) = 10.78148 5.47669 8.55086
#
# Compressibility (1/GPa) = 0.04163379
#
# Stress axis : x y z
#
# Youngs Moduli (GPa) = 102.09855 69.93682 81.21680
#
# Poissons Ratio (x) = -0.13325 0.03949
# Poissons Ratio (y) = -0.19452 -0.09705
# Poissons Ratio (z) = 0.04964 -0.08357
#
# Static dielectric constant tensor:
#      x y z
#    x 1.793490 0.000000 0.020830 
#    y 0.000000 1.910080 0.000000 
#    z 0.020830 0.000000 1.814620 
# 
# From -- ./inp_files/346248.got.cif
#   From: 2010.05.17/outbox.cif.g08.bks.cpg/sg12_174_cif.got.tgz:346248.got - 2010.06.03 13:09:07.
