data_PCOD9174341
_publ_section_title
;
Structure prediction by ZEFSAII (Michael W. Deem and Ramdas Pophale) SiO2 
 PCOD9174341
Probable space group: C 2/M
;
_chemical_formula_sum "Si O2"
_cell_formula_units_Z 64
_cell_length_a 15.084812
_cell_length_b 7.390463
_cell_length_c 27.907877
_cell_angle_alpha 90.000000
_cell_angle_beta 128.550104
_cell_angle_gamma 90.000000
_cell_volume 2433.214277
_symmetry_space_group_name_H-M "C 2/M"
_symmetry_group_IT_number 12
_symmetry_cell_setting 'monoclinic'
loop_
_space_group_symop_operation_xyz
x,y,z
-x,y,-z
-x,-y,-z
x,-y,z
1/2+x,1/2+y,z
1/2-x,1/2+y,-z
1/2-x,1/2-y,-z
1/2+x,1/2-y,z
loop_
_atom_site_type_symbol
_atom_site_label
_atom_site_fract_x
_atom_site_fract_y
_atom_site_fract_z
Si Si1 0.482987 0.707465 0.843538
Si Si2 0.669851 0.215873 0.518572
Si Si3 0.741771 0.715575 0.349529
Si Si4 0.281487 0.281014 0.107064
Si Si5 0.248859 0.211686 0.201316
Si Si6 0.424305 0.218768 0.020925
Si Si7 0.027510 0.279370 0.610814
Si Si8 0.502080 0.784266 0.295302
O O1 0.470388 0.500000 0.822829
O O2 0.589477 0.789429 0.851127
O O3 0.357180 0.789104 0.804999
O O4 0.530161 0.705002 0.914075
O O5 0.750000 0.250000 0.500000
O O6 0.720759 0.287222 0.585283
O O7 0.546464 0.280707 0.459362
O O8 0.660265 0.000000 0.521895
O O9 0.751603 0.500000 0.353167
O O10 0.841456 0.778453 0.347832
O O11 0.608807 0.747649 0.297541
O O12 0.285506 0.500000 0.107644
O O13 0.221737 0.224118 0.135932
O O14 0.202805 0.223745 0.036509
O O15 0.375712 0.289648 0.245219
O O16 0.256002 0.000000 0.217707
O O17 0.427836 0.000000 0.026767
O O18 0.500000 0.265335 0.000000
O O19 0.025023 0.500000 0.609889
O O20 0.970455 0.221496 0.641249
O O21 0.492279 0.000000 0.292003
#
# Coordination Sequence:
#
# PCOD9174341 Si02
#       8
#     8   8   8   8   8   8   8   8
#     4  10  21  36  56  82 109 140 181 222 262 315
#     4  10  18  31  54  82 110 140 176 216 265 322
#     4  10  20  34  56  84 108 137 181 223 262 319
#     4  10  21  37  57  82 110 141 177 220 268 320
#     4  10  22  38  55  77 105 140 183 226 264 313
#     4  10  19  33  55  83 114 143 172 212 271 328
#     4   9  18  34  56  79 108 144 175 214 269 321
#     4  10  21  38  56  75 105 143 180 220 272 319
#
# _framework density 26.302655000000001
#
# number of rings (size 3 to 8) (size 9 to 14) (size 15 to 20)
#    0.000    2.125    2.500    0.750    0.000    4.250 
#    0.000    3.750    0.000    1.500    0.000    0.000 
#    0.000    0.000    0.000    0.000    0.000    0.000 
#
# Total GULP energy -178930.308527 kJ/mol
# GULP energy per Si atom -5591.572141 kJ/mol
# Density = 2.624279 g / cm^3
# Si number density = 26.302655 Si / 1000 Ang^3
#
#
#
# Elastic Constant Matrix: (Units=GPa)
#
#
# Indices 1 2 3 4 5 6 
#
# 1 173.0091 -2.1396 27.5303 0.0000 36.0219 0.0000
# 2 -2.1396 96.4109 -2.5880 0.0000 6.5131 0.0000
# 3 27.5303 -2.5880 87.4310 0.0000 28.3477 0.0000
# 4 0.0000 0.0000 0.0000 4.8984 0.0000 2.4326
# 5 36.0219 6.5131 28.3477 0.0000 57.4944 0.0000
# 6 0.0000 0.0000 0.0000 2.4326 0.0000 6.4002
#
#
#
# Elastic Compliance Matrix: (Units=1/GPa)
#
#
# Indices 1 2 3 4 5 6 
#
# 1 0.006719 0.000385 -0.000863 0.000000 -0.003828 0.000000
# 2 0.000385 0.010525 0.000780 0.000000 -0.001818 0.000000
# 3 -0.000863 0.000780 0.013790 0.000000 -0.006347 0.000000
# 4 0.000000 0.000000 0.000000 0.251651 0.000000 -0.095649
# 5 -0.003828 -0.001818 -0.006347 0.000000 0.023126 0.000000
# 6 0.000000 0.000000 0.000000 -0.095649 0.000000 0.192600
#
#
# Mechanical properties :
#
#
# Convention : Reuss Voigt Hill
#
# Bulk Modulus (GPa) = 31.60959 44.71737 38.16348
# Shear Modulus (GPa) = 9.83565 36.02849 22.93207
#
# Velocity S-wave (km/s) = 1.93585 3.70505 2.95592
# Velocity P-wave (km/s) = 4.12801 5.94485 5.11770
#
# Compressibility (1/GPa) = 0.03163597
#
# Stress axis : x y z
#
# Youngs Moduli (GPa) = 148.82909 95.01613 72.51454
#
# Poissons Ratio (x) = -0.03654 0.06260
# Poissons Ratio (y) = -0.05723 -0.05655
# Poissons Ratio (z) = 0.12848 -0.07409
#
# Static dielectric constant tensor:
#      x y z
#    x 2.042880 0.000000 0.029120 
#    y 0.000000 2.018120 0.000000 
#    z 0.029120 0.000000 2.038180 
# 
# From -- ./inp_files/359909.got.cif
#   From: 2010.05.17/outbox.cif.g08.bks.cpg/sg12_180_cif.got.tgz:359909.got - 2010.06.03 13:09:07.
