data_PCOD9174517
_publ_section_title
;
Structure prediction by ZEFSAII (Michael W. Deem and Ramdas Pophale) SiO2 
 PCOD9174517
Probable space group: C 2/M
;
_chemical_formula_sum "Si O2"
_cell_formula_units_Z 64
_cell_length_a 32.112360
_cell_length_b 17.174017
_cell_length_c 12.628748
_cell_angle_alpha 90.000000
_cell_angle_beta 28.382986
_cell_angle_gamma 90.000000
_cell_volume 3310.775731
_symmetry_space_group_name_H-M "C 2/M"
_symmetry_group_IT_number 12
_symmetry_cell_setting 'monoclinic'
loop_
_space_group_symop_operation_xyz
x,y,z
-x,y,-z
-x,-y,-z
x,-y,z
1/2+x,1/2+y,z
1/2-x,1/2+y,-z
1/2-x,1/2-y,-z
1/2+x,1/2-y,z
loop_
_atom_site_type_symbol
_atom_site_label
_atom_site_fract_x
_atom_site_fract_y
_atom_site_fract_z
Si Si1 0.318780 0.847509 0.628975
Si Si2 0.200628 0.905734 0.701401
Si Si3 0.309713 0.093976 0.249549
Si Si4 0.080251 0.915136 0.240914
Si Si5 0.323672 0.339381 0.619914
Si Si6 0.775903 0.161292 0.961904
Si Si7 0.489546 0.590209 0.841411
Si Si8 0.497785 0.905976 0.127778
O O1 0.244095 0.875074 0.712648
O O2 0.320907 0.753959 0.626485
O O3 0.411377 0.876942 0.378982
O O4 0.298575 0.874767 0.794876
O O5 0.264274 0.884319 0.462659
O O6 0.197560 0.000000 0.716205
O O7 0.100083 0.880192 0.902715
O O8 0.252687 0.129196 0.283886
O O9 0.307102 0.000000 0.248975
O O10 0.410849 0.119079 0.023888
O O11 0.141426 0.846972 0.145334
O O12 0.042278 0.907695 0.209318
O O13 0.000000 0.917587 0.500000
O O14 0.126562 0.000000 0.144142
O O15 0.304769 0.370120 0.782245
O O16 0.418023 0.366401 0.363853
O O17 0.750000 0.250000 0.000000
O O18 0.504622 0.500000 0.839223
O O19 0.495528 0.000000 0.132574
O O20 0.500000 0.880839 0.000000
#
# Coordination Sequence:
#
# PCOD9174517 Si02
#       8
#     8   8   8   8   8   8   8   8
#     4  11  22  38  60  89 115 150 203 251 288 335
#     4  10  20  37  62  88 111 146 196 249 293 339
#     4  10  22  41  62  83 117 160 194 235 301 363
#     4  10  18  31  58  87 107 141 197 247 277 327
#     4  11  24  39  55  85 127 163 186 229 303 373
#     4  10  22  39  55  83 122 160 194 231 298 351
#     4  10  20  35  58  88 118 149 192 240 290 345
#     4  10  20  40  67  88 111 149 203 256 296 338
#
# _framework density 19.330815999999999
#
# number of rings (size 3 to 8) (size 9 to 14) (size 15 to 20)
#    0.000    1.750    3.750    0.750    0.000    3.000 
#    2.250    2.500    0.000    1.500    0.000    0.000 
#    0.000    0.000    0.000    0.000    0.000    0.000 
#
# Total GULP energy -178443.376473 kJ/mol
# GULP energy per Si atom -5576.355515 kJ/mol
# Density = 1.928682 g / cm^3
# Si number density = 19.330816 Si / 1000 Ang^3
#
#
#
# Elastic Constant Matrix: (Units=GPa)
#
#
# Indices 1 2 3 4 5 6 
#
# 1 72.0438 11.6595 40.6733 0.0000 -11.0991 0.0000
# 2 11.6595 24.2497 17.9242 0.0000 -14.4888 0.0000
# 3 40.6733 17.9242 150.4603 0.0000 -10.2072 0.0000
# 4 0.0000 0.0000 0.0000 69.2898 0.0000 12.5330
# 5 -11.0991 -14.4888 -10.2072 0.0000 37.6469 0.0000
# 6 0.0000 0.0000 0.0000 12.5330 0.0000 27.4901
#
#
#
# Elastic Compliance Matrix: (Units=1/GPa)
#
#
# Indices 1 2 3 4 5 6 
#
# 1 0.017145 -0.003774 -0.004015 0.000000 0.002514 0.000000
# 2 -0.003774 0.058477 -0.004579 0.000000 0.020151 0.000000
# 3 -0.004015 -0.004579 0.008229 0.000000 -0.000715 0.000000
# 4 0.000000 0.000000 0.000000 0.015729 0.000000 -0.007171
# 5 0.002514 0.020151 -0.000715 0.000000 0.034865 0.000000
# 6 0.000000 0.000000 0.000000 -0.007171 0.000000 0.039646
#
#
# Mechanical properties :
#
#
# Convention : Reuss Voigt Hill
#
# Bulk Modulus (GPa) = 16.91622 43.02978 29.97300
# Shear Modulus (GPa) = 22.87998 38.65181 30.76589
#
# Velocity S-wave (km/s) = 3.44408 4.47642 3.99375
# Velocity P-wave (km/s) = 4.95838 7.00184 6.06677
#
# Compressibility (1/GPa) = 0.05911485
#
# Stress axis : x y z
#
# Youngs Moduli (GPa) = 58.32603 17.10076 121.52866
#
# Poissons Ratio (x) = 0.06454 0.48789
# Poissons Ratio (y) = 0.22014 0.55648
# Poissons Ratio (z) = 0.23415 0.07830
#
# Static dielectric constant tensor:
#      x y z
#    x 1.669250 0.000000 0.030510 
#    y 0.000000 1.708370 0.000000 
#    z 0.030510 0.000000 1.725130 
# 
# From -- ./inp_files/184665.got.cif
#   From: 2010.05.17/outbox.cif.g08.bks.cpg/sg12_93_cif.got.tgz:184665.got - 2010.06.03 13:09:07.
