data_PCOD9174628
_publ_section_title
;
Structure prediction by ZEFSAII (Michael W. Deem and Ramdas Pophale) SiO2 
 PCOD9174628
Probable space group: C 2/M
;
_chemical_formula_sum "Si O2"
_cell_formula_units_Z 64
_cell_length_a 31.981084
_cell_length_b 13.607926
_cell_length_c 8.748355
_cell_angle_alpha 90.000000
_cell_angle_beta 75.202326
_cell_angle_gamma 90.000000
_cell_volume 3680.978856
_symmetry_space_group_name_H-M "C 2/M"
_symmetry_group_IT_number 12
_symmetry_cell_setting 'monoclinic'
loop_
_space_group_symop_operation_xyz
x,y,z
-x,y,-z
-x,-y,-z
x,-y,z
1/2+x,1/2+y,z
1/2-x,1/2+y,-z
1/2-x,1/2-y,-z
1/2+x,1/2-y,z
loop_
_atom_site_type_symbol
_atom_site_label
_atom_site_fract_x
_atom_site_fract_y
_atom_site_fract_z
Si Si1 0.930002 0.118193 0.735594
Si Si2 0.686112 0.891392 0.102449
Si Si3 0.484411 0.619693 0.181643
Si Si4 0.221073 0.686344 0.375496
Si Si5 0.100182 0.117734 0.568638
Si Si6 0.849927 0.804503 0.971821
Si Si7 0.774956 0.113455 0.826587
Si Si8 0.817047 0.803400 0.346795
O O1 0.911670 0.153991 0.590181
O O2 0.978659 0.148429 0.731074
O O3 0.930062 0.000000 0.730861
O O4 0.896702 0.151018 0.896900
O O5 0.699315 0.878524 0.266535
O O6 0.669712 0.000000 0.086827
O O7 0.653735 0.805458 0.088906
O O8 0.730309 0.876535 0.963378
O O9 0.483314 0.500000 0.178965
O O10 0.437212 0.652702 0.280290
O O11 0.500000 0.652287 0.000000
O O12 0.224431 0.796613 0.295027
O O13 0.194111 0.701661 0.555331
O O14 0.269304 0.650837 0.369309
O O15 0.147713 0.145197 0.579508
O O16 0.097866 0.000000 0.566353
O O17 0.836877 0.800330 0.160137
O O18 0.814540 0.866228 0.906724
O O19 0.778013 0.000000 0.767030
#
# Coordination Sequence:
#
# PCOD9174628 Si02
#       8
#     8   8   8   8   8   8   8   8
#     4  10  20  33  51  73 100 137 169 199 242 292
#     4  10  19  34  52  67  89 126 168 205 251 294
#     4   9  17  31  49  72 102 131 162 201 243 291
#     4  10  20  36  47  67  99 129 166 209 251 291
#     4  10  20  32  47  71 103 138 171 200 239 295
#     4  11  19  33  49  72  98 125 169 211 247 291
#     4  10  18  32  51  68  91 127 166 204 247 294
#     4  11  21  31  47  67 100 132 161 208 249 286
#
# _framework density 17.386679999999998
#
# number of rings (size 3 to 8) (size 9 to 14) (size 15 to 20)
#    0.000    1.875    2.500    3.750    0.000    5.500 
#    0.000    2.500    0.000    0.000    0.000    0.000 
#    0.000   13.500    0.000    0.000    0.000    0.125 
#
# Total GULP energy -178468.437421 kJ/mol
# GULP energy per Si atom -5577.138669 kJ/mol
# Density = 1.734711 g / cm^3
# Si number density = 17.386680 Si / 1000 Ang^3
#
#
#
# Elastic Constant Matrix: (Units=GPa)
#
#
# Indices 1 2 3 4 5 6 
#
# 1 69.1810 7.9665 23.4710 0.0000 -0.5085 0.0000
# 2 7.9665 38.3464 -6.2374 0.0000 3.8990 0.0000
# 3 23.4710 -6.2374 82.8538 0.0000 -3.0704 0.0000
# 4 0.0000 0.0000 0.0000 13.3804 0.0000 -1.9594
# 5 -0.5085 3.8990 -3.0704 0.0000 26.7811 0.0000
# 6 0.0000 0.0000 0.0000 -1.9594 0.0000 17.5223
#
#
#
# Elastic Compliance Matrix: (Units=1/GPa)
#
#
# Indices 1 2 3 4 5 6 
#
# 1 0.016662 -0.004317 -0.005031 0.000000 0.000368 0.000000
# 2 -0.004317 0.027876 0.003182 0.000000 -0.003776 0.000000
# 3 -0.005031 0.003182 0.013772 0.000000 0.001020 0.000000
# 4 0.000000 0.000000 0.000000 0.075980 0.000000 0.008496
# 5 0.000368 -0.003776 0.001020 0.000000 0.038013 0.000000
# 6 0.000000 0.000000 0.000000 0.008496 0.000000 0.058020
#
#
# Mechanical properties :
#
#
# Convention : Reuss Voigt Hill
#
# Bulk Modulus (GPa) = 21.75034 26.75349 24.25192
# Shear Modulus (GPa) = 19.38109 22.54885 20.96497
#
# Velocity S-wave (km/s) = 3.34235 3.60516 3.47624
# Velocity P-wave (km/s) = 5.23756 5.72279 5.48554
#
# Compressibility (1/GPa) = 0.04597629
#
# Stress axis : x y z
#
# Youngs Moduli (GPa) = 60.01798 35.87264 72.61067
#
# Poissons Ratio (x) = 0.15487 0.36533
# Poissons Ratio (y) = 0.25912 -0.23103
# Poissons Ratio (z) = 0.30197 -0.11414
#
# Static dielectric constant tensor:
#      x y z
#    x 1.591870 0.000000 0.007460 
#    y 0.000000 1.580210 0.000000 
#    z 0.007460 0.000000 1.645930 
# 
# From -- ./inp_files/111174.got.cif
#   From: 2010.05.17/outbox.cif.g08.bks.cpg/sg12_56_cif.got.tgz:111174.got - 2010.06.03 13:09:07.
