data_PCOD9174551
_publ_section_title
;
Structure prediction by ZEFSAII (Michael W. Deem and Ramdas Pophale) SiO2 
 PCOD9174551
Probable space group: C 2/M
;
_chemical_formula_sum "Si O2"
_cell_formula_units_Z 64
_cell_length_a 14.824663
_cell_length_b 22.810713
_cell_length_c 11.495234
_cell_angle_alpha 90.000000
_cell_angle_beta 70.970717
_cell_angle_gamma 90.000000
_cell_volume 3674.811618
_symmetry_space_group_name_H-M "C 2/M"
_symmetry_group_IT_number 12
_symmetry_cell_setting 'monoclinic'
loop_
_space_group_symop_operation_xyz
x,y,z
-x,y,-z
-x,-y,-z
x,-y,z
1/2+x,1/2+y,z
1/2-x,1/2+y,-z
1/2-x,1/2-y,-z
1/2+x,1/2-y,z
loop_
_atom_site_type_symbol
_atom_site_label
_atom_site_fract_x
_atom_site_fract_y
_atom_site_fract_z
Si Si1 0.405549 0.261905 0.891578
Si Si2 0.225833 0.237794 0.643312
Si Si3 0.722290 0.433137 0.150502
Si Si4 0.052314 0.115687 0.361856
Si Si5 0.570194 0.758355 0.366089
Si Si6 0.429292 0.650777 0.212282
Si Si7 0.297666 0.811174 0.122976
Si Si8 0.384606 0.435827 0.051111
O O1 0.448686 0.227700 0.761242
O O2 0.483912 0.312050 0.879647
O O3 0.305612 0.290859 0.887859
O O4 0.376591 0.222443 0.012997
O O5 0.250000 0.250000 0.500000
O O6 0.326154 0.215695 0.651834
O O7 0.139201 0.193176 0.687163
O O8 0.199398 0.289718 0.744731
O O9 0.755836 0.500000 0.147900
O O10 0.649114 0.416273 0.284839
O O11 0.799210 0.381169 0.114241
O O12 0.662155 0.429103 0.055221
O O13 0.071894 0.186195 0.367274
O O14 0.000000 0.095447 0.500000
O O15 0.980527 0.108840 0.283388
O O16 0.500000 0.775680 0.500000
O O17 0.365290 0.617615 0.145153
O O18 0.354652 0.500000 0.108722
O O19 0.500000 0.436174 0.000000
#
# Coordination Sequence:
#
# PCOD9174551 Si02
#       8
#     8   8   8   8   8   8   8   8
#     4   9  18  31  49  74  99 137 163 202 256 305
#     4  11  21  30  49  76 100 134 166 208 261 303
#     4  11  21  34  51  68  96 141 181 211 247 299
#     4  10  18  32  48  66 103 139 168 206 240 304
#     4   9  17  32  49  68 103 137 160 199 251 305
#     4  11  21  30  52  77 106 131 167 206 263 304
#     4  10  20  33  49  69 103 131 175 210 246 303
#     4  10  20  32  47  70 103 134 166 205 251 298
#
# _framework density 17.415858
#
# number of rings (size 3 to 8) (size 9 to 14) (size 15 to 20)
#    0.000    1.875    5.000    2.250    7.000    0.250 
#    0.000    0.000    0.000    0.000    0.000    1.750 
#    0.000    4.000    0.000    0.000    0.000    0.000 
#
# Total GULP energy -178319.836333 kJ/mol
# GULP energy per Si atom -5572.494885 kJ/mol
# Density = 1.737622 g / cm^3
# Si number density = 17.415858 Si / 1000 Ang^3
#
#
#
# Elastic Constant Matrix: (Units=GPa)
#
#
# Indices 1 2 3 4 5 6 
#
# 1 24.5901 6.5865 16.6959 0.0000 -3.8389 0.0000
# 2 6.5865 75.6246 49.0970 0.0000 -5.4189 0.0000
# 3 16.6959 49.0970 138.5564 0.0000 -0.5495 0.0000
# 4 0.0000 0.0000 0.0000 14.4298 0.0000 3.7960
# 5 -3.8389 -5.4189 -0.5495 0.0000 23.0307 0.0000
# 6 0.0000 0.0000 0.0000 3.7960 0.0000 16.0354
#
#
#
# Elastic Compliance Matrix: (Units=1/GPa)
#
#
# Indices 1 2 3 4 5 6 
#
# 1 0.045538 0.000148 -0.005510 0.000000 0.007494 0.000000
# 2 0.000148 0.017531 -0.006214 0.000000 0.004001 0.000000
# 3 -0.005510 -0.006214 0.010075 0.000000 -0.002140 0.000000
# 4 0.000000 0.000000 0.000000 0.073903 0.000000 -0.017495
# 5 0.007494 0.004001 -0.002140 0.000000 0.045560 0.000000
# 6 0.000000 0.000000 0.000000 -0.017495 0.000000 0.066504
#
#
# Mechanical properties :
#
#
# Convention : Reuss Voigt Hill
#
# Bulk Modulus (GPa) = 20.00318 42.61442 31.30880
# Shear Modulus (GPa) = 16.72647 21.79195 19.25921
#
# Velocity S-wave (km/s) = 3.10242 3.54117 3.32903
# Velocity P-wave (km/s) = 4.93395 6.42197 5.72650
#
# Compressibility (1/GPa) = 0.04999204
#
# Stress axis : x y z
#
# Youngs Moduli (GPa) = 21.95959 57.04057 99.25850
#
# Poissons Ratio (x) = -0.00845 0.54692
# Poissons Ratio (y) = -0.00325 0.61681
# Poissons Ratio (z) = 0.12100 0.35446
#
# Static dielectric constant tensor:
#      x y z
#    x 1.625070 0.000000 0.032420 
#    y 0.000000 1.623150 0.000000 
#    z 0.032420 0.000000 1.646760 
# 
# From -- ./inp_files/148632.got.cif
#   From: 2010.05.17/outbox.cif.g08.bks.cpg/sg12_75_cif.got.tgz:148632.got - 2010.06.03 13:09:07.
