data_PCOD9174086
_publ_section_title
;
Structure prediction by ZEFSAII (Michael W. Deem and Ramdas Pophale) SiO2 
 PCOD9174086
Probable space group: C 2/M
;
_chemical_formula_sum "Si O2"
_cell_formula_units_Z 56
_cell_length_a 20.900790
_cell_length_b 9.058178
_cell_length_c 31.222180
_cell_angle_alpha 90.000000
_cell_angle_beta 33.313567
_cell_angle_gamma 90.000000
_cell_volume 3246.487109
_symmetry_space_group_name_H-M "C 2/M"
_symmetry_group_IT_number 12
_symmetry_cell_setting 'monoclinic'
loop_
_space_group_symop_operation_xyz
x,y,z
-x,y,-z
-x,-y,-z
x,-y,z
1/2+x,1/2+y,z
1/2-x,1/2+y,-z
1/2-x,1/2-y,-z
1/2+x,1/2-y,z
loop_
_atom_site_type_symbol
_atom_site_label
_atom_site_fract_x
_atom_site_fract_y
_atom_site_fract_z
Si Si1 0.134542 0.675960 0.337940
Si Si2 0.255950 0.176319 0.093282
Si Si3 0.022600 0.822819 0.075431
Si Si4 0.483789 0.322987 0.820445
Si Si5 0.228718 0.176867 0.823888
Si Si6 0.070943 0.829944 0.505433
Si Si7 0.219513 0.322487 0.666967
O O1 0.143135 0.500000 0.339080
O O2 0.181441 0.711880 0.264529
O O3 0.218092 0.753655 0.326078
O O4 0.004138 0.731243 0.420612
O O5 0.140172 0.213406 0.131076
O O6 0.245901 0.240098 0.146556
O O7 0.266926 0.000000 0.088330
O O8 0.369321 0.245017 0.007546
O O9 0.016031 0.784005 0.129303
O O10 0.900766 0.785713 0.120717
O O11 0.037646 0.000000 0.064132
O O12 0.502036 0.500000 0.807170
O O13 0.589888 0.239923 0.738354
O O14 0.231674 0.000000 0.829382
O O15 0.199976 0.782305 0.418995
O O16 0.000000 0.827594 0.500000
O O17 0.072653 0.000000 0.519179
O O18 0.221358 0.500000 0.669305
#
# Coordination Sequence:
#
# PCOD9174086 Si02
#       7
#     8   8   8   8   8   8   8
#     4  10  18  31  52  78 106 140 179 216 258 311
#     4  11  24  37  53  80 109 138 176 224 268 312
#     4  10  20  38  59  76 102 140 179 221 266 315
#     4  10  21  38  56  77 108 141 177 220 265 314
#     4  10  21  37  56  77 106 144 179 215 263 315
#     4   8  16  29  45  74 111 138 166 213 267 311
#     4  10  19  31  51  79 109 139 173 216 265 313
#
# _framework density 17.249413000000001
#
# number of rings (size 3 to 8) (size 9 to 14) (size 15 to 20)
#    0.000    2.143    1.429    3.000    0.000    8.286 
#    0.000    0.000    0.000    0.857    0.000    0.000 
#    0.000    0.000    0.000    0.000    0.000    0.000 
#
# Total GULP energy -156251.489111 kJ/mol
# GULP energy per Si atom -5580.410325 kJ/mol
# Density = 1.721015 g / cm^3
# Si number density = 17.249413 Si / 1000 Ang^3
#
#
#
# Elastic Constant Matrix: (Units=GPa)
#
#
# Indices 1 2 3 4 5 6 
#
# 1 37.7264 8.5962 -6.2417 0.0240 11.9682 0.0149
# 2 8.5962 26.6914 29.0823 0.0446 6.5359 0.0296
# 3 -6.2417 29.0823 97.0491 0.0077 13.0411 0.0044
# 4 0.0240 0.0446 0.0077 531.4446 -0.0046 296.9494
# 5 11.9682 6.5359 13.0411 -0.0046 -2.8373 -0.0027
# 6 0.0149 0.0296 0.0044 296.9494 -0.0027 202.8604
#
#
#
# Elastic Compliance Matrix: (Units=1/GPa)
#
#
# Indices 1 2 3 4 5 6 
#
# 1 0.017606 -0.016087 0.000589 0.000000 0.039917 0.000001
# 2 -0.016087 0.066030 -0.019870 0.000000 -0.007080 -0.000008
# 3 0.000589 -0.019870 0.013670 0.000000 0.019544 0.000002
# 4 0.000000 0.000000 0.000000 0.010334 -0.000002 -0.015127
# 5 0.039917 -0.007080 0.019544 -0.000002 -0.110550 -0.000001
# 6 0.000001 -0.000008 0.000002 -0.015127 -0.000001 0.027073
#
#
# Mechanical properties :
#
#
# Convention : Reuss Voigt Hill
#
# Bulk Modulus (GPa) = 37.63528 24.92671 31.28099
# Shear Modulus (GPa) = 48.19026 154.96221 101.57623
#
# Velocity S-wave (km/s) = 5.29131 9.48848 7.68210
# Velocity P-wave (km/s) = 7.69391 11.59844 9.84175
#
# Compressibility (1/GPa) = 0.02657081
#
# Stress axis : x y z
#
# Youngs Moduli (GPa) = 56.79784 15.14469 73.15276
#
# Poissons Ratio (x) = 0.24363 -0.04309
# Poissons Ratio (y) = 0.91369 1.45355
# Poissons Ratio (z) = -0.03346 0.30093
#
# Static dielectric constant tensor:
#      x y z
#    x 1.557500 0.000000 -0.007600 
#    y 0.000000 1.575170 0.000000 
#    z -0.007600 0.000000 1.594440 
# 
# From -- ./inp_files/319644.got.cif
#   From: 2010.05.17/outbox.cif.g08.bks.cpg/sg12_160_cif.got.tgz:319644.got - 2010.06.03 13:09:07.
