data_PCOD9174348
_publ_section_title
;
Structure prediction by ZEFSAII (Michael W. Deem and Ramdas Pophale) SiO2 
 PCOD9174348
Probable space group: C 2/M
;
_chemical_formula_sum "Si O2"
_cell_formula_units_Z 56
_cell_length_a 22.506618
_cell_length_b 17.260928
_cell_length_c 24.726939
_cell_angle_alpha 90.000000
_cell_angle_beta 18.943734
_cell_angle_gamma 90.000000
_cell_volume 3118.502258
_symmetry_space_group_name_H-M "C 2/M"
_symmetry_group_IT_number 12
_symmetry_cell_setting 'monoclinic'
loop_
_space_group_symop_operation_xyz
x,y,z
-x,y,-z
-x,-y,-z
x,-y,z
1/2+x,1/2+y,z
1/2-x,1/2+y,-z
1/2-x,1/2-y,-z
1/2+x,1/2-y,z
loop_
_atom_site_type_symbol
_atom_site_label
_atom_site_fract_x
_atom_site_fract_y
_atom_site_fract_z
Si Si1 0.940773 0.838531 0.826883
Si Si2 0.933565 0.910647 0.618330
Si Si3 0.878033 0.590857 0.965986
Si Si4 0.150696 0.298193 0.910317
Si Si5 0.767093 0.408293 0.401077
Si Si6 0.688941 0.091666 0.512628
Si Si7 0.152753 0.697755 0.168627
O O1 0.817294 0.893354 0.893980
O O2 0.947029 0.760187 0.785222
O O3 0.144215 0.869637 0.663888
O O4 0.820641 0.829397 0.985124
O O5 0.770542 0.852312 0.768130
O O6 0.000000 0.913237 0.500000
O O7 0.099092 0.877340 0.511849
O O8 0.888840 0.000000 0.673217
O O9 0.893405 0.500000 0.964297
O O10 0.914661 0.640706 0.987672
O O11 0.033765 0.617512 0.789630
O O12 0.263861 0.238558 0.849891
O O13 0.000000 0.262741 0.000000
O O14 0.766253 0.500000 0.390330
O O15 0.739058 0.398746 0.488026
O O16 0.493445 0.134605 0.684578
O O17 0.669626 0.000000 0.517617
#
# Coordination Sequence:
#
# PCOD9174348 Si02
#       7
#     8   8   8   8   8   8   8
#     4  10  20  35  56  85 120 154 190 228 289 351
#     4  10  20  34  51  78 114 154 198 234 269 327
#     4  10  18  31  54  82 117 153 187 230 274 335
#     4  11  23  38  53  76 110 153 199 233 284 340
#     4   9  17  29  48  77 113 146 180 226 277 325
#     4  11  21  35  59  87 114 148 191 240 297 347
#     4  10  22  39  55  83 118 153 189 242 288 349
#
# _framework density 17.957339000000001
#
# number of rings (size 3 to 8) (size 9 to 14) (size 15 to 20)
#    0.000    1.857    1.429    3.857    0.000    4.000 
#    2.571    0.000    0.000    0.429    0.000    1.000 
#    0.000    0.000    0.000    0.000    0.000    0.000 
#
# Total GULP energy -156051.790953 kJ/mol
# GULP energy per Si atom -5573.278248 kJ/mol
# Density = 1.791647 g / cm^3
# Si number density = 17.957339 Si / 1000 Ang^3
#
#
#
# Elastic Constant Matrix: (Units=GPa)
#
#
# Indices 1 2 3 4 5 6 
#
# 1 45.0746 35.7562 11.9677 -0.0022 -13.0400 -0.0013
# 2 35.7562 78.3692 51.8868 -0.0047 -3.0965 0.0014
# 3 11.9677 51.8868 102.8140 -0.0145 4.1710 0.0009
# 4 -0.0022 -0.0047 -0.0145 30.1009 0.0119 -1.2566
# 5 -13.0400 -3.0965 4.1710 0.0119 20.9711 -0.0007
# 6 -0.0013 0.0014 0.0009 -1.2566 -0.0007 18.2898
#
#
#
# Elastic Compliance Matrix: (Units=1/GPa)
#
#
# Indices 1 2 3 4 5 6 
#
# 1 0.047042 -0.024346 0.005817 -0.000007 0.024499 0.000005
# 2 -0.024346 0.032253 -0.013128 0.000000 -0.007765 -0.000004
# 3 0.005817 -0.013128 0.015733 0.000007 -0.001451 0.000001
# 4 -0.000007 0.000000 0.000007 0.033317 -0.000024 0.002289
# 5 0.024499 -0.007765 -0.001451 -0.000024 0.062060 0.000003
# 6 0.000005 -0.000004 0.000001 0.002289 0.000003 0.054833
#
#
# Mechanical properties :
#
#
# Convention : Reuss Voigt Hill
#
# Bulk Modulus (GPa) = 31.53220 47.27546 39.40383
# Shear Modulus (GPa) = 15.66787 22.31548 18.99167
#
# Velocity S-wave (km/s) = 2.95702 3.52901 3.25560
# Velocity P-wave (km/s) = 5.40891 6.55659 6.01021
#
# Compressibility (1/GPa) = 0.03171361
#
# Stress axis : x y z
#
# Youngs Moduli (GPa) = 21.25777 31.00455 63.55907
#
# Poissons Ratio (x) = 0.75485 -0.36974
# Poissons Ratio (y) = 0.51755 0.83442
# Poissons Ratio (z) = -0.12366 0.40703
#
# Static dielectric constant tensor:
#      x y z
#    x 1.529480 0.000000 0.021820 
#    y 0.000000 1.638670 0.000010 
#    z 0.021820 0.000010 1.686070 
# 
# From -- ./inp_files/347780.got.cif
#   From: 2010.05.17/outbox.cif.g08.bks.cpg/sg12_174_cif.got.tgz:347780.got - 2010.06.03 13:09:07.
