data_PCOD9174270
_publ_section_title
;
Structure prediction by ZEFSAII (Michael W. Deem and Ramdas Pophale) SiO2 
 PCOD9174270
Probable space group: C 2/M
;
_chemical_formula_sum "Si O2"
_cell_formula_units_Z 44
_cell_length_a 11.641842
_cell_length_b 27.894858
_cell_length_c 16.465515
_cell_angle_alpha 90.000000
_cell_angle_beta 153.710728
_cell_angle_gamma 90.000000
_cell_volume 2368.264016
_symmetry_space_group_name_H-M "C 2/M"
_symmetry_group_IT_number 12
_symmetry_cell_setting 'monoclinic'
loop_
_space_group_symop_operation_xyz
x,y,z
-x,y,-z
-x,-y,-z
x,-y,z
1/2+x,1/2+y,z
1/2-x,1/2+y,-z
1/2-x,1/2-y,-z
1/2+x,1/2-y,z
loop_
_atom_site_type_symbol
_atom_site_label
_atom_site_fract_x
_atom_site_fract_y
_atom_site_fract_z
Si Si1 0.189589 0.850085 0.323615
Si Si2 0.000000 0.211039 0.500000
Si Si3 0.797377 0.217739 0.807951
Si Si4 0.037462 0.947101 0.160117
Si Si5 0.340286 0.157085 0.591568
Si Si6 0.061217 0.446474 0.734296
O O1 0.500000 0.852424 0.500000
O O2 0.076551 0.815608 0.182581
O O3 0.073028 0.902742 0.241532
O O4 0.169777 0.832098 0.402799
O O5 0.870170 0.244443 0.349054
O O6 0.787580 0.178996 0.410324
O O7 0.611869 0.182806 0.742820
O O8 0.000000 0.238974 0.000000
O O9 0.269322 0.943686 0.240948
O O10 0.051174 0.000000 0.206626
O O11 0.773038 0.943427 0.940871
O O12 0.382332 0.100046 0.623788
O O13 0.942746 0.500000 0.662311
#
# Coordination Sequence:
#
# PCOD9174270 Si02
#       6
#     8   4   8   8   8   8
#     4  10  18  31  53  84 115 146 178 233 287 341
#     4  12  26  44  55  82 117 156 202 236 274 342
#     4  11  22  40  64  85 112 147 189 243 300 332
#     4   9  16  28  51  87 118 140 180 234 291 343
#     4  11  22  39  59  83 120 149 191 241 280 344
#     4   9  17  31  54  84 115 148 183 228 285 342
#
# _framework density 18.579011000000001
#
# number of rings (size 3 to 8) (size 9 to 14) (size 15 to 20)
#    0.000    1.818    6.364    2.727    0.000    1.818 
#    3.273    0.455    0.000    0.000    0.000    2.545 
#    0.000    0.000    0.000    0.000    0.000    0.000 
#
# Total GULP energy -122731.581334 kJ/mol
# GULP energy per Si atom -5578.708242 kJ/mol
# Density = 1.853672 g / cm^3
# Si number density = 18.579011 Si / 1000 Ang^3
#
#
#
# Elastic Constant Matrix: (Units=GPa)
#
#
# Indices 1 2 3 4 5 6 
#
# 1 34.2486 35.6012 1.5393 -0.0030 -3.6186 0.0035
# 2 35.6012 99.2671 29.3790 0.0060 -1.5788 -0.0010
# 3 1.5393 29.3790 65.4060 0.0028 -16.1922 -0.0012
# 4 -0.0030 0.0060 0.0028 54.8667 0.0078 -33.9459
# 5 -3.6186 -1.5788 -16.1922 0.0078 9.4387 -0.0045
# 6 0.0035 -0.0010 -0.0012 -33.9459 -0.0045 23.3280
#
#
#
# Elastic Compliance Matrix: (Units=1/GPa)
#
#
# Indices 1 2 3 4 5 6 
#
# 1 0.071613 -0.034246 0.033158 -0.000023 0.078609 -0.000029
# 2 -0.034246 0.028862 -0.024706 0.000006 -0.050684 0.000004
# 3 0.033158 -0.024706 0.048201 -0.000023 0.091268 -0.000020
# 4 -0.000023 0.000006 -0.000023 0.182816 -0.000074 0.266026
# 5 0.078609 -0.050684 0.091268 -0.000074 0.284176 -0.000062
# 6 -0.000029 0.000004 -0.000020 0.266026 -0.000062 0.429978
#
#
# Mechanical properties :
#
#
# Convention : Reuss Voigt Hill
#
# Bulk Modulus (GPa) = 10.30001 36.88451 23.59226
# Shear Modulus (GPa) = 4.42637 26.35351 15.38994
#
# Velocity S-wave (km/s) = 1.54519 3.77033 2.88123
# Velocity P-wave (km/s) = 2.95625 6.23295 4.87797
#
# Compressibility (1/GPa) = 0.09708727
#
# Stress axis : x y z
#
# Youngs Moduli (GPa) = 13.96404 34.64796 20.74656
#
# Poissons Ratio (x) = 1.18657 -0.68792
# Poissons Ratio (y) = 0.47822 0.51256
# Poissons Ratio (z) = -0.46302 0.85600
#
# Static dielectric constant tensor:
#      x y z
#    x 1.611000 0.000000 -0.013460 
#    y 0.000000 1.665120 0.000000 
#    z -0.013460 0.000000 1.685320 
# 
# From -- ./inp_files/209227.got.cif
#   From: 2010.05.17/outbox.cif.g08.bks.cpg/sg12_105_cif.got.tgz:209227.got - 2010.06.03 13:09:07.
