data_PCOD9174980
_publ_section_title
;
Structure prediction by ZEFSAII (Michael W. Deem and Ramdas Pophale) SiO2 
 PCOD9174980
Probable space group: C 2/M
;
_chemical_formula_sum "Si O2"
_cell_formula_units_Z 36
_cell_length_a 19.147736
_cell_length_b 7.469599
_cell_length_c 19.094419
_cell_angle_alpha 90.000000
_cell_angle_beta 27.446085
_cell_angle_gamma 90.000000
_cell_volume 1258.753870
_symmetry_space_group_name_H-M "C 2/M"
_symmetry_group_IT_number 12
_symmetry_cell_setting 'monoclinic'
loop_
_space_group_symop_operation_xyz
x,y,z
-x,y,-z
-x,-y,-z
x,-y,z
1/2+x,1/2+y,z
1/2-x,1/2+y,-z
1/2-x,1/2-y,-z
1/2+x,1/2-y,z
loop_
_atom_site_type_symbol
_atom_site_label
_atom_site_fract_x
_atom_site_fract_y
_atom_site_fract_z
Si Si1 0.286392 0.000000 0.516710
Si Si2 0.481276 0.797215 0.244957
Si Si3 0.737043 0.788511 0.910830
Si Si4 0.594098 0.297885 0.485506
Si Si5 0.656389 0.707325 0.832904
O O1 0.390502 0.158549 0.466465
O O2 0.146816 0.153878 0.631649
O O3 0.632339 0.792967 0.157515
O O4 0.402849 0.000000 0.330249
O O5 0.568080 0.765351 0.093597
O O6 0.751437 0.714997 0.820211
O O7 0.759931 0.000000 0.890552
O O8 0.500000 0.240422 0.500000
O O9 0.547792 0.500000 0.546821
O O10 0.761833 0.306327 0.302060
O O11 0.635876 0.500000 0.830392
O O12 0.500000 0.786154 0.000000
#
# Coordination Sequence:
#
# PCOD9174980 Si02
#       5
#     4   8   8   8   8
#     4  10  19  36  57  82 124 156 194 248 306 358
#     4   8  18  32  53  83 116 163 189 250 305 347
#     4  10  18  32  54  85 119 152 205 249 300 364
#     4  11  23  37  60  94 123 163 206 249 309 372
#     4  11  24  40  60  89 122 165 206 255 312 368
#
# _framework density 28.599713999999999
#
# number of rings (size 3 to 8) (size 9 to 14) (size 15 to 20)
#    0.667    1.333    1.111    3.000    3.111    5.333 
#    0.000    0.000    0.000    1.333    0.000    0.000 
#    0.000    0.000    0.000    0.000    0.000    0.000 
#
# Total GULP energy -100631.051754 kJ/mol
# GULP energy per Si atom -5590.613986 kJ/mol
# Density = 2.853462 g / cm^3
# Si number density = 28.599714 Si / 1000 Ang^3
#
#
#
# Elastic Constant Matrix: (Units=GPa)
#
#
# Indices 1 2 3 4 5 6 
#
# 1 119.1480 37.2567 47.7923 0.0000 -0.2476 -0.0001
# 2 37.2567 229.8263 59.1164 -0.0001 6.6839 0.0002
# 3 47.7923 59.1164 218.8943 -0.0001 31.1131 0.0000
# 4 0.0000 -0.0001 -0.0001 43.5023 0.0000 -17.2526
# 5 -0.2476 6.6839 31.1131 0.0000 75.7038 0.0001
# 6 -0.0001 0.0002 0.0000 -17.2526 0.0001 74.1845
#
#
#
# Elastic Compliance Matrix: (Units=1/GPa)
#
#
# Indices 1 2 3 4 5 6 
#
# 1 0.009498 -0.001074 -0.001913 0.000000 0.000912 0.000000
# 2 -0.001074 0.004798 -0.001063 0.000000 0.000010 0.000000
# 3 -0.001913 -0.001063 0.005587 0.000000 -0.002209 0.000000
# 4 0.000000 0.000000 0.000000 0.025323 0.000000 0.005889
# 5 0.000912 0.000010 -0.002209 0.000000 0.014119 0.000000
# 6 0.000000 0.000000 0.000000 0.005889 0.000000 0.014850
#
#
# Mechanical properties :
#
#
# Convention : Reuss Voigt Hill
#
# Bulk Modulus (GPa) = 84.86658 95.13328 89.99993
# Shear Modulus (GPa) = 58.00242 66.92500 62.46371
#
# Velocity S-wave (km/s) = 4.50830 4.84266 4.67847
# Velocity P-wave (km/s) = 7.53910 8.03769 7.79238
#
# Compressibility (1/GPa) = 0.01178320
#
# Stress axis : x y z
#
# Youngs Moduli (GPa) = 105.28353 208.40670 178.98346
#
# Poissons Ratio (x) = 0.22385 0.34246
# Poissons Ratio (y) = 0.11309 0.19021
# Poissons Ratio (z) = 0.20145 0.22148
#
# Static dielectric constant tensor:
#      x y z
#    x 2.311540 0.000000 -0.002390 
#    y 0.000000 2.112400 0.000000 
#    z -0.002390 0.000000 2.278660 
# 
# From -- ./inp_files/367297.got.cif
#   From: 2010.05.17/outbox.cif.g08.bks.cpg/sg12_184_cif.got.tgz:367297.got - 2010.06.03 13:09:07.
