data_PCOD9174323
_publ_section_title
;
Structure prediction by ZEFSAII (Michael W. Deem and Ramdas Pophale) SiO2 
 PCOD9174323
Probable space group: C 2/M
;
_chemical_formula_sum "Si O2"
_cell_formula_units_Z 48
_cell_length_a 10.570344
_cell_length_b 22.252072
_cell_length_c 8.298749
_cell_angle_alpha 90.000000
_cell_angle_beta 97.984414
_cell_angle_gamma 90.000000
_cell_volume 1933.043243
_symmetry_space_group_name_H-M "C 2/M"
_symmetry_group_IT_number 12
_symmetry_cell_setting 'monoclinic'
loop_
_space_group_symop_operation_xyz
x,y,z
-x,y,-z
-x,-y,-z
x,-y,z
1/2+x,1/2+y,z
1/2-x,1/2+y,-z
1/2-x,1/2-y,-z
1/2+x,1/2-y,z
loop_
_atom_site_type_symbol
_atom_site_label
_atom_site_fract_x
_atom_site_fract_y
_atom_site_fract_z
Si Si1 0.548884 0.065344 0.324412
Si Si2 0.715810 0.251446 0.802392
Si Si3 0.770431 0.568411 0.157159
Si Si4 0.600930 0.634671 0.889331
Si Si5 0.426585 0.430663 0.636037
Si Si6 0.964319 0.690454 0.801853
O O1 0.500000 0.067175 0.500000
O O2 0.420312 0.064136 0.195620
O O3 0.600681 0.129437 0.277852
O O4 0.616679 0.000000 0.314532
O O5 0.642409 0.314742 0.773649
O O6 0.856525 0.258101 0.751056
O O7 0.603823 0.203534 0.746910
O O8 0.750000 0.250000 0.000000
O O9 0.722119 0.500000 0.125376
O O10 0.706557 0.591474 0.313059
O O11 0.720849 0.610269 0.008149
O O12 0.526127 0.579460 0.797713
O O13 0.500000 0.661438 0.000000
O O14 0.500000 0.401911 0.500000
O O15 0.403142 0.500000 0.590359
O O16 0.000000 0.686616 0.000000
#
# Coordination Sequence:
#
# PCOD9174323 Si02
#       6
#     8   8   8   8   8   8
#     4  10  22  40  60  84 118 158 198 246 304 357
#     4  10  20  35  57  86 116 150 192 245 297 345
#     4   9  17  31  52  76 106 149 196 238 285 347
#     4  10  18  31  54  80 108 147 193 236 284 347
#     4   9  18  31  48  77 115 149 185 235 292 346
#     4  10  21  39  62  88 118 155 201 247 295 355
#
# _framework density 24.831313000000002
#
# number of rings (size 3 to 8) (size 9 to 14) (size 15 to 20)
#    0.000    2.333    0.000    4.000    0.000    5.000 
#    0.000    5.000    0.000    0.000    0.000    1.167 
#    0.000    0.000    0.000    0.000    0.000    0.000 
#
# Total GULP energy -133837.583933 kJ/mol
# GULP energy per Si atom -5576.565997 kJ/mol
# Density = 2.477480 g / cm^3
# Si number density = 24.831313 Si / 1000 Ang^3
#
#
#
# Elastic Constant Matrix: (Units=GPa)
#
#
# Indices 1 2 3 4 5 6 
#
# 1 95.7417 28.9036 9.5355 0.0000 -0.9745 0.0000
# 2 28.9036 95.4498 10.0251 0.0000 -0.9180 0.0000
# 3 9.5355 10.0251 18.5065 0.0000 -4.8138 0.0000
# 4 0.0000 0.0000 0.0000 9.9479 0.0000 -3.1671
# 5 -0.9745 -0.9180 -4.8138 0.0000 23.7000 0.0000
# 6 0.0000 0.0000 0.0000 -3.1671 0.0000 30.5530
#
#
#
# Elastic Compliance Matrix: (Units=1/GPa)
#
#
# Indices 1 2 3 4 5 6 
#
# 1 0.011832 -0.003110 -0.004557 0.000000 -0.000560 0.000000
# 2 -0.003110 0.011942 -0.005046 0.000000 -0.000690 0.000000
# 3 -0.004557 -0.005046 0.062309 0.000000 0.012273 0.000000
# 4 0.000000 0.000000 0.000000 0.103955 0.000000 0.010776
# 5 -0.000560 -0.000690 0.012273 0.000000 0.044637 0.000000
# 6 0.000000 0.000000 0.000000 0.010776 0.000000 0.033847
#
#
# Mechanical properties :
#
#
# Convention : Reuss Voigt Hill
#
# Bulk Modulus (GPa) = 16.48632 34.06959 25.27795
# Shear Modulus (GPa) = 15.91510 23.58909 19.75210
#
# Velocity S-wave (km/s) = 2.53440 3.08551 2.82343
# Velocity P-wave (km/s) = 3.90103 5.14237 4.56410
#
# Compressibility (1/GPa) = 0.06065636
#
# Stress axis : x y z
#
# Youngs Moduli (GPa) = 84.51860 83.74027 16.04894
#
# Poissons Ratio (x) = 0.26039 0.07314
# Poissons Ratio (y) = 0.26281 0.08099
# Poissons Ratio (z) = 0.38519 0.42257
#
# Static dielectric constant tensor:
#      x y z
#    x 2.001070 0.000000 -0.041360 
#    y 0.000000 2.106620 0.000000 
#    z -0.041360 0.000000 2.007390 
# 
# From -- ./inp_files/50823.got.cif
#   From: 2010.05.17/outbox.cif.g08.bks.cpg/sg12_26_cif.got.tgz:50823.got - 2010.06.03 13:09:07.
