data_PCOD9174016
_publ_section_title
;
Structure prediction by ZEFSAII (Michael W. Deem and Ramdas Pophale) SiO2 
 PCOD9174016
Probable space group: C 2/M
;
_chemical_formula_sum "Si O2"
_cell_formula_units_Z 64
_cell_length_a 20.933288
_cell_length_b 7.711008
_cell_length_c 20.918477
_cell_angle_alpha 90.000000
_cell_angle_beta 77.949116
_cell_angle_gamma 90.000000
_cell_volume 3302.181175
_symmetry_space_group_name_H-M "C 2/M"
_symmetry_group_IT_number 12
_symmetry_cell_setting 'monoclinic'
loop_
_space_group_symop_operation_xyz
x,y,z
-x,y,-z
-x,-y,-z
x,-y,z
1/2+x,1/2+y,z
1/2-x,1/2+y,-z
1/2-x,1/2-y,-z
1/2+x,1/2-y,z
loop_
_atom_site_type_symbol
_atom_site_label
_atom_site_fract_x
_atom_site_fract_y
_atom_site_fract_z
Si Si1 0.635557 0.709329 0.322807
Si Si2 0.749386 0.794880 0.074332
Si Si3 0.412105 0.790971 0.338923
Si Si4 0.623538 0.208449 0.175528
Si Si5 0.719234 0.788037 0.696578
Si Si6 0.520416 0.211828 0.808088
Si Si7 0.150961 0.707125 0.841450
Si Si8 0.489418 0.706044 0.573207
O O1 0.635229 0.500000 0.326821
O O2 0.628647 0.754342 0.249705
O O3 0.707008 0.770370 0.330863
O O4 0.574154 0.776776 0.376218
O O5 0.686009 0.720381 0.124486
O O6 0.814224 0.744991 0.099508
O O7 0.744705 0.000000 0.080092
O O8 0.750000 0.750000 0.000000
O O9 0.337869 0.733593 0.340227
O O10 0.454813 0.737654 0.268013
O O11 0.447609 0.730415 0.395150
O O12 0.411984 0.000000 0.339644
O O13 0.553120 0.273461 0.166030
O O14 0.623156 0.000000 0.168381
O O15 0.695512 0.731253 0.772399
O O16 0.719704 0.000000 0.696515
O O17 0.577188 0.270225 0.844667
O O18 0.519066 0.000000 0.809387
O O19 0.148447 0.500000 0.835484
O O20 0.500000 0.778093 0.500000
O O21 0.478512 0.500000 0.568954
#
# Coordination Sequence:
#
# PCOD9174016 Si02
#       8
#     8   8   8   8   8   8   8   8
#     4  10  18  31  52  74  98 132 170 206 247 297
#     4  11  23  36  52  75 105 138 166 201 248 298
#     4   9  16  30  52  74  97 128 167 210 249 292
#     4  10  19  33  53  78 102 125 165 214 250 285
#     4   8  15  28  50  77  98 123 165 210 251 293
#     4   8  15  29  52  78 101 125 159 209 256 291
#     4   9  16  31  54  76 100 130 164 204 250 299
#     4  10  21  34  47  70 106 141 168 200 250 305
#
# _framework density 19.381129000000001
#
# number of rings (size 3 to 8) (size 9 to 14) (size 15 to 20)
#    0.000    2.625    2.500    1.875    0.000    0.750 
#    0.000    5.000    0.000    3.750    0.000    0.000 
#    0.000    0.000    0.000    0.000    0.000    0.000 
#
# Total GULP energy -178448.321160 kJ/mol
# GULP energy per Si atom -5576.510036 kJ/mol
# Density = 1.933702 g / cm^3
# Si number density = 19.381129 Si / 1000 Ang^3
#
#
#
# Elastic Constant Matrix: (Units=GPa)
#
#
# Indices 1 2 3 4 5 6 
#
# 1 169.5763 0.6613 75.1056 0.0000 12.6367 0.0000
# 2 0.6613 26.4979 -4.6621 0.0000 -4.2469 0.0000
# 3 75.1056 -4.6621 109.3693 0.0000 9.8747 0.0000
# 4 0.0000 0.0000 0.0000 15.2563 0.0000 7.9418
# 5 12.6367 -4.2469 9.8747 0.0000 25.6997 0.0000
# 6 0.0000 0.0000 0.0000 7.9418 0.0000 16.2747
#
#
#
# Elastic Compliance Matrix: (Units=1/GPa)
#
#
# Indices 1 2 3 4 5 6 
#
# 1 0.008640 -0.001602 -0.005795 0.000000 -0.002286 0.000000
# 2 -0.001602 0.039194 0.002191 0.000000 0.006423 0.000000
# 3 -0.005795 0.002191 0.013391 0.000000 -0.001934 0.000000
# 4 0.000000 0.000000 0.000000 0.087867 0.000000 -0.042877
# 5 -0.002286 0.006423 -0.001934 0.000000 0.041840 0.000000
# 6 0.000000 0.000000 0.000000 -0.042877 0.000000 0.082368
#
#
# Mechanical properties :
#
#
# Convention : Reuss Voigt Hill
#
# Bulk Modulus (GPa) = 19.68022 49.73924 34.70973
# Shear Modulus (GPa) = 16.63066 27.06873 21.84969
#
# Velocity S-wave (km/s) = 2.93249 3.74124 3.36127
# Velocity P-wave (km/s) = 4.65213 6.66198 5.74562
#
# Compressibility (1/GPa) = 0.05081244
#
# Stress axis : x y z
#
# Youngs Moduli (GPa) = 115.73445 25.51438 74.67647
#
# Poissons Ratio (x) = 0.04087 0.43278
# Poissons Ratio (y) = 0.18538 -0.16360
# Poissons Ratio (z) = 0.67073 -0.05590
#
# Static dielectric constant tensor:
#      x y z
#    x 1.705870 0.000000 -0.024420 
#    y 0.000000 1.722650 0.000000 
#    z -0.024420 0.000000 1.625590 
# 
# From -- ./inp_files/319126.got.cif
#   From: 2010.05.17/outbox.cif.g08.bks.cpg/sg12_160_cif.got.tgz:319126.got - 2010.06.03 13:09:07.
