data_PCOD9174871
_publ_section_title
;
Structure prediction by ZEFSAII (Michael W. Deem and Ramdas Pophale) SiO2 
 PCOD9174871
Probable space group: C 2/M
;
_chemical_formula_sum "Si O2"
_cell_formula_units_Z 64
_cell_length_a 30.765011
_cell_length_b 14.629084
_cell_length_c 9.955060
_cell_angle_alpha 90.000000
_cell_angle_beta 61.577327
_cell_angle_gamma 90.000000
_cell_volume 3940.345697
_symmetry_space_group_name_H-M "C 2/M"
_symmetry_group_IT_number 12
_symmetry_cell_setting 'monoclinic'
loop_
_space_group_symop_operation_xyz
x,y,z
-x,y,-z
-x,-y,-z
x,-y,z
1/2+x,1/2+y,z
1/2-x,1/2+y,-z
1/2-x,1/2-y,-z
1/2+x,1/2-y,z
loop_
_atom_site_type_symbol
_atom_site_label
_atom_site_fract_x
_atom_site_fract_y
_atom_site_fract_z
Si Si1 0.768583 0.890818 0.591817
Si Si2 0.679142 0.894654 0.517107
Si Si3 0.128595 0.790844 0.583742
Si Si4 0.465156 0.605813 0.674073
Si Si5 0.237550 0.155638 0.093143
Si Si6 0.964917 0.106536 0.170842
Si Si7 0.824134 0.401185 0.792740
Si Si8 0.870805 0.206439 0.736337
O O1 0.726084 0.877175 0.543583
O O2 0.819693 0.844240 0.471725
O O3 0.754211 0.848991 0.758590
O O4 0.775534 0.000000 0.599971
O O5 0.639101 0.815442 0.600200
O O6 0.691962 0.886787 0.339299
O O7 0.663149 0.000000 0.563639
O O8 0.084010 0.835223 0.730853
O O9 0.117935 0.800481 0.439655
O O10 0.500000 0.634070 0.500000
O O11 0.449617 0.500000 0.673979
O O12 0.499923 0.608844 0.751515
O O13 0.417073 0.668719 0.749221
O O14 0.178497 0.146222 0.164184
O O15 0.250000 0.250000 0.000000
O O16 0.276497 0.093861 0.958268
O O17 0.951199 0.000000 0.165494
O O18 0.000000 0.139511 0.000000
O O19 0.850170 0.500000 0.760595
O O20 0.856374 0.312399 0.783247
#
# Coordination Sequence:
#
# PCOD9174871 Si02
#       8
#     8   8   8   8   8   8   8   8
#     4  10  19  31  50  76 103 135 173 206 240 297
#     4   9  19  34  51  74 102 135 173 205 242 294
#     4  10  18  32  54  73  97 134 167 203 249 295
#     4  10  19  33  54  73  94 125 160 204 247 294
#     4   9  18  31  47  72 104 134 164 202 246 290
#     4  10  21  37  52  73 101 125 157 203 259 304
#     4   9  17  32  50  70 104 137 160 201 251 287
#     4   9  18  31  50  75  97 126 171 203 233 297
#
# _framework density 16.242229999999999
#
# number of rings (size 3 to 8) (size 9 to 14) (size 15 to 20)
#    0.000    2.500    1.250    1.875    0.000    2.500 
#    6.750    0.000    0.000    1.500    0.000    0.000 
#    0.000    0.000    0.000    0.000    0.000    0.000 
#
# Total GULP energy -178161.329946 kJ/mol
# GULP energy per Si atom -5567.541561 kJ/mol
# Density = 1.620526 g / cm^3
# Si number density = 16.242230 Si / 1000 Ang^3
#
#
#
# Elastic Constant Matrix: (Units=GPa)
#
#
# Indices 1 2 3 4 5 6 
#
# 1 64.9597 41.0323 33.4958 0.0000 -14.4975 0.0000
# 2 41.0323 82.9601 35.3545 0.0000 -21.1342 0.0000
# 3 33.4958 35.3545 97.9614 0.0000 -24.3233 0.0000
# 4 0.0000 0.0000 0.0000 18.3060 0.0000 -0.9411
# 5 -14.4975 -21.1342 -24.3233 0.0000 18.2426 0.0000
# 6 0.0000 0.0000 0.0000 -0.9411 0.0000 36.9778
#
#
#
# Elastic Compliance Matrix: (Units=1/GPa)
#
#
# Indices 1 2 3 4 5 6 
#
# 1 0.024122 -0.009486 -0.004176 0.000000 0.002613 0.000000
# 2 -0.009486 0.021064 -0.000256 0.000000 0.016523 0.000000
# 3 -0.004176 -0.000256 0.016191 0.000000 0.017973 0.000000
# 4 0.000000 0.000000 0.000000 0.054699 0.000000 0.001392
# 5 0.002613 0.016523 0.017973 0.000000 0.099999 0.000000
# 6 0.000000 0.000000 0.000000 0.001392 0.000000 0.027079
#
#
# Mechanical properties :
#
#
# Convention : Reuss Voigt Hill
#
# Bulk Modulus (GPa) = 29.81329 51.73851 40.77590
# Shear Modulus (GPa) = 17.71985 23.77184 20.74584
#
# Velocity S-wave (km/s) = 3.30657 3.82983 3.57778
# Velocity P-wave (km/s) = 5.74223 7.17497 6.49821
#
# Compressibility (1/GPa) = 0.03354209
#
# Stress axis : x y z
#
# Youngs Moduli (GPa) = 41.45546 47.47420 61.76329
#
# Poissons Ratio (x) = 0.45032 0.25792
# Poissons Ratio (y) = 0.39323 0.01581
# Poissons Ratio (z) = 0.17311 0.01215
#
# Static dielectric constant tensor:
#      x y z
#    x 1.509160 0.000000 -0.000170 
#    y 0.000000 1.607420 0.000000 
#    z -0.000170 0.000000 1.535780 
# 
# From -- ./inp_files/111625.got.cif
#   From: 2010.05.17/outbox.cif.g08.bks.cpg/sg12_56_cif.got.tgz:111625.got - 2010.06.03 13:09:07.
