data_PCOD9174234
_publ_section_title
;
Structure prediction by ZEFSAII (Michael W. Deem and Ramdas Pophale) SiO2 
 PCOD9174234
Probable space group: C 2/M
;
_chemical_formula_sum "Si O2"
_cell_formula_units_Z 32
_cell_length_a 21.367017
_cell_length_b 8.442686
_cell_length_c 19.080332
_cell_angle_alpha 90.000000
_cell_angle_beta 21.849157
_cell_angle_gamma 90.000000
_cell_volume 1280.988305
_symmetry_space_group_name_H-M "C 2/M"
_symmetry_group_IT_number 12
_symmetry_cell_setting 'monoclinic'
loop_
_space_group_symop_operation_xyz
x,y,z
-x,y,-z
-x,-y,-z
x,-y,z
1/2+x,1/2+y,z
1/2-x,1/2+y,-z
1/2-x,1/2-y,-z
1/2+x,1/2-y,z
loop_
_atom_site_type_symbol
_atom_site_label
_atom_site_fract_x
_atom_site_fract_y
_atom_site_fract_z
Si Si1 0.119480 0.817881 0.553241
Si Si2 0.168593 0.316422 0.242899
Si Si3 0.337438 0.688471 0.209374
Si Si4 0.898363 0.313144 0.897101
O O1 0.279868 0.767304 0.341002
O O2 0.966766 0.789926 0.656234
O O3 0.065071 0.720910 0.678597
O O4 0.127791 0.000000 0.564357
O O5 0.123143 0.500000 0.276893
O O6 0.193104 0.293405 0.299838
O O7 0.349145 0.281471 0.018294
O O8 0.358610 0.500000 0.198796
O O9 0.500000 0.753084 0.000000
O O10 0.883674 0.500000 0.924615
O O11 0.750000 0.250000 0.000000
#
# Coordination Sequence:
#
# PCOD9174234 Si02
#       4
#     8   8   8   8
#     4  11  21  34  55  82 110 139 176 218 262 314
#     4  10  19  34  57  82 108 138 175 218 265 314
#     4  10  22  39  56  76 106 143 180 219 264 313
#     4  10  18  31  53  80 109 137 172 217 265 313
#
# _framework density 24.980713000000002
#
# number of rings (size 3 to 8) (size 9 to 14) (size 15 to 20)
#    0.000    1.750    0.000    9.000    0.000    5.500 
#    0.000    1.250    0.000    0.000    0.000    0.000 
#    0.000    0.000    0.000    0.000    0.000    0.000 
#
# Total GULP energy -89570.600286 kJ/mol
# GULP energy per Si atom -5598.162518 kJ/mol
# Density = 2.492386 g / cm^3
# Si number density = 24.980713 Si / 1000 Ang^3
#
#
#
# Elastic Constant Matrix: (Units=GPa)
#
#
# Indices 1 2 3 4 5 6 
#
# 1 72.6722 14.3860 16.4146 0.0000 21.8835 0.0000
# 2 14.3860 77.4456 1.1522 0.0000 17.4283 -0.0001
# 3 16.4146 1.1522 151.1470 0.0000 15.8794 0.0000
# 4 0.0000 0.0000 0.0000 43.4101 0.0000 2.8659
# 5 21.8835 17.4283 15.8794 0.0000 55.6365 0.0000
# 6 0.0000 -0.0001 0.0000 2.8659 0.0000 10.4321
#
#
#
# Elastic Compliance Matrix: (Units=1/GPa)
#
#
# Indices 1 2 3 4 5 6 
#
# 1 0.015996 -0.001735 -0.001155 0.000000 -0.005419 0.000000
# 2 -0.001735 0.014099 0.000488 0.000000 -0.003873 0.000000
# 3 -0.001155 0.000488 0.006913 0.000000 -0.001672 0.000000
# 4 0.000000 0.000000 0.000000 0.023462 0.000000 -0.006445
# 5 -0.005419 -0.003873 -0.001672 0.000000 0.021796 0.000000
# 6 0.000000 0.000000 0.000000 -0.006445 0.000000 0.097629
#
#
# Mechanical properties :
#
#
# Convention : Reuss Voigt Hill
#
# Bulk Modulus (GPa) = 31.05058 40.57448 35.81253
# Shear Modulus (GPa) = 25.58414 39.84986 32.71700
#
# Velocity S-wave (km/s) = 3.20372 3.99836 3.62289
# Velocity P-wave (km/s) = 5.11291 6.13135 5.64514
#
# Compressibility (1/GPa) = 0.03220552
#
# Stress axis : x y z
#
# Youngs Moduli (GPa) = 62.51400 70.92721 144.64666
#
# Poissons Ratio (x) = 0.12305 0.16702
# Poissons Ratio (y) = 0.10845 -0.07057
# Poissons Ratio (z) = 0.07218 -0.03460
#
# Static dielectric constant tensor:
#      x y z
#    x 2.224660 0.000000 -0.163930 
#    y 0.000000 1.815530 0.000000 
#    z -0.163930 0.000000 2.119740 
# 
# From -- ./inp_files/81698.got.cif
#   From: 2010.05.17/outbox.cif.g08.bks.cpg/sg12_41_cif.got.tgz:81698.got - 2010.06.03 13:09:07.
