data_PCOD9174472
_publ_section_title
;
Structure prediction by ZEFSAII (Michael W. Deem and Ramdas Pophale) SiO2 
 PCOD9174472
Probable space group: C 2/M
;
_chemical_formula_sum "Si O2"
_cell_formula_units_Z 52
_cell_length_a 8.676873
_cell_length_b 29.999688
_cell_length_c 14.672486
_cell_angle_alpha 90.000000
_cell_angle_beta 43.939265
_cell_angle_gamma 90.000000
_cell_volume 2650.194387
_symmetry_space_group_name_H-M "C 2/M"
_symmetry_group_IT_number 12
_symmetry_cell_setting 'monoclinic'
loop_
_space_group_symop_operation_xyz
x,y,z
-x,y,-z
-x,-y,-z
x,-y,z
1/2+x,1/2+y,z
1/2-x,1/2+y,-z
1/2-x,1/2-y,-z
1/2+x,1/2-y,z
loop_
_atom_site_type_symbol
_atom_site_label
_atom_site_fract_x
_atom_site_fract_y
_atom_site_fract_z
Si Si1 0.473617 0.450578 0.706674
Si Si2 0.272379 0.203322 0.542473
Si Si3 0.469576 0.948479 0.232090
Si Si4 0.225496 0.595976 0.964642
Si Si5 0.215649 0.888219 0.473899
Si Si6 0.500000 0.745429 0.000000
Si Si7 0.073418 0.806927 0.146149
O O1 0.570327 0.500000 0.660791
O O2 0.255441 0.450132 0.734120
O O3 0.383130 0.438244 0.844067
O O4 0.639236 0.413816 0.597374
O O5 0.500000 0.203926 0.500000
O O6 0.250000 0.250000 0.500000
O O7 0.277427 0.162081 0.470540
O O8 0.078159 0.194943 0.699326
O O9 0.403733 0.917564 0.344922
O O10 0.523994 0.000000 0.230987
O O11 0.652159 0.924121 0.092254
O O12 0.345474 0.643541 0.913295
O O13 0.000000 0.600815 0.000000
O O14 0.000000 0.887505 0.500000
O O15 0.289549 0.776922 0.073471
O O16 0.459861 0.715195 0.106154
#
# Coordination Sequence:
#
# PCOD9174472 Si02
#       7
#     8   8   8   8   8   4   8
#     4   9  16  30  53  84 119 157 199 251 303 354
#     4  12  26  43  63  89 124 164 208 253 304 366
#     4   9  18  30  52  89 125 155 197 251 310 360
#     4  10  18  31  56  86 122 153 196 252 307 357
#     4  10  20  35  59  88 122 161 204 254 304 360
#     4  10  24  38  66  86 122 158 202 254 310 364
#     4  11  22  42  60  91 119 160 203 254 306 370
#
# _framework density 19.621202
#
# number of rings (size 3 to 8) (size 9 to 14) (size 15 to 20)
#    0.000    1.846    2.308    2.308    0.000    7.385 
#    0.000    0.000    0.000    1.846    0.000    2.154 
#    0.000    0.000    0.000    0.000    0.000    0.000 
#
# Total GULP energy -145198.706207 kJ/mol
# GULP energy per Si atom -5584.565623 kJ/mol
# Density = 1.957654 g / cm^3
# Si number density = 19.621202 Si / 1000 Ang^3
#
#
#
# Elastic Constant Matrix: (Units=GPa)
#
#
# Indices 1 2 3 4 5 6 
#
# 1 22.7516 23.2005 15.6549 0.0000 5.0233 0.0000
# 2 23.2005 183.8057 71.3815 0.0000 10.0933 0.0000
# 3 15.6549 71.3815 137.1746 0.0000 19.6657 0.0000
# 4 0.0000 0.0000 0.0000 37.0074 0.0000 6.7036
# 5 5.0233 10.0933 19.6657 0.0000 17.1134 0.0000
# 6 0.0000 0.0000 0.0000 6.7036 0.0000 18.7068
#
#
#
# Elastic Compliance Matrix: (Units=1/GPa)
#
#
# Indices 1 2 3 4 5 6 
#
# 1 0.052983 -0.005448 -0.001727 0.000000 -0.010354 0.000000
# 2 -0.005448 0.007379 -0.003380 0.000000 0.001132 0.000000
# 3 -0.001727 -0.003380 0.010640 0.000000 -0.009727 0.000000
# 4 0.000000 0.000000 0.000000 0.028897 0.000000 -0.010355
# 5 -0.010354 0.001132 -0.009727 0.000000 0.071983 0.000000
# 6 0.000000 0.000000 0.000000 -0.010355 0.000000 0.057167
#
#
# Mechanical properties :
#
#
# Convention : Reuss Voigt Hill
#
# Bulk Modulus (GPa) = 20.04352 62.68952 41.36652
# Shear Modulus (GPa) = 18.74114 30.13183 24.43649
#
# Velocity S-wave (km/s) = 3.09390 3.92302 3.53287
# Velocity P-wave (km/s) = 4.79587 7.24841 6.14572
#
# Compressibility (1/GPa) = 0.04989145
#
# Stress axis : x y z
#
# Youngs Moduli (GPa) = 18.87384 135.52347 93.98076
#
# Poissons Ratio (x) = 0.73839 0.16231
# Poissons Ratio (y) = 0.10283 0.31767
# Poissons Ratio (z) = 0.03260 0.45809
#
# Static dielectric constant tensor:
#      x y z
#    x 1.743490 0.000000 0.048590 
#    y 0.000000 1.670820 0.000000 
#    z 0.048590 0.000000 1.712580 
# 
# From -- ./inp_files/201194.got.cif
#   From: 2010.05.17/outbox.cif.g08.bks.cpg/sg12_101_cif.got.tgz:201194.got - 2010.06.03 13:09:07.
