data_PCOD9174095
_publ_section_title
;
Structure prediction by ZEFSAII (Michael W. Deem and Ramdas Pophale) SiO2 
 PCOD9174095
Probable space group: C 2/M
;
_chemical_formula_sum "Si O2"
_cell_formula_units_Z 64
_cell_length_a 23.960664
_cell_length_b 17.485232
_cell_length_c 14.293705
_cell_angle_alpha 90.000000
_cell_angle_beta 33.643196
_cell_angle_gamma 90.000000
_cell_volume 3317.721977
_symmetry_space_group_name_H-M "C 2/M"
_symmetry_group_IT_number 12
_symmetry_cell_setting 'monoclinic'
loop_
_space_group_symop_operation_xyz
x,y,z
-x,y,-z
-x,-y,-z
x,-y,z
1/2+x,1/2+y,z
1/2-x,1/2+y,-z
1/2-x,1/2-y,-z
1/2+x,1/2-y,z
loop_
_atom_site_type_symbol
_atom_site_label
_atom_site_fract_x
_atom_site_fract_y
_atom_site_fract_z
Si Si1 0.446766 0.364172 0.780520
Si Si2 0.239345 0.085936 0.077962
Si Si3 0.060509 0.352508 0.834035
Si Si4 0.896112 0.291626 0.917775
Si Si5 0.156856 0.912857 0.403212
Si Si6 0.711526 0.763919 0.747980
Si Si7 0.038242 0.091044 0.845490
Si Si8 0.745603 0.163995 0.463617
O O1 0.342823 0.395525 0.885566
O O2 0.441170 0.272350 0.787638
O O3 0.541234 0.397075 0.590868
O O4 0.466894 0.385236 0.860187
O O5 0.180563 0.089583 0.259666
O O6 0.277908 0.000000 0.013516
O O7 0.330854 0.145088 0.956106
O O8 0.111433 0.285239 0.826751
O O9 0.155838 0.380758 0.640083
O O10 0.982859 0.326520 0.862742
O O11 0.000000 0.398221 0.000000
O O12 0.820321 0.254529 0.100348
O O13 0.221663 0.841653 0.352834
O O14 0.183264 0.000000 0.398308
O O15 0.763776 0.688999 0.631922
O O16 0.148527 0.123495 0.670912
O O17 0.043812 0.000000 0.840249
O O18 0.000000 0.118127 0.000000
O O19 0.750000 0.250000 0.500000
#
# Coordination Sequence:
#
# PCOD9174095 Si02
#       8
#     8   8   8   8   8   8   8   8
#     4  12  20  33  56  80 107 139 177 224 278 326
#     4  10  22  38  53  74 107 145 182 221 269 323
#     4   9  17  30  49  74 106 143 178 217 265 314
#     4  10  20  33  51  77 108 140 183 226 262 320
#     4  10  20  34  54  81 110 138 174 222 274 329
#     4   9  17  31  51  76 107 143 178 217 267 321
#     4  11  24  39  57  85 116 144 180 228 281 335
#     4  10  18  31  52  78 108 144 181 218 266 324
#
# _framework density 19.290344999999999
#
# number of rings (size 3 to 8) (size 9 to 14) (size 15 to 20)
#    0.000    1.875    0.000    6.375    0.000    3.500 
#    0.000    1.250    0.000    4.875    0.000    0.000 
#    0.000   18.000    0.000    0.000    0.000    0.000 
#
# Total GULP energy -178372.144256 kJ/mol
# GULP energy per Si atom -5574.129508 kJ/mol
# Density = 1.924644 g / cm^3
# Si number density = 19.290345 Si / 1000 Ang^3
#
#
#
# Elastic Constant Matrix: (Units=GPa)
#
#
# Indices 1 2 3 4 5 6 
#
# 1 75.7012 43.9021 32.9521 0.0000 -8.5655 0.0000
# 2 43.9021 80.7653 28.2278 0.0000 -10.8767 0.0000
# 3 32.9521 28.2278 88.9514 0.0000 -8.1888 0.0000
# 4 0.0000 0.0000 0.0000 35.7325 0.0000 -22.0742
# 5 -8.5655 -10.8767 -8.1888 0.0000 14.9464 0.0000
# 6 0.0000 0.0000 0.0000 -22.0742 0.0000 60.3105
#
#
#
# Elastic Compliance Matrix: (Units=1/GPa)
#
#
# Indices 1 2 3 4 5 6 
#
# 1 0.020962 -0.009457 -0.004520 0.000000 0.002654 0.000000
# 2 -0.009457 0.019197 -0.001897 0.000000 0.007511 0.000000
# 3 -0.004520 -0.001897 0.013852 0.000000 0.003618 0.000000
# 4 0.000000 0.000000 0.000000 0.036162 0.000000 0.013236
# 5 0.002654 0.007511 0.003618 0.000000 0.075875 0.000000
# 6 0.000000 0.000000 0.000000 0.013236 0.000000 0.021425
#
#
# Mechanical properties :
#
#
# Convention : Reuss Voigt Hill
#
# Bulk Modulus (GPa) = 44.91942 50.62022 47.76982
# Shear Modulus (GPa) = 22.06117 31.55360 26.80739
#
# Velocity S-wave (km/s) = 3.38544 4.04879 3.73188
# Velocity P-wave (km/s) = 6.21435 6.93939 6.58685
#
# Compressibility (1/GPa) = 0.02226209
#
# Stress axis : x y z
#
# Youngs Moduli (GPa) = 47.70444 52.09191 72.19390
#
# Poissons Ratio (x) = 0.49266 0.32631
# Poissons Ratio (y) = 0.45116 0.13695
# Poissons Ratio (z) = 0.21562 0.09882
#
# Static dielectric constant tensor:
#      x y z
#    x 1.709840 0.000000 0.052290 
#    y 0.000000 1.687810 0.000000 
#    z 0.052290 0.000000 1.764080 
# 
# From -- ./inp_files/241484.got.cif
#   From: 2010.05.17/outbox.cif.g08.bks.cpg/sg12_121_cif.got.tgz:241484.got - 2010.06.03 13:09:07.
