data_PCOD9174632
_publ_section_title
;
Structure prediction by ZEFSAII (Michael W. Deem and Ramdas Pophale) SiO2 
 PCOD9174632
Probable space group: C 2/M
;
_chemical_formula_sum "Si O2"
_cell_formula_units_Z 56
_cell_length_a 30.065844
_cell_length_b 8.513182
_cell_length_c 17.946231
_cell_angle_alpha 90.000000
_cell_angle_beta 130.992164
_cell_angle_gamma 90.000000
_cell_volume 3467.129469
_symmetry_space_group_name_H-M "C 2/M"
_symmetry_group_IT_number 12
_symmetry_cell_setting 'monoclinic'
loop_
_space_group_symop_operation_xyz
x,y,z
-x,y,-z
-x,-y,-z
x,-y,z
1/2+x,1/2+y,z
1/2-x,1/2+y,-z
1/2-x,1/2-y,-z
1/2+x,1/2-y,z
loop_
_atom_site_type_symbol
_atom_site_label
_atom_site_fract_x
_atom_site_fract_y
_atom_site_fract_z
Si Si1 0.843445 0.311146 0.087007
Si Si2 0.084385 0.686211 0.235456
Si Si3 0.769096 0.188666 0.135110
Si Si4 0.714930 0.313817 0.390767
Si Si5 0.457835 0.190303 0.126789
Si Si6 0.721942 0.811829 0.237670
Si Si7 0.591331 0.314756 0.082261
O O1 0.843584 0.500000 0.086131
O O2 0.822004 0.255564 0.144109
O O3 0.907592 0.257893 0.129788
O O4 0.792104 0.259414 0.972490
O O5 0.093714 0.500000 0.253888
O O6 0.145591 0.770881 0.321191
O O7 0.071104 0.724583 0.134228
O O8 0.025763 0.734706 0.215799
O O9 0.765849 0.230171 0.218633
O O10 0.771032 0.000000 0.132045
O O11 0.721033 0.500000 0.391779
O O12 0.750000 0.250000 0.500000
O O13 0.737776 0.236602 0.338841
O O14 0.456222 0.000000 0.120802
O O15 0.438832 0.256707 0.025923
O O16 0.660531 0.725542 0.152854
O O17 0.711896 0.000000 0.224041
O O18 0.582365 0.500000 0.082831
#
# Coordination Sequence:
#
# PCOD9174632 Si02
#       7
#     8   8   8   8   8   8   8
#     4   9  17  29  44  64  94 130 168 203 233 272
#     4  10  20  33  50  68  92 126 162 196 238 287
#     4   9  17  29  45  66  94 128 165 202 238 277
#     4  11  22  37  55  76  99 121 154 196 244 291
#     4  10  19  32  46  64  93 133 168 196 234 282
#     4  10  18  32  51  70  97 129 163 199 241 287
#     4  11  20  28  42  66  96 128 164 201 236 277
#
# _framework density 16.151689000000001
#
# number of rings (size 3 to 8) (size 9 to 14) (size 15 to 20)
#    0.000    2.000    1.429    5.571    0.000    4.571 
#    0.000    0.000    0.000    0.000    0.000    1.000 
#    0.000    8.000    0.000    0.000    0.000    0.000 
#
# Total GULP energy -156153.275951 kJ/mol
# GULP energy per Si atom -5576.902713 kJ/mol
# Density = 1.611493 g / cm^3
# Si number density = 16.151689 Si / 1000 Ang^3
#
#
#
# Elastic Constant Matrix: (Units=GPa)
#
#
# Indices 1 2 3 4 5 6 
#
# 1 119.7358 8.7711 45.6836 0.0000 2.9786 0.0000
# 2 8.7711 23.1066 8.0651 0.0000 1.4190 0.0000
# 3 45.6836 8.0651 65.8888 0.0000 -10.3552 0.0000
# 4 0.0000 0.0000 0.0000 19.8418 0.0000 -3.2690
# 5 2.9786 1.4190 -10.3552 0.0000 12.8962 0.0000
# 6 0.0000 0.0000 0.0000 -3.2690 0.0000 21.6389
#
#
#
# Elastic Compliance Matrix: (Units=1/GPa)
#
#
# Indices 1 2 3 4 5 6 
#
# 1 0.012678 -0.000447 -0.010515 0.000000 -0.011322 0.000000
# 2 -0.000447 0.046573 -0.007072 0.000000 -0.010700 0.000000
# 3 -0.010515 -0.007072 0.027280 0.000000 0.025112 0.000000
# 4 0.000000 0.000000 0.000000 0.051685 0.000000 0.007808
# 5 -0.011322 -0.010700 0.025112 0.000000 0.101499 0.000000
# 6 0.000000 0.000000 0.000000 0.007808 0.000000 0.047393
#
#
# Mechanical properties :
#
#
# Convention : Reuss Voigt Hill
#
# Bulk Modulus (GPa) = 19.81686 37.08565 28.45126
# Shear Modulus (GPa) = 14.70601 20.62278 17.66440
#
# Velocity S-wave (km/s) = 3.02071 3.57714 3.31064
# Velocity P-wave (km/s) = 4.94592 6.33024 5.68041
#
# Compressibility (1/GPa) = 0.05046207
#
# Stress axis : x y z
#
# Youngs Moduli (GPa) = 78.87727 21.47159 36.65714
#
# Poissons Ratio (x) = 0.00960 0.38544
# Poissons Ratio (y) = 0.03526 0.25926
# Poissons Ratio (z) = 0.82938 0.15186
#
# Static dielectric constant tensor:
#      x y z
#    x 1.579040 0.000000 0.009870 
#    y 0.000000 1.546510 0.000000 
#    z 0.009870 0.000000 1.517530 
# 
# From -- ./inp_files/287919.got.cif
#   From: 2010.05.17/outbox.cif.g08.bks.cpg/sg12_144_cif.got.tgz:287919.got - 2010.06.03 13:09:07.
