data_PCOD9174480
_publ_section_title
;
Structure prediction by ZEFSAII (Michael W. Deem and Ramdas Pophale) SiO2 
 PCOD9174480
Probable space group: C 2/M
;
_chemical_formula_sum "Si O2"
_cell_formula_units_Z 56
_cell_length_a 18.921156
_cell_length_b 14.978808
_cell_length_c 27.715835
_cell_angle_alpha 90.000000
_cell_angle_beta 159.555578
_cell_angle_gamma 90.000000
_cell_volume 2743.783030
_symmetry_space_group_name_H-M "C 2/M"
_symmetry_group_IT_number 12
_symmetry_cell_setting 'monoclinic'
loop_
_space_group_symop_operation_xyz
x,y,z
-x,y,-z
-x,-y,-z
x,-y,z
1/2+x,1/2+y,z
1/2-x,1/2+y,-z
1/2-x,1/2-y,-z
1/2+x,1/2-y,z
loop_
_atom_site_type_symbol
_atom_site_label
_atom_site_fract_x
_atom_site_fract_y
_atom_site_fract_z
Si Si1 0.286311 0.602075 0.610628
Si Si2 0.641327 0.607869 0.546610
Si Si3 0.389959 0.891576 0.150832
Si Si4 0.761359 0.198003 0.847358
Si Si5 0.919328 0.826082 0.600182
Si Si6 0.339824 0.893148 0.316172
Si Si7 0.533379 0.391118 0.855336
O O1 0.262181 0.500000 0.611319
O O2 0.350750 0.603154 0.596341
O O3 0.462839 0.640601 0.757398
O O4 0.062108 0.643260 0.472591
O O5 0.500000 0.639554 0.500000
O O6 0.627215 0.500000 0.535894
O O7 0.583041 0.642632 0.456271
O O8 0.875397 0.631041 0.706084
O O9 0.309880 0.845879 0.148317
O O10 0.375753 0.000000 0.147181
O O11 0.244740 0.862683 0.013934
O O12 0.633112 0.285887 0.752993
O O13 0.705367 0.132120 0.767614
O O14 0.000000 0.213350 0.000000
O O15 0.750000 0.750000 0.500000
O O16 0.153343 0.863336 0.229764
O O17 0.347101 0.000000 0.324821
O O18 0.546029 0.500000 0.863426
#
# Coordination Sequence:
#
# PCOD9174480 Si02
#       7
#     8   8   8   8   8   8   8
#     4  10  20  37  60  83 115 158 199 240 291 352
#     4  10  22  44  71  91 113 155 213 261 293 344
#     4  10  19  35  62  92 120 154 199 247 300 357
#     4  12  23  37  55  85 125 162 193 244 306 366
#     4  12  23  41  60  88 120 156 197 250 304 364
#     4  10  18  31  56  88 118 154 195 232 286 362
#     4   9  18  32  54  87 122 150 187 235 286 357
#
# _framework density 20.409776000000001
#
# number of rings (size 3 to 8) (size 9 to 14) (size 15 to 20)
#    0.000    1.571    4.286    1.286    0.000    4.571 
#    5.143    0.714    0.000    0.857    0.000    0.000 
#    0.000    0.000    0.000    0.000    0.000    0.000 
#
# Total GULP energy -156346.519166 kJ/mol
# GULP energy per Si atom -5583.804256 kJ/mol
# Density = 2.036332 g / cm^3
# Si number density = 20.409776 Si / 1000 Ang^3
#
#
#
# Elastic Constant Matrix: (Units=GPa)
#
#
# Indices 1 2 3 4 5 6 
#
# 1 88.5663 6.0180 70.8168 -0.1596 -3.2612 0.0003
# 2 6.0180 27.9400 23.8773 -0.0510 2.5992 -0.0038
# 3 70.8168 23.8773 199.9191 -0.1007 -4.0248 -0.0258
# 4 -0.1596 -0.0510 -0.1007 22.3229 0.0347 1.9138
# 5 -3.2612 2.5992 -4.0248 0.0347 38.8765 0.0107
# 6 0.0003 -0.0038 -0.0258 1.9138 0.0107 9.5439
#
#
#
# Elastic Compliance Matrix: (Units=1/GPa)
#
#
# Indices 1 2 3 4 5 6 
#
# 1 0.015827 0.001462 -0.005768 0.000092 0.000633 -0.000035
# 2 0.001462 0.040387 -0.005404 0.000084 -0.003137 -0.000012
# 3 -0.005768 -0.005404 0.007704 -0.000022 0.000675 0.000022
# 4 0.000092 0.000084 -0.000022 0.045581 -0.000038 -0.009140
# 5 0.000633 -0.003137 0.000675 -0.000038 0.026055 -0.000021
# 6 -0.000035 -0.000012 0.000022 -0.009140 -0.000021 0.106612
#
#
# Mechanical properties :
#
#
# Convention : Reuss Voigt Hill
#
# Bulk Modulus (GPa) = 22.47371 57.53885 40.00628
# Shear Modulus (GPa) = 18.08830 28.52953 23.30891
#
# Velocity S-wave (km/s) = 2.98024 3.74282 3.38308
# Velocity P-wave (km/s) = 4.78305 6.85064 5.90800
#
# Compressibility (1/GPa) = 0.04449644
#
# Stress axis : x y z
#
# Youngs Moduli (GPa) = 63.18156 24.76060 129.79631
#
# Poissons Ratio (x) = -0.03619 0.74870
# Poissons Ratio (y) = -0.09236 0.70148
# Poissons Ratio (z) = 0.36445 0.13382
#
# Static dielectric constant tensor:
#      x y z
#    x 1.709400 0.000010 -0.010430 
#    y 0.000010 1.783550 -0.000010 
#    z -0.010430 -0.000010 1.739280 
# 
# From -- ./inp_files/158224.got.cif
#   From: 2010.05.17/outbox.cif.g08.bks.cpg/sg12_80_cif.got.tgz:158224.got - 2010.06.03 13:09:07.
