data_PCOD9174648
_publ_section_title
;
Structure prediction by ZEFSAII (Michael W. Deem and Ramdas Pophale) SiO2 
 PCOD9174648
Probable space group: C 2/M
;
_chemical_formula_sum "Si O2"
_cell_formula_units_Z 64
_cell_length_a 20.576940
_cell_length_b 8.716544
_cell_length_c 24.318176
_cell_angle_alpha 90.000000
_cell_angle_beta 121.177947
_cell_angle_gamma 90.000000
_cell_volume 3731.714469
_symmetry_space_group_name_H-M "C 2/M"
_symmetry_group_IT_number 12
_symmetry_cell_setting 'monoclinic'
loop_
_space_group_symop_operation_xyz
x,y,z
-x,y,-z
-x,-y,-z
x,-y,z
1/2+x,1/2+y,z
1/2-x,1/2+y,-z
1/2-x,1/2-y,-z
1/2+x,1/2-y,z
loop_
_atom_site_type_symbol
_atom_site_label
_atom_site_fract_x
_atom_site_fract_y
_atom_site_fract_z
Si Si1 0.901633 0.817643 0.823696
Si Si2 0.828921 0.317580 0.303196
Si Si3 0.914961 0.685622 0.446311
Si Si4 0.207226 0.684579 0.033372
Si Si5 0.271332 0.682693 0.450385
Si Si6 0.758565 0.315953 0.829067
Si Si7 0.968835 0.684205 0.047061
Si Si8 0.685892 0.817026 0.306080
O O1 0.834201 0.751640 0.833183
O O2 0.887856 0.745160 0.757357
O O3 0.980085 0.766880 0.885399
O O4 0.894807 0.000000 0.817941
O O5 0.831142 0.500000 0.296420
O O6 0.895936 0.271431 0.374460
O O7 0.813894 0.238505 0.238135
O O8 0.754512 0.269384 0.305286
O O9 0.910579 0.500000 0.447640
O O10 0.848574 0.750898 0.456717
O O11 0.000000 0.733183 0.500000
O O12 0.210612 0.500000 0.033882
O O13 0.240806 0.733486 0.107154
O O14 0.250000 0.750000 0.000000
O O15 0.118981 0.728674 0.990726
O O16 0.280245 0.500000 0.458222
O O17 0.250000 0.750000 0.500000
O O18 0.202369 0.713309 0.377124
O O19 0.764017 0.500000 0.828799
O O20 0.975400 0.500000 0.057609
O O21 0.000000 0.719678 0.000000
O O22 0.692342 0.000000 0.299801
#
# Coordination Sequence:
#
# PCOD9174648 Si02
#       8
#     8   8   8   8   8   8   8   8
#     4  11  20  29  49  81 107 129 164 218 263 291
#     4   9  16  27  47  76 102 128 168 215 256 294
#     4   9  18  33  53  77 107 139 172 214 260 305
#     4  10  22  37  55  75 100 136 170 209 252 304
#     4  10  20  33  53  79 106 139 177 215 257 309
#     4  10  18  32  51  73 101 136 170 204 254 309
#     4  10  19  36  56  75 102 135 172 206 251 307
#     4   9  17  30  48  72 102 137 172 206 253 310
#
# _framework density 17.150293999999999
#
# number of rings (size 3 to 8) (size 9 to 14) (size 15 to 20)
#    0.000    2.250    1.250    4.125    0.000    4.000 
#    0.000    0.000    2.750    0.000    0.000    0.000 
#    0.000    0.000    0.000    0.000    0.000    0.000 
#
# Total GULP energy -178342.549464 kJ/mol
# GULP energy per Si atom -5573.204671 kJ/mol
# Density = 1.711126 g / cm^3
# Si number density = 17.150294 Si / 1000 Ang^3
#
#
#
# Elastic Constant Matrix: (Units=GPa)
#
#
# Indices 1 2 3 4 5 6 
#
# 1 76.1130 27.5449 69.0158 0.0000 -3.4880 0.0000
# 2 27.5449 46.2201 49.4127 0.0000 -1.1006 0.0000
# 3 69.0158 49.4127 192.5102 0.0000 0.5898 0.0000
# 4 0.0000 0.0000 0.0000 29.6656 0.0000 -0.4682
# 5 -3.4880 -1.1006 0.5898 0.0000 25.5206 0.0000
# 6 0.0000 0.0000 0.0000 -0.4682 0.0000 21.3841
#
#
#
# Elastic Compliance Matrix: (Units=1/GPa)
#
#
# Indices 1 2 3 4 5 6 
#
# 1 0.020810 -0.005998 -0.005929 0.000000 0.002723 0.000000
# 2 -0.005998 0.031601 -0.005963 0.000000 0.000681 0.000000
# 3 -0.005929 -0.005963 0.008855 0.000000 -0.001272 0.000000
# 4 0.000000 0.000000 0.000000 0.033721 0.000000 0.000738
# 5 0.002723 0.000681 -0.001272 0.000000 0.039615 0.000000
# 6 0.000000 0.000000 0.000000 0.000738 0.000000 0.046780
#
#
# Mechanical properties :
#
#
# Convention : Reuss Voigt Hill
#
# Bulk Modulus (GPa) = 39.23837 67.42113 53.32975
# Shear Modulus (GPa) = 22.15740 26.57203 24.36472
#
# Velocity S-wave (km/s) = 3.59828 3.94047 3.77325
# Velocity P-wave (km/s) = 6.33974 7.75244 7.08140
#
# Compressibility (1/GPa) = 0.02548526
#
# Stress axis : x y z
#
# Youngs Moduli (GPa) = 48.05311 31.64419 112.93456
#
# Poissons Ratio (x) = 0.18981 0.66963
# Poissons Ratio (y) = 0.28823 0.67343
# Poissons Ratio (z) = 0.28492 0.18869
#
# Static dielectric constant tensor:
#      x y z
#    x 1.553190 0.000000 0.017180 
#    y 0.000000 1.577550 0.000000 
#    z 0.017180 0.000000 1.639290 
# 
# From -- ./inp_files/345578.got.cif
#   From: 2010.05.17/outbox.cif.g08.bks.cpg/sg12_173_cif.got.tgz:345578.got - 2010.06.03 13:09:07.
