data_PCOD9174925
_publ_section_title
;
Structure prediction by ZEFSAII (Michael W. Deem and Ramdas Pophale) SiO2 
 PCOD9174925
Probable space group: C 2/M
;
_chemical_formula_sum "Si O2"
_cell_formula_units_Z 48
_cell_length_a 13.293357
_cell_length_b 18.760681
_cell_length_c 9.191334
_cell_angle_alpha 90.000000
_cell_angle_beta 92.930919
_cell_angle_gamma 90.000000
_cell_volume 2289.250654
_symmetry_space_group_name_H-M "C 2/M"
_symmetry_group_IT_number 12
_symmetry_cell_setting 'monoclinic'
loop_
_space_group_symop_operation_xyz
x,y,z
-x,y,-z
-x,-y,-z
x,-y,z
1/2+x,1/2+y,z
1/2-x,1/2+y,-z
1/2-x,1/2-y,-z
1/2+x,1/2-y,z
loop_
_atom_site_type_symbol
_atom_site_label
_atom_site_fract_x
_atom_site_fract_y
_atom_site_fract_z
Si Si1 0.548819 0.804372 0.249466
Si Si2 0.938708 0.831546 0.308729
Si Si3 0.577564 0.577955 0.144375
Si Si4 0.414793 0.082958 0.364352
Si Si5 0.646454 0.712239 0.013004
Si Si6 0.737469 0.167342 0.457146
O O1 0.502714 0.740092 0.344827
O O2 0.465443 0.866607 0.245662
O O3 0.578554 0.765736 0.102709
O O4 0.652981 0.833325 0.324235
O O5 0.847987 0.852844 0.407227
O O6 0.014101 0.895734 0.278087
O O7 0.891556 0.809940 0.148541
O O8 0.621240 0.500000 0.165624
O O9 0.653417 0.640500 0.108728
O O10 0.500000 0.576111 0.000000
O O11 0.500000 0.085060 0.500000
O O12 0.313760 0.119813 0.420626
O O13 0.400206 0.000000 0.324572
O O14 0.750000 0.750000 0.000000
O O15 0.750000 0.250000 0.500000
#
# Coordination Sequence:
#
# PCOD9174925 Si02
#       6
#     8   8   8   8   8   8
#     4  10  19  34  54  75 107 137 171 220 262 306
#     4  10  19  32  54  80 104 137 172 216 262 318
#     4   8  16  30  48  74 108 135 164 212 263 302
#     4   9  19  34  51  76 108 139 175 218 261 306
#     4  10  18  32  54  80 104 137 179 216 260 310
#     4  11  20  32  54  81 102 135 177 216 260 311
#
# _framework density 20.967559000000001
#
# number of rings (size 3 to 8) (size 9 to 14) (size 15 to 20)
#    0.000    2.333    3.333    1.500    0.000    0.667 
#    0.000    0.833    0.000   11.000    0.000    5.833 
#    0.000    0.000    0.000    0.000    0.000    0.000 
#
# Total GULP energy -133871.333637 kJ/mol
# GULP energy per Si atom -5577.972235 kJ/mol
# Density = 2.091984 g / cm^3
# Si number density = 20.967559 Si / 1000 Ang^3
#
#
#
# Elastic Constant Matrix: (Units=GPa)
#
#
# Indices 1 2 3 4 5 6 
#
# 1 76.8147 39.0085 41.2630 0.0000 -39.8306 0.0000
# 2 39.0085 165.8289 49.3586 0.0000 -40.9099 0.0000
# 3 41.2630 49.3586 86.3211 0.0000 -30.7647 0.0000
# 4 0.0000 0.0000 0.0000 6.3888 0.0000 1.6578
# 5 -39.8306 -40.9099 -30.7647 0.0000 46.5513 0.0000
# 6 0.0000 0.0000 0.0000 1.6578 0.0000 21.2667
#
#
#
# Elastic Compliance Matrix: (Units=1/GPa)
#
#
# Indices 1 2 3 4 5 6 
#
# 1 0.025417 0.000218 -0.005828 0.000000 0.018088 0.000000
# 2 0.000218 0.008177 -0.002815 0.000000 0.005512 0.000000
# 3 -0.005828 -0.002815 0.017426 0.000000 0.004055 0.000000
# 4 0.000000 0.000000 0.000000 0.159757 0.000000 -0.012453
# 5 0.018088 0.005512 0.004055 0.000000 0.044482 0.000000
# 6 0.000000 0.000000 0.000000 -0.012453 0.000000 0.047993
#
#
# Mechanical properties :
#
#
# Convention : Reuss Voigt Hill
#
# Bulk Modulus (GPa) = 29.26649 65.35833 47.31241
# Shear Modulus (GPa) = 15.08335 28.13035 21.60685
#
# Velocity S-wave (km/s) = 2.68501 3.66678 3.21361
# Velocity P-wave (km/s) = 4.85805 7.01184 6.03185
#
# Compressibility (1/GPa) = 0.03416878
#
# Stress axis : x y z
#
# Youngs Moduli (GPa) = 39.34326 122.29791 57.38635
#
# Poissons Ratio (x) = -0.02665 0.33446
# Poissons Ratio (y) = -0.00857 0.16156
# Poissons Ratio (z) = 0.22930 0.34430
#
# Static dielectric constant tensor:
#      x y z
#    x 1.856160 0.000000 0.023720 
#    y 0.000000 1.752500 0.000000 
#    z 0.023720 0.000000 1.810770 
# 
# From -- ./inp_files/144789.got.cif
#   From: 2010.05.17/outbox.cif.g08.bks.cpg/sg12_73_cif.got.tgz:144789.got - 2010.06.03 13:09:07.
