data_PCOD9174899
_publ_section_title
;
Structure prediction by ZEFSAII (Michael W. Deem and Ramdas Pophale) SiO2 
 PCOD9174899
Probable space group: C 2/M
;
_chemical_formula_sum "Si O2"
_cell_formula_units_Z 36
_cell_length_a 24.917846
_cell_length_b 10.768493
_cell_length_c 7.499146
_cell_angle_alpha 90.000000
_cell_angle_beta 103.270497
_cell_angle_gamma 90.000000
_cell_volume 1958.496101
_symmetry_space_group_name_H-M "C 2/M"
_symmetry_group_IT_number 12
_symmetry_cell_setting 'monoclinic'
loop_
_space_group_symop_operation_xyz
x,y,z
-x,y,-z
-x,-y,-z
x,-y,z
1/2+x,1/2+y,z
1/2-x,1/2+y,-z
1/2-x,1/2-y,-z
1/2+x,1/2-y,z
loop_
_atom_site_type_symbol
_atom_site_label
_atom_site_fract_x
_atom_site_fract_y
_atom_site_fract_z
Si Si1 0.892176 0.355950 0.328269
Si Si2 0.705877 0.145933 0.017612
Si Si3 0.949115 0.134832 0.827304
Si Si4 0.133112 0.642519 0.286029
Si Si5 0.000000 0.796102 0.500000
O O1 0.906680 0.500000 0.320050
O O2 0.862331 0.340472 0.497814
O O3 0.949280 0.282421 0.379619
O O4 0.849181 0.326334 0.140056
O O5 0.688055 0.154802 0.210956
O O6 0.721216 0.000000 0.993770
O O7 0.750000 0.250000 0.000000
O O8 0.909268 0.252471 0.810110
O O9 0.973245 0.134157 0.645644
O O10 0.922212 0.000000 0.842047
O O11 0.000000 0.148261 0.000000
O O12 0.112933 0.500000 0.241108
#
# Coordination Sequence:
#
# PCOD9174899 Si02
#       5
#     8   8   8   8   4
#     4   9  18  33  54  79 106 135 171 214 256 302
#     4  10  21  37  55  77 104 135 173 216 259 305
#     4  10  20  32  48  74 108 140 169 207 255 306
#     4   9  19  35  53  74 100 132 173 216 255 301
#     4  10  18  32  54  78 105 138 173 208 255 306
#
# _framework density 18.381450999999998
#
# number of rings (size 3 to 8) (size 9 to 14) (size 15 to 20)
#    0.000    2.444    0.000    2.000    0.000    3.111 
#    0.000    5.556    0.000    0.000    0.000    0.000 
#    0.000    0.000    0.000    0.000    0.000    0.000 
#
# Total GULP energy -100279.702920 kJ/mol
# GULP energy per Si atom -5571.094607 kJ/mol
# Density = 1.833961 g / cm^3
# Si number density = 18.381451 Si / 1000 Ang^3
#
#
#
# Elastic Constant Matrix: (Units=GPa)
#
#
# Indices 1 2 3 4 5 6 
#
# 1 66.4912 50.8867 7.9881 0.0000 -11.2260 0.0000
# 2 50.8867 86.9632 18.4037 0.0000 -8.5299 0.0000
# 3 7.9881 18.4037 34.4005 0.0000 -2.6810 0.0000
# 4 0.0000 0.0000 0.0000 68.9875 0.0000 74.0821
# 5 -11.2260 -8.5299 -2.6810 0.0000 20.8801 0.0000
# 6 0.0000 0.0000 0.0000 74.0821 0.0000 118.8932
#
#
#
# Elastic Compliance Matrix: (Units=1/GPa)
#
#
# Indices 1 2 3 4 5 6 
#
# 1 0.029011 -0.016694 0.002907 0.000000 0.009151 0.000000
# 2 -0.016694 0.022996 -0.008478 0.000000 -0.000669 0.000000
# 3 0.002907 -0.008478 0.033113 0.000000 0.002351 0.000000
# 4 0.000000 0.000000 0.000000 0.043808 0.000000 -0.027296
# 5 0.009151 -0.000669 0.002351 0.000000 0.052841 0.000000
# 6 0.000000 0.000000 0.000000 -0.027296 0.000000 0.025419
#
#
# Mechanical properties :
#
#
# Convention : Reuss Voigt Hill
#
# Bulk Modulus (GPa) = 24.63576 38.04577 31.34076
# Shear Modulus (GPa) = 18.85030 49.12393 33.98712
#
# Velocity S-wave (km/s) = 3.20583 5.17520 4.30465
# Velocity P-wave (km/s) = 5.20910 7.51353 6.46482
#
# Compressibility (1/GPa) = 0.04059140
#
# Stress axis : x y z
#
# Youngs Moduli (GPa) = 34.46942 43.48582 30.19940
#
# Poissons Ratio (x) = 0.72594 -0.08780
# Poissons Ratio (y) = 0.57542 0.25604
# Poissons Ratio (z) = -0.10022 0.36869
#
# Static dielectric constant tensor:
#      x y z
#    x 1.610180 0.000000 -0.029090 
#    y 0.000000 1.645620 0.000000 
#    z -0.029090 0.000000 1.640080 
# 
# From -- ./inp_files/92420.got.cif
#   From: 2010.05.17/outbox.cif.g08.bks.cpg/sg12_47_cif.got.tgz:92420.got - 2010.06.03 13:09:07.
