data_PCOD9174148
_publ_section_title
;
Structure prediction by ZEFSAII (Michael W. Deem and Ramdas Pophale) SiO2 
 PCOD9174148
Probable space group: C 2/M
;
_chemical_formula_sum "Si O2"
_cell_formula_units_Z 56
_cell_length_a 19.808569
_cell_length_b 34.265042
_cell_length_c 5.340434
_cell_angle_alpha 90.000000
_cell_angle_beta 113.869213
_cell_angle_gamma 90.000000
_cell_volume 3314.752506
_symmetry_space_group_name_H-M "C 2/M"
_symmetry_group_IT_number 12
_symmetry_cell_setting 'monoclinic'
loop_
_space_group_symop_operation_xyz
x,y,z
-x,y,-z
-x,-y,-z
x,-y,z
1/2+x,1/2+y,z
1/2-x,1/2+y,-z
1/2-x,1/2-y,-z
1/2+x,1/2-y,z
loop_
_atom_site_type_symbol
_atom_site_label
_atom_site_fract_x
_atom_site_fract_y
_atom_site_fract_z
Si Si1 0.197910 0.834848 0.272826
Si Si2 0.973514 0.263021 0.710449
Si Si3 0.828664 0.251894 0.744528
Si Si4 0.296673 0.829242 0.929782
Si Si5 0.089199 0.955518 0.634244
Si Si6 0.589206 0.592455 0.134229
Si Si7 0.462780 0.851355 0.193170
O O1 0.157454 0.793068 0.173607
O O2 0.247633 0.835312 0.603461
O O3 0.136869 0.868344 0.197388
O O4 0.250695 0.838592 0.109370
O O5 0.887306 0.267735 0.630029
O O6 0.000000 0.242660 0.500000
O O7 0.013431 0.305219 0.769253
O O8 0.000000 0.241913 0.000000
O O9 0.750000 0.250000 0.500000
O O10 0.821144 0.283392 0.953524
O O11 0.374401 0.852212 0.047690
O O12 0.108866 0.931516 0.414999
O O13 0.000000 0.957707 0.500000
O O14 0.117280 0.000000 0.671588
O O15 0.108597 0.933015 0.917867
O O16 0.500000 0.599209 0.000000
O O17 0.500000 0.867735 0.500000
O O18 0.500000 0.868052 0.000000
#
# Coordination Sequence:
#
# PCOD9174148 Si02
#       7
#     8   8   8   8   8   8   8
#     4  11  24  35  51  70 103 143 169 213 278 317
#     4  10  20  32  50  67  85 109 153 226 280 295
#     4  10  22  36  50  69  94 129 180 231 259 325
#     4  11  21  37  51  70  94 130 184 224 268 321
#     4   9  17  32  59  83 103 134 175 218 251 295
#     4  10  20  36  52  77 114 139 177 216 259 319
#     4  10  18  31  53  68  88 110 159 233 278 299
#
# _framework density 16.894174
#
# number of rings (size 3 to 8) (size 9 to 14) (size 15 to 20)
#    0.000    1.857    2.857    2.571    6.000    4.571 
#    0.000    2.143    0.000    0.000    0.000    0.000 
#    0.000    0.000    0.000    0.000    0.000  180.000 
#
# Total GULP energy -156012.231086 kJ/mol
# GULP energy per Si atom -5571.865396 kJ/mol
# Density = 1.685572 g / cm^3
# Si number density = 16.894174 Si / 1000 Ang^3
#
#
#
# Elastic Constant Matrix: (Units=GPa)
#
#
# Indices 1 2 3 4 5 6 
#
# 1 102.9878 36.3545 52.2445 0.0000 -12.3318 0.0000
# 2 36.3545 91.3044 32.3466 0.0000 -11.1421 0.0000
# 3 52.2445 32.3466 127.9038 0.0000 -31.4481 0.0000
# 4 0.0000 0.0000 0.0000 13.0352 0.0000 0.7690
# 5 -12.3318 -11.1421 -31.4481 0.0000 30.6923 0.0000
# 6 0.0000 0.0000 0.0000 0.7690 0.0000 19.5540
#
#
#
# Elastic Compliance Matrix: (Units=1/GPa)
#
#
# Indices 1 2 3 4 5 6 
#
# 1 0.013312 -0.003737 -0.004693 0.000000 -0.000817 0.000000
# 2 -0.003737 0.013144 -0.001328 0.000000 0.001909 0.000000
# 3 -0.004693 -0.001328 0.012685 0.000000 0.010629 0.000000
# 4 0.000000 0.000000 0.000000 0.076894 0.000000 -0.003024
# 5 -0.000817 0.001909 0.010629 0.000000 0.043837 0.000000
# 6 0.000000 0.000000 0.000000 -0.003024 0.000000 0.051259
#
#
# Mechanical properties :
#
#
# Convention : Reuss Voigt Hill
#
# Bulk Modulus (GPa) = 50.95966 62.67635 56.81801
# Shear Modulus (GPa) = 21.08013 26.07301 23.57657
#
# Velocity S-wave (km/s) = 3.53622 3.93277 3.73975
# Velocity P-wave (km/s) = 6.84855 7.60277 7.23549
#
# Compressibility (1/GPa) = 0.01962336
#
# Stress axis : x y z
#
# Youngs Moduli (GPa) = 75.11888 76.08042 78.83498
#
# Poissons Ratio (x) = 0.28435 0.36999
# Poissons Ratio (y) = 0.28076 0.10469
# Poissons Ratio (z) = 0.35255 0.10104
#
# Static dielectric constant tensor:
#      x y z
#    x 1.853810 0.000000 -0.174630 
#    y 0.000000 1.552410 0.000000 
#    z -0.174630 0.000000 1.762840 
# 
# From -- ./inp_files/18153.got.cif
#   From: 2010.05.17/outbox.cif.g08.bks.cpg/sg12_10_cif.got.tgz:18153.got - 2010.06.03 13:09:07.
