data_PCOD9174220
_publ_section_title
;
Structure prediction by ZEFSAII (Michael W. Deem and Ramdas Pophale) SiO2 
 PCOD9174220
Probable space group: C 2/M
;
_chemical_formula_sum "Si O2"
_cell_formula_units_Z 48
_cell_length_a 13.689941
_cell_length_b 13.865827
_cell_length_c 11.879954
_cell_angle_alpha 90.000000
_cell_angle_beta 110.090465
_cell_angle_gamma 90.000000
_cell_volume 2117.862385
_symmetry_space_group_name_H-M "C 2/M"
_symmetry_group_IT_number 12
_symmetry_cell_setting 'monoclinic'
loop_
_space_group_symop_operation_xyz
x,y,z
-x,y,-z
-x,-y,-z
x,-y,z
1/2+x,1/2+y,z
1/2-x,1/2+y,-z
1/2-x,1/2-y,-z
1/2+x,1/2-y,z
loop_
_atom_site_type_symbol
_atom_site_label
_atom_site_fract_x
_atom_site_fract_y
_atom_site_fract_z
Si Si1 0.161313 0.719245 0.055845
Si Si2 0.504139 0.258754 0.627703
Si Si3 0.299720 0.614573 0.548359
Si Si4 0.721286 0.607742 0.211536
Si Si5 0.943475 0.609415 0.174261
Si Si6 0.286813 0.614794 0.293395
O O1 0.145155 0.815909 0.122759
O O2 0.206879 0.644168 0.164686
O O3 0.250000 0.750000 0.000000
O O4 0.074391 0.669408 0.945914
O O5 0.500000 0.217316 0.500000
O O6 0.410245 0.333691 0.596781
O O7 0.493811 0.174887 0.714316
O O8 0.610050 0.320426 0.686352
O O9 0.313424 0.500000 0.551095
O O10 0.248691 0.636538 0.648664
O O11 0.250896 0.638574 0.407550
O O12 0.676068 0.500000 0.195114
O O13 0.828487 0.603676 0.185204
O O14 0.981808 0.500000 0.173827
O O15 0.308860 0.500000 0.296310
#
# Coordination Sequence:
#
# PCOD9174220 Si02
#       6
#     8   8   8   8   8   8
#     4  10  18  33  52  78 103 137 179 218 259 303
#     4  10  19  34  52  80 106 142 177 208 259 315
#     4   9  19  34  54  82 112 135 165 219 274 313
#     4   9  18  34  55  81 108 133 171 223 269 304
#     4  10  20  36  57  78 104 137 181 222 253 307
#     4  10  18  31  53  79 107 138 175 215 261 313
#
# _framework density 22.664363000000002
#
# number of rings (size 3 to 8) (size 9 to 14) (size 15 to 20)
#    0.000    2.333    3.333    1.000    0.000    3.667 
#    0.000    0.833    0.000    5.000    0.000    0.000 
#    0.000    0.000    0.000    0.000    0.000    0.000 
#
# Total GULP energy -134094.161059 kJ/mol
# GULP energy per Si atom -5587.256711 kJ/mol
# Density = 2.261278 g / cm^3
# Si number density = 22.664363 Si / 1000 Ang^3
#
#
#
# Elastic Constant Matrix: (Units=GPa)
#
#
# Indices 1 2 3 4 5 6 
#
# 1 42.3150 13.6663 29.5250 0.0000 -15.1432 0.0000
# 2 13.6663 148.5566 69.5621 0.0000 -2.4111 0.0000
# 3 29.5250 69.5621 162.3282 0.0000 -13.8913 0.0000
# 4 0.0000 0.0000 0.0000 46.2959 0.0000 -3.3009
# 5 -15.1432 -2.4111 -13.8913 0.0000 31.4392 0.0000
# 6 0.0000 0.0000 0.0000 -3.3009 0.0000 4.8677
#
#
#
# Elastic Compliance Matrix: (Units=1/GPa)
#
#
# Indices 1 2 3 4 5 6 
#
# 1 0.031615 -0.000666 -0.004330 0.000000 0.013264 0.000000
# 2 -0.000666 0.008465 -0.003615 0.000000 -0.001269 0.000000
# 3 -0.004330 -0.003615 0.008621 0.000000 0.001446 0.000000
# 4 0.000000 0.000000 0.000000 0.022698 0.000000 0.015392
# 5 0.013264 -0.001269 0.001446 0.000000 0.038738 0.000000
# 6 0.000000 0.000000 0.000000 0.015392 0.000000 0.215873
#
#
# Mechanical properties :
#
#
# Convention : Reuss Voigt Hill
#
# Bulk Modulus (GPa) = 31.76654 64.30074 48.03364
# Shear Modulus (GPa) = 14.13535 32.55033 23.34284
#
# Velocity S-wave (km/s) = 2.50007 3.79382 3.21274
# Velocity P-wave (km/s) = 4.73078 6.90096 5.91623
#
# Compressibility (1/GPa) = 0.03147967
#
# Stress axis : x y z
#
# Youngs Moduli (GPa) = 31.63039 118.13682 115.99888
#
# Poissons Ratio (x) = 0.07863 0.50228
# Poissons Ratio (y) = 0.02105 0.41932
# Poissons Ratio (z) = 0.13696 0.42705
#
# Static dielectric constant tensor:
#      x y z
#    x 1.878990 0.000000 -0.033190 
#    y 0.000000 1.843590 0.000000 
#    z -0.033190 0.000000 1.836670 
# 
# From -- ./inp_files/166334.got.cif
#   From: 2010.05.17/outbox.cif.g08.bks.cpg/sg12_84_cif.got.tgz:166334.got - 2010.06.03 13:09:07.
