data_PCOD9174828
_publ_section_title
;
Structure prediction by ZEFSAII (Michael W. Deem and Ramdas Pophale) SiO2 
 PCOD9174828
Probable space group: C 2/M
;
_chemical_formula_sum "Si O2"
_cell_formula_units_Z 56
_cell_length_a 13.964302
_cell_length_b 16.001329
_cell_length_c 18.842091
_cell_angle_alpha 90.000000
_cell_angle_beta 43.233744
_cell_angle_gamma 90.000000
_cell_volume 2883.898261
_symmetry_space_group_name_H-M "C 2/M"
_symmetry_group_IT_number 12
_symmetry_cell_setting 'monoclinic'
loop_
_space_group_symop_operation_xyz
x,y,z
-x,y,-z
-x,-y,-z
x,-y,z
1/2+x,1/2+y,z
1/2-x,1/2+y,-z
1/2-x,1/2-y,-z
1/2+x,1/2-y,z
loop_
_atom_site_type_symbol
_atom_site_label
_atom_site_fract_x
_atom_site_fract_y
_atom_site_fract_z
Si Si1 0.305808 0.596519 0.158953
Si Si2 0.207194 0.713578 0.686450
Si Si3 0.463635 0.274178 0.352503
Si Si4 0.369352 0.591705 0.516951
Si Si5 0.519966 0.735675 0.091875
Si Si6 0.925317 0.649264 0.608898
Si Si7 0.713611 0.252151 0.125464
O O1 0.332764 0.500000 0.125958
O O2 0.444172 0.649356 0.108038
O O3 0.195200 0.599948 0.284243
O O4 0.232952 0.653605 0.136797
O O5 0.243815 0.625686 0.632732
O O6 0.347368 0.765822 0.625074
O O7 0.127253 0.765084 0.668744
O O8 0.108875 0.711102 0.808124
O O9 0.404787 0.343806 0.435853
O O10 0.465181 0.185677 0.393253
O O11 0.622398 0.289173 0.239054
O O12 0.500000 0.589162 0.500000
O O13 0.342687 0.500000 0.502373
O O14 0.622887 0.727241 0.104585
O O15 0.625759 0.774821 0.977184
O O16 0.000000 0.610843 0.500000
#
# Coordination Sequence:
#
# PCOD9174828 Si02
#       7
#     8   8   8   8   8   8   8
#     4  10  21  35  56  87 115 142 182 234 281 319
#     4  10  18  33  56  77 106 142 179 217 260 323
#     4  10  18  33  56  77 106 142 179 217 260 323
#     4  11  21  34  54  79 104 134 176 228 272 306
#     4   9  19  35  56  82 109 144 185 222 267 330
#     4  10  18  32  53  78 108 146 182 211 267 327
#     4   9  19  35  56  82 109 144 185 222 267 330
#
# _framework density 19.418161999999999
#
# number of rings (size 3 to 8) (size 9 to 14) (size 15 to 20)
#    0.000    2.143    2.857    0.857    0.000    1.429 
#    0.000   12.857    0.000    2.571    0.000    2.000 
#    0.000    0.000    0.000    0.000    0.000    0.000 
#
# Total GULP energy -155917.962011 kJ/mol
# GULP energy per Si atom -5568.498643 kJ/mol
# Density = 1.937397 g / cm^3
# Si number density = 19.418162 Si / 1000 Ang^3
#
#
#
# Elastic Constant Matrix: (Units=GPa)
#
#
# Indices 1 2 3 4 5 6 
#
# 1 73.1374 15.4972 -3.9681 0.0000 -1.0358 0.0000
# 2 15.4972 77.3128 23.9949 0.0000 -5.4004 0.0000
# 3 -3.9681 23.9949 129.8545 -0.0001 1.2349 0.0000
# 4 0.0000 0.0000 -0.0001 6.6152 0.0000 -4.2495
# 5 -1.0358 -5.4004 1.2349 0.0000 26.6990 0.0000
# 6 0.0000 0.0000 0.0000 -4.2495 0.0000 6.8012
#
#
#
# Elastic Compliance Matrix: (Units=1/GPa)
#
#
# Indices 1 2 3 4 5 6 
#
# 1 0.014409 -0.003220 0.001037 0.000000 -0.000140 0.000000
# 2 -0.003220 0.014668 -0.002837 0.000000 0.002973 0.000000
# 3 0.001037 -0.002837 0.008266 0.000000 -0.000916 0.000000
# 4 0.000000 0.000000 0.000000 0.252522 0.000000 0.157779
# 5 -0.000140 0.002973 -0.000916 0.000000 0.038093 0.000000
# 6 0.000000 0.000000 0.000000 0.157779 0.000000 0.245615
#
#
# Mechanical properties :
#
#
# Convention : Reuss Voigt Hill
#
# Bulk Modulus (GPa) = 36.62678 39.03920 37.83299
# Shear Modulus (GPa) = 8.43577 24.34180 16.38878
#
# Velocity S-wave (km/s) = 2.08655 3.54440 2.90831
# Velocity P-wave (km/s) = 4.97071 6.07442 5.55007
#
# Compressibility (1/GPa) = 0.02730243
#
# Stress axis : x y z
#
# Youngs Moduli (GPa) = 69.39905 68.17523 120.98401
#
# Poissons Ratio (x) = 0.21952 -0.12542
# Poissons Ratio (y) = 0.22346 0.34324
# Poissons Ratio (z) = -0.07194 0.19342
#
# Static dielectric constant tensor:
#      x y z
#    x 1.728010 0.000000 -0.005280 
#    y 0.000000 1.642490 0.000000 
#    z -0.005280 0.000000 1.753730 
# 
# From -- ./inp_files/310754.got.cif
#   From: 2010.05.17/outbox.cif.g08.bks.cpg/sg12_156_cif.got.tgz:310754.got - 2010.06.03 13:09:07.
