data_PCOD9174866
_publ_section_title
;
Structure prediction by ZEFSAII (Michael W. Deem and Ramdas Pophale) SiO2 
 PCOD9174866
Probable space group: C 2/M
;
_chemical_formula_sum "Si O2"
_cell_formula_units_Z 52
_cell_length_a 19.703806
_cell_length_b 12.290887
_cell_length_c 20.717670
_cell_angle_alpha 90.000000
_cell_angle_beta 32.999963
_cell_angle_gamma 90.000000
_cell_volume 2732.641079
_symmetry_space_group_name_H-M "C 2/M"
_symmetry_group_IT_number 12
_symmetry_cell_setting 'monoclinic'
loop_
_space_group_symop_operation_xyz
x,y,z
-x,y,-z
-x,-y,-z
x,-y,z
1/2+x,1/2+y,z
1/2-x,1/2+y,-z
1/2-x,1/2-y,-z
1/2+x,1/2-y,z
loop_
_atom_site_type_symbol
_atom_site_label
_atom_site_fract_x
_atom_site_fract_y
_atom_site_fract_z
Si Si1 0.207292 0.376266 0.226640
Si Si2 0.157752 0.500000 0.710076
Si Si3 0.354621 0.373998 0.244693
Si Si4 0.095299 0.500000 0.005468
Si Si5 0.526722 0.304523 0.402344
Si Si6 0.923523 0.260187 0.993216
Si Si7 0.241847 0.208340 0.434115
Si Si8 0.215398 0.000000 0.258579
O O1 0.187213 0.500000 0.223012
O O2 0.270946 0.374411 0.246730
O O3 0.081880 0.307897 0.331991
O O4 0.308516 0.317066 0.101473
O O5 0.171274 0.607178 0.655929
O O6 0.264030 0.500000 0.680958
O O7 0.037629 0.500000 0.851813
O O8 0.382129 0.500000 0.238909
O O9 0.478082 0.304761 0.129124
O O10 0.278913 0.309079 0.358840
O O11 0.127445 0.373337 0.995035
O O12 0.154598 0.500000 0.884778
O O13 0.500000 0.297220 0.500000
O O14 0.398221 0.330017 0.469751
O O15 0.633774 0.394551 0.306959
O O16 0.000000 0.284051 0.000000
O O17 0.250000 0.250000 0.500000
#
# Coordination Sequence:
#
# PCOD9174866 Si02
#       8
#     8   4   8   4   8   8   8   4
#     4  10  20  34  58  88 120 157 198 249 308 370
#     4  12  22  42  66  97 131 162 212 267 317 377
#     4  10  20  36  58  84 120 159 202 247 300 369
#     4  12  21  31  66 100 125 153 196 273 335 379
#     4  12  22  39  61  91 127 160 204 262 317 374
#     4  10  18  32  53  90 124 151 193 251 319 366
#     4  12  27  42  60  88 125 171 212 252 311 376
#     4  12  21  38  69 104 128 153 201 274 345 374
#
# _framework density 19.029209000000002
#
# number of rings (size 3 to 8) (size 9 to 14) (size 15 to 20)
#    0.000    0.923    6.154    2.538    1.077    2.769 
#    0.000    0.000    0.000    3.692    0.000    0.000 
#    0.000    0.000    0.000    0.000    0.000    0.000 
#
# Total GULP energy -144946.152915 kJ/mol
# GULP energy per Si atom -5574.852035 kJ/mol
# Density = 1.898590 g / cm^3
# Si number density = 19.029209 Si / 1000 Ang^3
#
#
#
# Elastic Constant Matrix: (Units=GPa)
#
#
# Indices 1 2 3 4 5 6 
#
# 1 33.5895 3.5260 21.3139 0.0000 11.7784 0.0000
# 2 3.5260 150.0796 44.8324 0.0000 9.0117 0.0000
# 3 21.3139 44.8324 110.4501 0.0000 6.6049 0.0000
# 4 0.0000 0.0000 0.0000 35.0623 0.0000 -0.5761
# 5 11.7784 9.0117 6.6049 0.0000 10.6500 0.0000
# 6 0.0000 0.0000 0.0000 -0.5761 0.0000 8.1196
#
#
#
# Elastic Compliance Matrix: (Units=1/GPa)
#
#
# Indices 1 2 3 4 5 6 
#
# 1 0.056611 0.005136 -0.009352 0.000000 -0.061155 0.000000
# 2 0.005136 0.008280 -0.003732 0.000000 -0.010372 0.000000
# 3 -0.009352 -0.003732 0.012011 0.000000 0.006051 0.000000
# 4 0.000000 0.000000 0.000000 0.028554 0.000000 0.002026
# 5 -0.061155 -0.010372 0.006051 0.000000 0.166554 0.000000
# 6 0.000000 0.000000 0.000000 0.002026 0.000000 0.123303
#
#
# Mechanical properties :
#
#
# Convention : Reuss Voigt Hill
#
# Bulk Modulus (GPa) = 16.39179 48.16266 32.27723
# Shear Modulus (GPa) = 11.58630 25.72952 18.65791
#
# Velocity S-wave (km/s) = 2.47020 3.68109 3.13467
# Velocity P-wave (km/s) = 4.09495 6.59030 5.48638
#
# Compressibility (1/GPa) = 0.06100614
#
# Stress axis : x y z
#
# Youngs Moduli (GPa) = 17.66454 120.77280 83.25421
#
# Poissons Ratio (x) = -0.62025 0.77859
# Poissons Ratio (y) = -0.09072 0.31068
# Poissons Ratio (z) = 0.16520 0.45069
#
# Static dielectric constant tensor:
#      x y z
#    x 1.641130 0.000000 -0.012940 
#    y 0.000000 1.679780 0.000000 
#    z -0.012940 0.000000 1.653070 
# 
# From -- ./inp_files/175228.got.cif
#   From: 2010.05.17/outbox.cif.g08.bks.cpg/sg12_88_cif.got.tgz:175228.got - 2010.06.03 13:09:07.
