data_PCOD9174846
_publ_section_title
;
Structure prediction by ZEFSAII (Michael W. Deem and Ramdas Pophale) SiO2 
 PCOD9174846
Probable space group: C 2/M
;
_chemical_formula_sum "Si O2"
_cell_formula_units_Z 48
_cell_length_a 9.767712
_cell_length_b 21.137661
_cell_length_c 17.409382
_cell_angle_alpha 90.000000
_cell_angle_beta 134.957246
_cell_angle_gamma 90.000000
_cell_volume 2543.559841
_symmetry_space_group_name_H-M "C 2/M"
_symmetry_group_IT_number 12
_symmetry_cell_setting 'monoclinic'
loop_
_space_group_symop_operation_xyz
x,y,z
-x,y,-z
-x,-y,-z
x,-y,z
1/2+x,1/2+y,z
1/2-x,1/2+y,-z
1/2-x,1/2-y,-z
1/2+x,1/2-y,z
loop_
_atom_site_type_symbol
_atom_site_label
_atom_site_fract_x
_atom_site_fract_y
_atom_site_fract_z
Si Si1 0.881189 0.231445 0.661950
Si Si2 0.999677 0.573189 0.407787
Si Si3 0.314151 0.844027 0.970711
Si Si4 0.119331 0.862864 0.202447
Si Si5 0.645273 0.338906 0.497181
Si Si6 0.778281 0.297961 0.123953
O O1 0.832715 0.193683 0.719435
O O2 0.707387 0.272662 0.560614
O O3 0.940434 0.181311 0.619576
O O4 0.044152 0.281134 0.750124
O O5 0.048651 0.500000 0.413657
O O6 0.165399 0.618902 0.441072
O O7 0.000000 0.583884 0.500000
O O8 0.788299 0.587517 0.287820
O O9 0.290242 0.771615 0.930299
O O10 0.107567 0.877960 0.873987
O O11 0.500000 0.870915 0.000000
O O12 0.340032 0.836129 0.072591
O O13 0.133692 0.835641 0.121918
O O14 0.500000 0.370084 0.500000
#
# Coordination Sequence:
#
# PCOD9174846 Si02
#       6
#     8   8   8   8   8   8
#     4  10  20  31  55  87 126 149 185 232 304 356
#     4  11  24  44  62  80 114 164 210 242 287 350
#     4  10  20  32  51  84 123 154 185 230 297 358
#     4  11  20  36  57  83 114 158 198 236 283 358
#     4  11  22  34  56  88 119 151 191 249 296 349
#     4  10  18  32  53  80 122 160 184 225 288 367
#
# _framework density 18.871189000000001
#
# number of rings (size 3 to 8) (size 9 to 14) (size 15 to 20)
#    0.000    1.500    3.333    4.500    2.333    1.667 
#    0.000    0.000    0.000    2.500    0.000    0.000 
#    0.000    0.000    0.000    0.000    0.000    0.000 
#
# Total GULP energy -133850.038484 kJ/mol
# GULP energy per Si atom -5577.084937 kJ/mol
# Density = 1.882824 g / cm^3
# Si number density = 18.871189 Si / 1000 Ang^3
#
#
#
# Elastic Constant Matrix: (Units=GPa)
#
#
# Indices 1 2 3 4 5 6 
#
# 1 130.2269 29.6254 57.8395 0.0000 -5.5607 0.0000
# 2 29.6254 40.1606 18.3854 0.0000 -0.8945 0.0000
# 3 57.8395 18.3854 103.4413 0.0000 -5.5156 0.0000
# 4 0.0000 0.0000 0.0000 12.7180 0.0000 1.5053
# 5 -5.5607 -0.8945 -5.5156 0.0000 31.6851 0.0000
# 6 0.0000 0.0000 0.0000 1.5053 0.0000 6.5875
#
#
#
# Elastic Compliance Matrix: (Units=1/GPa)
#
#
# Indices 1 2 3 4 5 6 
#
# 1 0.011423 -0.005992 -0.005273 0.000000 0.000918 0.000000
# 2 -0.005992 0.030249 -0.002055 0.000000 -0.000555 0.000000
# 3 -0.005273 -0.002055 0.013050 0.000000 0.001288 0.000000
# 4 0.000000 0.000000 0.000000 0.080814 0.000000 -0.018467
# 5 0.000918 -0.000555 0.001288 0.000000 0.031930 0.000000
# 6 0.000000 0.000000 0.000000 -0.018467 0.000000 0.156023
#
#
# Mechanical properties :
#
#
# Convention : Reuss Voigt Hill
#
# Bulk Modulus (GPa) = 35.61233 53.94772 44.78003
# Shear Modulus (GPa) = 13.90852 21.39669 17.65261
#
# Velocity S-wave (km/s) = 2.71776 3.37089 3.06179
# Velocity P-wave (km/s) = 5.36289 6.61815 6.02331
#
# Compressibility (1/GPa) = 0.02808016
#
# Stress axis : x y z
#
# Youngs Moduli (GPa) = 87.53939 33.05910 76.62816
#
# Poissons Ratio (x) = 0.19809 0.40410
# Poissons Ratio (y) = 0.52455 0.15751
# Poissons Ratio (z) = 0.46164 0.06795
#
# Static dielectric constant tensor:
#      x y z
#    x 1.724190 0.000000 0.037520 
#    y 0.000000 1.614390 0.000000 
#    z 0.037520 0.000000 1.722710 
# 
# From -- ./inp_files/121852.got.cif
#   From: 2010.05.17/outbox.cif.g08.bks.cpg/sg12_61_cif.got.tgz:121852.got - 2010.06.03 13:09:07.
