data_PCOD9174236
_publ_section_title
;
Structure prediction by ZEFSAII (Michael W. Deem and Ramdas Pophale) SiO2 
 PCOD9174236
Probable space group: C 2/M
;
_chemical_formula_sum "Si O2"
_cell_formula_units_Z 48
_cell_length_a 13.648522
_cell_length_b 12.724575
_cell_length_c 12.135989
_cell_angle_alpha 90.000000
_cell_angle_beta 98.317319
_cell_angle_gamma 90.000000
_cell_volume 2085.508816
_symmetry_space_group_name_H-M "C 2/M"
_symmetry_group_IT_number 12
_symmetry_cell_setting 'monoclinic'
loop_
_space_group_symop_operation_xyz
x,y,z
-x,y,-z
-x,-y,-z
x,-y,z
1/2+x,1/2+y,z
1/2-x,1/2+y,-z
1/2-x,1/2-y,-z
1/2+x,1/2-y,z
loop_
_atom_site_type_symbol
_atom_site_label
_atom_site_fract_x
_atom_site_fract_y
_atom_site_fract_z
Si Si1 0.551383 0.118283 0.813553
Si Si2 0.958792 0.219477 0.378467
Si Si3 0.763490 0.380856 0.996082
Si Si4 0.758556 0.123812 0.434859
Si Si5 0.161908 0.123052 0.322589
Si Si6 0.161136 0.314273 0.204519
O O1 0.573256 0.194056 0.714814
O O2 0.450600 0.163871 0.848218
O O3 0.532164 0.000000 0.770782
O O4 0.636236 0.113435 0.917364
O O5 0.863338 0.152154 0.395746
O O6 0.000000 0.265940 0.500000
O O7 0.049560 0.150626 0.343145
O O8 0.715359 0.500000 0.013642
O O9 0.772200 0.381540 0.864475
O O10 0.750000 0.250000 0.000000
O O11 0.765914 0.158015 0.564531
O O12 0.673722 0.155440 0.334982
O O13 0.752285 0.000000 0.443359
O O14 0.181972 0.189706 0.215723
O O15 0.172988 0.000000 0.306189
#
# Coordination Sequence:
#
# PCOD9174236 Si02
#       6
#     8   8   8   8   8   8
#     4  10  21  37  56  80 111 145 182 227 279 333
#     4   9  18  33  54  80 110 145 185 226 272 329
#     4  11  24  42  63  85 111 146 188 234 283 335
#     4  10  18  31  53  80 110 145 186 229 273 327
#     4   9  19  34  53  79 112 148 184 229 282 329
#     4  11  21  35  56  81 110 145 187 230 277 337
#
# _framework density 23.015965000000001
#
# number of rings (size 3 to 8) (size 9 to 14) (size 15 to 20)
#    0.000    2.000    0.000    4.000    0.000    4.333 
#    0.000    4.167    0.000    5.000    0.000    0.000 
#    0.000    0.000    0.000    0.000    0.000    0.000 
#
# Total GULP energy -133679.728783 kJ/mol
# GULP energy per Si atom -5569.988699 kJ/mol
# Density = 2.296358 g / cm^3
# Si number density = 23.015965 Si / 1000 Ang^3
#
#
#
# Elastic Constant Matrix: (Units=GPa)
#
#
# Indices 1 2 3 4 5 6 
#
# 1 35.7783 -0.9062 -3.8184 0.0000 13.2012 0.0000
# 2 -0.9062 134.3765 33.9760 0.0000 8.5620 0.0000
# 3 -3.8184 33.9760 73.1690 0.0000 11.4189 0.0000
# 4 0.0000 0.0000 0.0000 41.2591 0.0000 5.5337
# 5 13.2012 8.5620 11.4189 0.0000 28.3903 0.0000
# 6 0.0000 0.0000 0.0000 5.5337 0.0000 16.3939
#
#
#
# Elastic Compliance Matrix: (Units=1/GPa)
#
#
# Indices 1 2 3 4 5 6 
#
# 1 0.035188 0.000245 0.004575 0.000000 -0.018276 0.000000
# 2 0.000245 0.008462 -0.003735 0.000000 -0.001164 0.000000
# 3 0.004575 -0.003735 0.016854 0.000000 -0.007780 0.000000
# 4 0.000000 0.000000 0.000000 0.025386 0.000000 -0.008569
# 5 -0.018276 -0.001164 -0.007780 0.000000 0.047201 0.000000
# 6 0.000000 0.000000 0.000000 -0.008569 0.000000 0.063891
#
#
# Mechanical properties :
#
#
# Convention : Reuss Voigt Hill
#
# Bulk Modulus (GPa) = 15.95574 33.53630 24.74602
# Shear Modulus (GPa) = 23.17995 31.48015 27.33005
#
# Velocity S-wave (km/s) = 3.17697 3.70233 3.44966
# Velocity P-wave (km/s) = 4.51719 5.73400 5.16158
#
# Compressibility (1/GPa) = 0.06267337
#
# Stress axis : x y z
#
# Youngs Moduli (GPa) = 28.41909 118.17652 59.33262
#
# Poissons Ratio (x) = -0.02896 -0.27143
# Poissons Ratio (y) = -0.00697 0.22160
# Poissons Ratio (z) = -0.13001 0.44138
#
# Static dielectric constant tensor:
#      x y z
#    x 1.888320 0.000000 -0.043800 
#    y 0.000000 2.008660 0.000000 
#    z -0.043800 0.000000 1.868380 
# 
# From -- ./inp_files/154280.got.cif
#   From: 2010.05.17/outbox.cif.g08.bks.cpg/sg12_78_cif.got.tgz:154280.got - 2010.06.03 13:09:07.
