data_PCOD9174051
_publ_section_title
;
Structure prediction by ZEFSAII (Michael W. Deem and Ramdas Pophale) SiO2 
 PCOD9174051
Probable space group: C 2/M
;
_chemical_formula_sum "Si O2"
_cell_formula_units_Z 64
_cell_length_a 10.466594
_cell_length_b 14.023379
_cell_length_c 19.714990
_cell_angle_alpha 90.000000
_cell_angle_beta 100.311361
_cell_angle_gamma 90.000000
_cell_volume 2846.972739
_symmetry_space_group_name_H-M "C 2/M"
_symmetry_group_IT_number 12
_symmetry_cell_setting 'monoclinic'
loop_
_space_group_symop_operation_xyz
x,y,z
-x,y,-z
-x,-y,-z
x,-y,z
1/2+x,1/2+y,z
1/2-x,1/2+y,-z
1/2-x,1/2-y,-z
1/2+x,1/2-y,z
loop_
_atom_site_type_symbol
_atom_site_label
_atom_site_fract_x
_atom_site_fract_y
_atom_site_fract_z
Si Si1 0.420240 0.116331 0.748457
Si Si2 0.701593 0.883671 0.553728
Si Si3 0.708496 0.107572 0.781991
Si Si4 0.607341 0.675175 0.921867
Si Si5 0.101237 0.116766 0.318972
Si Si6 0.676810 0.663716 0.070611
Si Si7 0.652441 0.612183 0.776759
Si Si8 0.427726 0.115952 0.593843
O O1 0.565539 0.151179 0.779729
O O2 0.297821 0.151173 0.780370
O O3 0.396909 0.142265 0.667725
O O4 0.422069 0.000000 0.755390
O O5 0.832550 0.853305 0.604281
O O6 0.673531 0.853675 0.473902
O O7 0.573244 0.855371 0.584667
O O8 0.702945 0.000000 0.553903
O O9 0.801170 0.146897 0.732193
O O10 0.782120 0.104079 0.860264
O O11 0.682358 0.000000 0.755135
O O12 0.461593 0.709268 0.923012
O O13 0.708955 0.760446 0.926083
O O14 0.609520 0.623129 0.850335
O O15 0.652510 0.618490 0.994034
O O16 0.957451 0.149922 0.285099
O O17 0.097007 0.000000 0.318499
O O18 0.660155 0.500000 0.762879
O O19 0.428553 0.000000 0.592995
#
# Coordination Sequence:
#
# PCOD9174051 Si02
#       8
#     8   8   8   8   8   8   8   8
#     4   9  17  28  43  68 102 134 163 202 248 289
#     4   8  12  19  36  60  90 129 167 200 234 283
#     4  10  18  31  52  76  99 129 169 205 242 290
#     4  10  22  39  55  74 100 130 162 200 249 295
#     4   9  15  26  43  67  97 127 163 204 244 284
#     4  10  22  38  56  75  99 129 161 203 247 295
#     4  10  20  33  50  73 103 134 163 203 252 295
#     4   8  12  20  35  59  92 130 166 196 236 288
#
# _framework density 22.480018999999999
#
# number of rings (size 3 to 8) (size 9 to 14) (size 15 to 20)
#    0.000    2.750    2.500    0.750    1.750    0.500 
#    0.000    1.875    0.000    6.000    0.000    0.000 
#    0.000    6.000    0.000    0.000    0.000    0.000 
#
# Total GULP energy -178511.782424 kJ/mol
# GULP energy per Si atom -5578.493201 kJ/mol
# Density = 2.242885 g / cm^3
# Si number density = 22.480019 Si / 1000 Ang^3
#
#
#
# Elastic Constant Matrix: (Units=GPa)
#
#
# Indices 1 2 3 4 5 6 
#
# 1 135.6843 4.2610 38.5991 0.0000 15.9440 0.0000
# 2 4.2610 49.2917 -13.6689 0.0000 7.0816 0.0000
# 3 38.5991 -13.6689 117.1308 0.0000 19.4440 0.0000
# 4 0.0000 0.0000 0.0000 19.7394 0.0000 2.8625
# 5 15.9440 7.0816 19.4440 0.0000 39.3694 0.0000
# 6 0.0000 0.0000 0.0000 2.8625 0.0000 3.7109
#
#
#
# Elastic Compliance Matrix: (Units=1/GPa)
#
#
# Indices 1 2 3 4 5 6 
#
# 1 0.008363 -0.001163 -0.002575 0.000000 -0.001906 0.000000
# 2 -0.001163 0.022248 0.003884 0.000000 -0.005449 0.000000
# 3 -0.002575 0.003884 0.010656 0.000000 -0.004918 0.000000
# 4 0.000000 0.000000 0.000000 0.057041 0.000000 -0.044000
# 5 -0.001906 -0.005449 -0.004918 0.000000 0.029582 0.000000
# 6 0.000000 0.000000 0.000000 -0.044000 0.000000 0.303419
#
#
# Mechanical properties :
#
#
# Convention : Reuss Voigt Hill
#
# Bulk Modulus (GPa) = 24.06278 40.05437 32.05858
# Shear Modulus (GPa) = 11.23925 30.75831 20.99878
#
# Velocity S-wave (km/s) = 2.23842 3.70300 3.05963
# Velocity P-wave (km/s) = 4.17229 6.01161 5.17433
#
# Compressibility (1/GPa) = 0.04155796
#
# Stress axis : x y z
#
# Youngs Moduli (GPa) = 119.57197 44.94804 93.84464
#
# Poissons Ratio (x) = 0.05229 0.24169
# Poissons Ratio (y) = 0.13910 -0.36451
# Poissons Ratio (z) = 0.30794 -0.17459
#
# Static dielectric constant tensor:
#      x y z
#    x 1.823130 0.000000 0.018210 
#    y 0.000000 1.865000 0.000000 
#    z 0.018210 0.000000 1.830970 
# 
# From -- ./inp_files/301438.got.cif
#   From: 2010.05.17/outbox.cif.g08.bks.cpg/sg12_151_cif.got.tgz:301438.got - 2010.06.03 13:09:07.
