data_PCOD9174089
_publ_section_title
;
Structure prediction by ZEFSAII (Michael W. Deem and Ramdas Pophale) SiO2 
 PCOD9174089
Probable space group: C 2/M
;
_chemical_formula_sum "Si O2"
_cell_formula_units_Z 56
_cell_length_a 19.611936
_cell_length_b 8.698710
_cell_length_c 32.502114
_cell_angle_alpha 90.000000
_cell_angle_beta 145.880119
_cell_angle_gamma 90.000000
_cell_volume 3110.231556
_symmetry_space_group_name_H-M "C 2/M"
_symmetry_group_IT_number 12
_symmetry_cell_setting 'monoclinic'
loop_
_space_group_symop_operation_xyz
x,y,z
-x,y,-z
-x,-y,-z
x,-y,z
1/2+x,1/2+y,z
1/2-x,1/2+y,-z
1/2-x,1/2-y,-z
1/2+x,1/2-y,z
loop_
_atom_site_type_symbol
_atom_site_label
_atom_site_fract_x
_atom_site_fract_y
_atom_site_fract_z
Si Si1 0.182227 0.817877 0.098905
Si Si2 0.963066 0.316724 0.043483
Si Si3 0.074034 0.181186 0.743154
Si Si4 0.408996 0.815161 0.811881
Si Si5 0.858521 0.682171 0.308541
Si Si6 0.119146 0.683461 0.295123
Si Si7 0.601012 0.684520 0.583684
O O1 0.085449 0.732324 0.080144
O O2 0.315784 0.766757 0.178509
O O3 0.167391 0.000000 0.096410
O O4 0.144975 0.768307 0.034242
O O5 0.947127 0.500000 0.031920
O O6 0.988175 0.276143 0.103506
O O7 0.077459 0.237317 0.697919
O O8 0.951094 0.226607 0.704907
O O9 0.095491 0.000000 0.755511
O O10 0.282464 0.735807 0.761157
O O11 0.433598 0.777636 0.776606
O O12 0.389108 0.000000 0.804086
O O13 0.864085 0.500000 0.306485
O O14 0.912690 0.734097 0.379299
O O15 0.104466 0.500000 0.294059
O O16 0.262758 0.717352 0.364358
O O17 0.500000 0.728690 0.500000
O O18 0.594224 0.500000 0.586768
#
# Coordination Sequence:
#
# PCOD9174089 Si02
#       7
#     8   8   8   8   8   8   8
#     4  11  21  32  49  76 108 143 183 235 283 322
#     4  10  18  31  52  78 107 143 184 228 277 332
#     4  12  23  37  54  77 110 148 189 229 276 330
#     4   9  18  34  56  79 108 144 184 228 274 329
#     4  11  21  33  56  85 112 143 183 228 269 319
#     4   9  19  36  57  83 112 142 178 222 273 325
#     4   9  19  39  65  89 115 146 177 214 265 326
#
# _framework density 18.005089999999999
#
# number of rings (size 3 to 8) (size 9 to 14) (size 15 to 20)
#    0.000    1.857    1.429    6.000    0.000    3.143 
#    0.000    1.429    0.000    0.000    0.000    0.000 
#    0.000    0.000    0.000    0.000    0.000    0.000 
#
# Total GULP energy -156345.954707 kJ/mol
# GULP energy per Si atom -5583.784097 kJ/mol
# Density = 1.796411 g / cm^3
# Si number density = 18.005090 Si / 1000 Ang^3
#
#
#
# Elastic Constant Matrix: (Units=GPa)
#
#
# Indices 1 2 3 4 5 6 
#
# 1 82.1876 25.8693 26.7804 0.0000 -13.4597 0.0000
# 2 25.8693 44.2235 17.4588 0.0000 -5.1389 -0.0001
# 3 26.7804 17.4588 97.9533 0.0000 -19.8241 0.0000
# 4 0.0000 0.0000 0.0000 11.9981 0.0000 3.9863
# 5 -13.4597 -5.1389 -19.8241 0.0000 16.6894 0.0000
# 6 0.0000 -0.0001 0.0000 3.9863 0.0000 22.7954
#
#
#
# Elastic Compliance Matrix: (Units=1/GPa)
#
#
# Indices 1 2 3 4 5 6 
#
# 1 0.016691 -0.008192 -0.001171 0.000000 0.009548 0.000000
# 2 -0.008192 0.028465 -0.003156 0.000000 -0.001590 0.000000
# 3 -0.001171 -0.003156 0.014091 0.000000 0.014822 0.000000
# 4 0.000000 0.000000 0.000000 0.088488 0.000000 -0.015474
# 5 0.009548 -0.001590 0.014822 0.000000 0.084734 0.000000
# 6 0.000000 0.000000 0.000000 -0.015474 0.000000 0.046574
#
#
# Mechanical properties :
#
#
# Convention : Reuss Voigt Hill
#
# Bulk Modulus (GPa) = 29.23079 40.50905 34.86992
# Shear Modulus (GPa) = 15.84863 20.58033 18.21448
#
# Velocity S-wave (km/s) = 2.97009 3.38454 3.18406
# Velocity P-wave (km/s) = 5.29451 6.14988 5.73815
#
# Compressibility (1/GPa) = 0.03421050
#
# Stress axis : x y z
#
# Youngs Moduli (GPa) = 59.91288 35.13032 70.96601
#
# Poissons Ratio (x) = 0.28778 0.08309
# Poissons Ratio (y) = 0.49080 0.22395
# Poissons Ratio (z) = 0.07015 0.11086
#
# Static dielectric constant tensor:
#      x y z
#    x 1.602530 0.000000 -0.021650 
#    y 0.000000 1.600900 0.000000 
#    z -0.021650 0.000000 1.623970 
# 
# From -- ./inp_files/377725.got.cif
#   From: 2010.05.17/outbox.cif.g08.bks.cpg/sg12_189_cif.got.tgz:377725.got - 2010.06.03 13:09:07.
