data_PCOD9174471
_publ_section_title
;
Structure prediction by ZEFSAII (Michael W. Deem and Ramdas Pophale) SiO2 
 PCOD9174471
Probable space group: C 2/M
;
_chemical_formula_sum "Si O2"
_cell_formula_units_Z 44
_cell_length_a 9.117953
_cell_length_b 31.366179
_cell_length_c 8.309498
_cell_angle_alpha 90.000000
_cell_angle_beta 124.432142
_cell_angle_gamma 90.000000
_cell_volume 1960.110371
_symmetry_space_group_name_H-M "C 2/M"
_symmetry_group_IT_number 12
_symmetry_cell_setting 'monoclinic'
loop_
_space_group_symop_operation_xyz
x,y,z
-x,y,-z
-x,-y,-z
x,-y,z
1/2+x,1/2+y,z
1/2-x,1/2+y,-z
1/2-x,1/2-y,-z
1/2+x,1/2-y,z
loop_
_atom_site_type_symbol
_atom_site_label
_atom_site_fract_x
_atom_site_fract_y
_atom_site_fract_z
Si Si1 0.227962 0.548885 0.808636
Si Si2 0.500000 0.175869 0.500000
Si Si3 0.290966 0.708542 0.922595
Si Si4 0.224939 0.890118 0.470674
Si Si5 0.625051 0.953870 0.231791
Si Si6 0.387694 0.623483 0.095200
O O1 0.292444 0.500000 0.846192
O O2 0.267207 0.574575 0.670006
O O3 0.018040 0.546832 0.711672
O O4 0.303801 0.577245 0.004718
O O5 0.647311 0.202642 0.689696
O O6 0.619875 0.144061 0.464198
O O7 0.500000 0.712178 0.000000
O O8 0.250000 0.750000 0.000000
O O9 0.263430 0.664709 0.008859
O O10 0.251363 0.914466 0.653877
O O11 0.030657 0.871337 0.323352
O O12 0.716472 0.000000 0.284452
O O13 0.500000 0.950863 0.000000
O O14 0.500000 0.628862 0.000000
#
# Coordination Sequence:
#
# PCOD9174471 Si02
#       6
#     8   4   8   8   8   8
#     4  10  18  31  56  86 117 157 206 252 300 370
#     4  12  20  40  71  90 124 164 207 268 324 376
#     4  11  23  43  68  96 130 166 211 267 332 391
#     4  11  18  34  63  85 116 164 207 254 315 370
#     4  10  20  32  48  79 122 165 211 257 304 365
#     4   9  18  36  57  88 123 152 202 267 309 363
#
# _framework density 22.447717000000001
#
# number of rings (size 3 to 8) (size 9 to 14) (size 15 to 20)
#    0.000    1.636    7.273    0.545    0.000    6.182 
#    0.000    4.545    0.000    3.273    0.000    0.000 
#    0.000    0.000    0.000    0.000    0.000    0.000 
#
# Total GULP energy -122693.589232 kJ/mol
# GULP energy per Si atom -5576.981329 kJ/mol
# Density = 2.239662 g / cm^3
# Si number density = 22.447717 Si / 1000 Ang^3
#
#
#
# Elastic Constant Matrix: (Units=GPa)
#
#
# Indices 1 2 3 4 5 6 
#
# 1 58.6570 24.8660 19.5135 0.0000 16.1165 0.0000
# 2 24.8660 138.9373 59.8606 0.0000 12.6174 0.0000
# 3 19.5135 59.8606 144.7648 0.0000 30.1366 0.0000
# 4 0.0000 0.0000 0.0000 29.8685 0.0000 6.8309
# 5 16.1165 12.6174 30.1366 0.0000 33.7098 0.0000
# 6 0.0000 0.0000 0.0000 6.8309 0.0000 6.4399
#
#
#
# Elastic Compliance Matrix: (Units=1/GPa)
#
#
# Indices 1 2 3 4 5 6 
#
# 1 0.020713 -0.003035 0.000354 0.000000 -0.009083 0.000000
# 2 -0.003035 0.009202 -0.003663 0.000000 0.001281 0.000000
# 3 0.000354 -0.003663 0.009982 0.000000 -0.007722 0.000000
# 4 0.000000 0.000000 0.000000 0.044203 0.000000 -0.046887
# 5 -0.009083 0.001281 -0.007722 0.000000 0.040432 0.000000
# 6 0.000000 0.000000 0.000000 -0.046887 0.000000 0.205016
#
#
# Mechanical properties :
#
#
# Convention : Reuss Voigt Hill
#
# Bulk Modulus (GPa) = 36.75124 61.20437 48.97780
# Shear Modulus (GPa) = 14.23262 29.87824 22.05543
#
# Velocity S-wave (km/s) = 2.52074 3.65227 3.13793
# Velocity P-wave (km/s) = 4.98795 6.71639 5.91564
#
# Compressibility (1/GPa) = 0.02720997
#
# Stress axis : x y z
#
# Youngs Moduli (GPa) = 48.27968 108.66751 100.17756
#
# Poissons Ratio (x) = 0.32976 -0.03543
# Poissons Ratio (y) = 0.14651 0.36693
# Poissons Ratio (z) = -0.01708 0.39803
#
# Static dielectric constant tensor:
#      x y z
#    x 1.980370 0.000000 0.060240 
#    y 0.000000 1.892040 0.000000 
#    z 0.060240 0.000000 1.952230 
# 
# From -- ./inp_files/53410.got.cif
#   From: 2010.05.17/outbox.cif.g08.bks.cpg/sg12_27_cif.got.tgz:53410.got - 2010.06.03 13:09:07.
