data_PCOD9174958
_publ_section_title
;
Structure prediction by ZEFSAII (Michael W. Deem and Ramdas Pophale) SiO2 
 PCOD9174958
Probable space group: C 2/M
;
_chemical_formula_sum "Si O2"
_cell_formula_units_Z 50
_cell_length_a 14.957038
_cell_length_b 7.395629
_cell_length_c 19.206657
_cell_angle_alpha 90.000000
_cell_angle_beta 75.072990
_cell_angle_gamma 90.000000
_cell_volume 2052.882720
_symmetry_space_group_name_H-M "C 2/M"
_symmetry_group_IT_number 12
_symmetry_cell_setting 'monoclinic'
loop_
_space_group_symop_operation_xyz
x,y,z
-x,y,-z
-x,-y,-z
x,-y,z
1/2+x,1/2+y,z
1/2-x,1/2+y,-z
1/2-x,1/2-y,-z
1/2+x,1/2-y,z
loop_
_atom_site_type_symbol
_atom_site_label
_atom_site_fract_x
_atom_site_fract_y
_atom_site_fract_z
Si Si1 0.482750 0.721426 0.924988
Si Si2 0.041940 0.218616 0.316478
Si Si3 0.136134 0.792411 0.442149
Si Si4 0.330142 0.281229 0.351154
Si Si5 0.158772 0.209634 0.806094
Si Si6 0.000000 0.500000 0.500000
Si Si7 0.655953 0.281845 0.158289
O O1 0.484416 0.500000 0.925915
O O2 0.566253 0.784875 0.858726
O O3 0.388258 0.775828 0.905795
O O4 0.500000 0.781948 0.000000
O O5 0.935689 0.276833 0.342136
O O6 0.100456 0.272091 0.372342
O O7 0.090747 0.278881 0.235531
O O8 0.041983 0.000000 0.315262
O O9 0.246787 0.781184 0.416608
O O10 0.078317 0.658148 0.500730
O O11 0.110371 0.000000 0.459973
O O12 0.327620 0.500000 0.356180
O O13 0.310559 0.218400 0.275222
O O14 0.241431 0.221177 0.844255
O O15 0.137267 0.000000 0.796257
O O16 0.656299 0.500000 0.159328
#
# Coordination Sequence:
#
# PCOD9174958 Si02
#       7
#     8   8   8   8   8   2   8
#     4   9  18  33  52  77 113 162 208 245 301 373
#     4   9  18  34  61  89 117 151 202 254 305 356
#     4  11  23  42  68  94 123 166 207 249 304 374
#     4  10  18  35  61  90 119 154 200 260 312 354
#     4  10  19  31  54  84 114 152 200 252 303 359
#     4  12  26  48  68  90 136 170 194 244 312 374
#     4  10  18  32  54  82 113 152 197 253 302 353
#
# _framework density 24.355993999999999
#
# number of rings (size 3 to 8) (size 9 to 14) (size 15 to 20)
#    0.000    2.080    4.000    0.240    0.000    0.640 
#    1.440    1.600    0.000    0.960    0.000    0.000 
#    0.000    0.000    0.000    0.000    0.000    0.000 
#
# Total GULP energy -139598.721663 kJ/mol
# GULP energy per Si atom -5583.948867 kJ/mol
# Density = 2.430056 g / cm^3
# Si number density = 24.355994 Si / 1000 Ang^3
#
#
#
# Elastic Constant Matrix: (Units=GPa)
#
#
# Indices 1 2 3 4 5 6 
#
# 1 83.8999 -14.6060 -19.1818 0.0000 2.0772 0.0000
# 2 -14.6060 111.1909 -5.8218 0.0000 -8.8765 0.0000
# 3 -19.1818 -5.8218 52.9826 0.0000 22.2085 0.0000
# 4 0.0000 0.0000 0.0000 -9.2897 0.0000 -5.2702
# 5 2.0772 -8.8765 22.2085 0.0000 36.6017 0.0000
# 6 0.0000 0.0000 0.0000 -5.2702 0.0000 -6.3900
#
#
#
# Elastic Compliance Matrix: (Units=1/GPa)
#
#
# Indices 1 2 3 4 5 6 
#
# 1 0.014021 0.001842 0.007275 0.000000 -0.004763 0.000000
# 2 0.001842 0.009414 0.001057 0.000000 0.001537 0.000000
# 3 0.007275 0.001057 0.029088 0.000000 -0.017806 0.000000
# 4 0.000000 0.000000 0.000000 -0.202304 0.000000 0.166852
# 5 -0.004763 0.001537 -0.017806 0.000000 0.038768 0.000000
# 6 0.000000 0.000000 0.000000 0.166852 0.000000 -0.294108
#
#
# Mechanical properties :
#
#
# Convention : Reuss Voigt Hill
#
# Bulk Modulus (GPa) = 13.72270 18.76160 16.24215
# Shear Modulus (GPa) = -12.46322 23.36328 5.45003
#
# Velocity S-wave (km/s) = -2.26456 3.10052 1.49750
# Velocity P-wave (km/s) = 1.09141 4.53183 3.11017
#
# Compressibility (1/GPa) = 0.07287194
#
# Stress axis : x y z
#
# Youngs Moduli (GPa) = 71.32188 106.22919 34.37867
#
# Poissons Ratio (x) = -0.19572 -0.25011
# Poissons Ratio (y) = -0.13141 -0.03634
# Poissons Ratio (z) = -0.51888 -0.11230
#
# Static dielectric constant tensor:
#      x y z
#    x 1.903580 0.000000 0.027360 
#    y 0.000000 1.907940 0.000000 
#    z 0.027360 0.000000 1.977410 
# 
# From -- ./inp_files/308432.got.cif
#   From: 2010.05.17/outbox.cif.g08.bks.cpg/sg12_155_cif.got.tgz:308432.got - 2010.06.03 13:09:07.
