data_PCOD9174300
_publ_section_title
;
Structure prediction by ZEFSAII (Michael W. Deem and Ramdas Pophale) SiO2 
 PCOD9174300
Probable space group: C 2/M
;
_chemical_formula_sum "Si O2"
_cell_formula_units_Z 56
_cell_length_a 15.499182
_cell_length_b 9.617619
_cell_length_c 23.299530
_cell_angle_alpha 90.000000
_cell_angle_beta 131.044240
_cell_angle_gamma 90.000000
_cell_volume 2619.459220
_symmetry_space_group_name_H-M "C 2/M"
_symmetry_group_IT_number 12
_symmetry_cell_setting 'monoclinic'
loop_
_space_group_symop_operation_xyz
x,y,z
-x,y,-z
-x,-y,-z
x,-y,z
1/2+x,1/2+y,z
1/2-x,1/2+y,-z
1/2-x,1/2-y,-z
1/2+x,1/2-y,z
loop_
_atom_site_type_symbol
_atom_site_label
_atom_site_fract_x
_atom_site_fract_y
_atom_site_fract_z
Si Si1 0.996630 0.665146 0.248946
Si Si2 0.279960 0.334908 0.185758
Si Si3 0.323727 0.835088 0.986574
Si Si4 0.948779 0.332252 0.857583
Si Si5 0.946694 0.656557 0.411599
Si Si6 0.643958 0.345620 0.469973
Si Si7 0.242630 0.153576 0.636910
O O1 0.972847 0.500000 0.242268
O O2 0.897796 0.750714 0.236608
O O3 0.004606 0.706283 0.184873
O O4 0.128208 0.686506 0.325691
O O5 0.301340 0.500000 0.203522
O O6 0.223559 0.316338 0.097913
O O7 0.179473 0.284835 0.184561
O O8 0.315852 0.000000 0.996147
O O9 0.250000 0.750000 0.000000
O O10 0.455978 0.793006 0.054007
O O11 0.941792 0.500000 0.855690
O O12 0.948873 0.500000 0.389682
O O13 0.821290 0.723711 0.358295
O O14 0.000000 0.648571 0.500000
O O15 0.027963 0.760861 0.412566
O O16 0.645058 0.500000 0.444117
O O17 0.750000 0.250000 0.500000
O O18 0.664188 0.362856 0.546769
O O19 0.246145 0.000000 0.667505
#
# Coordination Sequence:
#
# PCOD9174300 Si02
#       7
#     8   8   8   8   8   8   8
#     4  10  20  37  57  76 108 148 181 215 267 329
#     4  10  20  34  54  80 108 139 182 229 269 315
#     4  10  18  31  54  79 104 138 180 226 275 316
#     4   9  18  34  55  77 105 142 180 218 267 326
#     4   9  17  31  53  77 100 129 168 210 256 309
#     4  10  19  33  53  78 107 136 173 220 267 312
#     4   9  19  35  54  75 104 140 174 211 262 319
#
# _framework density 21.37846
#
# number of rings (size 3 to 8) (size 9 to 14) (size 15 to 20)
#    0.000    2.429    1.429    1.286    0.000    4.571 
#    2.571    1.429    0.000    1.714    0.000    0.000 
#    0.000    0.000    0.000    0.000    0.000    0.000 
#
# Total GULP energy -156266.191178 kJ/mol
# GULP energy per Si atom -5580.935399 kJ/mol
# Density = 2.132980 g / cm^3
# Si number density = 21.378460 Si / 1000 Ang^3
#
#
#
# Elastic Constant Matrix: (Units=GPa)
#
#
# Indices 1 2 3 4 5 6 
#
# 1 95.3289 50.5208 32.5212 0.0000 35.3392 0.0000
# 2 50.5208 107.6071 33.0851 0.0000 27.4892 0.0000
# 3 32.5212 33.0851 99.1885 0.0000 20.9201 0.0000
# 4 0.0000 0.0000 0.0000 20.6827 0.0000 13.8145
# 5 35.3392 27.4892 20.9201 0.0000 39.6555 0.0000
# 6 0.0000 0.0000 0.0000 13.8145 0.0000 28.7570
#
#
#
# Elastic Compliance Matrix: (Units=1/GPa)
#
#
# Indices 1 2 3 4 5 6 
#
# 1 0.018068 -0.004931 -0.001805 0.000000 -0.011731 0.000000
# 2 -0.004931 0.013161 -0.001998 0.000000 -0.003675 0.000000
# 3 -0.001805 -0.001998 0.012049 0.000000 -0.003363 0.000000
# 4 0.000000 0.000000 0.000000 0.071193 0.000000 -0.034200
# 5 -0.011731 -0.003675 -0.003363 0.000000 0.039993 0.000000
# 6 0.000000 0.000000 0.000000 -0.034200 0.000000 0.051203
#
#
# Mechanical properties :
#
#
# Convention : Reuss Voigt Hill
#
# Bulk Modulus (GPa) = 38.74449 59.37540 49.05994
# Shear Modulus (GPa) = 21.57598 30.21884 25.89741
#
# Velocity S-wave (km/s) = 3.18030 3.76376 3.48426
# Velocity P-wave (km/s) = 5.62568 6.83532 6.25978
#
# Compressibility (1/GPa) = 0.02581012
#
# Stress axis : x y z
#
# Youngs Moduli (GPa) = 55.34741 75.98018 82.99148
#
# Poissons Ratio (x) = 0.37466 0.14980
# Poissons Ratio (y) = 0.27292 0.16584
# Poissons Ratio (z) = 0.09990 0.15183
#
# Static dielectric constant tensor:
#      x y z
#    x 1.810570 0.000000 -0.050920 
#    y 0.000000 1.761620 0.000000 
#    z -0.050920 0.000000 1.826320 
# 
# From -- ./inp_files/377722.got.cif
#   From: 2010.05.17/outbox.cif.g08.bks.cpg/sg12_189_cif.got.tgz:377722.got - 2010.06.03 13:09:07.
