data_PCOD9174671
_publ_section_title
;
Structure prediction by ZEFSAII (Michael W. Deem and Ramdas Pophale) SiO2 
 PCOD9174671
Probable space group: C 2/M
;
_chemical_formula_sum "Si O2"
_cell_formula_units_Z 42
_cell_length_a 19.407189
_cell_length_b 7.309241
_cell_length_c 16.126746
_cell_angle_alpha 90.000000
_cell_angle_beta 40.321625
_cell_angle_gamma 90.000000
_cell_volume 1480.260052
_symmetry_space_group_name_H-M "C 2/M"
_symmetry_group_IT_number 12
_symmetry_cell_setting 'monoclinic'
loop_
_space_group_symop_operation_xyz
x,y,z
-x,y,-z
-x,-y,-z
x,-y,z
1/2+x,1/2+y,z
1/2-x,1/2+y,-z
1/2-x,1/2-y,-z
1/2+x,1/2-y,z
loop_
_atom_site_type_symbol
_atom_site_label
_atom_site_fract_x
_atom_site_fract_y
_atom_site_fract_z
Si Si1 0.870661 0.779319 0.314954
Si Si2 0.000000 0.500000 0.000000
Si Si3 0.083835 0.723503 0.310206
Si Si4 0.892133 0.710536 0.899931
Si Si5 0.688311 0.706582 0.855853
Si Si6 0.851399 0.709729 0.527609
O O1 0.859895 0.707231 0.418534
O O2 0.769040 0.716968 0.354728
O O3 0.985580 0.714392 0.180477
O O4 0.869908 0.000000 0.319176
O O5 0.904912 0.342250 0.082250
O O6 0.078681 0.500000 0.312603
O O7 0.101646 0.786054 0.198763
O O8 0.187974 0.767824 0.268460
O O9 0.966650 0.788542 0.444849
O O10 0.858467 0.500000 0.927453
O O11 0.822373 0.804798 0.033338
O O12 0.671048 0.500000 0.839780
O O13 0.851594 0.500000 0.556524
#
# Coordination Sequence:
#
# PCOD9174671 Si02
#       6
#     8   2   8   8   8   8
#     4   9  15  23  40  69 105 144 177 204 252 321
#     4  12  26  44  56  78 106 144 190 234 268 316
#     4   8  16  30  52  79 110 143 173 218 273 323
#     4  10  18  32  51  78 115 143 173 221 271 320
#     4  11  22  39  59  79 104 140 184 224 274 327
#     4   8  14  26  41  65 105 144 175 207 252 317
#
# _framework density 28.373394000000001
#
# number of rings (size 3 to 8) (size 9 to 14) (size 15 to 20)
#    0.000    2.667    0.952    3.143    0.000    0.762 
#    8.571    0.000    0.000    0.000    0.000    2.667 
#    0.000    7.619    0.000    0.000    0.000    0.000 
#
# Total GULP energy -117385.630076 kJ/mol
# GULP energy per Si atom -5589.791908 kJ/mol
# Density = 2.830881 g / cm^3
# Si number density = 28.373394 Si / 1000 Ang^3
#
#
#
# Elastic Constant Matrix: (Units=GPa)
#
#
# Indices 1 2 3 4 5 6 
#
# 1 182.8105 26.2452 61.1292 -0.0013 -48.3051 0.0002
# 2 26.2452 176.7128 39.5981 -0.0023 -19.0324 0.0008
# 3 61.1292 39.5981 209.7626 -0.0019 -68.0548 0.0006
# 4 -0.0013 -0.0023 -0.0019 6.1547 0.0010 -9.0222
# 5 -48.3051 -19.0324 -68.0548 0.0010 83.6504 -0.0002
# 6 0.0002 0.0008 0.0006 -9.0222 -0.0002 22.2403
#
#
#
# Elastic Compliance Matrix: (Units=1/GPa)
#
#
# Indices 1 2 3 4 5 6 
#
# 1 0.006623 -0.000465 -0.000864 0.000001 0.003016 0.000001
# 2 -0.000465 0.005963 -0.000866 0.000004 0.000384 0.000001
# 3 -0.000864 -0.000866 0.006734 0.000002 0.004783 0.000001
# 4 0.000001 0.000004 0.000002 0.400858 -0.000001 0.162615
# 5 0.003016 0.000384 0.004783 -0.000001 0.017675 -0.000001
# 6 0.000001 0.000001 0.000001 0.162615 -0.000001 0.110931
#
#
# Mechanical properties :
#
#
# Convention : Reuss Voigt Hill
#
# Bulk Modulus (GPa) = 66.97460 91.47010 79.22235
# Shear Modulus (GPa) = 8.95817 51.89663 30.42740
#
# Velocity S-wave (km/s) = 1.77879 4.28139 3.27829
# Velocity P-wave (km/s) = 5.27966 7.53315 6.50473
#
# Compressibility (1/GPa) = 0.01493103
#
# Stress axis : x y z
#
# Youngs Moduli (GPa) = 150.99744 167.69211 148.49642
#
# Poissons Ratio (x) = 0.07802 0.12826
# Poissons Ratio (y) = 0.07025 0.12854
# Poissons Ratio (z) = 0.13042 0.14515
#
# Static dielectric constant tensor:
#      x y z
#    x 2.283450 0.000000 0.060410 
#    y 0.000000 1.548880 0.000000 
#    z 0.060410 0.000000 2.213690 
# 
# From -- ./inp_files/171488.got.cif
#   From: 2010.05.17/outbox.cif.g08.bks.cpg/sg12_86_cif.got.tgz:171488.got - 2010.06.03 13:09:07.
