data_PCOD9174696
_publ_section_title
;
Structure prediction by ZEFSAII (Michael W. Deem and Ramdas Pophale) SiO2 
 PCOD9174696
Probable space group: C 2/M
;
_chemical_formula_sum "Si O2"
_cell_formula_units_Z 56
_cell_length_a 28.249703
_cell_length_b 7.544983
_cell_length_c 13.690332
_cell_angle_alpha 90.000000
_cell_angle_beta 58.694908
_cell_angle_gamma 90.000000
_cell_volume 2493.180978
_symmetry_space_group_name_H-M "C 2/M"
_symmetry_group_IT_number 12
_symmetry_cell_setting 'monoclinic'
loop_
_space_group_symop_operation_xyz
x,y,z
-x,y,-z
-x,-y,-z
x,-y,z
1/2+x,1/2+y,z
1/2-x,1/2+y,-z
1/2-x,1/2-y,-z
1/2+x,1/2-y,z
loop_
_atom_site_type_symbol
_atom_site_label
_atom_site_fract_x
_atom_site_fract_y
_atom_site_fract_z
Si Si1 0.287433 0.296625 0.734845
Si Si2 0.980754 0.209227 0.774702
Si Si3 0.420228 0.286174 0.033945
Si Si4 0.284618 0.786942 0.366318
Si Si5 0.621123 0.283180 0.230435
Si Si6 0.312607 0.287220 0.035852
Si Si7 0.092339 0.297399 0.736442
O O1 0.298545 0.500000 0.694424
O O2 0.251539 0.214779 0.685769
O O3 0.345383 0.218465 0.710771
O O4 0.245668 0.294357 0.872310
O O5 0.941512 0.274738 0.728622
O O6 0.046537 0.229472 0.709759
O O7 0.969825 0.000000 0.789528
O O8 0.955770 0.279862 0.903873
O O9 0.426021 0.500000 0.032956
O O10 0.356988 0.242782 0.072968
O O11 0.432687 0.216078 0.127436
O O12 0.250000 0.750000 0.500000
O O13 0.346701 0.714025 0.317191
O O14 0.290316 0.000000 0.344357
O O15 0.621996 0.500000 0.235127
O O16 0.657772 0.232992 0.096110
O O17 0.306496 0.500000 0.039846
O O18 0.100727 0.500000 0.700361
#
# Coordination Sequence:
#
# PCOD9174696 Si02
#       7
#     8   8   8   8   8   8   8
#     4  10  18  32  52  73 100 132 164 210 261 297
#     4   9  18  32  49  73 103 139 175 199 231 293
#     4   9  17  29  46  70 103 140 175 202 232 290
#     4  10  23  39  55  76  99 126 168 217 266 309
#     4   8  16  30  49  73 104 137 170 202 236 291
#     4   9  16  27  45  73 104 137 171 200 237 295
#     4  11  21  33  49  73 102 130 165 212 260 299
#
# _framework density 22.461265999999998
#
# number of rings (size 3 to 8) (size 9 to 14) (size 15 to 20)
#    0.000    2.571    1.429    3.000    0.000    4.000 
#    0.000    2.857    0.000    0.857    0.000    6.000 
#    0.000    0.000    0.000    0.000    0.000    0.000 
#
# Total GULP energy -156128.588758 kJ/mol
# GULP energy per Si atom -5576.021027 kJ/mol
# Density = 2.241014 g / cm^3
# Si number density = 22.461266 Si / 1000 Ang^3
#
#
#
# Elastic Constant Matrix: (Units=GPa)
#
#
# Indices 1 2 3 4 5 6 
#
# 1 261.8326 9.4905 41.7194 0.0000 -6.2141 0.0000
# 2 9.4905 48.2934 -1.3517 0.0000 -0.7819 0.0000
# 3 41.7194 -1.3517 24.7247 0.0000 -1.5043 0.0000
# 4 0.0000 0.0000 0.0000 63.3466 0.0000 49.9420
# 5 -6.2141 -0.7819 -1.5043 0.0000 12.5926 0.0000
# 6 0.0000 0.0000 0.0000 49.9420 0.0000 70.9537
#
#
#
# Elastic Compliance Matrix: (Units=1/GPa)
#
#
# Indices 1 2 3 4 5 6 
#
# 1 0.005330 -0.001275 -0.008974 0.000000 0.001479 0.000000
# 2 -0.001275 0.021069 0.003369 0.000000 0.001082 0.000000
# 3 -0.008974 0.003369 0.055922 0.000000 0.002461 0.000000
# 4 0.000000 0.000000 0.000000 0.035468 0.000000 -0.024965
# 5 0.001479 0.001082 0.002461 0.000000 0.080503 0.000000
# 6 0.000000 0.000000 0.000000 -0.024965 0.000000 0.031666
#
#
# Mechanical properties :
#
#
# Convention : Reuss Voigt Hill
#
# Bulk Modulus (GPa) = 14.58563 48.28525 31.43544
# Shear Modulus (GPa) = 18.75667 48.37809 33.56738
#
# Velocity S-wave (km/s) = 2.89289 4.64599 3.87001
# Velocity P-wave (km/s) = 4.20312 7.09395 5.83053
#
# Compressibility (1/GPa) = 0.06856062
#
# Stress axis : x y z
#
# Youngs Moduli (GPa) = 187.60198 47.46296 17.88219
#
# Poissons Ratio (x) = 0.06050 0.16048
# Poissons Ratio (y) = 0.23914 -0.06024
# Poissons Ratio (z) = 1.68354 -0.15988
#
# Static dielectric constant tensor:
#      x y z
#    x 1.933720 0.000000 -0.013580 
#    y 0.000000 1.832160 0.000000 
#    z -0.013580 0.000000 1.790590 
# 
# From -- ./inp_files/243651.got.cif
#   From: 2010.05.17/outbox.cif.g08.bks.cpg/sg12_122_cif.got.tgz:243651.got - 2010.06.03 13:09:07.
