data_PCOD9174160
_publ_section_title
;
Structure prediction by ZEFSAII (Michael W. Deem and Ramdas Pophale) SiO2 
 PCOD9174160
Probable space group: C 2/M
;
_chemical_formula_sum "Si O2"
_cell_formula_units_Z 56
_cell_length_a 14.844842
_cell_length_b 7.601736
_cell_length_c 23.963483
_cell_angle_alpha 90.000000
_cell_angle_beta 118.087119
_cell_angle_gamma 90.000000
_cell_volume 2385.730989
_symmetry_space_group_name_H-M "C 2/M"
_symmetry_group_IT_number 12
_symmetry_cell_setting 'monoclinic'
loop_
_space_group_symop_operation_xyz
x,y,z
-x,y,-z
-x,-y,-z
x,-y,z
1/2+x,1/2+y,z
1/2-x,1/2+y,-z
1/2-x,1/2-y,-z
1/2+x,1/2-y,z
loop_
_atom_site_type_symbol
_atom_site_label
_atom_site_fract_x
_atom_site_fract_y
_atom_site_fract_z
Si Si1 0.129187 0.704077 0.583661
Si Si2 0.308812 0.715007 0.718919
Si Si3 0.402473 0.301433 0.545645
Si Si4 0.531753 0.286121 0.319372
Si Si5 0.902713 0.207588 0.005308
Si Si6 0.822441 0.713252 0.096335
Si Si7 0.685196 0.794516 0.781640
O O1 0.109658 0.500000 0.590931
O O2 0.221668 0.765848 0.648858
O O3 0.149261 0.715612 0.523182
O O4 0.023941 0.801732 0.566517
O O5 0.309222 0.500000 0.720529
O O6 0.414412 0.770440 0.722165
O O7 0.276556 0.779576 0.770495
O O8 0.364037 0.500000 0.537303
O O9 0.404203 0.223702 0.608241
O O10 0.530471 0.500000 0.321750
O O11 0.416410 0.221627 0.284982
O O12 0.791721 0.276549 0.953838
O O13 0.899841 0.000000 0.992065
O O14 0.901889 0.228787 0.071985
O O15 0.000000 0.280359 0.000000
O O16 0.824692 0.500000 0.095651
O O17 0.837943 0.778347 0.163929
O O18 0.708462 0.000000 0.797126
#
# Coordination Sequence:
#
# PCOD9174160 Si02
#       7
#     8   8   8   8   8   8   8
#     4  10  18  31  53  74  95 131 175 212 261 327
#     4   9  19  35  54  75 101 136 176 217 263 317
#     4  10  19  31  49  74 103 130 164 219 276 314
#     4  10  21  36  54  76 103 137 177 220 268 316
#     4   9  18  34  57  85 112 141 178 214 250 302
#     4   9  19  34  54  81 111 143 175 213 261 302
#     4  10  20  37  56  75 106 143 178 215 256 308
#
# _framework density 23.472891000000001
#
# number of rings (size 3 to 8) (size 9 to 14) (size 15 to 20)
#    0.000    2.429    1.429    1.714    0.000    3.143 
#    0.000    5.000    0.000    0.000    0.000    0.000 
#    0.000    0.000    0.000    0.000    0.000    0.000 
#
# Total GULP energy -156317.051955 kJ/mol
# GULP energy per Si atom -5582.751856 kJ/mol
# Density = 2.341947 g / cm^3
# Si number density = 23.472891 Si / 1000 Ang^3
#
#
#
# Elastic Constant Matrix: (Units=GPa)
#
#
# Indices 1 2 3 4 5 6 
#
# 1 120.4360 -3.0900 26.2071 0.0000 -42.7654 0.0000
# 2 -3.0900 50.1012 -7.5635 0.0000 0.4986 0.0000
# 3 26.2071 -7.5635 85.2847 0.0000 -37.9123 0.0000
# 4 0.0000 0.0000 0.0000 10.1090 0.0000 0.2461
# 5 -42.7654 0.4986 -37.9123 0.0000 36.2059 0.0000
# 6 0.0000 0.0000 0.0000 0.2461 0.0000 5.6094
#
#
#
# Elastic Compliance Matrix: (Units=1/GPa)
#
#
# Indices 1 2 3 4 5 6 
#
# 1 0.016190 0.001774 0.006871 0.000000 0.026293 0.000000
# 2 0.001774 0.020600 0.003905 0.000000 0.005901 0.000000
# 3 0.006871 0.003905 0.025339 0.000000 0.034595 0.000000
# 4 0.000000 0.000000 0.000000 0.099028 0.000000 -0.004344
# 5 0.026293 0.005901 0.034595 0.000000 0.094821 0.000000
# 6 0.000000 0.000000 0.000000 -0.004344 0.000000 0.178462
#
#
# Mechanical properties :
#
#
# Convention : Reuss Voigt Hill
#
# Bulk Modulus (GPa) = 11.46423 31.88100 21.67261
# Shear Modulus (GPa) = 11.40469 26.40275 18.90372
#
# Velocity S-wave (km/s) = 2.20663 3.35747 2.84093
# Velocity P-wave (km/s) = 3.37445 5.35179 4.47373
#
# Compressibility (1/GPa) = 0.08722787
#
# Stress axis : x y z
#
# Youngs Moduli (GPa) = 61.76651 48.54419 39.46448
#
# Poissons Ratio (x) = -0.08612 -0.27114
# Poissons Ratio (y) = -0.10958 -0.15410
# Poissons Ratio (z) = -0.42437 -0.18955
#
# Static dielectric constant tensor:
#      x y z
#    x 1.896730 0.000000 -0.043830 
#    y 0.000000 1.873140 0.000000 
#    z -0.043830 0.000000 1.916810 
# 
# From -- ./inp_files/338191.got.cif
#   From: 2010.05.17/outbox.cif.g08.bks.cpg/sg12_170_cif.got.tgz:338191.got - 2010.06.03 13:09:07.
