data_PCOD9174959
_publ_section_title
;
Structure prediction by ZEFSAII (Michael W. Deem and Ramdas Pophale) SiO2 
 PCOD9174959
Probable space group: C 2/M
;
_chemical_formula_sum "Si O2"
_cell_formula_units_Z 56
_cell_length_a 18.984900
_cell_length_b 8.965978
_cell_length_c 26.440203
_cell_angle_alpha 90.000000
_cell_angle_beta 37.369749
_cell_angle_gamma 90.000000
_cell_volume 2731.669831
_symmetry_space_group_name_H-M "C 2/M"
_symmetry_group_IT_number 12
_symmetry_cell_setting 'monoclinic'
loop_
_space_group_symop_operation_xyz
x,y,z
-x,y,-z
-x,-y,-z
x,-y,z
1/2+x,1/2+y,z
1/2-x,1/2+y,-z
1/2-x,1/2-y,-z
1/2+x,1/2-y,z
loop_
_atom_site_type_symbol
_atom_site_label
_atom_site_fract_x
_atom_site_fract_y
_atom_site_fract_z
Si Si1 0.530447 0.679237 0.210832
Si Si2 0.642068 0.170320 0.866298
Si Si3 0.412953 0.173958 0.928880
Si Si4 0.042370 0.830263 0.534619
Si Si5 0.268403 0.674318 0.375333
Si Si6 0.816811 0.672712 0.692690
Si Si7 0.238681 0.824263 0.902974
O O1 0.537619 0.500000 0.205531
O O2 0.547895 0.744642 0.144536
O O3 0.402421 0.720659 0.303618
O O4 0.637673 0.748910 0.179941
O O5 0.522479 0.178904 0.904237
O O6 0.742271 0.220728 0.770679
O O7 0.651046 0.277959 0.908836
O O8 0.658117 0.000000 0.874700
O O9 0.385208 0.000000 0.934933
O O10 0.309660 0.255160 0.017481
O O11 0.172948 0.769005 0.459599
O O12 0.000000 0.830634 0.500000
O O13 0.949966 0.725131 0.614996
O O14 0.035999 0.000000 0.556845
O O15 0.257827 0.500000 0.395245
O O16 0.234276 0.684538 0.335214
O O17 0.805960 0.500000 0.714646
O O18 0.250245 0.000000 0.900372
#
# Coordination Sequence:
#
# PCOD9174959 Si02
#       7
#     8   8   8   8   8   8   8
#     4  11  22  39  61  85 116 151 191 235 284 338
#     4  11  23  39  60  85 115 149 189 236 286 339
#     4  11  23  40  62  86 113 146 189 239 288 337
#     4   9  17  28  47  78 114 148 183 228 278 326
#     4   9  18  32  53  81 112 147 185 229 279 331
#     4  10  18  32  54  82 114 147 187 230 279 334
#     4  12  26  41  58  82 114 152 193 235 285 340
#
# _framework density 20.500281000000001
#
# number of rings (size 3 to 8) (size 9 to 14) (size 15 to 20)
#    0.000    1.571    1.429    4.286    0.000    6.857 
#    0.000    0.000    0.000    0.857    0.000    0.000 
#    0.000    0.000    0.000    0.000    0.000    0.000 
#
# Total GULP energy -156542.779889 kJ/mol
# GULP energy per Si atom -5590.813567 kJ/mol
# Density = 2.045362 g / cm^3
# Si number density = 20.500281 Si / 1000 Ang^3
#
#
#
# Elastic Constant Matrix: (Units=GPa)
#
#
# Indices 1 2 3 4 5 6 
#
# 1 40.7680 17.8428 -0.7662 0.0000 -15.0767 -0.0001
# 2 17.8428 100.1238 34.2622 0.0000 -21.6241 -0.0002
# 3 -0.7662 34.2622 90.9209 0.0000 -33.0496 0.0000
# 4 0.0000 0.0000 0.0000 31.8695 0.0000 -2.4470
# 5 -15.0767 -21.6241 -33.0496 0.0000 24.2401 0.0000
# 6 -0.0001 -0.0002 0.0000 -2.4470 0.0000 24.5125
#
#
#
# Elastic Compliance Matrix: (Units=1/GPa)
#
#
# Indices 1 2 3 4 5 6 
#
# 1 0.047773 -0.003934 0.022621 0.000000 0.057047 0.000000
# 2 -0.003934 0.012772 -0.003160 0.000000 0.004638 0.000000
# 3 0.022621 -0.003160 0.032652 0.000000 0.055770 0.000000
# 4 0.000000 0.000000 0.000000 0.031620 0.000000 0.003157
# 5 0.057047 0.004638 0.055770 0.000000 0.156912 0.000000
# 6 0.000000 0.000000 0.000000 0.003157 0.000000 0.041111
#
#
# Mechanical properties :
#
#
# Convention : Reuss Voigt Hill
#
# Bulk Modulus (GPa) = 8.04815 37.16560 22.60688
# Shear Modulus (GPa) = 15.00592 28.15602 21.58097
#
# Velocity S-wave (km/s) = 2.70846 3.71002 3.24808
# Velocity P-wave (km/s) = 3.70343 6.04326 5.01181
#
# Compressibility (1/GPa) = 0.12425209
#
# Stress axis : x y z
#
# Youngs Moduli (GPa) = 20.93239 78.29777 30.62569
#
# Poissons Ratio (x) = 0.30801 -0.69280
# Poissons Ratio (y) = 0.08235 0.09678
# Poissons Ratio (z) = -0.47352 0.24742
#
# Static dielectric constant tensor:
#      x y z
#    x 1.759880 0.000000 -0.006570 
#    y 0.000000 1.684760 0.000000 
#    z -0.006570 0.000000 1.712750 
# 
# From -- ./inp_files/275348.got.cif
#   From: 2010.05.17/outbox.cif.g08.bks.cpg/sg12_138_cif.got.tgz:275348.got - 2010.06.03 13:09:07.
