data_PCOD9174548
_publ_section_title
;
Structure prediction by ZEFSAII (Michael W. Deem and Ramdas Pophale) SiO2 
 PCOD9174548
Probable space group: C 2/M
;
_chemical_formula_sum "Si O2"
_cell_formula_units_Z 56
_cell_length_a 11.157844
_cell_length_b 31.665427
_cell_length_c 6.953490
_cell_angle_alpha 90.000000
_cell_angle_beta 65.095206
_cell_angle_gamma 90.000000
_cell_volume 2228.332327
_symmetry_space_group_name_H-M "C 2/M"
_symmetry_group_IT_number 12
_symmetry_cell_setting 'monoclinic'
loop_
_space_group_symop_operation_xyz
x,y,z
-x,y,-z
-x,-y,-z
x,-y,z
1/2+x,1/2+y,z
1/2-x,1/2+y,-z
1/2-x,1/2-y,-z
1/2+x,1/2-y,z
loop_
_atom_site_type_symbol
_atom_site_label
_atom_site_fract_x
_atom_site_fract_y
_atom_site_fract_z
Si Si1 0.116809 0.000000 0.639658
Si Si2 0.248152 0.661330 0.497720
Si Si3 0.810824 0.337305 0.922869
Si Si4 0.327665 0.067901 0.432211
Si Si5 0.467324 0.226805 0.294400
Si Si6 0.612551 0.931915 0.148948
Si Si7 0.320605 0.500000 0.942331
Si Si8 0.980160 0.176282 0.801409
O O1 0.195932 0.959755 0.502614
O O2 0.143363 0.000000 0.853619
O O3 0.958280 0.000000 0.735013
O O4 0.221527 0.663803 0.284510
O O5 0.189164 0.617080 0.604493
O O6 0.170967 0.701950 0.631061
O O7 0.405301 0.658651 0.410415
O O8 0.870213 0.383281 0.920213
O O9 0.918073 0.301055 0.878610
O O10 0.674923 0.329141 0.127854
O O11 0.358337 0.066069 0.640794
O O12 0.461112 0.053030 0.236167
O O13 0.500000 0.228385 0.500000
O O14 0.477866 0.274524 0.218267
O O15 0.726052 0.959801 0.976107
O O16 0.000000 0.156456 0.000000
#
# Coordination Sequence:
#
# PCOD9174548 Si02
#       8
#     4   8   8   8   8   8   4   8
#     4   9  17  23  33  55  81 109 142 181 220 255
#     4   9  17  28  43  61  83 114 151 184 219 267
#     4   9  17  28  43  61  83 114 151 184 219 267
#     4   9  15  25  38  53  77 112 149 178 209 260
#     4  10  18  32  48  63  85 119 157 186 218 268
#     4   9  15  25  38  53  77 112 149 178 209 260
#     4   9  17  23  33  55  81 109 142 181 220 255
#     4  10  20  30  44  67  91 115 147 192 234 260
#
# _framework density 25.130901999999999
#
# number of rings (size 3 to 8) (size 9 to 14) (size 15 to 20)
#    0.000    2.714    1.429    1.286    2.000    1.714 
#    0.000    0.000    0.000    0.000    0.000    0.000 
#    0.000    0.000    0.000    7.714    0.000    8.571 
#
# Total GULP energy -156722.451795 kJ/mol
# GULP energy per Si atom -5597.230421 kJ/mol
# Density = 2.507370 g / cm^3
# Si number density = 25.130902 Si / 1000 Ang^3
#
#
#
# Elastic Constant Matrix: (Units=GPa)
#
#
# Indices 1 2 3 4 5 6 
#
# 1 102.9251 -0.0489 51.8359 0.0000 -16.1939 0.0000
# 2 -0.0489 84.3399 31.1401 0.0000 -27.6368 0.0000
# 3 51.8359 31.1401 201.3041 0.0000 -34.2672 0.0000
# 4 0.0000 0.0000 0.0000 90.5782 0.0000 -29.4283
# 5 -16.1939 -27.6368 -34.2672 0.0000 63.1317 0.0000
# 6 0.0000 0.0000 0.0000 -29.4283 0.0000 19.3767
#
#
#
# Elastic Compliance Matrix: (Units=1/GPa)
#
#
# Indices 1 2 3 4 5 6 
#
# 1 0.011502 0.001777 -0.002867 0.000000 0.002172 0.000000
# 2 0.001777 0.014396 -0.001690 0.000000 0.005840 0.000000
# 3 -0.002867 -0.001690 0.006298 0.000000 0.001943 0.000000
# 4 0.000000 0.000000 0.000000 0.021794 0.000000 0.033100
# 5 0.002172 0.005840 0.001943 0.000000 0.020008 0.000000
# 6 0.000000 0.000000 0.000000 0.033100 0.000000 0.101879
#
#
# Mechanical properties :
#
#
# Convention : Reuss Voigt Hill
#
# Bulk Modulus (GPa) = 37.54383 61.60258 49.57320
# Shear Modulus (GPa) = 26.27207 54.99346 40.63277
#
# Velocity S-wave (km/s) = 3.23679 4.68298 4.02536
# Velocity P-wave (km/s) = 5.37966 7.33528 6.43223
#
# Compressibility (1/GPa) = 0.02663554
#
# Stress axis : x y z
#
# Youngs Moduli (GPa) = 86.93918 69.46537 158.77770
#
# Poissons Ratio (x) = -0.12344 0.45521
# Poissons Ratio (y) = -0.15449 0.26838
# Poissons Ratio (z) = 0.24925 0.11742
#
# Static dielectric constant tensor:
#      x y z
#    x 2.007130 0.000000 0.037320 
#    y 0.000000 1.896280 0.000000 
#    z 0.037320 0.000000 2.915760 
# 
# From -- ./inp_files/68350.got.cif
#   From: 2010.05.17/outbox.cif.g08.bks.cpg/sg12_35_cif.got.tgz:68350.got - 2010.06.03 13:09:07.
