data_PCOD9174751
_publ_section_title
;
Structure prediction by ZEFSAII (Michael W. Deem and Ramdas Pophale) SiO2 
 PCOD9174751
Probable space group: C 2/M
;
_chemical_formula_sum "Si O2"
_cell_formula_units_Z 40
_cell_length_a 11.000083
_cell_length_b 24.728869
_cell_length_c 8.232272
_cell_angle_alpha 90.000000
_cell_angle_beta 115.316583
_cell_angle_gamma 90.000000
_cell_volume 2024.270635
_symmetry_space_group_name_H-M "C 2/M"
_symmetry_group_IT_number 12
_symmetry_cell_setting 'monoclinic'
loop_
_space_group_symop_operation_xyz
x,y,z
-x,y,-z
-x,-y,-z
x,-y,z
1/2+x,1/2+y,z
1/2-x,1/2+y,-z
1/2-x,1/2-y,-z
1/2+x,1/2-y,z
loop_
_atom_site_type_symbol
_atom_site_label
_atom_site_fract_x
_atom_site_fract_y
_atom_site_fract_z
Si Si1 0.156821 0.939850 0.052125
Si Si2 0.654361 0.940329 0.521985
Si Si3 0.788922 0.336478 0.050958
Si Si4 0.069254 0.330840 0.365637
Si Si5 0.147661 0.248228 0.163994
O O1 0.244667 0.937275 0.267839
O O2 0.212734 0.891690 0.975717
O O3 0.174906 0.000000 0.993474
O O4 0.000000 0.932166 0.000000
O O5 0.500000 0.940045 0.500000
O O6 0.662602 0.884078 0.428841
O O7 0.674536 0.000000 0.455483
O O8 0.725693 0.307185 0.174575
O O9 0.945560 0.345668 0.175192
O O10 0.776893 0.293994 0.899056
O O11 0.130340 0.275786 0.328525
O O12 0.000000 0.321336 0.500000
O O13 0.000000 0.240583 0.000000
#
# Coordination Sequence:
#
# PCOD9174751 Si02
#       5
#     8   8   8   8   8
#     4  10  19  31  53  80 103 134 178 216 252 308
#     4   9  16  30  51  75 104 136 167 210 265 305
#     4  10  18  34  52  73 106 141 172 211 259 309
#     4  10  18  32  52  79 101 133 175 217 253 310
#     4   9  20  33  51  74 106 141 172 212 262 306
#
# _framework density 19.760203000000001
#
# number of rings (size 3 to 8) (size 9 to 14) (size 15 to 20)
#    0.000    2.400    4.000    0.600    0.000    0.800 
#    0.000    1.000    0.000    3.600    0.000    4.200 
#    0.000    0.000    0.000    0.000    0.000    0.000 
#
# Total GULP energy -111438.401084 kJ/mol
# GULP energy per Si atom -5571.920054 kJ/mol
# Density = 1.971523 g / cm^3
# Si number density = 19.760203 Si / 1000 Ang^3
#
#
#
# Elastic Constant Matrix: (Units=GPa)
#
#
# Indices 1 2 3 4 5 6 
#
# 1 47.6403 26.5915 17.6309 0.0000 13.4781 0.0000
# 2 26.5915 79.2895 14.5055 0.0000 4.3150 0.0000
# 3 17.6309 14.5055 38.5314 0.0000 12.3355 0.0000
# 4 0.0000 0.0000 0.0000 24.5289 0.0000 6.8764
# 5 13.4781 4.3150 12.3355 0.0000 36.2808 0.0000
# 6 0.0000 0.0000 0.0000 6.8764 0.0000 27.7376
#
#
#
# Elastic Compliance Matrix: (Units=1/GPa)
#
#
# Indices 1 2 3 4 5 6 
#
# 1 0.031019 -0.008418 -0.008591 0.000000 -0.007601 0.000000
# 2 -0.008418 0.015830 -0.002812 0.000000 0.002200 0.000000
# 3 -0.008591 -0.002812 0.033455 0.000000 -0.007849 0.000000
# 4 0.000000 0.000000 0.000000 0.043813 0.000000 -0.010862
# 5 -0.007601 0.002200 -0.007849 0.000000 0.032793 0.000000
# 6 0.000000 0.000000 0.000000 -0.010862 0.000000 0.038745
#
#
# Mechanical properties :
#
#
# Convention : Reuss Voigt Hill
#
# Bulk Modulus (GPa) = 24.59268 31.43525 28.01396
# Shear Modulus (GPa) = 20.09235 24.82501 22.45868
#
# Velocity S-wave (km/s) = 3.19220 3.54830 3.37495
# Velocity P-wave (km/s) = 5.10485 5.72102 5.42170
#
# Compressibility (1/GPa) = 0.04066251
#
# Stress axis : x y z
#
# Youngs Moduli (GPa) = 32.23836 63.17226 29.89068
#
# Poissons Ratio (x) = 0.53176 0.25679
# Poissons Ratio (y) = 0.27137 0.08406
# Poissons Ratio (z) = 0.27696 0.17765
#
# Static dielectric constant tensor:
#      x y z
#    x 1.711720 0.000000 -0.012400 
#    y 0.000000 1.756290 0.000000 
#    z -0.012400 0.000000 1.731360 
# 
# From -- ./inp_files/50405.got.cif
#   From: 2010.05.17/outbox.cif.g08.bks.cpg/sg12_26_cif.got.tgz:50405.got - 2010.06.03 13:09:07.
