data_PCOD9174011
_publ_section_title
;
Structure prediction by ZEFSAII (Michael W. Deem and Ramdas Pophale) SiO2 
 PCOD9174011
Probable space group: C 2/M
;
_chemical_formula_sum "Si O2"
_cell_formula_units_Z 64
_cell_length_a 15.018468
_cell_length_b 7.514008
_cell_length_c 29.584206
_cell_angle_alpha 90.000000
_cell_angle_beta 116.157342
_cell_angle_gamma 90.000000
_cell_volume 2996.633824
_symmetry_space_group_name_H-M "C 2/M"
_symmetry_group_IT_number 12
_symmetry_cell_setting 'monoclinic'
loop_
_space_group_symop_operation_xyz
x,y,z
-x,y,-z
-x,-y,-z
x,-y,z
1/2+x,1/2+y,z
1/2-x,1/2+y,-z
1/2-x,1/2-y,-z
1/2+x,1/2-y,z
loop_
_atom_site_type_symbol
_atom_site_label
_atom_site_fract_x
_atom_site_fract_y
_atom_site_fract_z
Si Si1 0.267349 0.292871 0.359506
Si Si2 0.515238 0.217229 0.902999
Si Si3 0.951249 0.283327 0.711484
Si Si4 0.843356 0.287497 0.988954
Si Si5 0.083637 0.708334 0.822904
Si Si6 0.802580 0.285391 0.878606
Si Si7 0.695060 0.288061 0.441122
Si Si8 0.977142 0.790436 0.371914
O O1 0.268307 0.500000 0.345969
O O2 0.162850 0.219210 0.317061
O O3 0.253702 0.283465 0.410593
O O4 0.372306 0.215613 0.366202
O O5 0.563391 0.279159 0.960908
O O6 0.571597 0.281784 0.871001
O O7 0.400663 0.266645 0.873696
O O8 0.521481 0.000000 0.906223
O O9 0.949665 0.500000 0.711171
O O10 0.010224 0.218546 0.768630
O O11 0.008575 0.229332 0.678691
O O12 0.856453 0.500000 0.986599
O O13 0.750000 0.250000 0.000000
O O14 0.820317 0.218469 0.933900
O O15 0.058926 0.500000 0.820976
O O16 0.198424 0.724053 0.835923
O O17 0.798622 0.500000 0.878846
O O18 0.690164 0.500000 0.433606
O O19 0.750000 0.250000 0.500000
O O20 0.581389 0.218128 0.415075
O O21 0.975750 0.000000 0.383219
#
# Coordination Sequence:
#
# PCOD9174011 Si02
#       8
#     8   8   8   8   8   8   8   8
#     4   9  18  35  56  77 102 136 177 217 256 302
#     4   9  18  33  52  72  99 132 164 202 250 305
#     4   9  19  34  53  75 100 131 169 211 256 308
#     4  10  18  31  52  74  97 128 164 203 249 301
#     4  10  20  35  52  73 102 133 163 203 258 308
#     4  10  20  33  52  76  98 127 169 208 246 301
#     4  10  20  34  52  79 113 145 176 213 257 301
#     4   9  19  35  56  79 103 135 176 218 257 297
#
# _framework density 21.357296999999999
#
# number of rings (size 3 to 8) (size 9 to 14) (size 15 to 20)
#    0.000    2.500    1.250    0.750    0.000    4.500 
#    0.000    6.250    0.000    1.500    0.000    0.000 
#    0.000    0.000    0.000    0.000    0.000    0.000 
#
# Total GULP energy -178546.940597 kJ/mol
# GULP energy per Si atom -5579.591894 kJ/mol
# Density = 2.130869 g / cm^3
# Si number density = 21.357297 Si / 1000 Ang^3
#
#
#
# Elastic Constant Matrix: (Units=GPa)
#
#
# Indices 1 2 3 4 5 6 
#
# 1 138.8000 -0.3048 40.9213 0.0000 23.3300 0.0000
# 2 -0.3048 49.5151 -0.4566 0.0000 2.6756 0.0000
# 3 40.9213 -0.4566 121.8610 0.0000 23.3378 0.0000
# 4 0.0000 0.0000 0.0000 9.7512 0.0000 1.1640
# 5 23.3300 2.6756 23.3378 0.0000 14.2150 0.0000
# 6 0.0000 0.0000 0.0000 1.1640 0.0000 11.6695
#
#
#
# Elastic Compliance Matrix: (Units=1/GPa)
#
#
# Indices 1 2 3 4 5 6 
#
# 1 0.010000 0.000932 -0.000259 0.000000 -0.016161 0.000000
# 2 0.000932 0.020608 0.001167 0.000000 -0.007325 0.000000
# 3 -0.000259 0.001167 0.012045 0.000000 -0.019570 0.000000
# 4 0.000000 0.000000 0.000000 0.103787 0.000000 -0.010353
# 5 -0.016161 -0.007325 -0.019570 0.000000 0.130381 0.000000
# 6 0.000000 0.000000 0.000000 -0.010353 0.000000 0.086726
#
#
# Mechanical properties :
#
#
# Convention : Reuss Voigt Hill
#
# Bulk Modulus (GPa) = 21.58275 43.38844 32.48560
# Shear Modulus (GPa) = 13.32226 25.12822 19.22524
#
# Velocity S-wave (km/s) = 2.50027 3.43383 3.00354
# Velocity P-wave (km/s) = 4.29682 6.00676 5.22225
#
# Compressibility (1/GPa) = 0.04633330
#
# Stress axis : x y z
#
# Youngs Moduli (GPa) = 100.00451 48.52440 83.01931
#
# Poissons Ratio (x) = -0.04525 0.02153
# Poissons Ratio (y) = -0.09325 -0.09688
# Poissons Ratio (z) = 0.02593 -0.05663
#
# Static dielectric constant tensor:
#      x y z
#    x 1.765620 0.000000 0.024510 
#    y 0.000000 1.875150 0.000000 
#    z 0.024510 0.000000 1.754640 
# 
# From -- ./inp_files/375106.got.cif
#   From: 2010.05.17/outbox.cif.g08.bks.cpg/sg12_188_cif.got.tgz:375106.got - 2010.06.03 13:09:07.
