data_PCOD9174573
_publ_section_title
;
Structure prediction by ZEFSAII (Michael W. Deem and Ramdas Pophale) SiO2 
 PCOD9174573
Probable space group: C 2/M
;
_chemical_formula_sum "Si O2"
_cell_formula_units_Z 56
_cell_length_a 8.597289
_cell_length_b 28.138037
_cell_length_c 14.993377
_cell_angle_alpha 90.000000
_cell_angle_beta 54.308895
_cell_angle_gamma 90.000000
_cell_volume 2945.804524
_symmetry_space_group_name_H-M "C 2/M"
_symmetry_group_IT_number 12
_symmetry_cell_setting 'monoclinic'
loop_
_space_group_symop_operation_xyz
x,y,z
-x,y,-z
-x,-y,-z
x,-y,z
1/2+x,1/2+y,z
1/2-x,1/2+y,-z
1/2-x,1/2-y,-z
1/2+x,1/2-y,z
loop_
_atom_site_type_symbol
_atom_site_label
_atom_site_fract_x
_atom_site_fract_y
_atom_site_fract_z
Si Si1 0.494526 0.628012 0.108491
Si Si2 0.816466 0.552708 0.998590
Si Si3 0.550624 0.190318 0.701963
Si Si4 0.082729 0.411205 0.228170
Si Si5 0.158389 0.552201 0.525187
Si Si6 0.852999 0.210771 0.258442
Si Si7 0.283628 0.155391 0.529971
O O1 0.290661 0.603068 0.199092
O O2 0.500769 0.678843 0.153487
O O3 0.500000 0.634239 0.000000
O O4 0.664824 0.592757 0.074968
O O5 0.729712 0.500000 0.035084
O O6 0.879888 0.560877 0.875022
O O7 0.000000 0.555293 0.000000
O O8 0.516562 0.139527 0.759433
O O9 0.350027 0.204082 0.722506
O O10 0.606758 0.233929 0.744601
O O11 0.697579 0.180846 0.571701
O O12 0.955515 0.437421 0.344644
O O13 0.253328 0.500000 0.497182
O O14 0.276396 0.600410 0.464655
O O15 0.000000 0.549892 0.500000
O O16 0.838033 0.185992 0.360473
O O17 0.500000 0.153465 0.500000
#
# Coordination Sequence:
#
# PCOD9174573 Si02
#       7
#     8   8   8   8   8   8   8
#     4   9  19  34  50  71  98 126 162 204 244 288
#     4  10  21  36  53  73  97 128 165 202 243 292
#     4   9  18  30  49  73  97 127 163 198 242 291
#     4   9  18  33  50  73 101 128 163 208 245 286
#     4   9  15  24  44  74 101 126 158 199 248 292
#     4  10  18  32  49  70  99 129 160 200 243 285
#     4   8  15  28  44  67  99 127 157 197 236 287
#
# _framework density 19.010088
#
# number of rings (size 3 to 8) (size 9 to 14) (size 15 to 20)
#    0.000    2.857    0.000    3.429    0.000    4.286 
#    0.000    7.857    0.000    0.000    0.000    3.000 
#    0.000   19.429    0.000    0.000    0.000    0.000 
#
# Total GULP energy -156080.426604 kJ/mol
# GULP energy per Si atom -5574.300950 kJ/mol
# Density = 1.896682 g / cm^3
# Si number density = 19.010088 Si / 1000 Ang^3
#
#
#
# Elastic Constant Matrix: (Units=GPa)
#
#
# Indices 1 2 3 4 5 6 
#
# 1 11.8810 19.2086 2.5158 0.0000 5.9982 0.0000
# 2 19.2086 127.1262 12.8408 0.0000 1.9786 0.0000
# 3 2.5158 12.8408 14.6063 0.0000 -4.3458 0.0000
# 4 0.0000 0.0000 0.0000 113.0387 0.0000 170.5853
# 5 5.9982 1.9786 -4.3458 0.0000 10.4328 0.0000
# 6 0.0000 0.0000 0.0000 170.5853 0.0000 326.5688
#
#
#
# Elastic Compliance Matrix: (Units=1/GPa)
#
#
# Indices 1 2 3 4 5 6 
#
# 1 0.198974 -0.022559 -0.053880 0.000000 -0.132562 0.000000
# 2 -0.022559 0.011474 -0.003413 0.000000 0.009372 0.000000
# 3 -0.053880 -0.003413 0.102907 0.000000 0.074491 0.000000
# 4 0.000000 0.000000 0.000000 0.041784 0.000000 -0.021826
# 5 -0.132562 0.009372 0.074491 0.000000 0.201317 0.000000
# 6 0.000000 0.000000 0.000000 -0.021826 0.000000 0.014463
#
#
# Mechanical properties :
#
#
# Convention : Reuss Voigt Hill
#
# Bulk Modulus (GPa) = 6.50824 24.74932 15.62878
# Shear Modulus (GPa) = 6.39516 97.94460 52.16988
#
# Velocity S-wave (km/s) = 1.83613 7.18570 5.24431
# Velocity P-wave (km/s) = 2.81535 9.04948 6.70146
#
# Compressibility (1/GPa) = 0.15365136
#
# Stress axis : x y z
#
# Youngs Moduli (GPa) = 5.02577 87.15592 9.71748
#
# Poissons Ratio (x) = 1.96616 0.52358
# Poissons Ratio (y) = 0.11338 0.03316
# Poissons Ratio (z) = 0.27079 0.29744
#
# Static dielectric constant tensor:
#      x y z
#    x 1.652280 0.000000 -0.003970 
#    y 0.000000 1.683550 0.000000 
#    z -0.003970 0.000000 1.660660 
# 
# From -- ./inp_files/199688.got.cif
#   From: 2010.05.17/outbox.cif.g08.bks.cpg/sg12_100_cif.got.tgz:199688.got - 2010.06.03 13:09:07.
