data_PCOD9174340
_publ_section_title
;
Structure prediction by ZEFSAII (Michael W. Deem and Ramdas Pophale) SiO2 
 PCOD9174340
Probable space group: C 2/M
;
_chemical_formula_sum "Si O2"
_cell_formula_units_Z 56
_cell_length_a 15.774210
_cell_length_b 7.533747
_cell_length_c 24.841399
_cell_angle_alpha 90.000000
_cell_angle_beta 116.879526
_cell_angle_gamma 90.000000
_cell_volume 2633.174634
_symmetry_space_group_name_H-M "C 2/M"
_symmetry_group_IT_number 12
_symmetry_cell_setting 'monoclinic'
loop_
_space_group_symop_operation_xyz
x,y,z
-x,y,-z
-x,-y,-z
x,-y,z
1/2+x,1/2+y,z
1/2-x,1/2+y,-z
1/2-x,1/2-y,-z
1/2+x,1/2-y,z
loop_
_atom_site_type_symbol
_atom_site_label
_atom_site_fract_x
_atom_site_fract_y
_atom_site_fract_z
Si Si1 0.906258 0.789371 0.712388
Si Si2 0.727405 0.287049 0.931172
Si Si3 0.688184 0.714080 0.636459
Si Si4 0.992747 0.782561 0.624982
Si Si5 0.985015 0.786561 0.151545
Si Si6 0.079403 0.287091 0.064836
Si Si7 0.654482 0.287660 0.505694
O O1 0.793525 0.764627 0.684115
O O2 0.943717 0.719524 0.665779
O O3 0.962420 0.717813 0.780086
O O4 0.923886 0.000000 0.716053
O O5 0.723991 0.500000 0.923778
O O6 0.622731 0.218304 0.886348
O O7 0.816034 0.219887 0.921214
O O8 0.750000 0.250000 0.000000
O O9 0.686338 0.500000 0.634184
O O10 0.602035 0.771112 0.649948
O O11 0.666433 0.780659 0.569657
O O12 0.933038 0.722888 0.555630
O O13 0.989243 0.000000 0.623836
O O14 0.045101 0.749573 0.115136
O O15 0.979300 0.000000 0.154302
O O16 0.082334 0.500000 0.059265
O O17 0.000000 0.219152 0.000000
O O18 0.642910 0.500000 0.506853
O O19 0.750000 0.250000 0.500000
#
# Coordination Sequence:
#
# PCOD9174340 Si02
#       7
#     8   8   8   8   8   8   8
#     4  10  21  38  55  75 108 147 183 218 267 322
#     4  10  20  35  56  82 110 139 174 216 266 320
#     4  10  20  34  56  83 107 139 186 228 267 319
#     4   9  18  34  56  78 107 145 180 220 270 323
#     4  10  22  37  55  80 109 144 182 218 261 324
#     4  10  20  35  57  85 111 136 171 219 270 317
#     4  10  18  31  54  82 108 138 179 226 273 318
#
# _framework density 21.267105000000001
#
# number of rings (size 3 to 8) (size 9 to 14) (size 15 to 20)
#    0.000    2.143    2.857    0.429    0.000    4.286 
#    0.000    4.286    0.000    1.714    0.000    0.000 
#    0.000    0.000    0.000    0.000    0.000    0.000 
#
# Total GULP energy -156409.994586 kJ/mol
# GULP energy per Si atom -5586.071235 kJ/mol
# Density = 2.121870 g / cm^3
# Si number density = 21.267105 Si / 1000 Ang^3
#
#
#
# Elastic Constant Matrix: (Units=GPa)
#
#
# Indices 1 2 3 4 5 6 
#
# 1 165.6845 -0.2675 76.9462 0.0000 37.1629 0.0000
# 2 -0.2675 50.0370 2.7831 0.0000 -1.6999 0.0000
# 3 76.9462 2.7831 162.5907 0.0000 31.5981 0.0000
# 4 0.0000 0.0000 0.0000 -5.2334 0.0000 5.5368
# 5 37.1629 -1.6999 31.5981 0.0000 18.7657 0.0000
# 6 0.0000 0.0000 0.0000 5.5368 0.0000 18.8250
#
#
#
# Elastic Compliance Matrix: (Units=1/GPa)
#
#
# Indices 1 2 3 4 5 6 
#
# 1 0.011100 -0.000528 -0.001431 0.000000 -0.019620 0.000000
# 2 -0.000528 0.020190 -0.000973 0.000000 0.004512 0.000000
# 3 -0.001431 -0.000973 0.009380 0.000000 -0.013049 0.000000
# 4 0.000000 0.000000 0.000000 -0.145732 0.000000 0.042862
# 5 -0.019620 0.004512 -0.013049 0.000000 0.114525 0.000000
# 6 0.000000 0.000000 0.000000 0.042862 0.000000 0.040514
#
#
# Mechanical properties :
#
#
# Convention : Reuss Voigt Hill
#
# Bulk Modulus (GPa) = 28.72952 59.69287 44.21120
# Shear Modulus (GPa) = 74.13789 26.39483 50.26636
#
# Velocity S-wave (km/s) = 5.91067 3.52676 4.86693
# Velocity P-wave (km/s) = 7.75368 6.68679 7.23992
#
# Compressibility (1/GPa) = 0.03480740
#
# Stress axis : x y z
#
# Youngs Moduli (GPa) = 90.08859 49.53007 106.60747
#
# Poissons Ratio (x) = 0.02613 0.15256
# Poissons Ratio (y) = 0.04753 0.10369
# Poissons Ratio (z) = 0.12892 0.04818
#
# Static dielectric constant tensor:
#      x y z
#    x 1.774990 0.000000 0.006280 
#    y 0.000000 1.854220 0.000000 
#    z 0.006280 0.000000 1.739510 
# 
# From -- ./inp_files/337911.got.cif
#   From: 2010.05.17/outbox.cif.g08.bks.cpg/sg12_169_cif.got.tgz:337911.got - 2010.06.03 13:09:07.
