data_PCOD9174278
_publ_section_title
;
Structure prediction by ZEFSAII (Michael W. Deem and Ramdas Pophale) SiO2 
 PCOD9174278
Probable space group: C 2/M
;
_chemical_formula_sum "Si O2"
_cell_formula_units_Z 40
_cell_length_a 16.444556
_cell_length_b 14.575281
_cell_length_c 16.580130
_cell_angle_alpha 90.000000
_cell_angle_beta 154.392175
_cell_angle_gamma 90.000000
_cell_volume 1717.594874
_symmetry_space_group_name_H-M "C 2/M"
_symmetry_group_IT_number 12
_symmetry_cell_setting 'monoclinic'
loop_
_space_group_symop_operation_xyz
x,y,z
-x,y,-z
-x,-y,-z
x,-y,z
1/2+x,1/2+y,z
1/2-x,1/2+y,-z
1/2-x,1/2-y,-z
1/2+x,1/2-y,z
loop_
_atom_site_type_symbol
_atom_site_label
_atom_site_fract_x
_atom_site_fract_y
_atom_site_fract_z
Si Si1 0.912451 0.105572 0.009785
Si Si2 0.119630 0.891973 0.359879
Si Si3 0.214479 0.783323 0.861725
Si Si4 0.969564 0.606025 0.773629
Si Si5 0.722736 0.397308 0.714069
O O1 0.065893 0.120468 0.218200
O O2 0.850631 0.000000 0.959726
O O3 0.745092 0.176051 0.876070
O O4 0.000000 0.120383 0.000000
O O5 0.334193 0.874861 0.576901
O O6 0.082316 0.000000 0.346948
O O7 0.983395 0.826961 0.289757
O O8 0.273345 0.827307 0.828817
O O9 0.363881 0.824004 0.059425
O O10 0.037079 0.500000 0.830296
O O11 0.832106 0.613783 0.728430
O O12 0.500000 0.390441 0.500000
O O13 0.763182 0.500000 0.781100
#
# Coordination Sequence:
#
# PCOD9174278 Si02
#       5
#     8   8   8   8   8
#     4  10  23  43  64  84 117 167 216 258 299 345
#     4  10  21  39  63  93 127 157 193 253 314 364
#     4  12  21  36  63  92 119 160 205 249 301 366
#     4  10  20  33  56  93 129 160 192 238 308 380
#     4  10  18  31  53  87 129 162 186 231 304 375
#
# _framework density 23.288378000000002
#
# number of rings (size 3 to 8) (size 9 to 14) (size 15 to 20)
#    0.000    1.600    2.000    4.200    0.000    2.400 
#    0.000    0.000    0.000    1.800    0.000    0.000 
#    0.000    0.000    0.000    0.000    0.000    0.000 
#
# Total GULP energy -112045.116642 kJ/mol
# GULP energy per Si atom -5602.255832 kJ/mol
# Density = 2.323537 g / cm^3
# Si number density = 23.288378 Si / 1000 Ang^3
#
#
#
# Elastic Constant Matrix: (Units=GPa)
#
#
# Indices 1 2 3 4 5 6 
#
# 1 106.9711 48.0380 21.2806 -0.0006 -13.3254 0.0023
# 2 48.0380 142.2366 63.3757 -0.0169 0.1558 0.0030
# 3 21.2806 63.3757 96.8511 -0.0008 -0.2482 0.0028
# 4 -0.0006 -0.0169 -0.0008 20.7215 -0.0059 14.8082
# 5 -13.3254 0.1558 -0.2482 -0.0059 43.3043 0.0021
# 6 0.0023 0.0030 0.0028 14.8082 0.0021 7.7358
#
#
#
# Elastic Compliance Matrix: (Units=1/GPa)
#
#
# Indices 1 2 3 4 5 6 
#
# 1 0.011546 -0.003920 0.000037 0.000000 0.003567 -0.000002
# 2 -0.003920 0.011255 -0.006507 -0.000024 -0.001284 0.000046
# 3 0.000037 -0.006507 0.014575 0.000008 0.000118 -0.000017
# 4 0.000000 -0.000024 0.000008 -0.131143 -0.000030 0.251042
# 5 0.003567 -0.001284 0.000118 -0.000030 0.024195 0.000051
# 6 -0.000002 0.000046 -0.000017 0.251042 0.000051 -0.351288
#
#
# Mechanical properties :
#
#
# Convention : Reuss Voigt Hill
#
# Bulk Modulus (GPa) = 60.25246 67.93861 64.09553
# Shear Modulus (GPa) = -12.67269 28.57661 7.95196
#
# Velocity S-wave (km/s) = -2.33526 3.50676 1.84986
# Velocity P-wave (km/s) = 4.31940 6.75519 5.66965
#
# Compressibility (1/GPa) = 0.01659683
#
# Stress axis : x y z
#
# Youngs Moduli (GPa) = 86.61351 88.84909 68.61016
#
# Poissons Ratio (x) = 0.34827 -0.00256
# Poissons Ratio (y) = 0.33951 0.44644
# Poissons Ratio (z) = -0.00323 0.57813
#
# Static dielectric constant tensor:
#      x y z
#    x 1.892520 0.000000 -0.018310 
#    y 0.000000 1.895480 0.000000 
#    z -0.018310 0.000000 1.865240 
# 
# From -- ./inp_files/351988.got.cif
#   From: 2010.05.17/outbox.cif.g08.bks.cpg/sg12_176_cif.got.tgz:351988.got - 2010.06.03 13:09:07.
