data_PCOD9174723
_publ_section_title
;
Structure prediction by ZEFSAII (Michael W. Deem and Ramdas Pophale) SiO2 
 PCOD9174723
Probable space group: C 2/M
;
_chemical_formula_sum "Si O2"
_cell_formula_units_Z 48
_cell_length_a 31.140733
_cell_length_b 10.904740
_cell_length_c 8.387937
_cell_angle_alpha 90.000000
_cell_angle_beta 123.985132
_cell_angle_gamma 90.000000
_cell_volume 2361.834780
_symmetry_space_group_name_H-M "C 2/M"
_symmetry_group_IT_number 12
_symmetry_cell_setting 'monoclinic'
loop_
_space_group_symop_operation_xyz
x,y,z
-x,y,-z
-x,-y,-z
x,-y,z
1/2+x,1/2+y,z
1/2-x,1/2+y,-z
1/2-x,1/2-y,-z
1/2+x,1/2-y,z
loop_
_atom_site_type_symbol
_atom_site_label
_atom_site_fract_x
_atom_site_fract_y
_atom_site_fract_z
Si Si1 0.696079 0.630909 0.852715
Si Si2 0.753677 0.779038 0.740475
Si Si3 0.933434 0.360491 0.718427
Si Si4 0.123396 0.637486 0.745261
Si Si5 0.975856 0.352004 0.283563
Si Si6 0.831785 0.355095 0.688936
O O1 0.668952 0.500000 0.791066
O O2 0.733784 0.637315 0.082379
O O3 0.727724 0.656183 0.757838
O O4 0.660830 0.749393 0.802458
O O5 0.806366 0.735083 0.765550
O O6 0.711822 0.843168 0.540767
O O7 0.941415 0.500000 0.793124
O O8 0.908224 0.366894 0.487971
O O9 0.887657 0.311786 0.736585
O O10 0.990248 0.305567 0.795149
O O11 0.145540 0.500000 0.811791
O O12 0.084995 0.663476 0.814418
O O13 0.982949 0.500000 0.297118
O O14 0.000000 0.304252 0.500000
O O15 0.835368 0.500000 0.740454
#
# Coordination Sequence:
#
# PCOD9174723 Si02
#       6
#     8   8   8   8   8   8
#     4  11  22  35  50  72 104 139 171 204 244 294
#     4  10  22  34  48  70  99 137 171 205 245 296
#     4   8  13  24  47  75 100 123 155 203 255 297
#     4   9  16  28  49  75 101 129 163 204 247 294
#     4   7  11  21  41  72 100 122 152 198 251 293
#     4  10  18  32  52  75  98 125 165 211 254 295
#
# _framework density 20.323181999999999
#
# number of rings (size 3 to 8) (size 9 to 14) (size 15 to 20)
#    0.000    2.833    1.667    3.000    0.000    3.333 
#    0.000    0.000    0.000    5.500    0.000    5.833 
#    0.000    0.000    0.000    0.000    0.000    0.000 
#
# Total GULP energy -133634.012300 kJ/mol
# GULP energy per Si atom -5568.083846 kJ/mol
# Density = 2.027693 g / cm^3
# Si number density = 20.323182 Si / 1000 Ang^3
#
#
#
# Elastic Constant Matrix: (Units=GPa)
#
#
# Indices 1 2 3 4 5 6 
#
# 1 183.8178 41.0872 -6.9560 0.0000 -16.9605 0.0000
# 2 41.0872 82.1661 1.3678 0.0000 5.6733 0.0000
# 3 -6.9560 1.3678 33.3582 0.0000 -10.9712 0.0000
# 4 0.0000 0.0000 0.0000 1.4128 0.0000 5.9408
# 5 -16.9605 5.6733 -10.9712 0.0000 21.1866 0.0000
# 6 0.0000 0.0000 0.0000 5.9408 0.0000 22.1371
#
#
#
# Elastic Compliance Matrix: (Units=1/GPa)
#
#
# Indices 1 2 3 4 5 6 
#
# 1 0.007553 -0.004541 0.005002 0.000000 0.009853 0.000000
# 2 -0.004541 0.015233 -0.004952 0.000000 -0.010278 0.000000
# 3 0.005002 -0.004952 0.039746 0.000000 0.025912 0.000000
# 4 0.000000 0.000000 0.000000 -5.509811 0.000000 1.478626
# 5 0.009853 -0.010278 0.025912 0.000000 0.071257 0.000000
# 6 0.000000 0.000000 0.000000 1.478626 0.000000 -0.351635
#
#
# Mechanical properties :
#
#
# Convention : Reuss Voigt Hill
#
# Bulk Modulus (GPa) = 18.67385 41.14890 29.91138
# Shear Modulus (GPa) = -0.87707 26.53683 12.82988
#
# Velocity S-wave (km/s) = -0.65764 3.61743 2.51528
# Velocity P-wave (km/s) = 2.93798 6.14320 4.81511
#
# Compressibility (1/GPa) = 0.05355082
#
# Stress axis : x y z
#
# Youngs Moduli (GPa) = 132.38926 65.64619 25.15985
#
# Poissons Ratio (x) = 0.29808 -0.12584
# Poissons Ratio (y) = 0.60114 0.12459
# Poissons Ratio (z) = -0.66218 0.32507
#
# Static dielectric constant tensor:
#      x y z
#    x 1.821670 0.000000 0.005670 
#    y 0.000000 1.680690 0.000000 
#    z 0.005670 0.000000 1.823090 
# 
# From -- ./inp_files/109492.got.cif
#   From: 2010.05.17/outbox.cif.g08.bks.cpg/sg12_55_cif.got.tgz:109492.got - 2010.06.03 13:09:07.
