data_PCOD9174238
_publ_section_title
;
Structure prediction by ZEFSAII (Michael W. Deem and Ramdas Pophale) SiO2 
 PCOD9174238
Probable space group: C 2/M
;
_chemical_formula_sum "Si O2"
_cell_formula_units_Z 42
_cell_length_a 18.649334
_cell_length_b 9.330417
_cell_length_c 12.348066
_cell_angle_alpha 90.000000
_cell_angle_beta 122.738974
_cell_angle_gamma 90.000000
_cell_volume 1807.312328
_symmetry_space_group_name_H-M "C 2/M"
_symmetry_group_IT_number 12
_symmetry_cell_setting 'monoclinic'
loop_
_space_group_symop_operation_xyz
x,y,z
-x,y,-z
-x,-y,-z
x,-y,z
1/2+x,1/2+y,z
1/2-x,1/2+y,-z
1/2-x,1/2-y,-z
1/2+x,1/2-y,z
loop_
_atom_site_type_symbol
_atom_site_label
_atom_site_fract_x
_atom_site_fract_y
_atom_site_fract_z
Si Si1 0.632729 0.335180 0.915879
Si Si2 0.338484 0.158137 0.272281
Si Si3 0.603035 0.837036 0.101265
Si Si4 0.928991 0.158682 0.724303
Si Si5 0.800042 0.165965 0.447493
Si Si6 0.500000 0.000000 0.500000
O O1 0.661877 0.500000 0.932092
O O2 0.665960 0.233823 0.847383
O O3 0.530205 0.335841 0.813992
O O4 0.642458 0.264383 0.041854
O O5 0.298699 0.257664 0.331833
O O6 0.435788 0.121876 0.391045
O O7 0.702415 0.000000 0.763041
O O8 0.610818 0.775822 0.228345
O O9 0.632818 0.000000 0.114075
O O10 0.500000 0.837108 0.000000
O O11 0.895514 0.172946 0.575605
O O12 0.901680 0.000000 0.741098
O O13 0.750000 0.250000 0.500000
O O14 0.774728 0.000000 0.421563
#
# Coordination Sequence:
#
# PCOD9174238 Si02
#       6
#     8   8   8   8   8   2
#     4  10  18  31  53  80 111 143 175 222 280 336
#     4  10  20  34  52  79 108 142 178 227 275 329
#     4   9  17  29  47  77 108 140 176 218 274 333
#     4   9  19  33  51  75 108 143 180 224 272 328
#     4  11  23  39  56  78 107 149 195 232 272 324
#     4   8  20  32  54  80 110 144 174 226 282 326
#
# _framework density 23.238927
#
# number of rings (size 3 to 8) (size 9 to 14) (size 15 to 20)
#    0.571    1.714    0.000    3.429    0.000    4.571 
#    0.000    3.810    0.000    1.143    0.000    0.000 
#    0.000    0.000    0.000    0.000    0.000    0.000 
#
# Total GULP energy -117127.711709 kJ/mol
# GULP energy per Si atom -5577.510081 kJ/mol
# Density = 2.318603 g / cm^3
# Si number density = 23.238927 Si / 1000 Ang^3
#
#
#
# Elastic Constant Matrix: (Units=GPa)
#
#
# Indices 1 2 3 4 5 6 
#
# 1 53.1308 39.3524 24.3425 0.0000 -10.2538 0.0000
# 2 39.3524 205.0367 55.9000 0.0000 -47.9618 0.0000
# 3 24.3425 55.9000 118.1133 0.0000 -18.8689 0.0000
# 4 0.0000 0.0000 0.0000 33.9700 0.0000 -11.9687
# 5 -10.2538 -47.9618 -18.8689 0.0000 50.8323 0.0000
# 6 0.0000 0.0000 0.0000 -11.9687 0.0000 27.8014
#
#
#
# Elastic Compliance Matrix: (Units=1/GPa)
#
#
# Indices 1 2 3 4 5 6 
#
# 1 0.022844 -0.003524 -0.003014 0.000000 0.000164 0.000000
# 2 -0.003524 0.007359 -0.001872 0.000000 0.005538 0.000000
# 3 -0.003014 -0.001872 0.010199 0.000000 0.001412 0.000000
# 4 0.000000 0.000000 0.000000 0.034701 0.000000 0.014939
# 5 0.000164 0.005538 0.001412 0.000000 0.025455 0.000000
# 6 0.000000 0.000000 0.000000 0.014939 0.000000 0.042401
#
#
# Mechanical properties :
#
#
# Convention : Reuss Voigt Hill
#
# Bulk Modulus (GPa) = 42.40462 68.38563 55.39512
# Shear Modulus (GPa) = 29.82562 39.63316 34.72939
#
# Velocity S-wave (km/s) = 3.58639 4.13421 3.87000
# Velocity P-wave (km/s) = 5.95285 7.23049 6.62255
#
# Compressibility (1/GPa) = 0.02358234
#
# Stress axis : x y z
#
# Youngs Moduli (GPa) = 43.77437 135.88041 98.04828
#
# Poissons Ratio (x) = 0.47890 0.29551
# Poissons Ratio (y) = 0.15428 0.18354
# Poissons Ratio (z) = 0.13193 0.25436
#
# Static dielectric constant tensor:
#      x y z
#    x 1.895480 0.000000 0.100900 
#    y 0.000000 1.828980 0.000000 
#    z 0.100900 0.000000 1.866590 
# 
# From -- ./inp_files/163287.got.cif
#   From: 2010.05.17/outbox.cif.g08.bks.cpg/sg12_82_cif.got.tgz:163287.got - 2010.06.03 13:09:07.
