data_PCOD9174549
_publ_section_title
;
Structure prediction by ZEFSAII (Michael W. Deem and Ramdas Pophale) SiO2 
 PCOD9174549
Probable space group: C 2/M
;
_chemical_formula_sum "Si O2"
_cell_formula_units_Z 56
_cell_length_a 23.670063
_cell_length_b 18.143233
_cell_length_c 21.874508
_cell_angle_alpha 90.000000
_cell_angle_beta 22.460490
_cell_angle_gamma 90.000000
_cell_volume 3588.957620
_symmetry_space_group_name_H-M "C 2/M"
_symmetry_group_IT_number 12
_symmetry_cell_setting 'monoclinic'
loop_
_space_group_symop_operation_xyz
x,y,z
-x,y,-z
-x,-y,-z
x,-y,z
1/2+x,1/2+y,z
1/2-x,1/2+y,-z
1/2-x,1/2-y,-z
1/2+x,1/2-y,z
loop_
_atom_site_type_symbol
_atom_site_label
_atom_site_fract_x
_atom_site_fract_y
_atom_site_fract_z
Si Si1 0.075177 0.623860 0.276711
Si Si2 0.073212 0.000000 0.860307
Si Si3 0.419930 0.229363 0.257739
Si Si4 0.924823 0.876140 0.927064
Si Si5 0.074316 0.916545 0.216682
Si Si6 0.580073 0.729363 0.597595
Si Si7 0.573211 0.000000 0.493270
Si Si8 0.925683 0.583455 0.865315
O O1 0.053197 0.596049 0.228733
O O2 0.016562 0.707469 0.337649
O O3 0.984896 0.570912 0.411412
O O4 0.250000 0.619626 0.114875
O O5 0.250000 0.000000 0.687331
O O6 0.015105 0.929088 0.881204
O O7 0.000000 0.000000 0.000000
O O8 0.516563 0.292532 0.129227
O O9 0.422295 0.250000 0.327705
O O10 0.250002 0.231659 0.407295
O O11 0.487908 0.147895 0.186494
O O12 0.946804 0.903952 0.835126
O O13 0.987905 0.852106 0.337693
O O14 0.028829 0.000000 0.277267
O O15 0.249999 0.908936 0.052054
O O16 0.500000 0.000000 0.500000
O O17 0.971169 0.500000 0.834926
#
# Coordination Sequence:
#
# PCOD9174549 Si02
#       8
#     8   4   8   8   8   8   4   8
#     4  10  18  32  48  63  86 119 154 190 231 273
#     4  12  24  36  50  68  90 118 156 198 235 274
#     4   9  17  27  40  63  89 117 151 186 225 270
#     4  10  18  32  48  63  86 119 154 190 231 273
#     4   9  16  27  43  64  90 122 155 185 223 273
#     4   9  17  27  40  63  89 117 151 186 225 270
#     4  12  24  36  50  68  90 118 156 198 235 274
#     4   9  16  27  43  64  90 122 155 185 223 273
#
# _framework density 15.603417
#
# number of rings (size 3 to 8) (size 9 to 14) (size 15 to 20)
#    0.000    2.286    1.429    3.000    0.000    5.143 
#    0.000    0.000    0.000    0.000    0.000    0.000 
#    0.000    1.143    0.000    4.286    0.000    6.571 
#
# Total GULP energy -156124.637703 kJ/mol
# GULP energy per Si atom -5575.879918 kJ/mol
# Density = 1.556790 g / cm^3
# Si number density = 15.603417 Si / 1000 Ang^3
#
#
#
# Elastic Constant Matrix: (Units=GPa)
#
#
# Indices 1 2 3 4 5 6 
#
# 1 46.2335 33.9032 37.9213 -0.0007 -15.4004 0.0003
# 2 33.9032 153.1133 61.7093 -0.0013 -16.8689 0.0007
# 3 37.9213 61.7093 97.7410 -0.0029 -15.8459 0.0012
# 4 -0.0007 -0.0013 -0.0029 27.3725 0.0016 -10.9331
# 5 -15.4004 -16.8689 -15.8459 0.0016 17.1192 -0.0007
# 6 0.0003 0.0007 0.0012 -10.9331 -0.0007 9.3510
#
#
#
# Elastic Compliance Matrix: (Units=1/GPa)
#
#
# Indices 1 2 3 4 5 6 
#
# 1 0.039440 -0.001990 -0.010132 -0.000001 0.024141 0.000000
# 2 -0.001990 0.009116 -0.004491 0.000000 0.003035 0.000000
# 3 -0.010132 -0.004491 0.017416 0.000001 0.002580 0.000000
# 4 -0.000001 0.000000 0.000001 0.068542 -0.000003 0.080138
# 5 0.024141 0.003035 0.002580 -0.000003 0.085511 0.000001
# 6 0.000000 0.000000 0.000000 0.080138 0.000001 0.200636
#
#
# Mechanical properties :
#
#
# Convention : Reuss Voigt Hill
#
# Bulk Modulus (GPa) = 30.53783 62.68396 46.61090
# Shear Modulus (GPa) = 10.75724 21.67214 16.21469
#
# Velocity S-wave (km/s) = 2.62852 3.73089 3.22712
# Velocity P-wave (km/s) = 5.36898 7.66941 6.61988
#
# Compressibility (1/GPa) = 0.03274627
#
# Stress axis : x y z
#
# Youngs Moduli (GPa) = 25.35483 109.69272 57.41824
#
# Poissons Ratio (x) = 0.21829 0.58175
# Poissons Ratio (y) = 0.05046 0.25789
# Poissons Ratio (z) = 0.25689 0.49268
#
# Static dielectric constant tensor:
#      x y z
#    x 1.494520 0.000000 -0.011910 
#    y 0.000000 1.527360 0.000000 
#    z -0.011910 0.000000 1.514160 
# 
# From -- ./inp_files/291808.got.cif
#   From: 2010.05.17/outbox.cif.g08.bks.cpg/sg12_146_cif.got.tgz:291808.got - 2010.06.03 13:09:07.
