data_PCOD9174727
_publ_section_title
;
Structure prediction by ZEFSAII (Michael W. Deem and Ramdas Pophale) SiO2 
 PCOD9174727
Probable space group: C 2/M
;
_chemical_formula_sum "Si O2"
_cell_formula_units_Z 52
_cell_length_a 22.390583
_cell_length_b 13.909008
_cell_length_c 17.606379
_cell_angle_alpha 90.000000
_cell_angle_beta 28.768408
_cell_angle_gamma 90.000000
_cell_volume 2638.886880
_symmetry_space_group_name_H-M "C 2/M"
_symmetry_group_IT_number 12
_symmetry_cell_setting 'monoclinic'
loop_
_space_group_symop_operation_xyz
x,y,z
-x,y,-z
-x,-y,-z
x,-y,z
1/2+x,1/2+y,z
1/2-x,1/2+y,-z
1/2-x,1/2-y,-z
1/2+x,1/2-y,z
loop_
_atom_site_type_symbol
_atom_site_label
_atom_site_fract_x
_atom_site_fract_y
_atom_site_fract_z
Si Si1 0.733945 0.606308 0.003107
Si Si2 0.500000 0.259716 0.500000
Si Si3 0.873179 0.888876 0.517514
Si Si4 0.641826 0.227626 0.011736
Si Si5 0.142452 0.392292 0.863503
Si Si6 0.613031 0.234526 0.618786
Si Si7 0.504231 0.893113 0.368691
O O1 0.683903 0.500000 0.073018
O O2 0.752581 0.669455 0.057906
O O3 0.875813 0.598013 0.817607
O O4 0.665434 0.663580 0.012566
O O5 0.418324 0.331953 0.541453
O O6 0.454739 0.183494 0.613537
O O7 0.725072 0.882472 0.695735
O O8 0.917334 0.832158 0.394245
O O9 0.909914 0.000000 0.476357
O O10 0.498695 0.210532 0.198232
O O11 0.659518 0.190945 0.906773
O O12 0.173298 0.500000 0.861204
O O13 0.000000 0.392294 0.000000
O O14 0.750000 0.250000 0.500000
O O15 0.603641 0.153013 0.563308
O O16 0.471836 0.000000 0.433354
#
# Coordination Sequence:
#
# PCOD9174727 Si02
#       7
#     8   4   8   8   8   8   8
#     4   9  18  32  50  74 100 128 169 217 262 304
#     4  10  18  32  52  76 104 132 166 206 260 318
#     4  10  21  35  52  77 108 138 168 210 264 316
#     4  10  19  33  54  77 102 136 173 217 262 304
#     4  10  20  34  54  78 103 135 174 214 256 304
#     4  10  21  35  51  74 106 142 178 214 256 311
#     4   9  18  32  51  73  98 132 173 216 258 304
#
# _framework density 19.705278
#
# number of rings (size 3 to 8) (size 9 to 14) (size 15 to 20)
#    0.000    2.308    0.000    2.769    0.000    3.077 
#    0.000    0.000    0.000    0.462    0.000    0.000 
#    0.000    0.000    0.000    0.000    0.000    0.000 
#
# Total GULP energy -144736.173080 kJ/mol
# GULP energy per Si atom -5566.775888 kJ/mol
# Density = 1.966043 g / cm^3
# Si number density = 19.705278 Si / 1000 Ang^3
#
#
#
# Elastic Constant Matrix: (Units=GPa)
#
#
# Indices 1 2 3 4 5 6 
#
# 1 53.3681 22.7327 2.1434 0.0000 -2.1549 0.0000
# 2 22.7327 123.4476 5.7465 0.0000 1.5915 0.0000
# 3 2.1434 5.7465 40.3790 0.0000 7.5194 0.0000
# 4 0.0000 0.0000 0.0000 20.2819 0.0000 3.0594
# 5 -2.1549 1.5915 7.5194 0.0000 25.8375 0.0000
# 6 0.0000 0.0000 0.0000 3.0594 0.0000 15.7264
#
#
#
# Elastic Compliance Matrix: (Units=1/GPa)
#
#
# Indices 1 2 3 4 5 6 
#
# 1 0.020464 -0.003752 -0.000966 0.000000 0.002219 0.000000
# 2 -0.003752 0.008843 -0.000951 0.000000 -0.000581 0.000000
# 3 -0.000966 -0.000951 0.026386 0.000000 -0.007701 0.000000
# 4 0.000000 0.000000 0.000000 0.050796 0.000000 -0.009882
# 5 0.002219 -0.000581 -0.007701 0.000000 0.041166 0.000000
# 6 0.000000 0.000000 0.000000 -0.009882 0.000000 0.065510
#
#
# Mechanical properties :
#
#
# Convention : Reuss Voigt Hill
#
# Bulk Modulus (GPa) = 22.54482 30.93776 26.74129
# Shear Modulus (GPa) = 20.89534 24.80730 22.85132
#
# Velocity S-wave (km/s) = 3.25990 3.55197 3.40906
# Velocity P-wave (km/s) = 5.06311 5.70581 5.39404
#
# Compressibility (1/GPa) = 0.04435609
#
# Stress axis : x y z
#
# Youngs Moduli (GPa) = 48.86530 113.07964 37.89879
#
# Poissons Ratio (x) = 0.42429 0.03659
# Poissons Ratio (y) = 0.18335 0.03605
# Poissons Ratio (z) = 0.04718 0.10756
#
# Static dielectric constant tensor:
#      x y z
#    x 1.690370 0.000000 0.000530 
#    y 0.000000 1.745430 0.000000 
#    z 0.000530 0.000000 1.749370 
# 
# From -- ./inp_files/284246.got.cif
#   From: 2010.05.17/outbox.cif.g08.bks.cpg/sg12_143_cif.got.tgz:284246.got - 2010.06.03 13:09:07.
