data_PCOD9174659
_publ_section_title
;
Structure prediction by ZEFSAII (Michael W. Deem and Ramdas Pophale) SiO2 
 PCOD9174659
Probable space group: C 2/M
;
_chemical_formula_sum "Si O2"
_cell_formula_units_Z 64
_cell_length_a 19.270797
_cell_length_b 21.773293
_cell_length_c 8.483400
_cell_angle_alpha 90.000000
_cell_angle_beta 86.526911
_cell_angle_gamma 90.000000
_cell_volume 3553.001273
_symmetry_space_group_name_H-M "C 2/M"
_symmetry_group_IT_number 12
_symmetry_cell_setting 'monoclinic'
loop_
_space_group_symop_operation_xyz
x,y,z
-x,y,-z
-x,-y,-z
x,-y,z
1/2+x,1/2+y,z
1/2-x,1/2+y,-z
1/2-x,1/2-y,-z
1/2+x,1/2-y,z
loop_
_atom_site_type_symbol
_atom_site_label
_atom_site_fract_x
_atom_site_fract_y
_atom_site_fract_z
Si Si1 0.968567 0.762760 0.331304
Si Si2 0.891227 0.641261 0.749738
Si Si3 0.272146 0.180344 0.558905
Si Si4 0.965294 0.368457 0.178253
Si Si5 0.163707 0.214199 0.790178
Si Si6 0.256367 0.663680 0.768257
Si Si7 0.832127 0.427653 0.049058
Si Si8 0.397129 0.280382 0.863735
O O1 0.950121 0.699395 0.244040
O O2 0.892895 0.792631 0.341263
O O3 0.000000 0.752990 0.500000
O O4 0.027866 0.796281 0.219220
O O5 0.850128 0.663007 0.599751
O O6 0.895735 0.706411 0.843188
O O7 0.969030 0.614187 0.719476
O O8 0.852582 0.594688 0.871105
O O9 0.250000 0.250000 0.500000
O O10 0.227357 0.172325 0.723555
O O11 0.253630 0.141689 0.408891
O O12 0.895554 0.406918 0.158500
O O13 0.000000 0.366666 0.000000
O O14 0.201751 0.280320 0.807802
O O15 0.121308 0.202121 0.955133
O O16 0.235366 0.609913 0.888004
O O17 0.332852 0.691141 0.777734
O O18 0.823937 0.500000 0.056805
#
# Coordination Sequence:
#
# PCOD9174659 Si02
#       8
#     8   8   8   8   8   8   8   8
#     4  11  21  29  47  76 110 141 171 212 272 342
#     4  10  18  32  51  75 103 134 183 231 276 324
#     4  10  20  30  51  79 104 133 170 221 292 345
#     4   9  19  32  48  67  97 142 184 231 260 299
#     4  11  18  31  49  74 105 138 166 213 271 337
#     4  11  20  33  51  76 104 138 174 230 274 330
#     4  11  22  36  53  73 102 153 203 233 260 303
#     4  11  19  32  52  75 105 137 174 219 286 332
#
# _framework density 18.01294
#
# number of rings (size 3 to 8) (size 9 to 14) (size 15 to 20)
#    0.000    1.500    5.000    3.750    5.250    2.250 
#    0.000    0.625    0.000    2.625    0.000    0.000 
#    0.000   12.500    0.000    0.000    0.000    0.125 
#
# Total GULP energy -178137.021376 kJ/mol
# GULP energy per Si atom -5566.781918 kJ/mol
# Density = 1.797194 g / cm^3
# Si number density = 18.012940 Si / 1000 Ang^3
#
#
#
# Elastic Constant Matrix: (Units=GPa)
#
#
# Indices 1 2 3 4 5 6 
#
# 1 92.9103 21.5290 7.3531 0.0000 11.8289 0.0000
# 2 21.5290 32.6870 0.5250 0.0000 -0.6265 0.0000
# 3 7.3531 0.5250 45.7866 0.0000 5.4369 0.0000
# 4 0.0000 0.0000 0.0000 7.8915 0.0000 2.3223
# 5 11.8289 -0.6265 5.4369 0.0000 35.6490 0.0000
# 6 0.0000 0.0000 0.0000 2.3223 0.0000 10.2490
#
#
#
# Elastic Compliance Matrix: (Units=1/GPa)
#
#
# Indices 1 2 3 4 5 6 
#
# 1 0.013525 -0.008968 -0.001546 0.000000 -0.004410 0.000000
# 2 -0.008968 0.036558 0.000602 0.000000 0.003526 0.000000
# 3 -0.001546 0.000602 0.022426 0.000000 -0.002897 0.000000
# 4 0.000000 0.000000 0.000000 0.135771 0.000000 -0.030765
# 5 -0.004410 0.003526 -0.002897 0.000000 0.030018 0.000000
# 6 0.000000 0.000000 0.000000 -0.030765 0.000000 0.104542
#
#
# Mechanical properties :
#
#
# Convention : Reuss Voigt Hill
#
# Bulk Modulus (GPa) = 18.98030 25.57756 22.27893
# Shear Modulus (GPa) = 13.15017 20.22304 16.68660
#
# Velocity S-wave (km/s) = 2.70486 3.35430 3.04693
# Velocity P-wave (km/s) = 4.50721 5.40667 4.97730
#
# Compressibility (1/GPa) = 0.05268621
#
# Stress axis : x y z
#
# Youngs Moduli (GPa) = 73.93845 27.35410 44.59160
#
# Poissons Ratio (x) = 0.24530 0.06892
# Poissons Ratio (y) = 0.66305 -0.02686
# Poissons Ratio (z) = 0.11428 -0.01648
#
# Static dielectric constant tensor:
#      x y z
#    x 1.732460 0.000000 0.022440 
#    y 0.000000 1.598130 0.000000 
#    z 0.022440 0.000000 1.727160 
# 
# From -- ./inp_files/78793.got.cif
#   From: 2010.05.17/outbox.cif.g08.bks.cpg/sg12_40_cif.got.tgz:78793.got - 2010.06.03 13:09:07.
