data_PCOD9174118
_publ_section_title
;
Structure prediction by ZEFSAII (Michael W. Deem and Ramdas Pophale) SiO2 
 PCOD9174118
Probable space group: C 2/M
;
_chemical_formula_sum "Si O2"
_cell_formula_units_Z 40
_cell_length_a 15.331243
_cell_length_b 11.529552
_cell_length_c 16.219229
_cell_angle_alpha 90.000000
_cell_angle_beta 33.519833
_cell_angle_gamma 90.000000
_cell_volume 1583.202778
_symmetry_space_group_name_H-M "C 2/M"
_symmetry_group_IT_number 12
_symmetry_cell_setting 'monoclinic'
loop_
_space_group_symop_operation_xyz
x,y,z
-x,y,-z
-x,-y,-z
x,-y,z
1/2+x,1/2+y,z
1/2-x,1/2+y,-z
1/2-x,1/2-y,-z
1/2+x,1/2-y,z
loop_
_atom_site_type_symbol
_atom_site_label
_atom_site_fract_x
_atom_site_fract_y
_atom_site_fract_z
Si Si1 0.531164 0.740880 0.646979
Si Si2 0.678241 0.749160 0.964463
Si Si3 0.684722 0.500000 0.963970
Si Si4 0.335764 0.000000 0.678007
Si Si5 0.699227 0.629567 0.650734
Si Si6 0.320752 0.000000 0.043488
Si Si7 0.498197 0.500000 0.403317
O O1 0.344955 0.752735 0.783667
O O2 0.581260 0.721838 0.703186
O O3 0.636257 0.840726 0.524995
O O4 0.579520 0.620268 0.564832
O O5 0.598353 0.623038 0.017881
O O6 0.597930 0.873762 0.011076
O O7 0.750000 0.750000 0.000000
O O8 0.820928 0.500000 0.787091
O O9 0.753039 0.500000 0.002695
O O10 0.500000 0.000000 0.500000
O O11 0.245757 0.888356 0.708910
O O12 0.640479 0.500000 0.674301
O O13 0.170950 0.000000 0.223331
O O14 0.500000 0.500000 0.500000
#
# Coordination Sequence:
#
# PCOD9174118 Si02
#       7
#     8   8   4   4   8   4   4
#     4  10  18  34  52  72 112 143 177 216 271 337
#     4   9  18  31  53  76 101 139 179 224 266 316
#     4  10  18  31  52  80 108 140 177 228 282 314
#     4  10  19  31  50  82 114 133 183 239 274 319
#     4   9  20  33  50  74 109 146 172 218 274 327
#     4   8  18  33  46  72 110 142 173 217 272 333
#     4  10  19  31  52  78 104 139 172 224 273 316
#
# _framework density 25.265242000000001
#
# number of rings (size 3 to 8) (size 9 to 14) (size 15 to 20)
#    0.600    2.000    1.000    1.200    1.400    4.000 
#    0.000    0.000    0.000   21.600    0.000    0.000 
#    0.000   37.600    0.000    0.000    0.000    0.000 
#
# Total GULP energy -111467.601504 kJ/mol
# GULP energy per Si atom -5573.380075 kJ/mol
# Density = 2.520774 g / cm^3
# Si number density = 25.265242 Si / 1000 Ang^3
#
#
#
# Elastic Constant Matrix: (Units=GPa)
#
#
# Indices 1 2 3 4 5 6 
#
# 1 76.6458 13.3357 43.1689 0.0000 23.1790 0.0000
# 2 13.3357 201.5157 8.6996 -0.0001 -4.2084 0.0000
# 3 43.1689 8.6996 100.1416 -0.0002 15.7830 0.0001
# 4 0.0000 -0.0001 -0.0002 33.8597 0.0000 4.3473
# 5 23.1790 -4.2084 15.7830 0.0000 42.8911 0.0000
# 6 0.0000 0.0000 0.0001 4.3473 0.0000 26.5831
#
#
#
# Elastic Compliance Matrix: (Units=1/GPa)
#
#
# Indices 1 2 3 4 5 6 
#
# 1 0.019725 -0.001168 -0.007116 0.000000 -0.008156 0.000000
# 2 -0.001168 0.005069 -0.000122 0.000000 0.001174 0.000000
# 3 -0.007116 -0.000122 0.013227 0.000000 -0.001034 0.000000
# 4 0.000000 0.000000 0.000000 0.030167 0.000000 -0.004933
# 5 -0.008156 0.001174 -0.001034 0.000000 0.028218 0.000000
# 6 0.000000 0.000000 0.000000 -0.004933 0.000000 0.038425
#
#
# Mechanical properties :
#
#
# Convention : Reuss Voigt Hill
#
# Bulk Modulus (GPa) = 47.15028 56.52350 51.83689
# Shear Modulus (GPa) = 31.50354 41.54002 36.52178
#
# Velocity S-wave (km/s) = 3.53500 4.05922 3.80614
# Velocity P-wave (km/s) = 5.94678 6.66260 6.31484
#
# Compressibility (1/GPa) = 0.02120878
#
# Stress axis : x y z
#
# Youngs Moduli (GPa) = 50.69805 197.25890 75.60358
#
# Poissons Ratio (x) = 0.23048 0.53799
# Poissons Ratio (y) = 0.05924 0.00920
# Poissons Ratio (z) = 0.36077 0.02400
#
# Static dielectric constant tensor:
#      x y z
#    x 1.989950 0.000000 0.020500 
#    y 0.000000 2.076890 0.000000 
#    z 0.020500 0.000000 2.078820 
# 
# From -- ./inp_files/276286.got.cif
#   From: 2010.05.17/outbox.cif.g08.bks.cpg/sg12_139_cif.got.tgz:276286.got - 2010.06.03 13:09:07.
