data_PCOD9174277
_publ_section_title
;
Structure prediction by ZEFSAII (Michael W. Deem and Ramdas Pophale) SiO2 
 PCOD9174277
Probable space group: C 2/M
;
_chemical_formula_sum "Si O2"
_cell_formula_units_Z 56
_cell_length_a 10.961266
_cell_length_b 25.202930
_cell_length_c 11.384377
_cell_angle_alpha 90.000000
_cell_angle_beta 109.439048
_cell_angle_gamma 90.000000
_cell_volume 2965.725151
_symmetry_space_group_name_H-M "C 2/M"
_symmetry_group_IT_number 12
_symmetry_cell_setting 'monoclinic'
loop_
_space_group_symop_operation_xyz
x,y,z
-x,y,-z
-x,-y,-z
x,-y,z
1/2+x,1/2+y,z
1/2-x,1/2+y,-z
1/2-x,1/2-y,-z
1/2+x,1/2-y,z
loop_
_atom_site_type_symbol
_atom_site_label
_atom_site_fract_x
_atom_site_fract_y
_atom_site_fract_z
Si Si1 0.653732 0.442356 0.551210
Si Si2 0.146150 0.373888 0.279684
Si Si3 0.642738 0.203842 0.483000
Si Si4 0.906258 0.560479 0.222415
Si Si5 0.484220 0.438905 0.134626
Si Si6 0.710110 0.608759 0.334745
Si Si7 0.677707 0.939604 0.073825
O O1 0.500000 0.439583 0.500000
O O2 0.690481 0.500000 0.611195
O O3 0.711718 0.394350 0.642832
O O4 0.707776 0.434188 0.438310
O O5 0.119949 0.320564 0.344018
O O6 0.136067 0.389125 0.139276
O O7 0.043628 0.415374 0.300269
O O8 0.500000 0.214167 0.500000
O O9 0.750000 0.250000 0.500000
O O10 0.722583 0.160137 0.585441
O O11 0.897595 0.500000 0.255210
O O12 0.797637 0.592694 0.254249
O O13 0.879689 0.563855 0.074893
O O14 0.530635 0.500000 0.174120
O O15 0.565035 0.396050 0.235373
O O16 0.332750 0.437967 0.114030
O O17 0.500000 0.430410 0.000000
O O18 0.643159 0.000000 0.107276
#
# Coordination Sequence:
#
# PCOD9174277 Si02
#       7
#     8   8   8   8   8   8   8
#     4  10  20  32  49  78 119 160 199 244 290 354
#     4  11  22  37  58  86 119 156 203 245 305 366
#     4  11  26  48  69  88 111 151 209 280 335 375
#     4  11  20  33  58  93 135 168 193 228 285 364
#     4  10  18  31  53  86 130 172 202 230 273 348
#     4  11  21  36  59  87 118 153 203 246 304 360
#     4  10  20  33  55  92 135 175 203 226 275 365
#
# _framework density 18.882397999999998
#
# number of rings (size 3 to 8) (size 9 to 14) (size 15 to 20)
#    0.000    1.429    2.857    3.857    0.000    6.857 
#    0.000    2.143    0.000    2.571    0.000    0.000 
#    0.000    0.000    0.000    0.000    0.000    0.000 
#
# Total GULP energy -155937.801366 kJ/mol
# GULP energy per Si atom -5569.207192 kJ/mol
# Density = 1.883942 g / cm^3
# Si number density = 18.882398 Si / 1000 Ang^3
#
#
#
# Elastic Constant Matrix: (Units=GPa)
#
#
# Indices 1 2 3 4 5 6 
#
# 1 102.5000 42.0815 23.3128 0.0000 5.9597 0.0000
# 2 42.0815 77.8619 31.5582 0.0000 -4.2067 0.0000
# 3 23.3128 31.5582 72.4167 0.0000 -5.9738 0.0000
# 4 0.0000 0.0000 0.0000 23.2242 0.0000 0.0859
# 5 5.9597 -4.2067 -5.9738 0.0000 34.3200 0.0000
# 6 0.0000 0.0000 0.0000 0.0859 0.0000 13.4861
#
#
#
# Elastic Compliance Matrix: (Units=1/GPa)
#
#
# Indices 1 2 3 4 5 6 
#
# 1 0.013009 -0.006561 -0.001604 0.000000 -0.003343 0.000000
# 2 -0.006561 0.018926 -0.005935 0.000000 0.002426 0.000000
# 3 -0.001604 -0.005935 0.017121 0.000000 0.002531 0.000000
# 4 0.000000 0.000000 0.000000 0.043060 0.000000 -0.000274
# 5 -0.003343 0.002426 0.002531 0.000000 0.030456 0.000000
# 6 0.000000 0.000000 0.000000 -0.000274 0.000000 0.074152
#
#
# Mechanical properties :
#
#
# Convention : Reuss Voigt Hill
#
# Bulk Modulus (GPa) = 47.95248 49.63153 48.79201
# Shear Modulus (GPa) = 21.56317 24.59446 23.07882
#
# Velocity S-wave (km/s) = 3.38297 3.61294 3.49985
# Velocity P-wave (km/s) = 6.38042 6.61408 6.49830
#
# Compressibility (1/GPa) = 0.02085398
#
# Stress axis : x y z
#
# Youngs Moduli (GPa) = 76.86938 52.83707 58.40844
#
# Poissons Ratio (x) = 0.34668 0.09371
# Poissons Ratio (y) = 0.50436 0.34668
# Poissons Ratio (z) = 0.12333 0.31361
#
# Static dielectric constant tensor:
#      x y z
#    x 1.571080 0.000000 0.028490 
#    y 0.000000 1.633180 0.000000 
#    z 0.028490 0.000000 1.712660 
# 
# From -- ./inp_files/133973.got.cif
#   From: 2010.05.17/outbox.cif.g08.bks.cpg/sg12_67_cif.got.tgz:133973.got - 2010.06.03 13:09:07.
