data_PCOD9174350
_publ_section_title
;
Structure prediction by ZEFSAII (Michael W. Deem and Ramdas Pophale) SiO2 
 PCOD9174350
Probable space group: C 2/M
;
_chemical_formula_sum "Si O2"
_cell_formula_units_Z 56
_cell_length_a 16.492768
_cell_length_b 18.600978
_cell_length_c 27.148614
_cell_angle_alpha 90.000000
_cell_angle_beta 23.891211
_cell_angle_gamma 90.000000
_cell_volume 3373.132880
_symmetry_space_group_name_H-M "C 2/M"
_symmetry_group_IT_number 12
_symmetry_cell_setting 'monoclinic'
loop_
_space_group_symop_operation_xyz
x,y,z
-x,y,-z
-x,-y,-z
x,-y,z
1/2+x,1/2+y,z
1/2-x,1/2+y,-z
1/2-x,1/2-y,-z
1/2+x,1/2-y,z
loop_
_atom_site_type_symbol
_atom_site_label
_atom_site_fract_x
_atom_site_fract_y
_atom_site_fract_z
Si Si1 0.014270 0.416270 0.113037
Si Si2 0.605438 0.585832 0.514591
Si Si3 0.085439 0.082768 0.167414
Si Si4 0.730505 0.181558 0.376964
Si Si5 0.215687 0.349334 0.676260
Si Si6 0.696087 0.840167 0.862641
Si Si7 0.385958 0.310756 0.400196
O O1 0.960188 0.500000 0.150563
O O2 0.969418 0.371493 0.187020
O O3 0.887641 0.384918 0.137262
O O4 0.243714 0.412071 0.968809
O O5 0.600535 0.500000 0.518207
O O6 0.775671 0.614717 0.382495
O O7 0.403158 0.617386 0.602339
O O8 0.620126 0.621192 0.559968
O O9 0.193785 0.110461 0.157463
O O10 0.894357 0.130889 0.260685
O O11 0.028401 0.000000 0.205830
O O12 0.500000 0.160891 0.500000
O O13 0.756912 0.264159 0.345076
O O14 0.787855 0.175645 0.402210
O O15 0.879303 0.791885 0.740245
O O16 0.500000 0.808725 0.000000
O O17 0.250000 0.250000 0.500000
#
# Coordination Sequence:
#
# PCOD9174350 Si02
#       7
#     8   8   8   8   8   8   8
#     4  10  18  31  54  83 112 140 175 231 289 331
#     4  11  21  34  56  85 110 141 184 228 277 332
#     4   9  20  35  52  77 108 146 192 231 268 324
#     4  11  22  37  54  76 113 154 187 225 273 322
#     4  11  19  33  53  83 117 142 171 223 285 340
#     4   9  18  31  52  80 109 137 177 226 281 330
#     4  11  20  35  55  77 114 149 180 222 273 331
#
# _framework density 16.601776999999998
#
# number of rings (size 3 to 8) (size 9 to 14) (size 15 to 20)
#    0.000    1.714    4.286    2.143    0.000    4.857 
#    0.000    0.000    0.000    0.000    0.000    0.000 
#    0.000    4.000    0.000    0.000    0.000    0.000 
#
# Total GULP energy -156029.116092 kJ/mol
# GULP energy per Si atom -5572.468432 kJ/mol
# Density = 1.656399 g / cm^3
# Si number density = 16.601777 Si / 1000 Ang^3
#
#
#
# Elastic Constant Matrix: (Units=GPa)
#
#
# Indices 1 2 3 4 5 6 
#
# 1 45.3228 14.7709 38.9815 0.0030 2.2694 0.0023
# 2 14.7709 85.1043 57.6299 0.0001 -4.5363 0.0020
# 3 38.9815 57.6299 124.9100 0.0325 1.3313 0.0029
# 4 0.0030 0.0001 0.0325 24.4962 -0.0112 -1.2039
# 5 2.2694 -4.5363 1.3313 -0.0112 29.2986 0.0021
# 6 0.0023 0.0020 0.0029 -1.2039 0.0021 16.0057
#
#
#
# Elastic Compliance Matrix: (Units=1/GPa)
#
#
# Indices 1 2 3 4 5 6 
#
# 1 0.030399 0.001524 -0.010172 0.000009 -0.001656 -0.000002
# 2 0.001524 0.017435 -0.008551 0.000012 0.002970 0.000000
# 3 -0.010172 -0.008551 0.015139 -0.000019 -0.001224 -0.000002
# 4 0.000009 0.000012 -0.000019 0.040974 0.000017 0.003082
# 5 -0.001656 0.002970 -0.001224 0.000017 0.034775 -0.000003
# 6 -0.000002 0.000000 -0.000002 0.003082 -0.000003 0.062710
#
#
# Mechanical properties :
#
#
# Convention : Reuss Voigt Hill
#
# Bulk Modulus (GPa) = 34.99745 53.12242 44.05993
# Shear Modulus (GPa) = 20.37865 23.55710 21.96787
#
# Velocity S-wave (km/s) = 3.50737 3.77098 3.64156
# Velocity P-wave (km/s) = 6.12605 7.14338 6.65419
#
# Compressibility (1/GPa) = 0.02857351
#
# Stress axis : x y z
#
# Youngs Moduli (GPa) = 32.89549 57.35716 66.05639
#
# Poissons Ratio (x) = -0.08741 0.67195
# Poissons Ratio (y) = -0.05013 0.56485
# Poissons Ratio (z) = 0.33462 0.49047
#
# Static dielectric constant tensor:
#      x y z
#    x 1.586080 -0.000010 0.041100 
#    y -0.000010 1.551620 0.000010 
#    z 0.041100 0.000010 1.635470 
# 
# From -- ./inp_files/379644.got.cif
#   From: 2010.05.17/outbox.cif.g08.bks.cpg/sg12_190_cif.got.tgz:379644.got - 2010.06.03 13:09:07.
