data_PCOD9174883
_publ_section_title
;
Structure prediction by ZEFSAII (Michael W. Deem and Ramdas Pophale) SiO2 
 PCOD9174883
Probable space group: C 2/M
;
_chemical_formula_sum "Si O2"
_cell_formula_units_Z 48
_cell_length_a 27.533298
_cell_length_b 8.164027
_cell_length_c 12.464374
_cell_angle_alpha 90.000000
_cell_angle_beta 73.548658
_cell_angle_gamma 90.000000
_cell_volume 2687.071256
_symmetry_space_group_name_H-M "C 2/M"
_symmetry_group_IT_number 12
_symmetry_cell_setting 'monoclinic'
loop_
_space_group_symop_operation_xyz
x,y,z
-x,y,-z
-x,-y,-z
x,-y,z
1/2+x,1/2+y,z
1/2-x,1/2+y,-z
1/2-x,1/2-y,-z
1/2+x,1/2-y,z
loop_
_atom_site_type_symbol
_atom_site_label
_atom_site_fract_x
_atom_site_fract_y
_atom_site_fract_z
Si Si1 0.612975 0.304442 0.916910
Si Si2 0.470911 0.309010 0.871292
Si Si3 0.891234 0.305448 0.750226
Si Si4 0.807717 0.196615 0.954558
Si Si5 0.423355 0.189934 0.276421
Si Si6 0.556658 0.199464 0.499173
O O1 0.611999 0.500000 0.927789
O O2 0.612891 0.262674 0.792134
O O3 0.560481 0.247535 0.005936
O O4 0.659119 0.245655 0.962830
O O5 0.485133 0.500000 0.877271
O O6 0.430325 0.291736 0.801065
O O7 0.520099 0.211700 0.805517
O O8 0.901182 0.500000 0.756389
O O9 0.836168 0.266240 0.831919
O O10 0.904080 0.261392 0.620000
O O11 0.810288 0.000000 0.948782
O O12 0.750000 0.250000 0.000000
O O13 0.426264 0.261650 0.394804
O O14 0.410595 0.000000 0.293601
O O15 0.500000 0.254156 0.500000
O O16 0.553691 0.000000 0.508773
#
# Coordination Sequence:
#
# PCOD9174883 Si02
#       6
#     8   8   8   8   8   8
#     4   9  20  35  48  69 103 134 161 207 263 306
#     4  10  19  31  46  68 103 140 172 210 256 301
#     4  10  18  32  54  76 103 137 174 213 255 301
#     4  10  21  38  59  81 104 128 163 212 266 312
#     4  11  20  30  48  72 100 139 179 210 244 300
#     4   9  17  31  48  71 106 142 175 212 250 291
#
# _framework density 17.863316000000001
#
# number of rings (size 3 to 8) (size 9 to 14) (size 15 to 20)
#    0.000    2.167    1.667    3.500    0.000    6.000 
#    0.000    4.167    0.000    1.000    0.000    0.000 
#    0.000    0.000    0.000    0.000    0.000    0.000 
#
# Total GULP energy -133845.067914 kJ/mol
# GULP energy per Si atom -5576.877830 kJ/mol
# Density = 1.782266 g / cm^3
# Si number density = 17.863316 Si / 1000 Ang^3
#
#
#
# Elastic Constant Matrix: (Units=GPa)
#
#
# Indices 1 2 3 4 5 6 
#
# 1 79.6681 1.1081 62.8807 0.0000 -6.6724 0.0000
# 2 1.1081 19.5235 10.9102 0.0000 -0.1969 0.0000
# 3 62.8807 10.9102 166.8152 0.0000 14.9748 0.0000
# 4 0.0000 0.0000 0.0000 120.0757 0.0000 -123.0423
# 5 -6.6724 -0.1969 14.9748 0.0000 20.5306 0.0000
# 6 0.0000 0.0000 0.0000 -123.0423 0.0000 180.5491
#
#
#
# Elastic Compliance Matrix: (Units=1/GPa)
#
#
# Indices 1 2 3 4 5 6 
#
# 1 0.021140 0.004242 -0.009488 0.000000 0.013831 0.000000
# 2 0.004242 0.054219 -0.005688 0.000000 0.006047 0.000000
# 3 -0.009488 -0.005688 0.010941 0.000000 -0.011118 0.000000
# 4 0.000000 0.000000 0.000000 0.027606 0.000000 0.018813
# 5 0.013831 0.006047 -0.011118 0.000000 0.061370 0.000000
# 6 0.000000 0.000000 0.000000 0.018813 0.000000 0.018360
#
#
# Mechanical properties :
#
#
# Convention : Reuss Voigt Hill
#
# Bulk Modulus (GPa) = 15.52016 46.20053 30.86034
# Shear Modulus (GPa) = 21.09866 76.97160 49.03513
#
# Velocity S-wave (km/s) = 3.44047 6.57136 5.24498
# Velocity P-wave (km/s) = 4.94869 9.13764 7.34799
#
# Compressibility (1/GPa) = 0.06443233
#
# Stress axis : x y z
#
# Youngs Moduli (GPa) = 47.30373 18.44372 91.39834
#
# Poissons Ratio (x) = -0.07823 0.86716
# Poissons Ratio (y) = -0.20065 0.51986
# Poissons Ratio (z) = 0.44880 0.10490
#
# Static dielectric constant tensor:
#      x y z
#    x 1.598590 0.000000 0.025150 
#    y 0.000000 1.624790 0.000000 
#    z 0.025150 0.000000 1.648350 
# 
# From -- ./inp_files/172148.got.cif
#   From: 2010.05.17/outbox.cif.g08.bks.cpg/sg12_87_cif.got.tgz:172148.got - 2010.06.03 13:09:07.
