data_PCOD9174200
_publ_section_title
;
Structure prediction by ZEFSAII (Michael W. Deem and Ramdas Pophale) SiO2 
 PCOD9174200
Probable space group: C 2/M
;
_chemical_formula_sum "Si O2"
_cell_formula_units_Z 64
_cell_length_a 31.039801
_cell_length_b 7.754693
_cell_length_c 15.454312
_cell_angle_alpha 90.000000
_cell_angle_beta 138.501427
_cell_angle_gamma 90.000000
_cell_volume 2464.821984
_symmetry_space_group_name_H-M "C 2/M"
_symmetry_group_IT_number 12
_symmetry_cell_setting 'monoclinic'
loop_
_space_group_symop_operation_xyz
x,y,z
-x,y,-z
-x,-y,-z
x,-y,z
1/2+x,1/2+y,z
1/2-x,1/2+y,-z
1/2-x,1/2-y,-z
1/2+x,1/2-y,z
loop_
_atom_site_type_symbol
_atom_site_label
_atom_site_fract_x
_atom_site_fract_y
_atom_site_fract_z
Si Si1 0.494907 0.788624 0.344381
Si Si2 0.689354 0.300491 0.080993
Si Si3 0.621322 0.201282 0.614554
Si Si4 0.073765 0.204285 0.024659
Si Si5 0.720081 0.303070 0.630346
Si Si6 0.330647 0.200677 0.678867
Si Si7 0.154281 0.707495 0.844903
Si Si8 0.555523 0.793974 0.256295
O O1 0.548967 0.728545 0.494338
O O2 0.421002 0.741701 0.250350
O O3 0.523523 0.726727 0.295885
O O4 0.495501 0.000000 0.344821
O O5 0.704101 0.500000 0.122998
O O6 0.732388 0.197826 0.213982
O O7 0.615256 0.262733 0.999281
O O8 0.694938 0.277018 0.986923
O O9 0.657532 0.213396 0.577145
O O10 0.662132 0.269496 0.757633
O O11 0.613722 0.000000 0.623296
O O12 0.000245 0.261203 0.899147
O O13 0.074460 0.000000 0.042543
O O14 0.116630 0.290280 0.163742
O O15 0.704560 0.500000 0.587170
O O16 0.763860 0.224353 0.618537
O O17 0.373772 0.276314 0.665701
O O18 0.317378 0.000000 0.642067
O O19 0.161344 0.500000 0.860884
O O20 0.563044 0.000000 0.275442
#
# Coordination Sequence:
#
# PCOD9174200 Si02
#       8
#     8   8   8   8   8   8   8   8
#     4   9  18  34  57  82 108 138 174 218 265 315
#     4  10  20  34  54  81 112 142 173 216 267 318
#     4  10  21  37  57  80 105 138 181 225 265 310
#     4  10  19  30  47  76 112 142 168 208 264 319
#     4  10  21  38  56  75 106 145 184 220 260 312
#     4   9  19  33  51  75 103 139 180 217 253 306
#     4  10  19  34  58  84 108 136 174 218 267 321
#     4  10  18  31  53  78 104 137 177 215 256 311
#
# _framework density 25.965364999999998
#
# number of rings (size 3 to 8) (size 9 to 14) (size 15 to 20)
#    0.000    2.250    1.250    1.875    0.000    6.000 
#    0.000    1.875    0.000    1.500    0.000    0.000 
#    0.000    0.000    0.000    0.000    0.000    0.000 
#
# Total GULP energy -178896.447901 kJ/mol
# GULP energy per Si atom -5590.513997 kJ/mol
# Density = 2.590627 g / cm^3
# Si number density = 25.965365 Si / 1000 Ang^3
#
#
#
# Elastic Constant Matrix: (Units=GPa)
#
#
# Indices 1 2 3 4 5 6 
#
# 1 131.9498 8.3230 18.9425 0.0000 -7.9853 0.0000
# 2 8.3230 47.9222 10.0808 0.0000 -4.7460 0.0000
# 3 18.9425 10.0808 98.8631 0.0000 0.4074 0.0000
# 4 0.0000 0.0000 0.0000 18.1268 0.0000 -1.3319
# 5 -7.9853 -4.7460 0.4074 0.0000 48.5655 0.0000
# 6 0.0000 0.0000 0.0000 -1.3319 0.0000 17.8163
#
#
#
# Elastic Compliance Matrix: (Units=1/GPa)
#
#
# Indices 1 2 3 4 5 6 
#
# 1 0.007917 -0.000954 -0.001425 0.000000 0.001220 0.000000
# 2 -0.000954 0.021656 -0.002034 0.000000 0.001976 0.000000
# 3 -0.001425 -0.002034 0.010597 0.000000 -0.000522 0.000000
# 4 0.000000 0.000000 0.000000 0.055472 0.000000 0.004147
# 5 0.001220 0.001976 -0.000522 0.000000 0.020989 0.000000
# 6 0.000000 0.000000 0.000000 0.004147 0.000000 0.056439
#
#
# Mechanical properties :
#
#
# Convention : Reuss Voigt Hill
#
# Bulk Modulus (GPa) = 31.90220 39.26976 35.58598
# Shear Modulus (GPa) = 25.99507 32.99429 29.49468
#
# Velocity S-wave (km/s) = 3.16752 3.56856 3.37400
# Velocity P-wave (km/s) = 5.06860 5.66888 5.37712
#
# Compressibility (1/GPa) = 0.03134580
#
# Stress axis : x y z
#
# Youngs Moduli (GPa) = 126.30687 46.17561 94.36210
#
# Poissons Ratio (x) = 0.04407 0.13443
# Poissons Ratio (y) = 0.12056 0.19189
# Poissons Ratio (z) = 0.17995 0.09390
#
# Static dielectric constant tensor:
#      x y z
#    x 2.107190 0.000000 -0.019910 
#    y 0.000000 1.935740 0.000000 
#    z -0.019910 0.000000 2.072320 
# 
# From -- ./inp_files/249983.got.cif
#   From: 2010.05.17/outbox.cif.g08.bks.cpg/sg12_125_cif.got.tgz:249983.got - 2010.06.03 13:09:07.
