data_PCOD9174365
_publ_section_title
;
Structure prediction by ZEFSAII (Michael W. Deem and Ramdas Pophale) SiO2 
 PCOD9174365
Probable space group: C 2/M
;
_chemical_formula_sum "Si O2"
_cell_formula_units_Z 64
_cell_length_a 14.284508
_cell_length_b 7.729989
_cell_length_c 25.741174
_cell_angle_alpha 90.000000
_cell_angle_beta 70.589499
_cell_angle_gamma 90.000000
_cell_volume 2680.764718
_symmetry_space_group_name_H-M "C 2/M"
_symmetry_group_IT_number 12
_symmetry_cell_setting 'monoclinic'
loop_
_space_group_symop_operation_xyz
x,y,z
-x,y,-z
-x,-y,-z
x,-y,z
1/2+x,1/2+y,z
1/2-x,1/2+y,-z
1/2-x,1/2-y,-z
1/2+x,1/2-y,z
loop_
_atom_site_type_symbol
_atom_site_label
_atom_site_fract_x
_atom_site_fract_y
_atom_site_fract_z
Si Si1 0.441700 0.287175 0.844141
Si Si2 0.542503 0.697647 0.726313
Si Si3 0.831613 0.212583 0.390023
Si Si4 0.262686 0.800485 0.251195
Si Si5 0.859049 0.796385 0.134992
Si Si6 0.750507 0.295291 0.060066
Si Si7 0.948046 0.196089 0.459825
Si Si8 0.132409 0.704763 0.365093
O O1 0.440318 0.500000 0.842251
O O2 0.536204 0.235026 0.861690
O O3 0.463951 0.225397 0.781328
O O4 0.344330 0.223314 0.891189
O O5 0.511855 0.500000 0.720990
O O6 0.583336 0.777787 0.665669
O O7 0.644773 0.695432 0.741651
O O8 0.725661 0.256983 0.384789
O O9 0.857238 0.272641 0.443462
O O10 0.835653 0.000000 0.389218
O O11 0.273299 0.784195 0.187430
O O12 0.165726 0.740103 0.299842
O O13 0.277916 0.000000 0.262031
O O14 0.843874 0.760026 0.077382
O O15 0.853443 0.000000 0.144063
O O16 0.744299 0.500000 0.064397
O O17 0.750000 0.250000 0.000000
O O18 0.037094 0.194166 0.401807
O O19 0.000000 0.282722 0.500000
O O20 0.920107 0.000000 0.480438
O O21 0.116021 0.500000 0.374473
#
# Coordination Sequence:
#
# PCOD9174365 Si02
#       8
#     8   8   8   8   8   8   8   8
#     4   8  17  34  57  79 105 142 181 218 271 335
#     4   8  14  30  54  78 104 138 176 213 260 326
#     4   8  16  32  54  77 106 142 174 213 274 334
#     4  10  18  31  54  85 114 139 170 214 269 328
#     4  10  20  38  60  83 110 143 179 221 270 325
#     4  11  23  39  56  80 110 147 192 234 273 320
#     4  10  21  36  53  77 108 143 187 233 273 320
#     4  10  20  36  56  78 106 142 181 221 269 325
#
# _framework density 23.873785000000002
#
# number of rings (size 3 to 8) (size 9 to 14) (size 15 to 20)
#    0.000    2.625    0.000    3.750    0.000    2.250 
#    0.000   14.375    0.000    0.000    0.000    0.000 
#    0.000    0.000    0.000    0.000    0.000    0.000 
#
# Total GULP energy -178697.633798 kJ/mol
# GULP energy per Si atom -5584.301056 kJ/mol
# Density = 2.381945 g / cm^3
# Si number density = 23.873785 Si / 1000 Ang^3
#
#
#
# Elastic Constant Matrix: (Units=GPa)
#
#
# Indices 1 2 3 4 5 6 
#
# 1 57.1873 -2.1415 23.0375 0.0000 8.9832 0.0000
# 2 -2.1415 70.0839 -4.4642 0.0000 0.5131 0.0000
# 3 23.0375 -4.4642 98.4073 0.0000 34.3210 0.0000
# 4 0.0000 0.0000 0.0000 12.3688 0.0000 -5.3112
# 5 8.9832 0.5131 34.3210 0.0000 41.7409 0.0000
# 6 0.0000 0.0000 0.0000 -5.3112 0.0000 9.7326
#
#
#
# Elastic Compliance Matrix: (Units=1/GPa)
#
#
# Indices 1 2 3 4 5 6 
#
# 1 0.019326 0.000322 -0.004287 0.000000 -0.000638 0.000000
# 2 0.000322 0.014345 0.000927 0.000000 -0.001008 0.000000
# 3 -0.004287 0.000927 0.015268 0.000000 -0.011643 0.000000
# 4 0.000000 0.000000 0.000000 0.105592 0.000000 0.057623
# 5 -0.000638 -0.001008 -0.011643 0.000000 0.033680 0.000000
# 6 0.000000 0.000000 0.000000 0.057623 0.000000 0.134193
#
#
# Mechanical properties :
#
#
# Convention : Reuss Voigt Hill
#
# Bulk Modulus (GPa) = 23.33046 28.72687 26.02867
# Shear Modulus (GPa) = 14.58715 26.71824 20.65270
#
# Velocity S-wave (km/s) = 2.47455 3.34899 2.94441
# Velocity P-wave (km/s) = 4.23770 5.19743 4.74191
#
# Compressibility (1/GPa) = 0.04286242
#
# Stress axis : x y z
#
# Youngs Moduli (GPa) = 51.74455 69.71130 65.49601
#
# Poissons Ratio (x) = -0.02246 0.28078
# Poissons Ratio (y) = -0.01667 -0.06070
# Poissons Ratio (z) = 0.22183 -0.06461
#
# Static dielectric constant tensor:
#      x y z
#    x 1.932400 0.000000 -0.012170 
#    y 0.000000 1.895740 0.000000 
#    z -0.012170 0.000000 1.837560 
# 
# From -- ./inp_files/313995.got.cif
#   From: 2010.05.17/outbox.cif.g08.bks.cpg/sg12_157_cif.got.tgz:313995.got - 2010.06.03 13:09:07.
