data_PCOD9174515
_publ_section_title
;
Structure prediction by ZEFSAII (Michael W. Deem and Ramdas Pophale) SiO2 
 PCOD9174515
Probable space group: C 2/M
;
_chemical_formula_sum "Si O2"
_cell_formula_units_Z 64
_cell_length_a 28.181393
_cell_length_b 19.407221
_cell_length_c 18.701910
_cell_angle_alpha 90.000000
_cell_angle_beta 162.313194
_cell_angle_gamma 90.000000
_cell_volume 3107.556896
_symmetry_space_group_name_H-M "C 2/M"
_symmetry_group_IT_number 12
_symmetry_cell_setting 'monoclinic'
loop_
_space_group_symop_operation_xyz
x,y,z
-x,y,-z
-x,-y,-z
x,-y,z
1/2+x,1/2+y,z
1/2-x,1/2+y,-z
1/2-x,1/2-y,-z
1/2+x,1/2-y,z
loop_
_atom_site_type_symbol
_atom_site_label
_atom_site_fract_x
_atom_site_fract_y
_atom_site_fract_z
Si Si1 0.754504 0.646264 0.466220
Si Si2 0.644804 0.923350 0.244941
Si Si3 0.737382 0.421394 0.290111
Si Si4 0.109145 0.420944 0.820193
Si Si5 0.900291 0.918884 0.152138
Si Si6 0.881644 0.325161 0.034364
Si Si7 0.668029 0.577173 0.630943
Si Si8 0.562094 0.322756 0.928688
O O1 0.784468 0.605393 0.582165
O O2 0.711089 0.600538 0.334881
O O3 0.605453 0.692730 0.273434
O O4 0.928816 0.672750 0.699735
O O5 0.765408 0.927069 0.353983
O O6 0.586913 0.000000 0.182079
O O7 0.500000 0.884170 0.000000
O O8 0.684127 0.500000 0.201948
O O9 0.923410 0.418595 0.542430
O O10 0.654404 0.367849 0.119037
O O11 0.142263 0.500000 0.894392
O O12 0.149621 0.360973 0.934528
O O13 0.216711 0.411255 0.905383
O O14 0.952704 0.869828 0.163380
O O15 0.990532 0.902804 0.356760
O O16 0.928010 0.000000 0.175590
O O17 0.849261 0.246035 0.969018
O O18 0.780677 0.372262 0.835447
O O19 0.671963 0.500000 0.668068
#
# Coordination Sequence:
#
# PCOD9174515 Si02
#       8
#     8   8   8   8   8   8   8   8
#     4  11  22  40  59  89 121 166 205 245 297 356
#     4  10  18  31  57  92 119 148 194 248 304 357
#     4  10  23  42  64  88 120 162 209 255 296 351
#     4   9  21  44  68  90 116 156 205 252 304 358
#     4  10  22  41  67  92 118 153 202 259 304 354
#     4  11  24  40  60  88 126 164 196 242 302 373
#     4  10  20  36  60  91 119 151 195 248 303 358
#     4  12  25  40  59  90 124 163 206 248 302 353
#
# _framework density 20.594957000000001
#
# number of rings (size 3 to 8) (size 9 to 14) (size 15 to 20)
#    0.000    1.625    2.500    1.875    0.000    6.500 
#    4.500    5.000    0.000    0.000    0.000    0.000 
#    0.000    0.000    0.000    0.000    0.000    0.000 
#
# Total GULP energy -178322.263305 kJ/mol
# GULP energy per Si atom -5572.570728 kJ/mol
# Density = 2.054808 g / cm^3
# Si number density = 20.594957 Si / 1000 Ang^3
#
#
#
# Elastic Constant Matrix: (Units=GPa)
#
#
# Indices 1 2 3 4 5 6 
#
# 1 45.8079 25.4816 29.1466 0.0000 4.0455 0.0000
# 2 25.4816 94.8528 35.8045 0.0000 -20.0836 0.0000
# 3 29.1466 35.8045 66.9802 0.0000 -7.9822 0.0000
# 4 0.0000 0.0000 0.0000 -1.2898 0.0000 0.5967
# 5 4.0455 -20.0836 -7.9822 0.0000 44.4037 0.0000
# 6 0.0000 0.0000 0.0000 0.5967 0.0000 25.1740
#
#
#
# Elastic Compliance Matrix: (Units=1/GPa)
#
#
# Indices 1 2 3 4 5 6 
#
# 1 0.033852 -0.006116 -0.012425 0.000000 -0.008084 0.000000
# 2 -0.006116 0.015400 -0.004777 0.000000 0.006664 0.000000
# 3 -0.012425 -0.004777 0.023266 0.000000 0.003154 0.000000
# 4 0.000000 0.000000 0.000000 -0.766879 0.000000 0.018177
# 5 -0.008084 0.006664 0.003154 0.000000 0.026838 0.000000
# 6 0.000000 0.000000 0.000000 0.018177 0.000000 0.039293
#
#
# Mechanical properties :
#
#
# Convention : Reuss Voigt Hill
#
# Bulk Modulus (GPa) = 38.63553 43.16738 40.90146
# Shear Modulus (GPa) = -8.72647 21.47145 6.37249
#
# Velocity S-wave (km/s) = -2.06068 3.23237 1.76094
# Velocity P-wave (km/s) = 3.62472 5.91072 4.90282
#
# Compressibility (1/GPa) = 0.02588291
#
# Stress axis : x y z
#
# Youngs Moduli (GPa) = 29.54041 64.93707 42.98171
#
# Poissons Ratio (x) = 0.39713 0.53405
# Poissons Ratio (y) = 0.18066 0.20530
# Poissons Ratio (z) = 0.36704 0.31017
#
# Static dielectric constant tensor:
#      x y z
#    x 1.715800 0.000000 0.040750 
#    y 0.000000 1.742850 0.000000 
#    z 0.040750 0.000000 1.843440 
# 
# From -- ./inp_files/294180.got.cif
#   From: 2010.05.17/outbox.cif.g08.bks.cpg/sg12_148_cif.got.tgz:294180.got - 2010.06.03 13:09:07.
