data_PCOD9174981
_publ_section_title
;
Structure prediction by ZEFSAII (Michael W. Deem and Ramdas Pophale) SiO2 
 PCOD9174981
Probable space group: C 2/M
;
_chemical_formula_sum "Si O2"
_cell_formula_units_Z 52
_cell_length_a 22.696904
_cell_length_b 12.510055
_cell_length_c 7.786891
_cell_angle_alpha 90.000000
_cell_angle_beta 82.832271
_cell_angle_gamma 90.000000
_cell_volume 2193.727361
_symmetry_space_group_name_H-M "C 2/M"
_symmetry_group_IT_number 12
_symmetry_cell_setting 'monoclinic'
loop_
_space_group_symop_operation_xyz
x,y,z
-x,y,-z
-x,-y,-z
x,-y,z
1/2+x,1/2+y,z
1/2-x,1/2+y,-z
1/2-x,1/2-y,-z
1/2+x,1/2-y,z
loop_
_atom_site_type_symbol
_atom_site_label
_atom_site_fract_x
_atom_site_fract_y
_atom_site_fract_z
Si Si1 0.825535 0.269584 0.069067
Si Si2 0.719680 0.215192 0.291418
Si Si3 0.068361 0.500000 0.651392
Si Si4 0.331733 0.000000 0.094160
Si Si5 0.940595 0.731789 0.227019
Si Si6 0.642401 0.625970 0.489688
Si Si7 0.850441 0.500000 0.685147
Si Si8 0.533526 0.616761 0.301968
O O1 0.787559 0.195119 0.209054
O O2 0.798907 0.388067 0.117615
O O3 0.895368 0.277251 0.083571
O O4 0.810286 0.250797 0.879214
O O5 0.702830 0.310333 0.426901
O O6 0.686438 0.105711 0.352032
O O7 0.124560 0.500000 0.760557
O O8 0.041518 0.615107 0.707021
O O9 0.089743 0.500000 0.447315
O O10 0.358704 0.000000 0.889382
O O11 0.897403 0.799838 0.370159
O O12 0.001236 0.796937 0.197960
O O13 0.648024 0.500000 0.536703
O O14 0.601544 0.627228 0.331650
O O15 0.500000 0.618967 0.500000
O O16 0.523602 0.500000 0.228839
#
# Coordination Sequence:
#
# PCOD9174981 Si02
#       8
#     8   8   4   4   8   8   4   8
#     4   9  20  35  54  77 105 148 182 221 276 335
#     4  10  20  37  53  76 108 145 183 221 280 332
#     4  10  18  32  54  86 106 138 190 221 265 344
#     4   8  18  34  54  73 113 149 173 225 285 317
#     4  10  18  35  53  79 109 138 179 227 269 323
#     4  10  20  35  56  81 107 140 182 226 273 330
#     4  10  18  36  53  74 115 147 173 229 282 323
#     4   8  16  33  55  75 107 143 173 221 284 325
#
# _framework density 23.703949000000001
#
# number of rings (size 3 to 8) (size 9 to 14) (size 15 to 20)
#    0.000    2.615    1.538    1.385    1.077    0.615 
#    4.154    5.000    0.000    1.846    0.000    6.462 
#    0.000    0.000    0.000    0.000    0.000    0.000 
#
# Total GULP energy -144964.850601 kJ/mol
# GULP energy per Si atom -5575.571177 kJ/mol
# Density = 2.365000 g / cm^3
# Si number density = 23.703949 Si / 1000 Ang^3
#
#
#
# Elastic Constant Matrix: (Units=GPa)
#
#
# Indices 1 2 3 4 5 6 
#
# 1 63.0731 32.9011 -2.9279 0.0000 2.7339 0.0000
# 2 32.9011 128.4514 19.5997 0.0000 -2.1503 0.0000
# 3 -2.9279 19.5997 50.6544 0.0000 6.1793 0.0000
# 4 0.0000 0.0000 0.0000 12.0713 0.0000 9.7834
# 5 2.7339 -2.1503 6.1793 0.0000 27.5472 0.0000
# 6 0.0000 0.0000 0.0000 9.7834 0.0000 13.7492
#
#
#
# Elastic Compliance Matrix: (Units=1/GPa)
#
#
# Indices 1 2 3 4 5 6 
#
# 1 0.019010 -0.005470 0.003596 0.000000 -0.003120 0.000000
# 2 -0.005470 0.009901 -0.004429 0.000000 0.002309 0.000000
# 3 0.003596 -0.004429 0.022361 0.000000 -0.005718 0.000000
# 4 0.000000 0.000000 0.000000 0.195705 0.000000 -0.139257
# 5 -0.003120 0.002309 -0.005718 0.000000 0.038074 0.000000
# 6 0.000000 0.000000 0.000000 -0.139257 0.000000 0.171822
#
#
# Mechanical properties :
#
#
# Convention : Reuss Voigt Hill
#
# Bulk Modulus (GPa) = 25.86265 37.92497 31.89381
# Shear Modulus (GPa) = 10.36554 23.51392 16.93973
#
# Velocity S-wave (km/s) = 2.09342 3.15299 2.67617
# Velocity P-wave (km/s) = 4.09605 5.41196 4.79932
#
# Compressibility (1/GPa) = 0.03866580
#
# Stress axis : x y z
#
# Youngs Moduli (GPa) = 52.60328 101.00437 44.72137
#
# Poissons Ratio (x) = 0.55251 -0.16082
# Poissons Ratio (y) = 0.28775 0.19806
# Poissons Ratio (z) = -0.18916 0.44732
#
# Static dielectric constant tensor:
#      x y z
#    x 1.926550 0.000000 0.025380 
#    y 0.000000 1.915030 0.000000 
#    z 0.025380 0.000000 1.914450 
# 
# From -- ./inp_files/102662.got.cif
#   From: 2010.05.17/outbox.cif.g08.bks.cpg/sg12_52_cif.got.tgz:102662.got - 2010.06.03 13:09:07.
