data_PCOD9174364
_publ_section_title
;
Structure prediction by ZEFSAII (Michael W. Deem and Ramdas Pophale) SiO2 
 PCOD9174364
Probable space group: C 2/M
;
_chemical_formula_sum "Si O2"
_cell_formula_units_Z 56
_cell_length_a 26.161330
_cell_length_b 13.492524
_cell_length_c 8.076220
_cell_angle_alpha 90.000000
_cell_angle_beta 58.992196
_cell_angle_gamma 90.000000
_cell_volume 2443.381076
_symmetry_space_group_name_H-M "C 2/M"
_symmetry_group_IT_number 12
_symmetry_cell_setting 'monoclinic'
loop_
_space_group_symop_operation_xyz
x,y,z
-x,y,-z
-x,-y,-z
x,-y,z
1/2+x,1/2+y,z
1/2-x,1/2+y,-z
1/2-x,1/2-y,-z
1/2+x,1/2-y,z
loop_
_atom_site_type_symbol
_atom_site_label
_atom_site_fract_x
_atom_site_fract_y
_atom_site_fract_z
Si Si1 0.244604 0.382187 0.799245
Si Si2 0.672138 0.759907 0.170305
Si Si3 0.538931 0.108920 0.104986
Si Si4 0.932627 0.294325 0.441108
Si Si5 0.500174 0.612369 0.809290
Si Si6 0.644226 0.205844 0.750470
Si Si7 0.860603 0.887743 0.054696
O O1 0.259066 0.500000 0.773475
O O2 0.206967 0.350997 0.027816
O O3 0.297657 0.300474 0.727269
O O4 0.202892 0.351944 0.712254
O O5 0.606689 0.794483 0.330869
O O6 0.671497 0.675056 0.031910
O O7 0.490925 0.139004 0.321865
O O8 0.563371 0.000000 0.094512
O O9 0.500000 0.108046 0.000000
O O10 0.593823 0.179512 0.972916
O O11 0.959720 0.185072 0.363521
O O12 0.886119 0.321594 0.371503
O O13 0.523526 0.500000 0.768045
O O14 0.430299 0.609496 0.885510
O O15 0.500000 0.648669 0.000000
O O16 0.649681 0.324279 0.761757
O O17 0.840086 0.000000 0.105088
#
# Coordination Sequence:
#
# PCOD9174364 Si02
#       7
#     8   8   8   8   8   8   8
#     4  10  22  44  62  78 111 157 203 241 286 345
#     4  10  24  39  60  85 113 152 194 245 296 341
#     4   9  17  31  53  83 115 148 181 220 278 344
#     4  11  20  35  56  89 123 141 186 244 295 339
#     4  10  18  31  54  84 119 157 189 227 286 352
#     4  10  19  35  62  85 114 155 193 235 284 340
#     4  10  19  35  56  80 115 159 197 226 280 350
#
# _framework density 22.919060000000002
#
# number of rings (size 3 to 8) (size 9 to 14) (size 15 to 20)
#    0.000    2.000    2.857    1.286    0.000    3.429 
#    0.000    1.429    0.000    2.571    0.000    0.000 
#    0.000    0.000    0.000    0.000    0.000    0.000 
#
# Total GULP energy -156334.110524 kJ/mol
# GULP energy per Si atom -5583.361090 kJ/mol
# Density = 2.286689 g / cm^3
# Si number density = 22.919060 Si / 1000 Ang^3
#
#
#
# Elastic Constant Matrix: (Units=GPa)
#
#
# Indices 1 2 3 4 5 6 
#
# 1 75.0819 -7.9052 -22.2089 0.0000 7.8103 0.0000
# 2 -7.9052 102.3467 -1.1892 0.0000 -1.9205 0.0000
# 3 -22.2089 -1.1892 50.9947 0.0000 -5.0100 0.0000
# 4 0.0000 0.0000 0.0000 4.9336 0.0000 -2.8521
# 5 7.8103 -1.9205 -5.0100 0.0000 24.4943 0.0000
# 6 0.0000 0.0000 0.0000 -2.8521 0.0000 23.4394
#
#
#
# Elastic Compliance Matrix: (Units=1/GPa)
#
#
# Indices 1 2 3 4 5 6 
#
# 1 0.015755 0.001225 0.006537 0.000000 -0.003590 0.000000
# 2 0.001225 0.009885 0.000818 0.000000 0.000552 0.000000
# 3 0.006537 0.000818 0.022734 0.000000 0.002630 0.000000
# 4 0.000000 0.000000 0.000000 0.218028 0.000000 0.026530
# 5 -0.003590 0.000552 0.002630 0.000000 0.042552 0.000000
# 6 0.000000 0.000000 0.000000 0.026530 0.000000 0.045891
#
#
# Mechanical properties :
#
#
# Convention : Reuss Voigt Hill
#
# Bulk Modulus (GPa) = 15.25846 18.42407 16.84127
# Shear Modulus (GPa) = 13.90711 27.88859 20.89785
#
# Velocity S-wave (km/s) = 2.46599 3.49209 3.02290
# Velocity P-wave (km/s) = 3.84449 4.93111 4.42131
#
# Compressibility (1/GPa) = 0.06553740
#
# Stress axis : x y z
#
# Youngs Moduli (GPa) = 63.47173 101.16107 43.98610
#
# Poissons Ratio (x) = -0.12397 -0.28755
# Poissons Ratio (y) = -0.07778 -0.03600
# Poissons Ratio (z) = -0.41494 -0.08280
#
# Static dielectric constant tensor:
#      x y z
#    x 1.950600 0.000000 0.027980 
#    y 0.000000 1.847940 0.000000 
#    z 0.027980 0.000000 1.848870 
# 
# From -- ./inp_files/111551.got.cif
#   From: 2010.05.17/outbox.cif.g08.bks.cpg/sg12_56_cif.got.tgz:111551.got - 2010.06.03 13:09:07.
