data_PCOD9174279
_publ_section_title
;
Structure prediction by ZEFSAII (Michael W. Deem and Ramdas Pophale) SiO2 
 PCOD9174279
Probable space group: C 2/M
;
_chemical_formula_sum "Si O2"
_cell_formula_units_Z 36
_cell_length_a 31.674768
_cell_length_b 10.040723
_cell_length_c 9.873743
_cell_angle_alpha 90.000000
_cell_angle_beta 140.759372
_cell_angle_gamma 90.000000
_cell_volume 1986.436920
_symmetry_space_group_name_H-M "C 2/M"
_symmetry_group_IT_number 12
_symmetry_cell_setting 'monoclinic'
loop_
_space_group_symop_operation_xyz
x,y,z
-x,y,-z
-x,-y,-z
x,-y,z
1/2+x,1/2+y,z
1/2-x,1/2+y,-z
1/2-x,1/2-y,-z
1/2+x,1/2-y,z
loop_
_atom_site_type_symbol
_atom_site_label
_atom_site_fract_x
_atom_site_fract_y
_atom_site_fract_z
Si Si1 0.897338 0.000000 0.014178
Si Si2 0.386121 0.731384 0.482875
Si Si3 0.821776 0.500000 0.261914
Si Si4 0.024463 0.747579 0.711038
Si Si5 0.081449 0.000000 0.226509
Si Si6 0.921577 0.500000 0.256116
Si Si7 0.334686 0.500000 0.155669
O O1 0.944328 0.872705 0.141366
O O2 0.853418 0.000000 0.042311
O O3 0.875081 0.000000 0.803587
O O4 0.457900 0.793871 0.622947
O O5 0.398143 0.631128 0.637092
O O6 0.363152 0.631647 0.303386
O O7 0.338448 0.859844 0.378027
O O8 0.869000 0.500000 0.245520
O O9 0.744806 0.500000 0.029444
O O10 0.079628 0.633687 0.832842
O O11 0.000000 0.786932 0.500000
O O12 0.000000 0.000000 0.000000
O O13 0.000000 0.500000 0.500000
#
# Coordination Sequence:
#
# PCOD9174279 Si02
#       7
#     4   8   4   8   4   4   4
#     4  12  20  35  56  83 110 144 194 230 269 334
#     4  11  21  37  58  87 116 144 183 239 283 327
#     4  12  21  37  57  84 120 149 185 224 287 339
#     4  11  17  30  57  86 112 135 177 236 290 318
#     4  11  23  37  57  85 113 148 192 236 283 325
#     4  10  18  31  53  88 111 138 167 238 291 326
#     4  11  23  35  59  86 113 153 188 226 275 341
#
# _framework density 18.122900999999999
#
# number of rings (size 3 to 8) (size 9 to 14) (size 15 to 20)
#    0.000    0.889    8.889    1.667    0.000    0.000 
#    0.000    2.778    0.000    0.000    0.000    0.000 
#    0.000    0.000    0.000    0.000    0.000    0.000 
#
# Total GULP energy -100281.997586 kJ/mol
# GULP energy per Si atom -5571.222088 kJ/mol
# Density = 1.808165 g / cm^3
# Si number density = 18.122901 Si / 1000 Ang^3
#
#
#
# Elastic Constant Matrix: (Units=GPa)
#
#
# Indices 1 2 3 4 5 6 
#
# 1 81.2828 18.6018 43.9911 0.0000 -6.6412 0.0000
# 2 18.6018 115.7898 40.9310 0.0000 -6.1786 0.0000
# 3 43.9911 40.9310 57.6819 0.0000 -6.6573 0.0000
# 4 0.0000 0.0000 0.0000 23.6892 0.0000 -2.7048
# 5 -6.6412 -6.1786 -6.6573 0.0000 34.8296 0.0000
# 6 0.0000 0.0000 0.0000 -2.7048 0.0000 20.3457
#
#
#
# Elastic Compliance Matrix: (Units=1/GPa)
#
#
# Indices 1 2 3 4 5 6 
#
# 1 0.021831 0.003194 -0.018784 0.000000 0.001139 0.000000
# 2 0.003194 0.012004 -0.010877 0.000000 0.000659 0.000000
# 3 -0.018784 -0.010877 0.039619 0.000000 0.002061 0.000000
# 4 0.000000 0.000000 0.000000 0.042864 0.000000 0.005699
# 5 0.001139 0.000659 0.002061 0.000000 0.029439 0.000000
# 6 0.000000 0.000000 0.000000 0.005699 0.000000 0.049908
#
#
# Mechanical properties :
#
#
# Convention : Reuss Voigt Hill
#
# Bulk Modulus (GPa) = 48.73865 51.31137 50.02501
# Shear Modulus (GPa) = 19.57407 25.85496 22.71451
#
# Velocity S-wave (km/s) = 3.29001 3.78119 3.54412
# Velocity P-wave (km/s) = 6.43304 6.88750 6.66415
#
# Compressibility (1/GPa) = 0.02051760
#
# Stress axis : x y z
#
# Youngs Moduli (GPa) = 45.80595 83.30899 25.24048
#
# Poissons Ratio (x) = -0.26607 0.47413
# Poissons Ratio (y) = -0.14629 0.27455
# Poissons Ratio (z) = 0.86044 0.90618
#
# Static dielectric constant tensor:
#      x y z
#    x 1.648050 0.000000 -0.014870 
#    y 0.000000 1.894930 0.000000 
#    z -0.014870 0.000000 1.610860 
# 
# From -- ./inp_files/102182.got.cif
#   From: 2010.05.17/outbox.cif.g08.bks.cpg/sg12_52_cif.got.tgz:102182.got - 2010.06.03 13:09:07.
