data_PCOD9174744
_publ_section_title
;
Structure prediction by ZEFSAII (Michael W. Deem and Ramdas Pophale) SiO2 
 PCOD9174744
Probable space group: C 2/M
;
_chemical_formula_sum "Si O2"
_cell_formula_units_Z 56
_cell_length_a 24.831337
_cell_length_b 18.161271
_cell_length_c 9.860840
_cell_angle_alpha 90.000000
_cell_angle_beta 131.973078
_cell_angle_gamma 90.000000
_cell_volume 3306.110520
_symmetry_space_group_name_H-M "C 2/M"
_symmetry_group_IT_number 12
_symmetry_cell_setting 'monoclinic'
loop_
_space_group_symop_operation_xyz
x,y,z
-x,y,-z
-x,-y,-z
x,-y,z
1/2+x,1/2+y,z
1/2-x,1/2+y,-z
1/2-x,1/2-y,-z
1/2+x,1/2-y,z
loop_
_atom_site_type_symbol
_atom_site_label
_atom_site_fract_x
_atom_site_fract_y
_atom_site_fract_z
Si Si1 0.443576 0.588774 0.601811
Si Si2 0.301770 0.912132 0.889337
Si Si3 0.760997 0.588882 0.121495
Si Si4 0.098932 0.089070 0.778813
Si Si5 0.416792 0.911659 0.861340
Si Si6 0.687598 0.663216 0.498591
Si Si7 0.804234 0.337903 0.470056
O O1 0.439418 0.500000 0.607980
O O2 0.527922 0.611564 0.743840
O O3 0.414491 0.608426 0.401473
O O4 0.390905 0.626797 0.619961
O O5 0.375980 0.895984 0.934694
O O6 0.238255 0.871638 0.700879
O O7 0.287870 0.000000 0.855862
O O8 0.299630 0.893358 0.043880
O O9 0.762671 0.500000 0.141970
O O10 0.796387 0.627799 0.309036
O O11 0.676972 0.613012 0.963245
O O12 0.099555 0.000000 0.781654
O O13 0.368832 0.874630 0.664093
O O14 0.415016 0.000000 0.838931
O O15 0.500000 0.887596 0.000000
O O16 0.730298 0.647976 0.430863
O O17 0.684107 0.750518 0.513292
#
# Coordination Sequence:
#
# PCOD9174744 Si02
#       7
#     8   8   8   8   8   8   8
#     4   9  15  28  51  74  98 133 174 206 232 286
#     4   9  17  31  55  78  95 130 175 206 244 304
#     4  10  18  32  52  78 106 129 163 214 260 297
#     4   8  15  27  48  77 103 126 158 205 249 286
#     4   9  18  36  59  75  91 126 175 218 258 309
#     4  10  19  34  50  71 103 138 177 202 242 308
#     4  10  22  34  49  74 105 134 165 214 264 300
#
# _framework density 16.938333
#
# number of rings (size 3 to 8) (size 9 to 14) (size 15 to 20)
#    0.000    2.714    1.429    1.714    0.000    2.286 
#    0.000    5.714    3.143    6.000    0.000    0.000 
#    0.000    0.000    0.000    0.000    0.000    0.000 
#
# Total GULP energy -156052.327157 kJ/mol
# GULP energy per Si atom -5573.297398 kJ/mol
# Density = 1.689978 g / cm^3
# Si number density = 16.938333 Si / 1000 Ang^3
#
#
#
# Elastic Constant Matrix: (Units=GPa)
#
#
# Indices 1 2 3 4 5 6 
#
# 1 140.5519 47.8486 68.8308 0.0000 9.5140 0.0000
# 2 47.8486 26.1167 31.3966 0.0000 -3.2594 0.0000
# 3 68.8308 31.3966 91.6036 0.0000 -5.2280 0.0000
# 4 0.0000 0.0000 0.0000 11.7074 0.0000 -23.6068
# 5 9.5140 -3.2594 -5.2280 0.0000 29.7642 0.0000
# 6 0.0000 0.0000 0.0000 -23.6068 0.0000 76.1984
#
#
#
# Elastic Compliance Matrix: (Units=1/GPa)
#
#
# Indices 1 2 3 4 5 6 
#
# 1 0.023785 -0.038795 -0.005305 0.000000 -0.012783 0.000000
# 2 -0.038795 0.128711 -0.013589 0.000000 0.024109 0.000000
# 3 -0.005305 -0.013589 0.019770 0.000000 0.003680 0.000000
# 4 0.000000 0.000000 0.000000 0.227590 0.000000 0.070509
# 5 -0.012783 0.024109 0.003680 0.000000 0.040970 0.000000
# 6 0.000000 0.000000 0.000000 0.070509 0.000000 0.034968
#
#
# Mechanical properties :
#
#
# Convention : Reuss Voigt Hill
#
# Bulk Modulus (GPa) = 17.57800 61.60268 39.59034
# Shear Modulus (GPa) = 8.19494 30.88042 19.53768
#
# Velocity S-wave (km/s) = 2.20195 4.27442 3.39995
# Velocity P-wave (km/s) = 4.10670 7.79799 6.23192
#
# Compressibility (1/GPa) = 0.05688928
#
# Stress axis : x y z
#
# Youngs Moduli (GPa) = 42.04318 7.76936 50.58133
#
# Poissons Ratio (x) = 0.30141 0.26833
# Poissons Ratio (y) = 1.63106 0.68733
# Poissons Ratio (z) = 0.22303 0.10557
#
# Static dielectric constant tensor:
#      x y z
#    x 1.602900 0.000000 0.004560 
#    y 0.000000 1.553130 0.000000 
#    z 0.004560 0.000000 1.540450 
# 
# From -- ./inp_files/98049.got.cif
#   From: 2010.05.17/outbox.cif.g08.bks.cpg/sg12_50_cif.got.tgz:98049.got - 2010.06.03 13:09:07.
