data_PCOD9174701
_publ_section_title
;
Structure prediction by ZEFSAII (Michael W. Deem and Ramdas Pophale) SiO2 
 PCOD9174701
Probable space group: C 2/M
;
_chemical_formula_sum "Si O2"
_cell_formula_units_Z 56
_cell_length_a 29.637728
_cell_length_b 7.348492
_cell_length_c 14.768302
_cell_angle_alpha 90.000000
_cell_angle_beta 130.546289
_cell_angle_gamma 90.000000
_cell_volume 2444.101862
_symmetry_space_group_name_H-M "C 2/M"
_symmetry_group_IT_number 12
_symmetry_cell_setting 'monoclinic'
loop_
_space_group_symop_operation_xyz
x,y,z
-x,y,-z
-x,-y,-z
x,-y,z
1/2+x,1/2+y,z
1/2-x,1/2+y,-z
1/2-x,1/2-y,-z
1/2+x,1/2-y,z
loop_
_atom_site_type_symbol
_atom_site_label
_atom_site_fract_x
_atom_site_fract_y
_atom_site_fract_z
Si Si1 0.699413 0.284232 0.009176
Si Si2 0.595768 0.221956 0.120060
Si Si3 0.498973 0.219963 0.852619
Si Si4 0.604565 0.278076 0.748127
Si Si5 0.723522 0.206915 0.246481
Si Si6 0.351297 0.722413 0.388162
Si Si7 0.022757 0.792576 0.382263
O O1 0.695291 0.500000 0.018095
O O2 0.713860 0.201647 0.125073
O O3 0.750000 0.250000 0.000000
O O4 0.638502 0.218508 0.882814
O O5 0.555866 0.272913 0.153975
O O6 0.663119 0.288981 0.207177
O O7 0.597065 0.000000 0.119633
O O8 0.558814 0.277797 0.982662
O O9 0.490701 0.292613 0.741802
O O10 0.499552 0.000000 0.848090
O O11 0.603087 0.500000 0.748906
O O12 0.641611 0.226965 0.707913
O O13 0.536971 0.212402 0.652484
O O14 0.788727 0.288930 0.345557
O O15 0.726025 0.000000 0.284251
O O16 0.348648 0.500000 0.388598
O O17 0.412147 0.784877 0.514435
O O18 0.026274 0.000000 0.421395
#
# Coordination Sequence:
#
# PCOD9174701 Si02
#       7
#     8   8   8   8   8   8   8
#     4  11  20  31  48  72 100 127 157 195 239 283
#     4   8  16  31  54  75  93 125 159 192 238 296
#     4   9  17  33  52  72  97 123 158 197 239 287
#     4   9  17  30  48  70  94 125 163 197 231 278
#     4  10  18  32  52  73  96 125 163 198 237 282
#     4   9  17  30  48  69  95 128 163 197 231 281
#     4  10  19  31  50  72  94 125 164 200 236 276
#
# _framework density 22.912303000000001
#
# number of rings (size 3 to 8) (size 9 to 14) (size 15 to 20)
#    0.000    2.571    1.429    2.571    0.000    1.714 
#    0.000    4.286    0.000    0.857    0.000    0.000 
#    0.000    0.000    0.000    0.000    0.000    0.000 
#
# Total GULP energy -156414.536573 kJ/mol
# GULP energy per Si atom -5586.233449 kJ/mol
# Density = 2.286015 g / cm^3
# Si number density = 22.912303 Si / 1000 Ang^3
#
#
#
# Elastic Constant Matrix: (Units=GPa)
#
#
# Indices 1 2 3 4 5 6 
#
# 1 117.7916 -0.8233 27.1270 0.0000 49.4392 0.0000
# 2 -0.8233 93.1029 -1.0119 0.0000 7.0846 0.0000
# 3 27.1270 -1.0119 62.0904 0.0000 39.1181 0.0000
# 4 0.0000 0.0000 0.0000 9.5823 0.0000 -7.0056
# 5 49.4392 7.0846 39.1181 0.0000 52.7418 0.0000
# 6 0.0000 0.0000 0.0000 -7.0056 0.0000 -2.2223
#
#
#
# Elastic Compliance Matrix: (Units=1/GPa)
#
#
# Indices 1 2 3 4 5 6 
#
# 1 0.014760 0.001504 0.004543 0.000000 -0.017407 0.000000
# 2 0.001504 0.011147 0.002546 0.000000 -0.004796 0.000000
# 3 0.004543 0.002546 0.032025 0.000000 -0.028353 0.000000
# 4 0.000000 0.000000 0.000000 0.031579 0.000000 -0.099550
# 5 -0.017407 -0.004796 -0.028353 0.000000 0.056951 0.000000
# 6 0.000000 0.000000 0.000000 -0.099550 0.000000 -0.136165
#
#
# Mechanical properties :
#
#
# Convention : Reuss Voigt Hill
#
# Bulk Modulus (GPa) = 13.31231 35.95204 24.63218
# Shear Modulus (GPa) = 275.46574 28.53322 151.99948
#
# Velocity S-wave (km/s) = 10.97666 3.53274 8.15375
# Velocity P-wave (km/s) = 12.90241 5.68907 9.97090
#
# Compressibility (1/GPa) = 0.07511845
#
# Stress axis : x y z
#
# Youngs Moduli (GPa) = 67.75056 89.71256 31.22515
#
# Poissons Ratio (x) = -0.13497 -0.14185
# Poissons Ratio (y) = -0.10193 -0.07949
# Poissons Ratio (z) = -0.30778 -0.22839
#
# Static dielectric constant tensor:
#      x y z
#    x 1.850060 0.000000 0.052140 
#    y 0.000000 1.873740 0.000000 
#    z 0.052140 0.000000 1.831880 
# 
# From -- ./inp_files/248880.got.cif
#   From: 2010.05.17/outbox.cif.g08.bks.cpg/sg12_125_cif.got.tgz:248880.got - 2010.06.03 13:09:07.
