data_PCOD9174676
_publ_section_title
;
Structure prediction by ZEFSAII (Michael W. Deem and Ramdas Pophale) SiO2 
 PCOD9174676
Probable space group: C 2/M
;
_chemical_formula_sum "Si O2"
_cell_formula_units_Z 32
_cell_length_a 5.515779
_cell_length_b 27.785491
_cell_length_c 11.394250
_cell_angle_alpha 90.000000
_cell_angle_beta 80.983593
_cell_angle_gamma 90.000000
_cell_volume 1724.689377
_symmetry_space_group_name_H-M "C 2/M"
_symmetry_group_IT_number 12
_symmetry_cell_setting 'monoclinic'
loop_
_space_group_symop_operation_xyz
x,y,z
-x,y,-z
-x,-y,-z
x,-y,z
1/2+x,1/2+y,z
1/2-x,1/2+y,-z
1/2-x,1/2-y,-z
1/2+x,1/2-y,z
loop_
_atom_site_type_symbol
_atom_site_label
_atom_site_fract_x
_atom_site_fract_y
_atom_site_fract_z
Si Si1 0.065429 0.053333 0.134963
Si Si2 0.000000 0.220242 0.000000
Si Si3 0.706655 0.647416 0.820110
Si Si4 0.962217 0.721260 0.641251
Si Si5 0.000000 0.400916 0.000000
O O1 0.927456 0.097898 0.205898
O O2 0.016358 0.000000 0.184833
O O3 0.351376 0.066098 0.102646
O O4 0.000000 0.053371 0.000000
O O5 0.020867 0.187643 0.881548
O O6 0.250000 0.250000 0.000000
O O7 0.887339 0.672937 0.715835
O O8 0.840767 0.632908 0.930188
O O9 0.719027 0.755712 0.666883
O O10 0.000000 0.711852 0.500000
#
# Coordination Sequence:
#
# PCOD9174676 Si02
#       5
#     8   4   8   8   4
#     4   9  18  32  51  77 112 147 185 225 275 340
#     4  12  23  32  48  78 113 141 170 217 278 326
#     4  11  21  34  54  80 114 145 186 227 281 335
#     4  10  23  41  60  82 110 151 196 232 271 327
#     4  10  18  32  51  82 114 147 182 221 285 336
#
# _framework density 18.554067
#
# number of rings (size 3 to 8) (size 9 to 14) (size 15 to 20)
#    0.000    1.750    3.750    2.625    3.500    1.000 
#    0.000    0.000    0.000    0.750    0.000    1.750 
#    0.000    0.000    0.000    0.000    0.000    0.000 
#
# Total GULP energy -89139.908116 kJ/mol
# GULP energy per Si atom -5571.244257 kJ/mol
# Density = 1.851184 g / cm^3
# Si number density = 18.554067 Si / 1000 Ang^3
#
#
#
# Elastic Constant Matrix: (Units=GPa)
#
#
# Indices 1 2 3 4 5 6 
#
# 1 84.9843 48.1396 16.1273 0.0000 -19.2867 0.0000
# 2 48.1396 151.5285 51.7363 0.0000 -28.1019 0.0000
# 3 16.1273 51.7363 57.1115 0.0000 -21.5376 0.0000
# 4 0.0000 0.0000 0.0000 23.7133 0.0000 -10.8267
# 5 -19.2867 -28.1019 -21.5376 0.0000 24.8420 0.0000
# 6 0.0000 0.0000 0.0000 -10.8267 0.0000 21.7664
#
#
#
# Elastic Compliance Matrix: (Units=1/GPa)
#
#
# Indices 1 2 3 4 5 6 
#
# 1 0.015907 -0.004244 0.003268 0.000000 0.010382 0.000000
# 2 -0.004244 0.011108 -0.007975 0.000000 0.002356 0.000000
# 3 0.003268 -0.007975 0.031745 0.000000 0.021038 0.000000
# 4 0.000000 0.000000 0.000000 0.054561 0.000000 0.027139
# 5 0.010382 0.002356 0.021038 0.000000 0.069219 0.000000
# 6 0.000000 0.000000 0.000000 0.027139 0.000000 0.059441
#
#
# Mechanical properties :
#
#
# Convention : Reuss Voigt Hill
#
# Bulk Modulus (GPa) = 24.47567 58.40343 41.43955
# Shear Modulus (GPa) = 18.28135 25.90576 22.09355
#
# Velocity S-wave (km/s) = 3.14236 3.74067 3.45449
# Velocity P-wave (km/s) = 5.13674 7.08538 6.18824
#
# Compressibility (1/GPa) = 0.04085691
#
# Stress axis : x y z
#
# Youngs Moduli (GPa) = 62.86614 90.02862 31.50084
#
# Poissons Ratio (x) = 0.38206 -0.10294
# Poissons Ratio (y) = 0.26679 0.25123
# Poissons Ratio (z) = -0.20543 0.71801
#
# Static dielectric constant tensor:
#      x y z
#    x 1.930080 0.000000 -0.047630 
#    y 0.000000 1.703380 0.000000 
#    z -0.047630 0.000000 1.625610 
# 
# From -- ./inp_files/114943.got.cif
#   From: 2010.05.17/outbox.cif.g08.bks.cpg/sg12_58_cif.got.tgz:114943.got - 2010.06.03 13:09:07.
