data_PCOD9174990
_publ_section_title
;
Structure prediction by ZEFSAII (Michael W. Deem and Ramdas Pophale) SiO2 
 PCOD9174990
Probable space group: C 2/M
;
_chemical_formula_sum "Si O2"
_cell_formula_units_Z 40
_cell_length_a 27.298808
_cell_length_b 18.055125
_cell_length_c 6.566113
_cell_angle_alpha 90.000000
_cell_angle_beta 48.949380
_cell_angle_gamma 90.000000
_cell_volume 2440.610987
_symmetry_space_group_name_H-M "C 2/M"
_symmetry_group_IT_number 12
_symmetry_cell_setting 'monoclinic'
loop_
_space_group_symop_operation_xyz
x,y,z
-x,y,-z
-x,-y,-z
x,-y,z
1/2+x,1/2+y,z
1/2-x,1/2+y,-z
1/2-x,1/2-y,-z
1/2+x,1/2-y,z
loop_
_atom_site_type_symbol
_atom_site_label
_atom_site_fract_x
_atom_site_fract_y
_atom_site_fract_z
Si Si1 0.929402 0.776133 0.676156
Si Si2 0.685789 0.783835 0.279966
Si Si3 0.392733 0.584279 0.541958
Si Si4 0.149205 0.170185 0.727215
Si Si5 0.733764 0.585801 0.821896
O O1 0.875676 0.729892 0.698020
O O2 0.935731 0.853778 0.535214
O O3 0.000000 0.740717 0.500000
O O4 0.900819 0.796499 0.973886
O O5 0.674508 0.736120 0.514723
O O6 0.703927 0.868406 0.275334
O O7 0.750000 0.750000 0.000000
O O8 0.415996 0.500000 0.493697
O O9 0.382185 0.610368 0.339839
O O10 0.323047 0.588889 0.850235
O O11 0.204268 0.129335 0.709119
O O12 0.746011 0.500000 0.743921
#
# Coordination Sequence:
#
# PCOD9174990 Si02
#       5
#     8   8   8   8   8
#     4  10  22  35  49  72 102 137 177 211 247 298
#     4  11  19  34  54  78 102 132 171 213 249 301
#     4   9  18  31  48  74 106 135 167 204 248 304
#     4  10  18  32  55  72 105 133 171 205 257 298
#     4  10  19  31  50  80 107 129 163 213 258 300
#
# _framework density 16.389337999999999
#
# number of rings (size 3 to 8) (size 9 to 14) (size 15 to 20)
#    0.000    2.000    6.000    1.200    0.000    4.400 
#    0.000    1.000    0.000    0.600    0.000    1.400 
#    0.000    0.000    0.000    0.000    0.000    0.000 
#
# Total GULP energy -111516.926108 kJ/mol
# GULP energy per Si atom -5575.846305 kJ/mol
# Density = 1.635204 g / cm^3
# Si number density = 16.389338 Si / 1000 Ang^3
#
#
#
# Elastic Constant Matrix: (Units=GPa)
#
#
# Indices 1 2 3 4 5 6 
#
# 1 104.1530 25.8978 52.4445 0.0000 -6.5069 0.0000
# 2 25.8978 51.6319 20.8383 0.0000 -8.2448 0.0000
# 3 52.4445 20.8383 66.4660 0.0000 15.4242 0.0000
# 4 0.0000 0.0000 0.0000 12.2724 0.0000 -2.9589
# 5 -6.5069 -8.2448 15.4242 0.0000 26.7053 0.0000
# 6 0.0000 0.0000 0.0000 -2.9589 0.0000 12.5634
#
#
#
# Elastic Compliance Matrix: (Units=1/GPa)
#
#
# Indices 1 2 3 4 5 6 
#
# 1 0.020984 0.000617 -0.020765 0.000000 0.017297 0.000000
# 2 0.000617 0.026543 -0.012409 0.000000 0.015512 0.000000
# 3 -0.020765 -0.012409 0.043169 0.000000 -0.033824 0.000000
# 4 0.000000 0.000000 0.000000 0.086389 0.000000 0.020346
# 5 0.017297 0.015512 -0.033824 0.000000 0.065985 0.000000
# 6 0.000000 0.000000 0.000000 0.020346 0.000000 0.084388
#
#
# Mechanical properties :
#
#
# Convention : Reuss Voigt Hill
#
# Bulk Modulus (GPa) = 39.08652 46.73467 42.91059
# Shear Modulus (GPa) = 12.46574 18.51290 15.48932
#
# Velocity S-wave (km/s) = 2.76089 3.36455 3.07756
# Velocity P-wave (km/s) = 5.83643 6.60839 6.23437
#
# Compressibility (1/GPa) = 0.02558427
#
# Stress axis : x y z
#
# Youngs Moduli (GPa) = 47.65498 37.67424 23.16473
#
# Poissons Ratio (x) = -0.02325 0.48101
# Poissons Ratio (y) = -0.02941 0.28744
# Poissons Ratio (z) = 0.98955 0.46748
#
# Static dielectric constant tensor:
#      x y z
#    x 1.560350 0.000000 0.006390 
#    y 0.000000 1.555430 0.000000 
#    z 0.006390 0.000000 1.556670 
# 
# From -- ./inp_files/15116.got.cif
#   From: 2010.05.17/outbox.cif.g08.bks.cpg/sg12_8_cif.got.tgz:15116.got - 2010.06.03 13:09:07.
