data_PCOD9174669
_publ_section_title
;
Structure prediction by ZEFSAII (Michael W. Deem and Ramdas Pophale) SiO2 
 PCOD9174669
Probable space group: C 2/M
;
_chemical_formula_sum "Si O2"
_cell_formula_units_Z 58
_cell_length_a 24.441234
_cell_length_b 13.707838
_cell_length_c 12.321927
_cell_angle_alpha 90.000000
_cell_angle_beta 122.452092
_cell_angle_gamma 90.000000
_cell_volume 3483.622169
_symmetry_space_group_name_H-M "C 2/M"
_symmetry_group_IT_number 12
_symmetry_cell_setting 'monoclinic'
loop_
_space_group_symop_operation_xyz
x,y,z
-x,y,-z
-x,-y,-z
x,-y,z
1/2+x,1/2+y,z
1/2-x,1/2+y,-z
1/2-x,1/2-y,-z
1/2+x,1/2-y,z
loop_
_atom_site_type_symbol
_atom_site_label
_atom_site_fract_x
_atom_site_fract_y
_atom_site_fract_z
Si Si1 0.313129 0.113616 0.235595
Si Si2 0.714953 0.884012 0.376654
Si Si3 0.478685 0.702407 0.592662
Si Si4 0.601170 0.224583 0.835908
Si Si5 0.668968 0.761726 0.530709
Si Si6 0.710048 0.612871 0.936494
Si Si7 0.168049 0.384974 0.088101
Si Si8 0.000000 0.000000 0.500000
O O1 0.373298 0.144620 0.223370
O O2 0.311801 0.181666 0.338846
O O3 0.317333 0.000000 0.269954
O O4 0.250258 0.125864 0.090885
O O5 0.680606 0.833923 0.442199
O O6 0.783973 0.830662 0.435492
O O7 0.675908 0.866402 0.223403
O O8 0.722160 0.000000 0.398127
O O9 0.500000 0.749882 0.500000
O O10 0.528974 0.741406 0.734849
O O11 0.405019 0.728280 0.538997
O O12 0.487400 0.587567 0.577165
O O13 0.649659 0.315661 0.867561
O O14 0.616348 0.180414 0.969804
O O15 0.689994 0.500000 0.905268
O O16 0.762613 0.632888 0.897904
O O17 0.154216 0.500000 0.056340
#
# Coordination Sequence:
#
# PCOD9174669 Si02
#       8
#     8   8   8   8   8   8   8   2
#     4  10  18  32  51  77 110 142 179 228 281 325
#     4  10  22  37  60  82 105 148 191 233 274 315
#     4  10  22  35  54  83 115 145 180 214 275 333
#     4  11  18  32  52  77 113 143 178 220 280 330
#     4  11  21  38  55  82 115 143 185 229 272 325
#     4   9  18  27  49  80 106 139 177 225 279 325
#     4   9  18  33  52  78 106 140 189 230 269 320
#     4   8  20  36  52  84 116 148 176 216 260 340
#
# _framework density 16.649336999999999
#
# number of rings (size 3 to 8) (size 9 to 14) (size 15 to 20)
#    0.414    1.655    1.379    4.966    1.931    0.000 
#    2.483    4.138    0.000    1.655    0.000    0.966 
#    0.000    0.000    0.000    0.000    0.000    0.000 
#
# Total GULP energy -161462.358914 kJ/mol
# GULP energy per Si atom -5567.667549 kJ/mol
# Density = 1.661144 g / cm^3
# Si number density = 16.649337 Si / 1000 Ang^3
#
#
#
# Elastic Constant Matrix: (Units=GPa)
#
#
# Indices 1 2 3 4 5 6 
#
# 1 65.4183 28.8029 39.0033 0.0000 0.8894 0.0000
# 2 28.8029 89.4009 42.9263 0.0000 -1.5712 0.0000
# 3 39.0033 42.9263 81.4089 0.0000 -12.9458 0.0000
# 4 0.0000 0.0000 0.0000 18.0085 0.0000 -7.8432
# 5 0.8894 -1.5712 -12.9458 0.0000 24.8905 0.0000
# 6 0.0000 0.0000 0.0000 -7.8432 0.0000 8.8318
#
#
#
# Elastic Compliance Matrix: (Units=1/GPa)
#
#
# Indices 1 2 3 4 5 6 
#
# 1 0.022798 -0.002297 -0.010754 0.000000 -0.006553 0.000000
# 2 -0.002297 0.015485 -0.007518 0.000000 -0.002851 0.000000
# 3 -0.010754 -0.007518 0.023314 0.000000 0.012036 0.000000
# 4 0.000000 0.000000 0.000000 0.090553 0.000000 0.080417
# 5 -0.006553 -0.002851 0.012036 0.000000 0.046490 0.000000
# 6 0.000000 0.000000 0.000000 0.080417 0.000000 0.184643
#
#
# Mechanical properties :
#
#
# Convention : Reuss Voigt Hill
#
# Bulk Modulus (GPa) = 48.87548 50.85481 49.86515
# Shear Modulus (GPa) = 11.59446 18.71252 15.15349
#
# Velocity S-wave (km/s) = 2.64179 3.35613 3.02015
# Velocity P-wave (km/s) = 6.22294 6.75493 6.49438
#
# Compressibility (1/GPa) = 0.02046016
#
# Stress axis : x y z
#
# Youngs Moduli (GPa) = 43.86351 64.57708 42.89269
#
# Poissons Ratio (x) = 0.14832 0.46125
# Poissons Ratio (y) = 0.10074 0.32248
# Poissons Ratio (z) = 0.47169 0.48551
#
# Static dielectric constant tensor:
#      x y z
#    x 1.534580 0.000000 -0.005510 
#    y 0.000000 1.568580 0.000000 
#    z -0.005510 0.000000 1.578230 
# 
# From -- ./inp_files/167338.got.cif
#   From: 2010.05.17/outbox.cif.g08.bks.cpg/sg12_84_cif.got.tgz:167338.got - 2010.06.03 13:09:07.
