data_PCOD9174799
_publ_section_title
;
Structure prediction by ZEFSAII (Michael W. Deem and Ramdas Pophale) SiO2 
 PCOD9174799
Probable space group: C 2/M
;
_chemical_formula_sum "Si O2"
_cell_formula_units_Z 48
_cell_length_a 5.490156
_cell_length_b 25.902448
_cell_length_c 14.825960
_cell_angle_alpha 90.000000
_cell_angle_beta 111.966579
_cell_angle_gamma 90.000000
_cell_volume 1955.313707
_symmetry_space_group_name_H-M "C 2/M"
_symmetry_group_IT_number 12
_symmetry_cell_setting 'monoclinic'
loop_
_space_group_symop_operation_xyz
x,y,z
-x,y,-z
-x,-y,-z
x,-y,z
1/2+x,1/2+y,z
1/2-x,1/2+y,-z
1/2-x,1/2-y,-z
1/2+x,1/2-y,z
loop_
_atom_site_type_symbol
_atom_site_label
_atom_site_fract_x
_atom_site_fract_y
_atom_site_fract_z
Si Si1 0.277256 0.723296 0.645574
Si Si2 0.374780 0.061238 0.116356
Si Si3 0.530790 0.276992 0.881165
Si Si4 0.362835 0.603517 0.103815
Si Si5 0.128663 0.395300 0.612680
Si Si6 0.634653 0.441044 0.618171
O O1 0.508387 0.743702 0.612651
O O2 0.404822 0.724303 0.763244
O O3 0.198251 0.664712 0.616573
O O4 0.656520 0.088610 0.152224
O O5 0.159647 0.083915 0.154518
O O6 0.399270 0.000000 0.128120
O O7 0.250384 0.075297 0.001006
O O8 0.287440 0.259581 0.910344
O O9 0.625279 0.335356 0.910181
O O10 0.404053 0.424962 0.653819
O O11 0.000000 0.411825 0.500000
O O12 0.896837 0.406830 0.650860
O O13 0.500000 0.437544 0.500000
O O14 0.715075 0.500000 0.644285
#
# Coordination Sequence:
#
# PCOD9174799 Si02
#       6
#     8   8   8   8   8   8
#     4  10  21  36  53  71  97 134 169 206 254 301
#     4  10  19  33  53  79 106 132 163 198 248 300
#     4  10  21  37  53  71  98 135 174 206 245 298
#     4  10  18  32  53  75  99 133 167 201 240 288
#     4  10  19  31  51  77 100 127 166 209 252 300
#     4   9  17  30  49  72  99 129 157 191 243 302
#
# _framework density 24.548487999999999
#
# number of rings (size 3 to 8) (size 9 to 14) (size 15 to 20)
#    0.000    2.167    0.000    5.000    0.000    2.667 
#    0.000   10.000    0.000    8.000    0.000    0.000 
#    0.000    0.000    0.000    0.000    0.000    0.000 
#
# Total GULP energy -134344.437456 kJ/mol
# GULP energy per Si atom -5597.684894 kJ/mol
# Density = 2.449261 g / cm^3
# Si number density = 24.548488 Si / 1000 Ang^3
#
#
#
# Elastic Constant Matrix: (Units=GPa)
#
#
# Indices 1 2 3 4 5 6 
#
# 1 215.6243 55.4601 40.0080 0.0000 7.5849 0.0000
# 2 55.4601 120.1187 -18.3206 0.0000 9.3338 0.0000
# 3 40.0080 -18.3206 79.8872 0.0000 5.5064 0.0000
# 4 0.0000 0.0000 0.0000 -7.9934 0.0000 -6.9166
# 5 7.5849 9.3338 5.5064 0.0000 42.9746 0.0000
# 6 0.0000 0.0000 0.0000 -6.9166 0.0000 52.4674
#
#
#
# Elastic Compliance Matrix: (Units=1/GPa)
#
#
# Indices 1 2 3 4 5 6 
#
# 1 0.006269 -0.003510 -0.003956 0.000000 0.000163 0.000000
# 2 -0.003510 0.010793 0.004391 0.000000 -0.002287 0.000000
# 3 -0.003956 0.004391 0.015662 0.000000 -0.002262 0.000000
# 4 0.000000 0.000000 0.000000 -0.112294 0.000000 -0.014803
# 5 0.000163 -0.002287 -0.002262 0.000000 0.024027 0.000000
# 6 0.000000 0.000000 0.000000 -0.014803 0.000000 0.017108
#
#
# Mechanical properties :
#
#
# Convention : Reuss Voigt Hill
#
# Bulk Modulus (GPa) = 37.63167 63.32503 50.47835
# Shear Modulus (GPa) = -213.43075 40.05524 -86.68775
#
# Velocity S-wave (km/s) = -9.33441 4.04379 -5.94891
# Velocity P-wave (km/s) = 10.04053 6.90325 5.15545
#
# Compressibility (1/GPa) = 0.02657336
#
# Stress axis : x y z
#
# Youngs Moduli (GPa) = 159.51955 92.64994 63.85046
#
# Poissons Ratio (x) = 0.32524 0.25257
# Poissons Ratio (y) = 0.55997 -0.28036
# Poissons Ratio (z) = 0.63102 -0.40682
#
# Static dielectric constant tensor:
#      x y z
#    x 1.967900 0.000000 0.002210 
#    y 0.000000 1.828980 0.000000 
#    z 0.002210 0.000000 2.142710 
# 
# From -- ./inp_files/253248.got.cif
#   From: 2010.05.17/outbox.cif.g08.bks.cpg/sg12_127_cif.got.tgz:253248.got - 2010.06.03 13:09:07.
