data_PCOD9174518
_publ_section_title
;
Structure prediction by ZEFSAII (Michael W. Deem and Ramdas Pophale) SiO2 
 PCOD9174518
Probable space group: C 2/M
;
_chemical_formula_sum "Si O2"
_cell_formula_units_Z 60
_cell_length_a 22.381170
_cell_length_b 25.116505
_cell_length_c 9.657309
_cell_angle_alpha 90.000000
_cell_angle_beta 145.944868
_cell_angle_gamma 90.000000
_cell_volume 3040.035683
_symmetry_space_group_name_H-M "C 2/M"
_symmetry_group_IT_number 12
_symmetry_cell_setting 'monoclinic'
loop_
_space_group_symop_operation_xyz
x,y,z
-x,y,-z
-x,-y,-z
x,-y,z
1/2+x,1/2+y,z
1/2-x,1/2+y,-z
1/2-x,1/2-y,-z
1/2+x,1/2-y,z
loop_
_atom_site_type_symbol
_atom_site_label
_atom_site_fract_x
_atom_site_fract_y
_atom_site_fract_z
Si Si1 0.862036 0.358122 0.872363
Si Si2 0.534357 0.615461 0.409027
Si Si3 0.000000 0.720421 0.000000
Si Si4 0.342587 0.060438 0.589155
Si Si5 0.760218 0.561934 0.885461
Si Si6 0.865521 0.184936 0.631898
Si Si7 0.597765 0.585045 0.097402
Si Si8 0.597170 0.936674 0.593872
O O1 0.871729 0.400436 0.767339
O O2 0.834700 0.396091 0.948111
O O3 0.757190 0.322097 0.643578
O O4 0.958400 0.317259 0.043586
O O5 0.500000 0.627829 0.500000
O O6 0.638679 0.577562 0.619643
O O7 0.570531 0.664831 0.381626
O O8 0.442881 0.589046 0.138134
O O9 0.092174 0.758894 0.235029
O O10 0.213495 0.059151 0.330136
O O11 0.389078 0.082896 0.534793
O O12 0.379429 0.000000 0.683616
O O13 0.780327 0.500000 0.885161
O O14 0.794160 0.568309 0.110074
O O15 0.885408 0.142371 0.794279
O O16 0.500000 0.560993 0.000000
O O17 0.500000 0.915239 0.500000
O O18 0.577416 0.000000 0.540669
#
# Coordination Sequence:
#
# PCOD9174518 Si02
#       8
#     8   8   4   8   8   8   8   8
#     4  10  23  34  59  88 104 139 190 231 274 327
#     4  10  18  31  58  87 113 143 186 223 270 337
#     4  12  20  38  63  76 103 144 192 232 284 334
#     4  10  20  35  53  82 116 145 184 225 265 330
#     4  10  21  37  53  82 124 149 175 227 275 321
#     4   9  19  39  56  77 111 144 174 232 288 325
#     4   9  17  32  54  80 110 147 180 210 283 342
#     4   9  19  35  55  70 104 160 187 206 265 323
#
# _framework density 19.736611
#
# number of rings (size 3 to 8) (size 9 to 14) (size 15 to 20)
#    0.000    2.267    2.000    2.400    1.867    1.067 
#    0.000    0.667    2.933    1.600    0.000    0.000 
#    0.000    0.000    0.000    0.000    0.000    0.000 
#
# Total GULP energy -167284.548881 kJ/mol
# GULP energy per Si atom -5576.151629 kJ/mol
# Density = 1.969169 g / cm^3
# Si number density = 19.736611 Si / 1000 Ang^3
#
#
#
# Elastic Constant Matrix: (Units=GPa)
#
#
# Indices 1 2 3 4 5 6 
#
# 1 93.2926 32.9084 14.2256 0.0000 -16.3235 0.0000
# 2 32.9084 95.9952 16.7781 0.0000 -1.5170 0.0000
# 3 14.2256 16.7781 53.2335 0.0000 -6.0342 0.0000
# 4 0.0000 0.0000 0.0000 -549.2117 0.0000 -65.7961
# 5 -16.3235 -1.5170 -6.0342 0.0000 34.3737 0.0000
# 6 0.0000 0.0000 0.0000 -65.7961 0.0000 7.1856
#
#
#
# Elastic Compliance Matrix: (Units=1/GPa)
#
#
# Indices 1 2 3 4 5 6 
#
# 1 0.013504 -0.004257 -0.001593 0.000000 0.005945 0.000000
# 2 -0.004257 0.012367 -0.002987 0.000000 -0.002000 0.000000
# 3 -0.001593 -0.002987 0.020459 0.000000 0.002703 0.000000
# 4 0.000000 0.000000 0.000000 -0.000868 0.000000 -0.007951
# 5 0.005945 -0.002000 0.002703 0.000000 0.032302 0.000000
# 6 0.000000 0.000000 0.000000 -0.007951 0.000000 0.066366
#
#
# Mechanical properties :
#
#
# Convention : Reuss Voigt Hill
#
# Bulk Modulus (GPa) = 34.89710 41.14951 38.02331
# Shear Modulus (GPa) = 29.17942 -89.62320 -30.22189
#
# Velocity S-wave (km/s) = 3.84922 -6.74598 -3.91738
# Velocity P-wave (km/s) = 6.12169 6.30738 1.07421
#
# Compressibility (1/GPa) = 0.02865567
#
# Stress axis : x y z
#
# Youngs Moduli (GPa) = 74.05388 80.86067 48.87895
#
# Poissons Ratio (x) = 0.34421 0.07786
# Poissons Ratio (y) = 0.31524 0.14600
# Poissons Ratio (z) = 0.11797 0.24153
#
# Static dielectric constant tensor:
#      x y z
#    x 1.718810 0.000000 0.036110 
#    y 0.000000 1.675730 0.000000 
#    z 0.036110 0.000000 1.715730 
# 
# From -- ./inp_files/91243.got.cif
#   From: 2010.05.17/outbox.cif.g08.bks.cpg/sg12_46_cif.got.tgz:91243.got - 2010.06.03 13:09:07.
