data_PCOD9174226
_publ_section_title
;
Structure prediction by ZEFSAII (Michael W. Deem and Ramdas Pophale) SiO2 
 PCOD9174226
Probable space group: C 2/M
;
_chemical_formula_sum "Si O2"
_cell_formula_units_Z 48
_cell_length_a 9.480895
_cell_length_b 25.246963
_cell_length_c 22.469340
_cell_angle_alpha 90.000000
_cell_angle_beta 28.492508
_cell_angle_gamma 90.000000
_cell_volume 2565.707185
_symmetry_space_group_name_H-M "C 2/M"
_symmetry_group_IT_number 12
_symmetry_cell_setting 'monoclinic'
loop_
_space_group_symop_operation_xyz
x,y,z
-x,y,-z
-x,-y,-z
x,-y,z
1/2+x,1/2+y,z
1/2-x,1/2+y,-z
1/2-x,1/2-y,-z
1/2+x,1/2-y,z
loop_
_atom_site_type_symbol
_atom_site_label
_atom_site_fract_x
_atom_site_fract_y
_atom_site_fract_z
Si Si1 0.361421 0.060628 0.864202
Si Si2 0.306325 0.063677 0.014305
Si Si3 0.786149 0.627451 0.782556
Si Si4 0.120145 0.217108 0.304740
Si Si5 0.764633 0.262492 0.856361
Si Si6 0.259968 0.675629 0.536103
O O1 0.442829 0.098027 0.779841
O O2 0.449458 0.000000 0.820855
O O3 0.455176 0.077779 0.895506
O O4 0.000000 0.062109 0.000000
O O5 0.000061 0.094864 0.129939
O O6 0.252497 0.000000 0.031463
O O7 0.500000 0.075135 0.000000
O O8 0.692312 0.684869 0.843961
O O9 0.015283 0.632823 0.643880
O O10 0.172228 0.216152 0.214801
O O11 0.435722 0.224541 0.219340
O O12 0.924868 0.269835 0.389059
O O13 0.930307 0.173355 0.410414
O O14 0.500000 0.251508 0.000000
O O15 0.500000 0.676440 0.500000
#
# Coordination Sequence:
#
# PCOD9174226 Si02
#       6
#     8   8   8   8   8   8
#     4   8  14  27  49  77 108 141 173 210 265 331
#     4   9  17  31  54  81 116 150 175 216 276 338
#     4  10  18  31  53  79 109 139 185 226 267 317
#     4  10  20  36  55  74  99 142 192 222 272 339
#     4  11  21  35  55  80 108 141 176 243 287 319
#     4  10  19  36  56  72  98 148 191 231 258 316
#
# _framework density 18.708292
#
# number of rings (size 3 to 8) (size 9 to 14) (size 15 to 20)
#    0.000    2.333    3.333    3.500    0.000    0.000 
#    0.000   10.000    3.667    2.000    0.000    0.000 
#    0.000    4.000    0.000    0.000    0.000    3.667 
#
# Total GULP energy -133774.522412 kJ/mol
# GULP energy per Si atom -5573.938434 kJ/mol
# Density = 1.866571 g / cm^3
# Si number density = 18.708292 Si / 1000 Ang^3
#
#
#
# Elastic Constant Matrix: (Units=GPa)
#
#
# Indices 1 2 3 4 5 6 
#
# 1 83.8063 21.5054 38.3107 -0.0011 14.2675 0.0031
# 2 21.5054 31.1701 25.0782 0.0024 10.5760 0.0007
# 3 38.3107 25.0782 129.3240 -0.0067 34.9026 0.0039
# 4 -0.0011 0.0024 -0.0067 18.4532 0.0006 1.4764
# 5 14.2675 10.5760 34.9026 0.0006 36.9324 -0.0028
# 6 0.0031 0.0007 0.0039 1.4764 -0.0028 24.7444
#
#
#
# Elastic Compliance Matrix: (Units=1/GPa)
#
#
# Indices 1 2 3 4 5 6 
#
# 1 0.015434 -0.008102 -0.002709 0.000001 -0.001082 -0.000001
# 2 -0.008102 0.043043 -0.004651 -0.000008 -0.004800 0.000000
# 3 -0.002709 -0.004651 0.011806 0.000005 -0.008779 -0.000003
# 4 0.000001 -0.000008 0.000005 0.054451 -0.000004 -0.003249
# 5 -0.001082 -0.004800 -0.008779 -0.000004 0.037166 0.000006
# 6 -0.000001 0.000000 -0.000003 -0.003249 0.000006 0.040607
#
#
# Mechanical properties :
#
#
# Convention : Reuss Voigt Hill
#
# Bulk Modulus (GPa) = 25.40701 46.00988 35.70845
# Shear Modulus (GPa) = 20.27991 26.65310 23.46650
#
# Velocity S-wave (km/s) = 3.29600 3.77857 3.54550
# Velocity P-wave (km/s) = 5.30046 6.60935 5.99076
#
# Compressibility (1/GPa) = 0.03935921
#
# Stress axis : x y z
#
# Youngs Moduli (GPa) = 64.79275 23.23280 84.70086
#
# Poissons Ratio (x) = 0.18822 0.22945
# Poissons Ratio (y) = 0.52493 0.39396
# Poissons Ratio (z) = 0.17552 0.10806
#
# Static dielectric constant tensor:
#      x y z
#    x 1.680280 0.000000 0.034900 
#    y 0.000000 1.677860 0.000000 
#    z 0.034900 0.000000 1.665390 
# 
# From -- ./inp_files/302713.got.cif
#   From: 2010.05.17/outbox.cif.g08.bks.cpg/sg12_152_cif.got.tgz:302713.got - 2010.06.03 13:09:07.
