data_PCOD9174504
_publ_section_title
;
Structure prediction by ZEFSAII (Michael W. Deem and Ramdas Pophale) SiO2 
 PCOD9174504
Probable space group: C 2/M
;
_chemical_formula_sum "Si O2"
_cell_formula_units_Z 40
_cell_length_a 12.977204
_cell_length_b 17.287090
_cell_length_c 11.327328
_cell_angle_alpha 90.000000
_cell_angle_beta 58.539601
_cell_angle_gamma 90.000000
_cell_volume 2167.604728
_symmetry_space_group_name_H-M "C 2/M"
_symmetry_group_IT_number 12
_symmetry_cell_setting 'monoclinic'
loop_
_space_group_symop_operation_xyz
x,y,z
-x,y,-z
-x,-y,-z
x,-y,z
1/2+x,1/2+y,z
1/2-x,1/2+y,-z
1/2-x,1/2-y,-z
1/2+x,1/2-y,z
loop_
_atom_site_type_symbol
_atom_site_label
_atom_site_fract_x
_atom_site_fract_y
_atom_site_fract_z
Si Si1 0.895350 0.140390 0.148008
Si Si2 0.440336 0.413763 0.379572
Si Si3 0.181465 0.294952 0.150796
Si Si4 0.173428 0.152466 0.330635
Si Si5 0.946383 0.675877 0.156141
O O1 0.899063 0.099833 0.271384
O O2 0.771535 0.141537 0.149601
O O3 0.922830 0.231499 0.157336
O O4 0.000000 0.110614 0.000000
O O5 0.406385 0.500000 0.438622
O O6 0.379751 0.352793 0.505530
O O7 0.584634 0.403198 0.309068
O O8 0.160901 0.232749 0.267128
O O9 0.054625 0.329102 0.184358
O O10 0.250000 0.250000 0.000000
O O11 0.316471 0.137346 0.253790
O O12 0.000000 0.648379 0.000000
#
# Coordination Sequence:
#
# PCOD9174504 Si02
#       5
#     8   8   8   8   8
#     4  10  19  33  56  83 112 141 184 225 285 336
#     4  11  23  40  55  75 110 156 202 232 257 319
#     4  11  17  32  55  89 122 137 166 226 298 349
#     4  10  20  34  55  80 113 147 186 221 280 327
#     4  10  18  31  57  88 116 141 166 232 292 343
#
# _framework density 18.453548999999999
#
# number of rings (size 3 to 8) (size 9 to 14) (size 15 to 20)
#    0.000    1.600    8.000    1.200    0.000    3.600 
#    0.000    0.000    0.000    6.000    0.000    0.000 
#    0.000    0.000    0.000    0.000    0.000    0.000 
#
# Total GULP energy -111428.096284 kJ/mol
# GULP energy per Si atom -5571.404814 kJ/mol
# Density = 1.841155 g / cm^3
# Si number density = 18.453549 Si / 1000 Ang^3
#
#
#
# Elastic Constant Matrix: (Units=GPa)
#
#
# Indices 1 2 3 4 5 6 
#
# 1 204.4741 13.8893 65.8482 0.0000 -8.8477 0.0000
# 2 13.8893 20.7861 30.0858 0.0000 -0.3560 0.0000
# 3 65.8482 30.0858 106.2727 0.0000 1.9882 0.0000
# 4 0.0000 0.0000 0.0000 -1.0329 0.0000 0.1024
# 5 -8.8477 -0.3560 1.9882 0.0000 36.3334 0.0000
# 6 0.0000 0.0000 0.0000 0.1024 0.0000 5.9957
#
#
#
# Elastic Compliance Matrix: (Units=1/GPa)
#
#
# Indices 1 2 3 4 5 6 
#
# 1 0.006296 0.002575 -0.004664 0.000000 0.001814 0.000000
# 2 0.002575 0.082715 -0.025065 0.000000 0.002809 0.000000
# 3 -0.004664 -0.025065 0.019441 0.000000 -0.002445 0.000000
# 4 0.000000 0.000000 0.000000 -0.966537 0.000000 0.016515
# 5 0.001814 0.002809 -0.002445 0.000000 0.028126 0.000000
# 6 0.000000 0.000000 0.000000 0.016515 0.000000 0.166504
#
#
# Mechanical properties :
#
#
# Convention : Reuss Voigt Hill
#
# Bulk Modulus (GPa) = 18.46896 61.24217 39.85557
# Shear Modulus (GPa) = -8.45884 23.03988 7.29052
#
# Velocity S-wave (km/s) = -2.14332 3.53729 1.98980
# Velocity P-wave (km/s) = 1.97611 7.06700 5.18881
#
# Compressibility (1/GPa) = 0.05414489
#
# Stress axis : x y z
#
# Youngs Moduli (GPa) = 158.82673 12.08963 51.43714
#
# Poissons Ratio (x) = -0.03113 0.23990
# Poissons Ratio (y) = -0.40893 1.28925
# Poissons Ratio (z) = 0.74077 0.30302
#
# Static dielectric constant tensor:
#      x y z
#    x 1.681770 0.000000 -0.012530 
#    y 0.000000 1.620960 0.000000 
#    z -0.012530 0.000000 1.649920 
# 
# From -- ./inp_files/146481.got.cif
#   From: 2010.05.17/outbox.cif.g08.bks.cpg/sg12_74_cif.got.tgz:146481.got - 2010.06.03 13:09:07.
