data_PCOD9174218
_publ_section_title
;
Structure prediction by ZEFSAII (Michael W. Deem and Ramdas Pophale) SiO2 
 PCOD9174218
Probable space group: C 2/M
;
_chemical_formula_sum "Si O2"
_cell_formula_units_Z 44
_cell_length_a 11.034454
_cell_length_b 25.095895
_cell_length_c 7.933954
_cell_angle_alpha 90.000000
_cell_angle_beta 126.263760
_cell_angle_gamma 90.000000
_cell_volume 1771.500427
_symmetry_space_group_name_H-M "C 2/M"
_symmetry_group_IT_number 12
_symmetry_cell_setting 'monoclinic'
loop_
_space_group_symop_operation_xyz
x,y,z
-x,y,-z
-x,-y,-z
x,-y,z
1/2+x,1/2+y,z
1/2-x,1/2+y,-z
1/2-x,1/2-y,-z
1/2+x,1/2-y,z
loop_
_atom_site_type_symbol
_atom_site_label
_atom_site_fract_x
_atom_site_fract_y
_atom_site_fract_z
Si Si1 0.527456 0.943429 0.817730
Si Si2 0.600891 0.709965 0.832303
Si Si3 0.298925 0.330465 0.435029
Si Si4 0.034557 0.328357 0.829140
Si Si5 0.500000 0.625676 0.000000
Si Si6 0.685492 0.439712 0.428405
O O1 0.598860 0.886385 0.836328
O O2 0.367762 0.943735 0.587723
O O3 0.605748 0.000000 0.843041
O O4 0.500000 0.943604 0.000000
O O5 0.690609 0.690903 0.743867
O O6 0.423807 0.701043 0.640169
O O7 0.617025 0.773517 0.859471
O O8 0.607518 0.667365 0.988321
O O9 0.135640 0.325617 0.383835
O O10 0.340445 0.393042 0.456701
O O11 0.000000 0.329504 0.000000
O O12 0.397243 0.587386 0.798844
O O13 0.630333 0.500000 0.412466
#
# Coordination Sequence:
#
# PCOD9174218 Si02
#       6
#     8   8   8   8   4   8
#     4   8  15  29  52  80 103 129 177 228 266 315
#     4  10  19  35  50  75 111 147 182 222 272 326
#     4   9  20  34  53  76 109 141 189 230 263 319
#     4  10  18  31  53  79 106 140 179 224 280 324
#     4  10  19  32  48  76 115 148 174 220 270 336
#     4   9  17  32  54  80 108 144 181 222 276 327
#
# _framework density 24.837703000000001
#
# number of rings (size 3 to 8) (size 9 to 14) (size 15 to 20)
#    0.000    2.727    0.909    0.818    0.000    0.727 
#    0.000    8.182    0.000    0.000    0.000    2.545 
#    0.000    3.273    0.000    0.000    0.000    0.182 
#
# Total GULP energy -122710.454112 kJ/mol
# GULP energy per Si atom -5577.747914 kJ/mol
# Density = 2.478117 g / cm^3
# Si number density = 24.837703 Si / 1000 Ang^3
#
#
#
# Elastic Constant Matrix: (Units=GPa)
#
#
# Indices 1 2 3 4 5 6 
#
# 1 34.4403 46.2449 17.7823 0.0000 12.6871 0.0000
# 2 46.2449 328.7136 56.8572 0.0000 -9.1598 0.0000
# 3 17.7823 56.8572 96.1765 0.0000 6.4973 0.0000
# 4 0.0000 0.0000 0.0000 63.0402 0.0000 7.4878
# 5 12.6871 -9.1598 6.4973 0.0000 21.4723 0.0000
# 6 0.0000 0.0000 0.0000 7.4878 0.0000 20.6195
#
#
#
# Elastic Compliance Matrix: (Units=1/GPa)
#
#
# Indices 1 2 3 4 5 6 
#
# 1 0.054084 -0.008070 -0.002897 0.000000 -0.034522 0.000000
# 2 -0.008070 0.004688 -0.001773 0.000000 0.007304 0.000000
# 3 -0.002897 -0.001773 0.012165 0.000000 -0.002726 0.000000
# 4 0.000000 0.000000 0.000000 0.016578 0.000000 -0.006020
# 5 -0.034522 0.007304 -0.002726 0.000000 0.070910 0.000000
# 6 0.000000 0.000000 0.000000 -0.006020 0.000000 0.050684
#
#
# Mechanical properties :
#
#
# Convention : Reuss Voigt Hill
#
# Bulk Modulus (GPa) = 21.99808 77.89990 49.94899
# Shear Modulus (GPa) = 20.02082 43.58945 31.80514
#
# Velocity S-wave (km/s) = 2.84221 4.19378 3.58232
# Velocity P-wave (km/s) = 4.43247 7.40824 6.10446
#
# Compressibility (1/GPa) = 0.04545851
#
# Stress axis : x y z
#
# Youngs Moduli (GPa) = 18.48969 213.32970 82.20157
#
# Poissons Ratio (x) = 1.72151 0.23813
# Poissons Ratio (y) = 0.14921 0.14571
# Poissons Ratio (z) = 0.05356 0.37815
#
# Static dielectric constant tensor:
#      x y z
#    x 2.010740 0.000000 0.066880 
#    y 0.000000 1.970860 0.000000 
#    z 0.066880 0.000000 2.092050 
# 
# From -- ./inp_files/65551.got.cif
#   From: 2010.05.17/outbox.cif.g08.bks.cpg/sg12_33_cif.got.tgz:65551.got - 2010.06.03 13:09:07.
