data_PCOD9174860
_publ_section_title
;
Structure prediction by ZEFSAII (Michael W. Deem and Ramdas Pophale) SiO2 
 PCOD9174860
Probable space group: C 2/M
;
_chemical_formula_sum "Si O2"
_cell_formula_units_Z 60
_cell_length_a 28.407412
_cell_length_b 19.698709
_cell_length_c 10.326679
_cell_angle_alpha 90.000000
_cell_angle_beta 30.922422
_cell_angle_gamma 90.000000
_cell_volume 2969.540803
_symmetry_space_group_name_H-M "C 2/M"
_symmetry_group_IT_number 12
_symmetry_cell_setting 'monoclinic'
loop_
_space_group_symop_operation_xyz
x,y,z
-x,y,-z
-x,-y,-z
x,-y,z
1/2+x,1/2+y,z
1/2-x,1/2+y,-z
1/2-x,1/2-y,-z
1/2+x,1/2-y,z
loop_
_atom_site_type_symbol
_atom_site_label
_atom_site_fract_x
_atom_site_fract_y
_atom_site_fract_z
Si Si1 0.692728 0.577853 0.717898
Si Si2 0.203963 0.080613 0.390410
Si Si3 0.559780 0.760606 0.059032
Si Si4 0.001395 0.110256 0.850273
Si Si5 0.500000 0.131133 0.000000
Si Si6 0.845915 0.421211 0.549090
Si Si7 0.623672 0.792470 0.371316
Si Si8 0.213806 0.284673 0.886321
O O1 0.722326 0.500000 0.636432
O O2 0.698496 0.603116 0.555866
O O3 0.760838 0.606000 0.664025
O O4 0.587197 0.580209 0.010850
O O5 0.272162 0.134612 0.166498
O O6 0.103363 0.093312 0.565050
O O7 0.225001 0.000000 0.332806
O O8 0.523469 0.689645 0.089085
O O9 0.558718 0.818678 0.952881
O O10 0.482084 0.780041 0.347355
O O11 0.657402 0.755931 0.898061
O O12 0.000000 0.082318 0.000000
O O13 0.565871 0.088237 0.752064
O O14 0.834057 0.500000 0.611937
O O15 0.856833 0.371200 0.643891
O O16 0.687573 0.749516 0.320082
O O17 0.655007 0.772594 0.154693
#
# Coordination Sequence:
#
# PCOD9174860 Si02
#       8
#     8   8   8   8   4   8   8   8
#     4   9  18  31  52  82 111 145 179 218 285 346
#     4  10  20  35  56  84 117 150 185 230 282 338
#     4  11  20  36  57  84 113 146 186 233 287 334
#     4  10  18  32  53  84 116 144 178 228 280 340
#     4  10  21  34  54  86 115 140 184 228 281 348
#     4  10  20  36  56  78 111 148 186 233 281 339
#     4  10  23  39  54  82 107 148 201 234 283 327
#     4  11  22  38  59  79 112 152 191 245 275 330
#
# _framework density 20.205143
#
# number of rings (size 3 to 8) (size 9 to 14) (size 15 to 20)
#    0.000    1.867    2.000    2.600    0.000    2.133 
#    0.000    6.667    0.000    4.000    0.000    4.667 
#    0.000    0.000    0.000    0.000    0.000    0.000 
#
# Total GULP energy -167298.935242 kJ/mol
# GULP energy per Si atom -5576.631175 kJ/mol
# Density = 2.015916 g / cm^3
# Si number density = 20.205143 Si / 1000 Ang^3
#
#
#
# Elastic Constant Matrix: (Units=GPa)
#
#
# Indices 1 2 3 4 5 6 
#
# 1 49.1359 -0.0604 -3.4984 0.0000 -16.7458 0.0000
# 2 -0.0604 86.6777 -8.6262 0.0000 -5.8071 0.0000
# 3 -3.4984 -8.6262 17.9173 0.0000 -7.2674 0.0000
# 4 0.0000 0.0000 0.0000 22.6038 0.0000 -5.2000
# 5 -16.7458 -5.8071 -7.2674 0.0000 22.1750 0.0000
# 6 0.0000 0.0000 0.0000 -5.2000 0.0000 18.7878
#
#
#
# Elastic Compliance Matrix: (Units=1/GPa)
#
#
# Indices 1 2 3 4 5 6 
#
# 1 0.033479 0.004521 0.022430 0.000000 0.033818 0.000000
# 2 0.004521 0.013428 0.011716 0.000000 0.010770 0.000000
# 3 0.022430 0.011716 0.085284 0.000000 0.047957 0.000000
# 4 0.000000 0.000000 0.000000 0.047249 0.000000 0.013077
# 5 0.033818 0.010770 0.047957 0.000000 0.089171 0.000000
# 6 0.000000 0.000000 0.000000 0.013077 0.000000 0.056845
#
#
# Mechanical properties :
#
#
# Convention : Reuss Voigt Hill
#
# Bulk Modulus (GPa) = 4.77268 14.37345 9.57307
# Shear Modulus (GPa) = 15.72512 23.77439 19.74976
#
# Velocity S-wave (km/s) = 2.79278 3.43396 3.12983
# Velocity P-wave (km/s) = 3.57306 4.78037 4.22011
#
# Compressibility (1/GPa) = 0.20952593
#
# Stress axis : x y z
#
# Youngs Moduli (GPa) = 29.86907 74.47293 11.72556
#
# Poissons Ratio (x) = -0.33671 -0.26301
# Poissons Ratio (y) = -0.13505 -0.13738
# Poissons Ratio (z) = -0.66997 -0.87253
#
# Static dielectric constant tensor:
#      x y z
#    x 1.735640 0.000000 -0.009630 
#    y 0.000000 1.731680 0.000000 
#    z -0.009630 0.000000 1.720810 
# 
# From -- ./inp_files/190218.got.cif
#   From: 2010.05.17/outbox.cif.g08.bks.cpg/sg12_96_cif.got.tgz:190218.got - 2010.06.03 13:09:07.
