data_PCOD9174534
_publ_section_title
;
Structure prediction by ZEFSAII (Michael W. Deem and Ramdas Pophale) SiO2 
 PCOD9174534
Probable space group: C 2/M
;
_chemical_formula_sum "Si O2"
_cell_formula_units_Z 56
_cell_length_a 22.354032
_cell_length_b 18.007669
_cell_length_c 17.879893
_cell_angle_alpha 90.000000
_cell_angle_beta 159.218607
_cell_angle_gamma 90.000000
_cell_volume 2553.677217
_symmetry_space_group_name_H-M "C 2/M"
_symmetry_group_IT_number 12
_symmetry_cell_setting 'monoclinic'
loop_
_space_group_symop_operation_xyz
x,y,z
-x,y,-z
-x,-y,-z
x,-y,z
1/2+x,1/2+y,z
1/2-x,1/2+y,-z
1/2-x,1/2-y,-z
1/2+x,1/2-y,z
loop_
_atom_site_type_symbol
_atom_site_label
_atom_site_fract_x
_atom_site_fract_y
_atom_site_fract_z
Si Si1 0.495656 0.150614 0.181491
Si Si2 0.749945 0.302186 0.645098
Si Si3 0.653930 0.833321 0.761787
Si Si4 0.176509 0.168042 0.727682
Si Si5 0.300494 0.915917 0.326071
Si Si6 0.034363 0.820901 0.794488
Si Si7 0.217295 0.132806 0.376436
O O1 0.612995 0.154971 0.244605
O O2 0.477925 0.235516 0.191265
O O3 0.608845 0.112041 0.377274
O O4 0.311348 0.127358 0.938052
O O5 0.762832 0.312299 0.748506
O O6 0.565740 0.326883 0.399496
O O7 0.768343 0.216737 0.639977
O O8 0.632195 0.747322 0.714911
O O9 0.477688 0.876336 0.557102
O O10 0.755200 0.868356 0.810068
O O11 0.769733 0.840836 0.970025
O O12 0.000000 0.130285 0.500000
O O13 0.187778 0.913903 0.267965
O O14 0.327531 0.000000 0.334415
O O15 0.924792 0.866492 0.726606
#
# Coordination Sequence:
#
# PCOD9174534 Si02
#       7
#     8   8   8   8   8   8   8
#     4   8  17  27  44  65  91 121 144 181 231 282
#     4   9  15  29  44  66  93 119 147 176 231 284
#     4  10  18  32  42  62  90 124 156 189 229 256
#     4  11  17  25  42  69  95 122 150 177 215 274
#     4  11  21  33  47  60  88 129 165 195 226 257
#     4   8  17  28  48  64  85 119 149 187 230 279
#     4   9  16  32  45  64  88 115 156 193 228 264
#
# _framework density 21.929162000000002
#
# number of rings (size 3 to 8) (size 9 to 14) (size 15 to 20)
#    0.000    2.571    2.857    3.000    0.000    1.714 
#    0.000    6.429    0.000    0.000    0.000    0.000 
#    0.000   15.429    0.000    0.000    0.000    0.000 
#
# Total GULP energy -156215.018008 kJ/mol
# GULP energy per Si atom -5579.107786 kJ/mol
# Density = 2.187925 g / cm^3
# Si number density = 21.929162 Si / 1000 Ang^3
#
#
#
# Elastic Constant Matrix: (Units=GPa)
#
#
# Indices 1 2 3 4 5 6 
#
# 1 89.2178 7.8161 -0.9752 0.0002 -12.3092 0.0001
# 2 7.8161 9.5736 -2.9907 0.0002 1.5840 0.0001
# 3 -0.9752 -2.9907 130.6558 0.0006 -15.5882 0.0004
# 4 0.0002 0.0002 0.0006 -0.9372 0.0003 1.3258
# 5 -12.3092 1.5840 -15.5882 0.0003 20.0063 0.0001
# 6 0.0001 0.0001 0.0004 1.3258 0.0001 6.8464
#
#
#
# Elastic Compliance Matrix: (Units=1/GPa)
#
#
# Indices 1 2 3 4 5 6 
#
# 1 0.013738 -0.012589 0.001038 0.000002 0.010258 -0.000001
# 2 -0.012589 0.117668 0.000622 0.000017 -0.016578 -0.000005
# 3 0.001038 0.000622 0.008540 0.000006 0.007244 -0.000002
# 4 0.000002 0.000017 0.000006 -0.837585 0.000016 0.162198
# 5 0.010258 -0.016578 0.007244 0.000016 0.063252 -0.000005
# 6 -0.000001 -0.000005 -0.000002 0.162198 -0.000005 0.114653
#
#
# Mechanical properties :
#
#
# Convention : Reuss Voigt Hill
#
# Bulk Modulus (GPa) = 8.46824 26.34975 17.40899
# Shear Modulus (GPa) = -10.90483 20.22290 4.65904
#
# Velocity S-wave (km/s) = -2.23239 3.04006 1.45918
# Velocity P-wave (km/s) = 1.66575 4.93604 3.28556
#
# Compressibility (1/GPa) = 0.11808832
#
# Stress axis : x y z
#
# Youngs Moduli (GPa) = 72.79050 8.49845 117.09752
#
# Poissons Ratio (x) = 0.10699 -0.12158
# Poissons Ratio (y) = 0.91635 -0.07279
# Poissons Ratio (z) = -0.07558 -0.00528
#
# Static dielectric constant tensor:
#      x y z
#    x 1.867270 0.000000 0.046030 
#    y 0.000000 1.765120 0.000000 
#    z 0.046030 0.000000 1.880130 
# 
# From -- ./inp_files/76838.got.cif
#   From: 2010.05.17/outbox.cif.g08.bks.cpg/sg12_39_cif.got.tgz:76838.got - 2010.06.03 13:09:07.
