data_PCOD9174237
_publ_section_title
;
Structure prediction by ZEFSAII (Michael W. Deem and Ramdas Pophale) SiO2 
 PCOD9174237
Probable space group: C 2/M
;
_chemical_formula_sum "Si O2"
_cell_formula_units_Z 56
_cell_length_a 26.233890
_cell_length_b 7.448547
_cell_length_c 13.915716
_cell_angle_alpha 90.000000
_cell_angle_beta 66.314755
_cell_angle_gamma 90.000000
_cell_volume 2490.143430
_symmetry_space_group_name_H-M "C 2/M"
_symmetry_group_IT_number 12
_symmetry_cell_setting 'monoclinic'
loop_
_space_group_symop_operation_xyz
x,y,z
-x,y,-z
-x,-y,-z
x,-y,z
1/2+x,1/2+y,z
1/2-x,1/2+y,-z
1/2-x,1/2-y,-z
1/2+x,1/2-y,z
loop_
_atom_site_type_symbol
_atom_site_label
_atom_site_fract_x
_atom_site_fract_y
_atom_site_fract_z
Si Si1 0.861612 0.219886 0.774624
Si Si2 0.937819 0.780790 0.075179
Si Si3 0.576842 0.708071 0.698568
Si Si4 0.300329 0.212637 0.389995
Si Si5 0.339830 0.716628 0.008640
Si Si6 0.249146 0.210974 0.232118
Si Si7 0.485144 0.280109 0.618836
O O1 0.812692 0.281942 0.740427
O O2 0.923427 0.275178 0.697767
O O3 0.861135 0.000000 0.774772
O O4 0.846276 0.277731 0.894398
O O5 0.925016 0.715903 0.192320
O O6 0.891894 0.720759 0.033646
O O7 0.935598 0.000000 0.075722
O O8 0.000000 0.728416 0.000000
O O9 0.560697 0.500000 0.721699
O O10 0.640803 0.714459 0.617970
O O11 0.532349 0.783089 0.657584
O O12 0.250000 0.250000 0.500000
O O13 0.283056 0.285862 0.297553
O O14 0.308387 0.000000 0.376707
O O15 0.340572 0.500000 0.006141
O O16 0.284637 0.770278 0.107928
O O17 0.242849 0.000000 0.257358
O O18 0.500000 0.223095 0.500000
O O19 0.485506 0.500000 0.618288
#
# Coordination Sequence:
#
# PCOD9174237 Si02
#       7
#     8   8   8   8   8   8   8
#     4   9  18  32  51  80 112 143 181 226 269 315
#     4   9  16  27  48  78 110 141 174 217 266 315
#     4  10  19  34  57  84 111 139 179 229 277 327
#     4  11  24  39  58  82 110 145 185 229 276 330
#     4  10  18  31  53  80 111 141 177 222 269 323
#     4  10  21  36  55  79 111 144 178 222 272 324
#     4   9  18  31  53  82 109 140 183 230 273 319
#
# _framework density 22.488665000000001
#
# number of rings (size 3 to 8) (size 9 to 14) (size 15 to 20)
#    0.000    2.286    1.429    1.714    2.000    4.000 
#    0.000    0.000    0.000    5.571    0.000    0.000 
#    0.000    0.000    0.000    0.000    0.000    0.000 
#
# Total GULP energy -156485.465546 kJ/mol
# GULP energy per Si atom -5588.766627 kJ/mol
# Density = 2.243748 g / cm^3
# Si number density = 22.488665 Si / 1000 Ang^3
#
#
#
# Elastic Constant Matrix: (Units=GPa)
#
#
# Indices 1 2 3 4 5 6 
#
# 1 179.2573 1.2230 41.2354 0.0000 -14.7059 0.0000
# 2 1.2230 68.2605 -11.4677 0.0000 10.6549 0.0000
# 3 41.2354 -11.4677 88.0813 0.0000 -13.5784 0.0000
# 4 0.0000 0.0000 0.0000 10.6686 0.0000 -7.1002
# 5 -14.7059 10.6549 -13.5784 0.0000 35.8896 0.0000
# 6 0.0000 0.0000 0.0000 -7.1002 0.0000 0.0050
#
#
#
# Elastic Compliance Matrix: (Units=1/GPa)
#
#
# Indices 1 2 3 4 5 6 
#
# 1 0.006382 -0.000870 -0.002823 0.000000 0.001806 0.000000
# 2 -0.000870 0.015639 0.001777 0.000000 -0.004328 0.000000
# 3 -0.002823 0.001777 0.013430 0.000000 0.003397 0.000000
# 4 0.000000 0.000000 0.000000 -0.000099 0.000000 -0.140990
# 5 0.001806 -0.004328 0.003397 0.000000 0.031173 0.000000
# 6 0.000000 0.000000 0.000000 -0.140990 0.000000 -0.211849
#
#
# Mechanical properties :
#
#
# Convention : Reuss Voigt Hill
#
# Bulk Modulus (GPa) = 31.62792 44.17562 37.90177
# Shear Modulus (GPa) = -38.18195 29.61986 -4.28104
#
# Velocity S-wave (km/s) = -4.12494 3.63313 -1.38122
# Velocity P-wave (km/s) = 2.93128 6.10620 3.78769
#
# Compressibility (1/GPa) = 0.03161763
#
# Stress axis : x y z
#
# Youngs Moduli (GPa) = 156.69184 63.94148 74.46262
#
# Poissons Ratio (x) = 0.05565 0.21019
# Poissons Ratio (y) = 0.13638 -0.13228
# Poissons Ratio (z) = 0.44230 -0.11359
#
# Static dielectric constant tensor:
#      x y z
#    x 1.837680 0.000000 0.010000 
#    y 0.000000 1.878420 0.000000 
#    z 0.010000 0.000000 1.782760 
# 
# From -- ./inp_files/181147.got.cif
#   From: 2010.05.17/outbox.cif.g08.bks.cpg/sg12_91_cif.got.tgz:181147.got - 2010.06.03 13:09:07.
