data_PCOD9174610
_publ_section_title
;
Structure prediction by ZEFSAII (Michael W. Deem and Ramdas Pophale) SiO2 
 PCOD9174610
Probable space group: C 2/M
;
_chemical_formula_sum "Si O2"
_cell_formula_units_Z 60
_cell_length_a 17.013449
_cell_length_b 21.607227
_cell_length_c 23.530497
_cell_angle_alpha 90.000000
_cell_angle_beta 154.620453
_cell_angle_gamma 90.000000
_cell_volume 3707.553899
_symmetry_space_group_name_H-M "C 2/M"
_symmetry_group_IT_number 12
_symmetry_cell_setting 'monoclinic'
loop_
_space_group_symop_operation_xyz
x,y,z
-x,y,-z
-x,-y,-z
x,-y,z
1/2+x,1/2+y,z
1/2-x,1/2+y,-z
1/2-x,1/2-y,-z
1/2+x,1/2-y,z
loop_
_atom_site_type_symbol
_atom_site_label
_atom_site_fract_x
_atom_site_fract_y
_atom_site_fract_z
Si Si1 0.393787 0.572171 0.251232
Si Si2 0.630166 0.322132 0.365105
Si Si3 0.495465 0.245687 0.606406
Si Si4 0.000000 0.831697 0.500000
Si Si5 0.233858 0.069390 0.706435
Si Si6 0.428371 0.268467 0.891244
Si Si7 0.382967 0.308729 0.094175
Si Si8 0.095902 0.630619 0.978679
O O1 0.385985 0.500000 0.230442
O O2 0.566470 0.608407 0.338136
O O3 0.386213 0.576037 0.314480
O O4 0.215213 0.607920 0.110149
O O5 0.549695 0.281601 0.364670
O O6 0.846139 0.308871 0.503621
O O7 0.528638 0.301738 0.240707
O O8 0.467630 0.289933 0.533905
O O9 0.709099 0.229165 0.746366
O O10 0.169864 0.877343 0.622373
O O11 0.212357 0.000000 0.670030
O O12 0.440410 0.082414 0.860726
O O13 0.511366 0.311495 0.896089
O O14 0.500000 0.285967 0.000000
O O15 0.499977 0.197496 0.926988
O O16 0.244304 0.361566 0.025064
O O17 0.250000 0.250000 0.000000
#
# Coordination Sequence:
#
# PCOD9174610 Si02
#       8
#     8   8   8   4   8   8   8   8
#     4  10  19  34  54  76 105 142 175 214 253 300
#     4  10  20  35  48  76 103 137 177 213 259 310
#     4  11  21  32  52  71 105 142 169 216 262 308
#     4  12  21  34  46  72 103 148 172 204 256 306
#     4  11  21  32  48  73 106 142 175 202 247 313
#     4  11  19  33  51  75 103 130 167 213 263 315
#     4   9  19  30  48  72 101 133 166 213 254 307
#     4  10  18  32  50  74 103 132 173 212 253 304
#
# _framework density 16.183177000000001
#
# number of rings (size 3 to 8) (size 9 to 14) (size 15 to 20)
#    0.000    1.600    2.667    5.000    1.867    1.067 
#    0.000    0.000    0.000    0.000    0.000   12.600 
#    0.000   13.867    0.000    0.000    0.000    0.000 
#
# Total GULP energy -167305.897668 kJ/mol
# GULP energy per Si atom -5576.863256 kJ/mol
# Density = 1.614634 g / cm^3
# Si number density = 16.183177 Si / 1000 Ang^3
#
#
#
# Elastic Constant Matrix: (Units=GPa)
#
#
# Indices 1 2 3 4 5 6 
#
# 1 106.3534 22.5444 49.7286 0.0007 -1.5186 -0.0012
# 2 22.5444 45.6340 30.6761 0.0207 5.3222 -0.0031
# 3 49.7286 30.6761 97.6581 0.0445 8.7736 -0.0116
# 4 0.0007 0.0207 0.0445 9.6838 0.0080 11.7038
# 5 -1.5186 5.3222 8.7736 0.0080 30.9712 -0.0025
# 6 -0.0012 -0.0031 -0.0116 11.7038 -0.0025 6.7619
#
#
#
# Elastic Compliance Matrix: (Units=1/GPa)
#
#
# Indices 1 2 3 4 5 6 
#
# 1 0.012771 -0.002653 -0.005918 -0.000036 0.002759 0.000054
# 2 -0.002653 0.028500 -0.007336 0.000021 -0.002949 -0.000038
# 3 -0.005918 -0.007336 0.015874 0.000073 -0.003526 -0.000105
# 4 -0.000036 0.000021 0.000073 -0.094574 0.000011 0.163693
# 5 0.002759 -0.002949 -0.003526 0.000011 0.033929 -0.000014
# 6 0.000054 -0.000038 -0.000105 0.163693 -0.000014 -0.135440
#
#
# Mechanical properties :
#
#
# Convention : Reuss Voigt Hill
#
# Bulk Modulus (GPa) = 39.47695 50.61599 45.04647
# Shear Modulus (GPa) = -50.66843 19.26313 -15.70265
#
# Velocity S-wave (km/s) = -5.60154 3.45384 -3.11835
# Velocity P-wave (km/s) = 4.17009 6.87388 3.86397
#
# Compressibility (1/GPa) = 0.02533124
#
# Stress axis : x y z
#
# Youngs Moduli (GPa) = 78.29982 35.08799 62.99427
#
# Poissons Ratio (x) = 0.09309 0.37279
# Poissons Ratio (y) = 0.20773 0.46215
# Poissons Ratio (z) = 0.46336 0.25742
#
# Static dielectric constant tensor:
#      x y z
#    x 1.560740 0.000000 -0.006380 
#    y 0.000000 1.533280 -0.000010 
#    z -0.006380 -0.000010 1.567260 
# 
# From -- ./inp_files/312370.got.cif
#   From: 2010.05.17/outbox.cif.g08.bks.cpg/sg12_157_cif.got.tgz:312370.got - 2010.06.03 13:09:07.
