data_PCOD9174922
_publ_section_title
;
Structure prediction by ZEFSAII (Michael W. Deem and Ramdas Pophale) SiO2 
 PCOD9174922
Probable space group: C 2/M
;
_chemical_formula_sum "Si O2"
_cell_formula_units_Z 64
_cell_length_a 21.041754
_cell_length_b 7.628431
_cell_length_c 21.937128
_cell_angle_alpha 90.000000
_cell_angle_beta 130.326315
_cell_angle_gamma 90.000000
_cell_volume 2684.499987
_symmetry_space_group_name_H-M "C 2/M"
_symmetry_group_IT_number 12
_symmetry_cell_setting 'monoclinic'
loop_
_space_group_symop_operation_xyz
x,y,z
-x,y,-z
-x,-y,-z
x,-y,z
1/2+x,1/2+y,z
1/2-x,1/2+y,-z
1/2-x,1/2-y,-z
1/2+x,1/2-y,z
loop_
_atom_site_type_symbol
_atom_site_label
_atom_site_fract_x
_atom_site_fract_y
_atom_site_fract_z
Si Si1 0.572644 0.709989 0.353857
Si Si2 0.596230 0.285374 0.555113
Si Si3 0.328706 0.288608 0.767089
Si Si4 0.166937 0.292660 0.985341
Si Si5 0.752519 0.297692 0.587317
Si Si6 0.750953 0.203163 0.155268
Si Si7 0.005169 0.206321 0.182680
Si Si8 0.590397 0.285210 0.685739
O O1 0.567439 0.500000 0.353842
O O2 0.672122 0.741772 0.410638
O O3 0.531212 0.778911 0.264946
O O4 0.504895 0.770960 0.361786
O O5 0.500000 0.232097 0.500000
O O6 0.596280 0.500000 0.550496
O O7 0.659681 0.220318 0.542238
O O8 0.625156 0.233855 0.641146
O O9 0.320780 0.500000 0.764365
O O10 0.290509 0.225151 0.679180
O O11 0.289180 0.212476 0.803173
O O12 0.425731 0.234868 0.822838
O O13 0.153572 0.500000 0.981064
O O14 0.086880 0.226746 0.899523
O O15 0.250000 0.250000 0.000000
O O16 0.188863 0.220398 0.066309
O O17 0.740002 0.500000 0.565297
O O18 0.844471 0.276536 0.222380
O O19 0.763298 0.000000 0.145313
O O20 0.019312 0.000000 0.199431
O O21 0.591226 0.500000 0.686435
#
# Coordination Sequence:
#
# PCOD9174922 Si02
#       8
#     8   8   8   8   8   8   8   8
#     4   9  18  33  55  78 104 143 184 220 263 318
#     4   9  17  30  53  83 108 137 178 219 261 314
#     4  10  20  34  54  79 104 136 175 217 264 319
#     4  11  23  36  52  73 102 138 178 223 270 321
#     4  10  18  32  54  79 110 141 175 221 264 314
#     4  10  20  35  54  76 101 135 179 221 264 312
#     4   9  19  35  51  71 103 138 176 217 263 318
#     4   9  16  31  54  77 103 137 179 221 260 311
#
# _framework density 23.840567
#
# number of rings (size 3 to 8) (size 9 to 14) (size 15 to 20)
#    0.000    2.375    1.250    2.625    0.000    6.000 
#    0.000    3.750    0.000    1.500    0.000    0.000 
#    0.000    0.000    0.000    0.000    0.000    0.000 
#
# Total GULP energy -178503.377275 kJ/mol
# GULP energy per Si atom -5578.230540 kJ/mol
# Density = 2.378630 g / cm^3
# Si number density = 23.840567 Si / 1000 Ang^3
#
#
#
# Elastic Constant Matrix: (Units=GPa)
#
#
# Indices 1 2 3 4 5 6 
#
# 1 176.4197 -6.4412 33.9365 0.0000 24.1908 0.0000
# 2 -6.4412 43.5119 -10.1797 0.0000 -2.6591 0.0000
# 3 33.9365 -10.1797 80.9330 0.0000 22.5484 0.0000
# 4 0.0000 0.0000 0.0000 11.4249 0.0000 6.8554
# 5 24.1908 -2.6591 22.5484 0.0000 45.2196 0.0000
# 6 0.0000 0.0000 0.0000 6.8554 0.0000 24.3637
#
#
#
# Elastic Compliance Matrix: (Units=1/GPa)
#
#
# Indices 1 2 3 4 5 6 
#
# 1 0.006390 0.000339 -0.001963 0.000000 -0.002420 0.000000
# 2 0.000339 0.023697 0.002904 0.000000 -0.000236 0.000000
# 3 -0.001963 0.002904 0.015334 0.000000 -0.006426 0.000000
# 4 0.000000 0.000000 0.000000 0.105308 0.000000 -0.029631
# 5 -0.002420 -0.000236 -0.006426 0.000000 0.026599 0.000000
# 6 0.000000 0.000000 0.000000 -0.029631 0.000000 0.049382
#
#
# Mechanical properties :
#
#
# Convention : Reuss Voigt Hill
#
# Bulk Modulus (GPa) = 20.84077 37.27734 29.05905
# Shear Modulus (GPa) = 20.82078 35.10490 27.96284
#
# Velocity S-wave (km/s) = 2.95843 3.84146 3.42849
# Velocity P-wave (km/s) = 4.52000 5.94523 5.28092
#
# Compressibility (1/GPa) = 0.04798288
#
# Stress axis : x y z
#
# Youngs Moduli (GPa) = 156.49406 42.19872 65.21293
#
# Poissons Ratio (x) = -0.01430 0.12799
# Poissons Ratio (y) = -0.05303 -0.18940
# Poissons Ratio (z) = 0.30714 -0.12256
#
# Static dielectric constant tensor:
#      x y z
#    x 1.919580 0.000000 0.010610 
#    y 0.000000 1.926910 0.000000 
#    z 0.010610 0.000000 1.975770 
# 
# From -- ./inp_files/346217.got.cif
#   From: 2010.05.17/outbox.cif.g08.bks.cpg/sg12_174_cif.got.tgz:346217.got - 2010.06.03 13:09:07.
