data_PCOD9174031
_publ_section_title
;
Structure prediction by ZEFSAII (Michael W. Deem and Ramdas Pophale) SiO2 
 PCOD9174031
Probable space group: C 2/M
;
_chemical_formula_sum "Si O2"
_cell_formula_units_Z 64
_cell_length_a 31.686564
_cell_length_b 13.203162
_cell_length_c 19.848377
_cell_angle_alpha 90.000000
_cell_angle_beta 151.399956
_cell_angle_gamma 90.000000
_cell_volume 3974.978215
_symmetry_space_group_name_H-M "C 2/M"
_symmetry_group_IT_number 12
_symmetry_cell_setting 'monoclinic'
loop_
_space_group_symop_operation_xyz
x,y,z
-x,y,-z
-x,-y,-z
x,-y,z
1/2+x,1/2+y,z
1/2-x,1/2+y,-z
1/2-x,1/2-y,-z
1/2+x,1/2-y,z
loop_
_atom_site_type_symbol
_atom_site_label
_atom_site_fract_x
_atom_site_fract_y
_atom_site_fract_z
Si Si1 0.018419 0.879856 0.227676
Si Si2 0.582840 0.257706 0.445700
Si Si3 0.689711 0.772276 0.851266
Si Si4 0.023668 0.385189 0.608854
Si Si5 0.309048 0.615926 0.917522
Si Si6 0.252639 0.381170 0.683407
Si Si7 0.529556 0.612004 0.618287
Si Si8 0.073814 0.877885 0.155476
O O1 0.055898 0.805756 0.336985
O O2 0.054660 0.848024 0.205166
O O3 0.039764 0.000000 0.268979
O O4 0.912306 0.872262 0.077905
O O5 0.523231 0.169764 0.395199
O O6 0.677258 0.203878 0.574788
O O7 0.554646 0.346241 0.458463
O O8 0.626780 0.870571 0.766230
O O9 0.752344 0.798751 0.876138
O O10 0.615703 0.683833 0.743094
O O11 0.750000 0.750000 0.000000
O O12 0.994059 0.500000 0.566218
O O13 0.000000 0.343953 0.500000
O O14 0.283948 0.500000 0.902412
O O15 0.293215 0.622031 0.815412
O O16 0.223886 0.500000 0.632652
O O17 0.329609 0.356738 0.738124
O O18 0.500000 0.607225 0.500000
O O19 0.552622 0.500000 0.675852
O O20 0.065174 0.000000 0.143327
O O21 0.000000 0.838296 0.000000
#
# Coordination Sequence:
#
# PCOD9174031 Si02
#       8
#     8   8   8   8   8   8   8   8
#     4  10  20  33  51  74 105 137 164 203 254 304
#     4  11  20  31  48  76 106 129 163 207 251 299
#     4  11  21  31  47  73 101 128 162 210 252 293
#     4  10  20  35  52  69  98 137 169 203 251 301
#     4  10  18  31  52  75  97 127 168 210 253 297
#     4  10  19  31  53  79 101 126 162 208 251 301
#     4  10  21  37  52  65  95 141 178 205 236 285
#     4   9  16  32  53  76 103 130 160 200 256 309
#
# _framework density 16.100717
#
# number of rings (size 3 to 8) (size 9 to 14) (size 15 to 20)
#    0.000    1.875    1.250    5.625    0.000    4.500 
#    0.000    0.000    0.000    0.000    0.000    0.000 
#    0.000    4.000    0.000    0.000    0.000    0.000 
#
# Total GULP energy -178142.041905 kJ/mol
# GULP energy per Si atom -5566.938810 kJ/mol
# Density = 1.606407 g / cm^3
# Si number density = 16.100717 Si / 1000 Ang^3
#
#
#
# Elastic Constant Matrix: (Units=GPa)
#
#
# Indices 1 2 3 4 5 6 
#
# 1 101.6803 25.7692 25.1192 0.0000 -3.9827 0.0000
# 2 25.7692 72.8214 24.8065 0.0000 -0.2173 0.0000
# 3 25.1192 24.8065 79.9017 0.0000 -6.8174 0.0000
# 4 0.0000 0.0000 0.0000 20.9993 0.0000 0.0455
# 5 -3.9827 -0.2173 -6.8174 0.0000 22.5461 0.0000
# 6 0.0000 0.0000 0.0000 0.0455 0.0000 27.2251
#
#
#
# Elastic Compliance Matrix: (Units=1/GPa)
#
#
# Indices 1 2 3 4 5 6 
#
# 1 0.011291 -0.003151 -0.002467 0.000000 0.001218 0.000000
# 2 -0.003151 0.016275 -0.004205 0.000000 -0.001671 0.000000
# 3 -0.002467 -0.004205 0.014941 0.000000 0.004042 0.000000
# 4 0.000000 0.000000 0.000000 0.047621 0.000000 -0.000080
# 5 0.001218 -0.001671 0.004042 0.000000 0.045775 0.000000
# 6 0.000000 0.000000 0.000000 -0.000080 0.000000 0.036731
#
#
# Mechanical properties :
#
#
# Convention : Reuss Voigt Hill
#
# Bulk Modulus (GPa) = 43.74393 45.08812 44.41602
# Shear Modulus (GPa) = 25.01260 26.06800 25.54030
#
# Velocity S-wave (km/s) = 3.94573 4.02812 3.98714
# Velocity P-wave (km/s) = 6.92722 7.04974 6.98875
#
# Compressibility (1/GPa) = 0.02286031
#
# Stress axis : x y z
#
# Youngs Moduli (GPa) = 88.56925 61.44517 66.92897
#
# Poissons Ratio (x) = 0.19363 0.16513
# Poissons Ratio (y) = 0.27911 0.28141
# Poissons Ratio (z) = 0.21852 0.25835
#
# Static dielectric constant tensor:
#      x y z
#    x 1.559870 0.000000 0.007890 
#    y 0.000000 1.566490 0.000000 
#    z 0.007890 0.000000 1.536290 
# 
# From -- ./inp_files/296712.got.cif
#   From: 2010.05.17/outbox.cif.g08.bks.cpg/sg12_149_cif.got.tgz:296712.got - 2010.06.03 13:09:07.
