data_PCOD9174017
_publ_section_title
;
Structure prediction by ZEFSAII (Michael W. Deem and Ramdas Pophale) SiO2 
 PCOD9174017
Probable space group: C 2/M
;
_chemical_formula_sum "Si O2"
_cell_formula_units_Z 64
_cell_length_a 11.980526
_cell_length_b 14.427365
_cell_length_c 25.991992
_cell_angle_alpha 90.000000
_cell_angle_beta 39.893487
_cell_angle_gamma 90.000000
_cell_volume 2881.416110
_symmetry_space_group_name_H-M "C 2/M"
_symmetry_group_IT_number 12
_symmetry_cell_setting 'monoclinic'
loop_
_space_group_symop_operation_xyz
x,y,z
-x,y,-z
-x,-y,-z
x,-y,z
1/2+x,1/2+y,z
1/2-x,1/2+y,-z
1/2-x,1/2-y,-z
1/2+x,1/2-y,z
loop_
_atom_site_type_symbol
_atom_site_label
_atom_site_fract_x
_atom_site_fract_y
_atom_site_fract_z
Si Si1 0.084111 0.606537 0.549165
Si Si2 0.751491 0.398173 0.735265
Si Si3 0.037399 0.251875 0.139473
Si Si4 0.666465 0.603864 0.337633
Si Si5 0.295945 0.101782 0.064346
Si Si6 0.534003 0.830946 0.246265
Si Si7 0.731272 0.347769 0.199969
Si Si8 0.884288 0.805498 0.495179
O O1 0.117041 0.500000 0.520330
O O2 0.130016 0.693833 0.496182
O O3 0.210255 0.635998 0.551444
O O4 0.889284 0.611340 0.640109
O O5 0.669392 0.500000 0.760769
O O6 0.612452 0.316263 0.783980
O O7 0.858133 0.392767 0.751642
O O8 0.096156 0.321324 0.164456
O O9 0.925075 0.302051 0.135515
O O10 0.194723 0.183342 0.070848
O O11 0.620003 0.500000 0.370327
O O12 0.834510 0.639576 0.309629
O O13 0.712505 0.602373 0.260996
O O14 0.504319 0.671514 0.403562
O O15 0.222442 0.101930 0.148853
O O16 0.271747 0.000000 0.049208
O O17 0.500000 0.117981 0.000000
O O18 0.579820 0.729533 0.252010
O O19 0.000000 0.841199 0.500000
#
# Coordination Sequence:
#
# PCOD9174017 Si02
#       8
#     8   8   8   8   8   8   8   8
#     4  10  22  38  54  75 103 138 180 223 270 319
#     4  10  18  31  52  74  99 131 170 215 258 305
#     4   9  18  32  51  75 103 136 172 208 252 307
#     4  11  21  34  54  79 107 140 178 219 267 318
#     4  10  20  34  53  79 108 135 167 209 257 310
#     4   9  17  30  49  73 101 130 169 212 253 299
#     4   9  19  35  54  76 105 139 174 214 256 306
#     4  11  23  37  54  76 106 140 178 225 271 317
#
# _framework density 22.211300000000001
#
# number of rings (size 3 to 8) (size 9 to 14) (size 15 to 20)
#    0.000    2.125    0.000    4.500    0.000    3.750 
#    0.000    0.000    0.000    6.750    0.000    0.000 
#    0.000   24.000    0.000    0.000    0.000    0.000 
#
# Total GULP energy -178401.064468 kJ/mol
# GULP energy per Si atom -5575.033265 kJ/mol
# Density = 2.216075 g / cm^3
# Si number density = 22.211300 Si / 1000 Ang^3
#
#
#
# Elastic Constant Matrix: (Units=GPa)
#
#
# Indices 1 2 3 4 5 6 
#
# 1 80.7531 -0.2172 -1.8146 0.0000 -6.2334 0.0000
# 2 -0.2172 97.9260 14.1828 0.0000 -8.3876 0.0000
# 3 -1.8146 14.1828 41.7116 0.0000 -9.1535 0.0001
# 4 0.0000 0.0000 0.0000 11.2546 0.0000 0.3730
# 5 -6.2334 -8.3876 -9.1535 0.0000 26.9387 0.0000
# 6 0.0000 0.0000 0.0001 0.3730 0.0000 -0.9233
#
#
#
# Elastic Compliance Matrix: (Units=1/GPa)
#
#
# Indices 1 2 3 4 5 6 
#
# 1 0.012674 0.000138 0.001251 0.000000 0.003401 0.000000
# 2 0.000138 0.010873 -0.003178 0.000000 0.002337 0.000000
# 3 0.001251 -0.003178 0.026966 0.000000 0.008463 0.000003
# 4 0.000000 0.000000 0.000000 0.087679 0.000000 0.035420
# 5 0.003401 0.002337 0.008463 0.000000 0.041511 0.000000
# 6 0.000000 0.000000 0.000003 0.035420 0.000000 -1.068774
#
#
# Mechanical properties :
#
#
# Convention : Reuss Voigt Hill
#
# Bulk Modulus (GPa) = 21.30600 27.18808 24.24704
# Shear Modulus (GPa) = -5.74813 21.33664 7.79425
#
# Velocity S-wave (km/s) = -1.61045 3.10275 1.87530
# Velocity P-wave (km/s) = 2.48096 5.01032 3.95338
#
# Compressibility (1/GPa) = 0.04693513
#
# Stress axis : x y z
#
# Youngs Moduli (GPa) = 78.89915 91.97450 37.08341
#
# Poissons Ratio (x) = -0.01272 -0.04638
# Poissons Ratio (y) = -0.01091 0.11785
# Poissons Ratio (z) = -0.09867 0.29229
#
# Static dielectric constant tensor:
#      x y z
#    x 1.833970 0.000000 0.017390 
#    y 0.000000 1.850750 0.000000 
#    z 0.017390 0.000000 1.850150 
# 
# From -- ./inp_files/374095.got.cif
#   From: 2010.05.17/outbox.cif.g08.bks.cpg/sg12_188_cif.got.tgz:374095.got - 2010.06.03 13:09:07.
