data_PCOD9174526
_publ_section_title
;
Structure prediction by ZEFSAII (Michael W. Deem and Ramdas Pophale) SiO2 
 PCOD9174526
Probable space group: C 2/M
;
_chemical_formula_sum "Si O2"
_cell_formula_units_Z 64
_cell_length_a 10.034196
_cell_length_b 20.769279
_cell_length_c 22.303979
_cell_angle_alpha 90.000000
_cell_angle_beta 125.546610
_cell_angle_gamma 90.000000
_cell_volume 3781.988111
_symmetry_space_group_name_H-M "C 2/M"
_symmetry_group_IT_number 12
_symmetry_cell_setting 'monoclinic'
loop_
_space_group_symop_operation_xyz
x,y,z
-x,y,-z
-x,-y,-z
x,-y,z
1/2+x,1/2+y,z
1/2-x,1/2+y,-z
1/2-x,1/2-y,-z
1/2+x,1/2-y,z
loop_
_atom_site_type_symbol
_atom_site_label
_atom_site_fract_x
_atom_site_fract_y
_atom_site_fract_z
Si Si1 0.216109 0.818900 0.312018
Si Si2 0.356602 0.348246 0.507857
Si Si3 0.885703 0.707356 0.910498
Si Si4 0.471480 0.313771 0.140395
Si Si5 0.688631 0.075742 0.566633
Si Si6 0.570617 0.765825 0.380325
Si Si7 0.503462 0.071000 0.928288
Si Si8 0.384484 0.425564 0.026434
O O1 0.259328 0.881173 0.363270
O O2 0.385969 0.791060 0.330552
O O3 0.133966 0.768077 0.336568
O O4 0.090101 0.831403 0.225810
O O5 0.500000 0.367290 0.500000
O O6 0.299500 0.402381 0.539492
O O7 0.417950 0.287473 0.563710
O O8 0.197638 0.322070 0.430987
O O9 0.698682 0.715472 0.880523
O O10 0.943600 0.761597 0.880164
O O11 0.905922 0.635639 0.887602
O O12 0.000000 0.710138 0.000000
O O13 0.425114 0.376231 0.089428
O O14 0.500000 0.091026 0.500000
O O15 0.701792 0.000000 0.581637
O O16 0.447546 0.000000 0.892205
O O17 0.500000 0.068068 0.000000
O O18 0.692869 0.080618 0.959856
O O19 0.409249 0.500000 0.051265
O O20 0.500000 0.412214 0.000000
#
# Coordination Sequence:
#
# PCOD9174526 Si02
#       8
#     8   8   8   8   8   8   8   8
#     4  11  22  37  55  81 118 149 181 226 284 332
#     4  10  18  31  59  85 106 138 184 231 265 312
#     4  11  22  37  57  84 112 147 190 237 283 334
#     4  12  24  36  55  84 116 152 181 233 293 341
#     4  10  21  37  58  83 112 149 192 229 269 327
#     4  10  19  33  53  84 110 140 181 226 269 323
#     4   9  17  34  58  79 101 135 183 232 273 321
#     4  10  21  37  58  82 106 140 191 240 280 335
#
# _framework density 16.922317
#
# number of rings (size 3 to 8) (size 9 to 14) (size 15 to 20)
#    0.000    1.625    5.000    1.500    1.750    0.750 
#    0.000    0.000    0.000    0.000    0.000    0.000 
#    0.000    0.000    0.000    0.000    0.000    0.000 
#
# Total GULP energy -178577.047000 kJ/mol
# GULP energy per Si atom -5580.532719 kJ/mol
# Density = 1.688380 g / cm^3
# Si number density = 16.922317 Si / 1000 Ang^3
#
#
#
# Elastic Constant Matrix: (Units=GPa)
#
#
# Indices 1 2 3 4 5 6 
#
# 1 141.4946 35.8268 29.8403 0.0000 8.8527 0.0000
# 2 35.8268 76.5692 40.2167 0.0000 -7.0545 0.0000
# 3 29.8403 40.2167 70.5774 0.0000 6.2552 0.0000
# 4 0.0000 0.0000 0.0000 1.4369 0.0000 2.5412
# 5 8.8527 -7.0545 6.2552 0.0000 17.2548 0.0000
# 6 0.0000 0.0000 0.0000 2.5412 0.0000 22.5453
#
#
#
# Elastic Compliance Matrix: (Units=1/GPa)
#
#
# Indices 1 2 3 4 5 6 
#
# 1 0.008657 -0.004203 -0.000743 0.000000 -0.005890 0.000000
# 2 -0.004203 0.023362 -0.012990 0.000000 0.016417 0.000000
# 3 -0.000743 -0.012990 0.023063 0.000000 -0.013290 0.000000
# 4 0.000000 0.000000 0.000000 0.869181 0.000000 -0.097971
# 5 -0.005890 0.016417 -0.013290 0.000000 0.072507 0.000000
# 6 0.000000 0.000000 0.000000 -0.097971 0.000000 0.055398
#
#
# Mechanical properties :
#
#
# Convention : Reuss Voigt Hill
#
# Bulk Modulus (GPa) = 52.05792 55.60096 53.82944
# Shear Modulus (GPa) = 4.56853 20.43125 12.49989
#
# Velocity S-wave (km/s) = 1.64486 3.47847 2.72078
# Velocity P-wave (km/s) = 5.86831 7.00435 6.46135
#
# Compressibility (1/GPa) = 0.01920937
#
# Stress axis : x y z
#
# Youngs Moduli (GPa) = 115.51534 42.80438 43.35923
#
# Poissons Ratio (x) = 0.17990 0.03222
# Poissons Ratio (y) = 0.48550 0.56325
# Poissons Ratio (z) = 0.08585 0.55604
#
# Static dielectric constant tensor:
#      x y z
#    x 1.539390 0.000000 0.009540 
#    y 0.000000 1.574800 0.000000 
#    z 0.009540 0.000000 1.542390 
# 
# From -- ./inp_files/301761.got.cif
#   From: 2010.05.17/outbox.cif.g08.bks.cpg/sg12_151_cif.got.tgz:301761.got - 2010.06.03 13:09:07.
