data_PCOD9174511
_publ_section_title
;
Structure prediction by ZEFSAII (Michael W. Deem and Ramdas Pophale) SiO2 
 PCOD9174511
Probable space group: C 2/M
;
_chemical_formula_sum "Si O2"
_cell_formula_units_Z 64
_cell_length_a 14.940876
_cell_length_b 14.787903
_cell_length_c 16.672193
_cell_angle_alpha 90.000000
_cell_angle_beta 125.020113
_cell_angle_gamma 90.000000
_cell_volume 3016.706881
_symmetry_space_group_name_H-M "C 2/M"
_symmetry_group_IT_number 12
_symmetry_cell_setting 'monoclinic'
loop_
_space_group_symop_operation_xyz
x,y,z
-x,y,-z
-x,-y,-z
x,-y,z
1/2+x,1/2+y,z
1/2-x,1/2+y,-z
1/2-x,1/2-y,-z
1/2+x,1/2-y,z
loop_
_atom_site_type_symbol
_atom_site_label
_atom_site_fract_x
_atom_site_fract_y
_atom_site_fract_z
Si Si1 0.503155 0.173095 0.641013
Si Si2 0.743737 0.893852 0.720316
Si Si3 0.301083 0.794172 0.448271
Si Si4 0.483405 0.109872 0.811211
Si Si5 0.917615 0.849600 0.394169
Si Si6 0.282678 0.896325 0.814917
Si Si7 0.874950 0.888908 0.943519
Si Si8 0.720309 0.110230 0.007138
O O1 0.616463 0.127010 0.673313
O O2 0.402346 0.145741 0.532374
O O3 0.479437 0.151262 0.720588
O O4 0.517727 0.280000 0.630381
O O5 0.773769 0.850169 0.650709
O O6 0.809808 0.858925 0.830934
O O7 0.760435 0.000000 0.724164
O O8 0.250000 0.750000 0.500000
O O9 0.347895 0.715088 0.416609
O O10 0.381843 0.142235 0.813079
O O11 0.477605 0.000000 0.799407
O O12 0.599459 0.131063 0.911946
O O13 0.828755 0.897592 0.293403
O O14 0.000000 0.896395 0.500000
O O15 0.266188 0.855885 0.894861
O O16 0.316991 0.000000 0.847156
O O17 0.873331 0.000000 0.943477
O O18 0.811851 0.858186 0.991085
O O19 0.000000 0.860093 0.000000
O O20 0.729159 0.000000 0.012231
#
# Coordination Sequence:
#
# PCOD9174511 Si02
#       8
#     8   8   8   8   8   8   8   8
#     4  10  19  34  59  81 109 153 184 227 289 342
#     4  10  19  34  59  89 114 139 186 243 288 335
#     4  10  21  37  55  77 114 153 186 225 285 347
#     4  10  18  31  57  89 117 141 178 232 288 338
#     4   9  20  38  54  73 108 154 192 225 278 337
#     4  10  20  34  57  86 112 147 192 235 275 332
#     4   9  17  32  54  81 117 152 184 230 289 344
#     4   9  17  32  54  82 115 146 180 231 292 339
#
# _framework density 21.215185999999999
#
# number of rings (size 3 to 8) (size 9 to 14) (size 15 to 20)
#    0.000    2.375    1.250    2.625    0.000    3.250 
#    4.500    1.250    0.000    0.000    0.000    0.000 
#    0.000    0.000    0.000    0.000    0.000    0.000 
#
# Total GULP energy -178576.649392 kJ/mol
# GULP energy per Si atom -5580.520293 kJ/mol
# Density = 2.116690 g / cm^3
# Si number density = 21.215186 Si / 1000 Ang^3
#
#
#
# Elastic Constant Matrix: (Units=GPa)
#
#
# Indices 1 2 3 4 5 6 
#
# 1 138.9837 24.2130 92.4555 0.0000 -27.2585 0.0000
# 2 24.2130 39.4148 24.9961 0.0000 -12.5710 0.0000
# 3 92.4555 24.9961 168.3544 0.0000 -31.1750 0.0000
# 4 0.0000 0.0000 0.0000 32.5875 0.0000 -2.9054
# 5 -27.2585 -12.5710 -31.1750 0.0000 38.2339 0.0000
# 6 0.0000 0.0000 0.0000 -2.9054 0.0000 14.8523
#
#
#
# Elastic Compliance Matrix: (Units=1/GPa)
#
#
# Indices 1 2 3 4 5 6 
#
# 1 0.012027 -0.002852 -0.005615 0.000000 0.003058 0.000000
# 2 -0.002852 0.030297 -0.001724 0.000000 0.006522 0.000000
# 3 -0.005615 -0.001724 0.009933 0.000000 0.003529 0.000000
# 4 0.000000 0.000000 0.000000 0.031231 0.000000 0.006109
# 5 0.003058 0.006522 0.003529 0.000000 0.033357 0.000000
# 6 0.000000 0.000000 0.000000 0.006109 0.000000 0.068525
#
#
# Mechanical properties :
#
#
# Convention : Reuss Voigt Hill
#
# Bulk Modulus (GPa) = 31.37334 70.00911 50.69122
# Shear Modulus (GPa) = 23.10774 30.80731 26.95753
#
# Velocity S-wave (km/s) = 3.30390 3.81482 3.56851
# Velocity P-wave (km/s) = 5.41983 7.24396 6.39725
#
# Compressibility (1/GPa) = 0.03187419
#
# Stress axis : x y z
#
# Youngs Moduli (GPa) = 83.14533 33.00670 100.67424
#
# Poissons Ratio (x) = 0.09413 0.56530
# Poissons Ratio (y) = 0.23712 0.17360
# Poissons Ratio (z) = 0.46688 0.05691
#
# Static dielectric constant tensor:
#      x y z
#    x 1.764280 0.000000 0.011560 
#    y 0.000000 1.804290 0.000000 
#    z 0.011560 0.000000 1.774220 
# 
# From -- ./inp_files/216808.got.cif
#   From: 2010.05.17/outbox.cif.g08.bks.cpg/sg12_109_cif.got.tgz:216808.got - 2010.06.03 13:09:07.
