data_PCOD9174606
_publ_section_title
;
Structure prediction by ZEFSAII (Michael W. Deem and Ramdas Pophale) SiO2 
 PCOD9174606
Probable space group: C 2/M
;
_chemical_formula_sum "Si O2"
_cell_formula_units_Z 48
_cell_length_a 33.739051
_cell_length_b 12.305213
_cell_length_c 5.560420
_cell_angle_alpha 90.000000
_cell_angle_beta 67.920930
_cell_angle_gamma 90.000000
_cell_volume 2139.207070
_symmetry_space_group_name_H-M "C 2/M"
_symmetry_group_IT_number 12
_symmetry_cell_setting 'monoclinic'
loop_
_space_group_symop_operation_xyz
x,y,z
-x,y,-z
-x,-y,-z
x,-y,z
1/2+x,1/2+y,z
1/2-x,1/2+y,-z
1/2-x,1/2-y,-z
1/2+x,1/2-y,z
loop_
_atom_site_type_symbol
_atom_site_label
_atom_site_fract_x
_atom_site_fract_y
_atom_site_fract_z
Si Si1 0.908995 0.335058 0.684065
Si Si2 0.917355 0.124078 0.918001
Si Si3 0.181608 0.698580 0.209191
Si Si4 0.450053 0.828071 0.086866
Si Si5 0.767664 0.880319 0.199768
Si Si6 0.165240 0.116765 0.587950
O O1 0.858376 0.359488 0.821706
O O2 0.926888 0.366922 0.383296
O O3 0.917842 0.204043 0.689187
O O4 0.931942 0.375209 0.875979
O O5 0.941784 0.197875 0.060427
O O6 0.867932 0.120325 0.117051
O O7 0.931997 0.000000 0.855039
O O8 0.217481 0.631348 0.268148
O O9 0.158538 0.778309 0.448394
O O10 0.208188 0.779815 0.977761
O O11 0.500000 0.848823 0.000000
O O12 0.785866 0.878801 0.428894
O O13 0.780351 0.000000 0.076693
O O14 0.157513 0.000000 0.485590
#
# Coordination Sequence:
#
# PCOD9174606 Si02
#       6
#     8   8   8   8   8   8
#     4  10  20  34  50  74  98 139 178 215 268 322
#     4   9  19  30  48  70  98 135 176 218 258 308
#     4  11  19  33  53  71 105 143 177 222 269 313
#     4  10  20  35  51  72 102 133 178 224 267 321
#     4  10  21  33  49  77 104 137 184 224 263 314
#     4  10  18  32  50  73 101 139 184 218 257 314
#
# _framework density 22.438223000000001
#
# number of rings (size 3 to 8) (size 9 to 14) (size 15 to 20)
#    1.000    1.000    3.333    1.500    0.000    1.667 
#    0.000    0.833    0.000    0.000    0.000    0.000 
#    0.000    4.000    0.000    0.000    0.000    0.000 
#
# Total GULP energy -133676.965754 kJ/mol
# GULP energy per Si atom -5569.873573 kJ/mol
# Density = 2.238715 g / cm^3
# Si number density = 22.438223 Si / 1000 Ang^3
#
#
#
# Elastic Constant Matrix: (Units=GPa)
#
#
# Indices 1 2 3 4 5 6 
#
# 1 181.8507 6.7685 38.2378 0.0000 5.2713 0.0000
# 2 6.7685 79.1016 7.9598 0.0000 4.3500 0.0000
# 3 38.2378 7.9598 79.6763 0.0000 8.0544 0.0000
# 4 0.0000 0.0000 0.0000 -22.5434 0.0000 -14.0908
# 5 5.2713 4.3500 8.0544 0.0000 26.0802 0.0000
# 6 0.0000 0.0000 0.0000 -14.0908 0.0000 3.4713
#
#
#
# Elastic Compliance Matrix: (Units=1/GPa)
#
#
# Indices 1 2 3 4 5 6 
#
# 1 0.006123 -0.000216 -0.002885 0.000000 -0.000310 0.000000
# 2 -0.000216 0.012860 -0.001000 0.000000 -0.001792 0.000000
# 3 -0.002885 -0.001000 0.014409 0.000000 -0.003700 0.000000
# 4 0.000000 0.000000 0.000000 -0.012541 0.000000 -0.050905
# 5 -0.000310 -0.001792 -0.003700 0.000000 0.039848 0.000000
# 6 0.000000 0.000000 0.000000 -0.050905 0.000000 0.081442
#
#
# Mechanical properties :
#
#
# Convention : Reuss Voigt Hill
#
# Bulk Modulus (GPa) = 39.70011 49.61788 44.65900
# Shear Modulus (GPa) = 31.49799 20.57911 26.03855
#
# Velocity S-wave (km/s) = 3.75075 3.03173 3.41024
# Velocity P-wave (km/s) = 6.04061 5.86654 5.95421
#
# Compressibility (1/GPa) = 0.02518885
#
# Stress axis : x y z
#
# Youngs Moduli (GPa) = 163.32429 77.76265 69.39887
#
# Poissons Ratio (x) = 0.01684 0.20024
# Poissons Ratio (y) = 0.03536 0.06937
# Poissons Ratio (z) = 0.47126 0.07773
#
# Static dielectric constant tensor:
#      x y z
#    x 1.858670 0.000000 0.036730 
#    y 0.000000 2.705820 0.000000 
#    z 0.036730 0.000000 1.850480 
# 
# From -- ./inp_files/31192.got.cif
#   From: 2010.05.17/outbox.cif.g08.bks.cpg/sg12_16_cif.got.tgz:31192.got - 2010.06.03 13:09:07.
