data_PCOD9174904
_publ_section_title
;
Structure prediction by ZEFSAII (Michael W. Deem and Ramdas Pophale) SiO2 
 PCOD9174904
Probable space group: C 2/M
;
_chemical_formula_sum "Si O2"
_cell_formula_units_Z 56
_cell_length_a 25.376058
_cell_length_b 8.357084
_cell_length_c 17.114385
_cell_angle_alpha 90.000000
_cell_angle_beta 60.796875
_cell_angle_gamma 90.000000
_cell_volume 3168.126116
_symmetry_space_group_name_H-M "C 2/M"
_symmetry_group_IT_number 12
_symmetry_cell_setting 'monoclinic'
loop_
_space_group_symop_operation_xyz
x,y,z
-x,y,-z
-x,-y,-z
x,-y,z
1/2+x,1/2+y,z
1/2-x,1/2+y,-z
1/2-x,1/2-y,-z
1/2+x,1/2-y,z
loop_
_atom_site_type_symbol
_atom_site_label
_atom_site_fract_x
_atom_site_fract_y
_atom_site_fract_z
Si Si1 0.980201 0.810161 0.396422
Si Si2 0.175397 0.809959 0.918289
Si Si3 0.906392 0.689834 0.589062
Si Si4 0.486151 0.689351 0.214602
Si Si5 0.878245 0.690175 0.884566
Si Si6 0.060529 0.689034 0.910909
Si Si7 0.808177 0.305037 0.778477
O O1 0.925652 0.773044 0.494783
O O2 0.038627 0.722880 0.390332
O O3 0.969593 0.760914 0.314853
O O4 0.992645 0.000000 0.388362
O O5 0.119249 0.773757 0.902666
O O6 0.238944 0.754249 0.836178
O O7 0.179451 0.000000 0.928922
O O8 0.161747 0.727436 0.010840
O O9 0.902834 0.500000 0.578208
O O10 0.845732 0.747896 0.675555
O O11 0.475723 0.500000 0.213992
O O12 0.557304 0.725067 0.153506
O O13 0.450556 0.778137 0.172044
O O14 0.889112 0.500000 0.871930
O O15 0.844413 0.743200 0.830307
O O16 0.066742 0.500000 0.921472
O O17 0.000000 0.744952 0.000000
O O18 0.808998 0.500000 0.776420
#
# Coordination Sequence:
#
# PCOD9174904 Si02
#       7
#     8   8   8   8   8   8   8
#     4  10  20  33  50  80 112 136 173 221 268 310
#     4  11  22  37  55  77 108 144 183 220 263 316
#     4  10  18  32  54  78 107 144 179 209 261 319
#     4  11  22  35  55  80 108 142 177 219 270 316
#     4  11  20  34  53  78 112 144 178 217 260 313
#     4  11  23  38  56  78 105 138 180 228 268 309
#     4   9  20  35  53  79 111 145 179 218 260 315
#
# _framework density 17.676062999999999
#
# number of rings (size 3 to 8) (size 9 to 14) (size 15 to 20)
#    0.000    1.571    2.857    3.857    0.000    2.286 
#    0.000    5.000    0.000    0.857    0.000    0.000 
#    0.000    0.000    0.000    0.000    0.000    0.000 
#
# Total GULP energy -156382.769532 kJ/mol
# GULP energy per Si atom -5585.098912 kJ/mol
# Density = 1.763583 g / cm^3
# Si number density = 17.676063 Si / 1000 Ang^3
#
#
#
# Elastic Constant Matrix: (Units=GPa)
#
#
# Indices 1 2 3 4 5 6 
#
# 1 49.9561 -9.3145 25.3894 0.0000 -14.7348 -0.0001
# 2 -9.3145 11.9919 -8.2897 0.0000 2.4809 -0.0002
# 3 25.3894 -8.2897 118.2276 0.0000 -12.6422 0.0000
# 4 0.0000 0.0000 0.0000 24.8924 0.0000 2.5997
# 5 -14.7348 2.4809 -12.6422 0.0000 24.4701 0.0000
# 6 -0.0001 -0.0002 0.0000 2.5997 0.0000 14.6892
#
#
#
# Elastic Compliance Matrix: (Units=1/GPa)
#
#
# Indices 1 2 3 4 5 6 
#
# 1 0.029175 0.017311 -0.003557 0.000000 0.013975 0.000000
# 2 0.017311 0.098762 0.003441 0.000000 0.002189 0.000001
# 3 -0.003557 0.003441 0.009735 0.000000 0.002539 0.000000
# 4 0.000000 0.000000 0.000000 0.040929 0.000000 -0.007244
# 5 0.013975 0.002189 0.002539 0.000000 0.050371 0.000000
# 6 0.000000 0.000001 0.000000 -0.007244 0.000000 0.069359
#
#
# Mechanical properties :
#
#
# Convention : Reuss Voigt Hill
#
# Bulk Modulus (GPa) = 5.81182 21.74954 13.78068
# Shear Modulus (GPa) = 15.56200 24.30305 19.93253
#
# Velocity S-wave (km/s) = 2.97037 3.71200 3.36170
# Velocity P-wave (km/s) = 3.88062 5.54105 4.78343
#
# Compressibility (1/GPa) = 0.17206315
#
# Stress axis : x y z
#
# Youngs Moduli (GPa) = 34.27561 10.12534 102.72310
#
# Poissons Ratio (x) = -0.17528 0.36541
# Poissons Ratio (y) = -0.59335 -0.35351
# Poissons Ratio (z) = 0.12192 -0.03484
#
# Static dielectric constant tensor:
#      x y z
#    x 1.573470 0.000000 -0.010070 
#    y 0.000000 1.607130 0.000000 
#    z -0.010070 0.000000 1.617200 
# 
# From -- ./inp_files/237390.got.cif
#   From: 2010.05.17/outbox.cif.g08.bks.cpg/sg12_119_cif.got.tgz:237390.got - 2010.06.03 13:09:07.
