data_PCOD9174931
_publ_section_title
;
Structure prediction by ZEFSAII (Michael W. Deem and Ramdas Pophale) SiO2 
 PCOD9174931
Probable space group: C 2/M
;
_chemical_formula_sum "Si O2"
_cell_formula_units_Z 58
_cell_length_a 19.414728
_cell_length_b 7.278529
_cell_length_c 16.010287
_cell_angle_alpha 90.000000
_cell_angle_beta 98.527828
_cell_angle_gamma 90.000000
_cell_volume 2237.410776
_symmetry_space_group_name_H-M "C 2/M"
_symmetry_group_IT_number 12
_symmetry_cell_setting 'monoclinic'
loop_
_space_group_symop_operation_xyz
x,y,z
-x,y,-z
-x,-y,-z
x,-y,z
1/2+x,1/2+y,z
1/2-x,1/2+y,-z
1/2-x,1/2-y,-z
1/2+x,1/2-y,z
loop_
_atom_site_type_symbol
_atom_site_label
_atom_site_fract_x
_atom_site_fract_y
_atom_site_fract_z
Si Si1 0.593652 0.279636 0.077589
Si Si2 0.454751 0.724616 0.275519
Si Si3 0.738215 0.279230 0.175719
Si Si4 0.629489 0.710843 0.898709
Si Si5 0.248011 0.721894 0.636515
Si Si6 0.900036 0.789686 0.443438
Si Si7 0.000000 0.500000 0.000000
Si Si8 0.595533 0.276044 0.373877
O O1 0.582453 0.500000 0.080565
O O2 0.657754 0.230407 0.148533
O O3 0.619037 0.213435 0.989378
O O4 0.524685 0.162110 0.071610
O O5 0.450280 0.500000 0.272931
O O6 0.412064 0.790618 0.187699
O O7 0.421729 0.788640 0.357780
O O8 0.536139 0.774101 0.297101
O O9 0.740043 0.500000 0.173691
O O10 0.789773 0.214766 0.113096
O O11 0.765452 0.218206 0.270481
O O12 0.607106 0.500000 0.902995
O O13 0.247140 0.500000 0.633311
O O14 0.184268 0.787850 0.569188
O O15 0.325900 0.783733 0.629523
O O16 0.925167 0.713677 0.536435
O O17 0.924208 0.000000 0.445425
O O18 0.597161 0.500000 0.375131
#
# Coordination Sequence:
#
# PCOD9174931 Si02
#       8
#     8   8   8   8   8   8   2   8
#     4  10  24  43  64  96 128 165 209 250 303 372
#     4   9  17  31  54  84 111 147 194 249 301 356
#     4  10  21  37  60  86 121 157 200 256 304 363
#     4  10  20  36  63  90 119 153 200 259 306 357
#     4  10  20  34  54  81 112 155 193 239 303 364
#     4  10  18  32  54  80 109 146 193 251 294 351
#     4  12  26  44  68  94 128 176 200 248 312 370
#     4   9  18  31  51  78 111 149 195 239 302 366
#
# _framework density 25.922823999999999
#
# number of rings (size 3 to 8) (size 9 to 14) (size 15 to 20)
#    0.000    2.207    1.379    1.448    1.931    2.759 
#    0.000    4.138    0.000    3.310    0.000    0.000 
#    0.000    0.000    0.000    0.000    0.000    0.000 
#
# Total GULP energy -161999.845654 kJ/mol
# GULP energy per Si atom -5586.201574 kJ/mol
# Density = 2.586382 g / cm^3
# Si number density = 25.922824 Si / 1000 Ang^3
#
#
#
# Elastic Constant Matrix: (Units=GPa)
#
#
# Indices 1 2 3 4 5 6 
#
# 1 88.6416 -5.9216 2.7482 0.0000 16.9378 0.0000
# 2 -5.9216 124.7046 6.8029 0.0000 9.7914 0.0000
# 3 2.7482 6.8029 73.3250 0.0000 23.8409 0.0000
# 4 0.0000 0.0000 0.0000 3.5525 0.0000 17.3225
# 5 16.9378 9.7914 23.8409 0.0000 56.9202 0.0000
# 6 0.0000 0.0000 0.0000 17.3225 0.0000 33.5113
#
#
#
# Elastic Compliance Matrix: (Units=1/GPa)
#
#
# Indices 1 2 3 4 5 6 
#
# 1 0.012093 0.000851 0.000793 0.000000 -0.004077 0.000000
# 2 0.000851 0.008196 -0.000291 0.000000 -0.001541 0.000000
# 3 0.000793 -0.000291 0.015855 0.000000 -0.006827 0.000000
# 4 0.000000 0.000000 0.000000 -0.185126 0.000000 0.095694
# 5 -0.004077 -0.001541 -0.006827 0.000000 0.021906 0.000000
# 6 0.000000 0.000000 0.000000 0.095694 0.000000 -0.019625
#
#
# Mechanical properties :
#
#
# Convention : Reuss Voigt Hill
#
# Bulk Modulus (GPa) = 25.73970 32.65890 29.19930
# Shear Modulus (GPa) = -36.64145 37.66625 0.51240
#
# Velocity S-wave (km/s) = -3.76371 3.81598 0.44508
# Velocity P-wave (km/s) = 2.98939 5.66052 3.39890
#
# Compressibility (1/GPa) = 0.03885049
#
# Stress axis : x y z
#
# Youngs Moduli (GPa) = 82.69438 122.00686 63.07216
#
# Poissons Ratio (x) = -0.10384 -0.05005
# Poissons Ratio (y) = -0.07038 0.01837
# Poissons Ratio (z) = -0.06562 0.03553
#
# Static dielectric constant tensor:
#      x y z
#    x 2.133490 0.000000 -0.037120 
#    y 0.000000 2.042050 0.000000 
#    z -0.037120 0.000000 1.982960 
# 
# From -- ./inp_files/281493.got.cif
#   From: 2010.05.17/outbox.cif.g08.bks.cpg/sg12_141_cif.got.tgz:281493.got - 2010.06.03 13:09:07.
