data_PCOD9174643
_publ_section_title
;
Structure prediction by ZEFSAII (Michael W. Deem and Ramdas Pophale) SiO2 
 PCOD9174643
Probable space group: C 2/M
;
_chemical_formula_sum "Si O2"
_cell_formula_units_Z 64
_cell_length_a 26.222184
_cell_length_b 8.670754
_cell_length_c 21.995233
_cell_angle_alpha 90.000000
_cell_angle_beta 53.235516
_cell_angle_gamma 90.000000
_cell_volume 4006.290139
_symmetry_space_group_name_H-M "C 2/M"
_symmetry_group_IT_number 12
_symmetry_cell_setting 'monoclinic'
loop_
_space_group_symop_operation_xyz
x,y,z
-x,y,-z
-x,-y,-z
x,-y,z
1/2+x,1/2+y,z
1/2-x,1/2+y,-z
1/2-x,1/2-y,-z
1/2+x,1/2-y,z
loop_
_atom_site_type_symbol
_atom_site_label
_atom_site_fract_x
_atom_site_fract_y
_atom_site_fract_z
Si Si1 0.361116 0.685363 0.157534
Si Si2 0.398477 0.812822 0.581589
Si Si3 0.753056 0.312694 0.676846
Si Si4 0.560856 0.685040 0.678492
Si Si5 0.702775 0.815688 0.584808
Si Si6 0.520409 0.685430 0.841156
Si Si7 0.059856 0.316574 0.000566
Si Si8 0.508222 0.186681 0.593518
O O1 0.363303 0.500000 0.151935
O O2 0.293894 0.730734 0.234570
O O3 0.416139 0.733465 0.166550
O O4 0.379569 0.752728 0.078912
O O5 0.325698 0.761490 0.634797
O O6 0.434997 0.768561 0.493600
O O7 0.442971 0.766137 0.606308
O O8 0.398119 0.000000 0.582344
O O9 0.751848 0.500000 0.672767
O O10 0.725795 0.245017 0.633867
O O11 0.566863 0.500000 0.674573
O O12 0.631247 0.756754 0.624461
O O13 0.529362 0.732985 0.765097
O O14 0.520506 0.739721 0.649696
O O15 0.750000 0.750000 0.500000
O O16 0.703928 0.000000 0.582353
O O17 0.517623 0.500000 0.845474
O O18 0.459534 0.750783 0.920211
O O19 0.062875 0.500000 0.001194
O O20 0.000000 0.271147 0.000000
O O21 0.508816 0.000000 0.598223
#
# Coordination Sequence:
#
# PCOD9174643 Si02
#       8
#     8   8   8   8   8   8   8   8
#     4   9  16  28  45  65  93 128 160 191 232 285
#     4   8  16  31  52  71  94 125 165 206 242 286
#     4  10  18  32  51  72  97 130 166 200 238 289
#     4  11  21  34  50  72  99 129 163 201 242 289
#     4  12  24  35  48  68  98 133 164 199 240 290
#     4   9  17  30  45  64  93 127 159 191 232 286
#     4   9  17  27  42  65  92 122 157 194 233 279
#     4   9  17  32  51  73  95 126 165 205 247 284
#
# _framework density 15.974879
#
# number of rings (size 3 to 8) (size 9 to 14) (size 15 to 20)
#    0.000    2.375    1.250    3.375    0.000    4.000 
#    0.000    1.875    0.000    0.000    0.000    0.875 
#    0.000    0.000    0.000    0.000    0.000    0.000 
#
# Total GULP energy -178427.791372 kJ/mol
# GULP energy per Si atom -5575.868480 kJ/mol
# Density = 1.593852 g / cm^3
# Si number density = 15.974879 Si / 1000 Ang^3
#
#
#
# Elastic Constant Matrix: (Units=GPa)
#
#
# Indices 1 2 3 4 5 6 
#
# 1 57.3774 13.4590 33.9979 0.0019 10.3128 -0.0025
# 2 13.4590 26.1507 28.6930 0.0014 3.7038 -0.0037
# 3 33.9979 28.6930 117.0719 0.0024 15.3792 -0.0032
# 4 0.0019 0.0014 0.0024 21.5787 -0.0015 6.3627
# 5 10.3128 3.7038 15.3792 -0.0015 17.6921 0.0018
# 6 -0.0025 -0.0037 -0.0032 6.3627 0.0018 18.0409
#
#
#
# Elastic Compliance Matrix: (Units=1/GPa)
#
#
# Indices 1 2 3 4 5 6 
#
# 1 0.022761 -0.006132 -0.003988 -0.000003 -0.008517 0.000003
# 2 -0.006132 0.053959 -0.011774 -0.000004 0.002513 0.000009
# 3 -0.003988 -0.011774 0.013498 -0.000001 -0.006944 0.000000
# 4 -0.000003 -0.000004 -0.000001 0.051720 0.000009 -0.018241
# 5 -0.008517 0.002513 -0.006944 0.000009 0.066997 -0.000012
# 6 0.000003 0.000009 0.000000 -0.018241 -0.000012 0.061863
#
#
# Mechanical properties :
#
#
# Convention : Reuss Voigt Hill
#
# Bulk Modulus (GPa) = 21.53847 39.21107 30.37477
# Shear Modulus (GPa) = 15.14867 19.75901 17.45384
#
# Velocity S-wave (km/s) = 3.08276 3.52075 3.30901
# Velocity P-wave (km/s) = 5.11695 6.41298 5.80127
#
# Compressibility (1/GPa) = 0.04642856
#
# Stress axis : x y z
#
# Youngs Moduli (GPa) = 43.93527 18.53269 74.08675
#
# Poissons Ratio (x) = 0.11365 0.29545
# Poissons Ratio (y) = 0.26943 0.87229
# Poissons Ratio (z) = 0.17521 0.21820
#
# Static dielectric constant tensor:
#      x y z
#    x 1.516030 0.000000 -0.005430 
#    y 0.000000 1.537600 0.000000 
#    z -0.005430 0.000000 1.544130 
# 
# From -- ./inp_files/326878.got.cif
#   From: 2010.05.17/outbox.cif.g08.bks.cpg/sg12_164_cif.got.tgz:326878.got - 2010.06.03 13:09:07.
