data_PCOD9174142
_publ_section_title
;
Structure prediction by ZEFSAII (Michael W. Deem and Ramdas Pophale) SiO2 
 PCOD9174142
Probable space group: C 2/M
;
_chemical_formula_sum "Si O2"
_cell_formula_units_Z 42
_cell_length_a 20.362863
_cell_length_b 7.222812
_cell_length_c 11.125224
_cell_angle_alpha 90.000000
_cell_angle_beta 109.452769
_cell_angle_gamma 90.000000
_cell_volume 1542.861976
_symmetry_space_group_name_H-M "C 2/M"
_symmetry_group_IT_number 12
_symmetry_cell_setting 'monoclinic'
loop_
_space_group_symop_operation_xyz
x,y,z
-x,y,-z
-x,-y,-z
x,-y,z
1/2+x,1/2+y,z
1/2-x,1/2+y,-z
1/2-x,1/2-y,-z
1/2+x,1/2-y,z
loop_
_atom_site_type_symbol
_atom_site_label
_atom_site_fract_x
_atom_site_fract_y
_atom_site_fract_z
Si Si1 0.332458 0.718673 0.543949
Si Si2 0.536830 0.723614 0.740414
Si Si3 0.500000 0.000000 0.500000
Si Si4 0.807567 0.201362 0.935793
Si Si5 0.416270 0.725953 0.827856
Si Si6 0.676924 0.277269 0.722039
O O1 0.346142 0.500000 0.550745
O O2 0.250000 0.750000 0.500000
O O3 0.372451 0.789336 0.684007
O O4 0.352713 0.789483 0.424036
O O5 0.530706 0.500000 0.716581
O O6 0.505503 0.838026 0.610578
O O7 0.495002 0.767716 0.836882
O O8 0.619189 0.770039 0.786621
O O9 0.875023 0.295635 0.919560
O O10 0.753050 0.197488 0.790439
O O11 0.831784 0.000000 0.989118
O O12 0.750000 0.250000 0.000000
O O13 0.412681 0.500000 0.833017
O O14 0.684930 0.500000 0.723802
#
# Coordination Sequence:
#
# PCOD9174142 Si02
#       6
#     8   8   2   8   8   8
#     4  10  18  31  52  85 118 153 190 233 296 364
#     4  10  22  41  60  88 134 170 209 258 302 374
#     4  12  22  36  60 102 126 180 218 234 316 384
#     4  11  23  41  65  89 118 157 211 268 320 373
#     4   9  19  39  61  85 121 167 204 247 312 372
#     4  10  21  38  61  88 123 164 198 248 317 372
#
# _framework density 27.222137
#
# number of rings (size 3 to 8) (size 9 to 14) (size 15 to 20)
#    0.000    1.905    1.905    2.000    1.333    3.048 
#    8.571    0.952    0.000    5.714    0.000    0.000 
#    0.000    0.000    0.000    0.000    0.000    0.000 
#
# Total GULP energy -117120.823480 kJ/mol
# GULP energy per Si atom -5577.182070 kJ/mol
# Density = 2.716018 g / cm^3
# Si number density = 27.222137 Si / 1000 Ang^3
#
#
#
# Elastic Constant Matrix: (Units=GPa)
#
#
# Indices 1 2 3 4 5 6 
#
# 1 233.1541 8.7292 59.8784 0.0000 -41.4735 0.0000
# 2 8.7292 144.3117 4.2061 0.0000 -12.0725 0.0000
# 3 59.8784 4.2061 92.0764 0.0000 -12.3627 0.0000
# 4 0.0000 0.0000 0.0000 8.8932 0.0000 1.2409
# 5 -41.4735 -12.0725 -12.3627 0.0000 65.2649 0.0000
# 6 0.0000 0.0000 0.0000 1.2409 0.0000 7.3585
#
#
#
# Elastic Compliance Matrix: (Units=1/GPa)
#
#
# Indices 1 2 3 4 5 6 
#
# 1 0.005661 0.000002 -0.003282 0.000000 0.002976 0.000000
# 2 0.000002 0.007040 -0.000152 0.000000 0.001275 0.000000
# 3 -0.003282 -0.000152 0.013050 0.000000 0.000358 0.000000
# 4 0.000000 0.000000 0.000000 0.115155 0.000000 -0.019420
# 5 0.002976 0.001275 0.000358 0.000000 0.017517 0.000000
# 6 0.000000 0.000000 0.000000 -0.019420 0.000000 0.139172
#
#
# Mechanical properties :
#
#
# Convention : Reuss Voigt Hill
#
# Bulk Modulus (GPa) = 52.94332 68.35216 60.64774
# Shear Modulus (GPa) = 16.08984 42.75189 29.42086
#
# Velocity S-wave (km/s) = 2.43380 3.96723 3.29107
# Velocity P-wave (km/s) = 5.23342 6.79329 6.06372
#
# Compressibility (1/GPa) = 0.01888813
#
# Stress axis : x y z
#
# Youngs Moduli (GPa) = 176.63987 142.03750 76.62863
#
# Poissons Ratio (x) = -0.00031 0.25150
# Poissons Ratio (y) = -0.00039 0.01164
# Poissons Ratio (z) = 0.57974 0.02157
#
# Static dielectric constant tensor:
#      x y z
#    x 2.143670 0.000000 -0.032170 
#    y 0.000000 1.993630 0.000000 
#    z -0.032170 0.000000 2.186640 
# 
# From -- ./inp_files/163308.got.cif
#   From: 2010.05.17/outbox.cif.g08.bks.cpg/sg12_82_cif.got.tgz:163308.got - 2010.06.03 13:09:07.
