data_PCOD9174460
_publ_section_title
;
Structure prediction by ZEFSAII (Michael W. Deem and Ramdas Pophale) SiO2 
 PCOD9174460
Probable space group: C 2/M
;
_chemical_formula_sum "Si O2"
_cell_formula_units_Z 56
_cell_length_a 12.455369
_cell_length_b 23.970071
_cell_length_c 9.624474
_cell_angle_alpha 90.000000
_cell_angle_beta 117.507762
_cell_angle_gamma 90.000000
_cell_volume 2548.597271
_symmetry_space_group_name_H-M "C 2/M"
_symmetry_group_IT_number 12
_symmetry_cell_setting 'monoclinic'
loop_
_space_group_symop_operation_xyz
x,y,z
-x,y,-z
-x,-y,-z
x,-y,z
1/2+x,1/2+y,z
1/2-x,1/2+y,-z
1/2-x,1/2-y,-z
1/2+x,1/2-y,z
loop_
_atom_site_type_symbol
_atom_site_label
_atom_site_fract_x
_atom_site_fract_y
_atom_site_fract_z
Si Si1 0.723188 0.150188 0.450182
Si Si2 0.691422 0.941132 0.630319
Si Si3 0.324368 0.934291 0.799789
Si Si4 0.017907 0.938379 0.174706
Si Si5 0.406084 0.902275 0.143058
Si Si6 0.509907 0.332419 0.341119
Si Si7 0.507409 0.210126 0.673919
O O1 0.651367 0.111225 0.516861
O O2 0.752425 0.106937 0.343784
O O3 0.844528 0.172518 0.591194
O O4 0.629044 0.197605 0.353384
O O5 0.837197 0.939998 0.713922
O O6 0.646347 0.935956 0.759111
O O7 0.650018 0.000000 0.543736
O O8 0.461241 0.924155 0.823211
O O9 0.295315 0.000000 0.774487
O O10 0.326203 0.912644 0.958774
O O11 0.968655 0.886401 0.231708
O O12 0.969209 0.000000 0.183969
O O13 0.000000 0.930471 0.000000
O O14 0.416479 0.838711 0.205904
O O15 0.500000 0.340029 0.500000
O O16 0.452786 0.273042 0.267211
O O17 0.500000 0.208422 0.500000
#
# Coordination Sequence:
#
# PCOD9174460 Si02
#       7
#     8   8   8   8   8   8   8
#     4  10  20  35  54  80 109 146 187 228 273 321
#     4  10  18  31  56  82 109 143 184 225 273 334
#     4  10  20  33  51  80 120 148 178 226 280 340
#     4   9  20  39  58  82 110 140 182 234 279 324
#     4  10  19  33  52  80 115 151 180 219 276 333
#     4  10  22  38  59  79 108 144 190 231 274 324
#     4  10  19  36  57  79 109 148 184 228 269 326
#
# _framework density 21.972871000000001
#
# number of rings (size 3 to 8) (size 9 to 14) (size 15 to 20)
#    0.000    2.143    1.429    2.571    0.000    2.000 
#    5.143    3.571    0.000    2.571    0.000    0.000 
#    0.000    0.000    0.000    0.000    0.000    0.000 
#
# Total GULP energy -156304.177128 kJ/mol
# GULP energy per Si atom -5582.292040 kJ/mol
# Density = 2.192286 g / cm^3
# Si number density = 21.972871 Si / 1000 Ang^3
#
#
#
# Elastic Constant Matrix: (Units=GPa)
#
#
# Indices 1 2 3 4 5 6 
#
# 1 36.9833 14.1020 -2.0958 0.0000 -10.6237 0.0000
# 2 14.1020 204.3734 55.0712 0.0000 -18.1648 0.0000
# 3 -2.0958 55.0712 77.2099 0.0000 -17.8229 0.0000
# 4 0.0000 0.0000 0.0000 27.7865 0.0000 -2.8730
# 5 -10.6237 -18.1648 -17.8229 0.0000 29.6257 0.0000
# 6 0.0000 0.0000 0.0000 -2.8730 0.0000 -1.9199
#
#
#
# Elastic Compliance Matrix: (Units=1/GPa)
#
#
# Indices 1 2 3 4 5 6 
#
# 1 0.032233 -0.002600 0.005841 0.000000 0.013478 0.000000
# 2 -0.002600 0.006310 -0.004521 0.000000 0.000217 0.000000
# 3 0.005841 -0.004521 0.018788 0.000000 0.010625 0.000000
# 4 0.000000 0.000000 0.000000 0.031166 0.000000 -0.046639
# 5 0.013478 0.000217 0.010625 0.000000 0.045113 0.000000
# 6 0.000000 0.000000 0.000000 -0.046639 0.000000 -0.451077
#
#
# Mechanical properties :
#
#
# Convention : Reuss Voigt Hill
#
# Bulk Modulus (GPa) = 18.25812 50.30237 34.28024
# Shear Modulus (GPa) = -16.85496 27.86441 5.50473
#
# Velocity S-wave (km/s) = -2.77263 3.56494 1.58451
# Velocity P-wave (km/s) = 1.38655 6.31567 4.35690
#
# Compressibility (1/GPa) = 0.05477017
#
# Stress axis : x y z
#
# Youngs Moduli (GPa) = 31.02366 158.47918 53.22606
#
# Poissons Ratio (x) = 0.41206 -0.31088
# Poissons Ratio (y) = 0.08066 0.24065
# Poissons Ratio (z) = -0.18120 0.71653
#
# Static dielectric constant tensor:
#      x y z
#    x 1.847810 0.000000 0.021250 
#    y 0.000000 1.828420 0.000000 
#    z 0.021250 0.000000 1.843510 
# 
# From -- ./inp_files/65293.got.cif
#   From: 2010.05.17/outbox.cif.g08.bks.cpg/sg12_33_cif.got.tgz:65293.got - 2010.06.03 13:09:07.
