data_PCOD9174479
_publ_section_title
;
Structure prediction by ZEFSAII (Michael W. Deem and Ramdas Pophale) SiO2 
 PCOD9174479
Probable space group: C 2/M
;
_chemical_formula_sum "Si O2"
_cell_formula_units_Z 56
_cell_length_a 22.270803
_cell_length_b 11.540590
_cell_length_c 12.127616
_cell_angle_alpha 90.000000
_cell_angle_beta 73.760338
_cell_angle_gamma 90.000000
_cell_volume 2992.650115
_symmetry_space_group_name_H-M "C 2/M"
_symmetry_group_IT_number 12
_symmetry_cell_setting 'monoclinic'
loop_
_space_group_symop_operation_xyz
x,y,z
-x,y,-z
-x,-y,-z
x,-y,z
1/2+x,1/2+y,z
1/2-x,1/2+y,-z
1/2-x,1/2-y,-z
1/2+x,1/2-y,z
loop_
_atom_site_type_symbol
_atom_site_label
_atom_site_fract_x
_atom_site_fract_y
_atom_site_fract_z
Si Si1 0.210600 0.632826 0.819829
Si Si2 0.139696 0.633671 0.067590
Si Si3 0.498549 0.864093 0.868206
Si Si4 0.686796 0.191911 0.274619
Si Si5 0.883257 0.717661 0.313499
Si Si6 0.225834 0.130513 0.573741
Si Si7 0.927475 0.636827 0.528270
O O1 0.220447 0.500000 0.839273
O O2 0.276686 0.689573 0.762212
O O3 0.165801 0.648213 0.737598
O O4 0.175366 0.686922 0.944562
O O5 0.126471 0.500000 0.043351
O O6 0.070415 0.679959 0.127605
O O7 0.179286 0.637181 0.158300
O O8 0.552780 0.786152 0.788497
O O9 0.508129 0.000000 0.827179
O O10 0.500000 0.863605 0.000000
O O11 0.731201 0.126834 0.339077
O O12 0.618990 0.200161 0.364363
O O13 0.845719 0.836273 0.358713
O O14 0.900437 0.658334 0.420352
O O15 0.250000 0.250000 0.500000
O O16 0.229916 0.000000 0.520366
O O17 0.924172 0.500000 0.556533
O O18 0.000000 0.671805 0.500000
#
# Coordination Sequence:
#
# PCOD9174479 Si02
#       7
#     8   8   8   8   8   8   8
#     4  10  21  35  56  85 117 158 196 242 298 352
#     4  10  19  34  56  84 119 151 194 250 298 345
#     4  10  18  31  56  88 118 152 197 249 298 343
#     4  11  22  36  56  87 118 150 192 243 297 362
#     4  11  21  36  57  87 118 152 195 247 296 359
#     4  11  24  41  63  90 121 161 203 248 301 361
#     4  11  22  36  56  84 116 153 196 247 305 353
#
# _framework density 18.712513000000001
#
# number of rings (size 3 to 8) (size 9 to 14) (size 15 to 20)
#    0.000    1.429    2.857    3.857    0.000    5.143 
#    0.000    0.000    0.000    4.714    0.000    0.000 
#    0.000    0.000    0.000    0.000    0.000    0.000 
#
# Total GULP energy -156068.800462 kJ/mol
# GULP energy per Si atom -5573.885731 kJ/mol
# Density = 1.866992 g / cm^3
# Si number density = 18.712513 Si / 1000 Ang^3
#
#
#
# Elastic Constant Matrix: (Units=GPa)
#
#
# Indices 1 2 3 4 5 6 
#
# 1 124.3098 36.5939 54.4754 0.0000 -18.7357 0.0000
# 2 36.5939 71.4483 29.9341 0.0000 -19.5768 0.0000
# 3 54.4754 29.9341 108.4126 0.0000 -13.1092 0.0000
# 4 0.0000 0.0000 0.0000 15.0696 0.0000 -1.9377
# 5 -18.7357 -19.5768 -13.1092 0.0000 40.8506 0.0000
# 6 0.0000 0.0000 0.0000 -1.9377 0.0000 -15.3574
#
#
#
# Elastic Compliance Matrix: (Units=1/GPa)
#
#
# Indices 1 2 3 4 5 6 
#
# 1 0.011324 -0.003318 -0.004513 0.000000 0.002155 0.000000
# 2 -0.003318 0.018610 -0.002681 0.000000 0.006536 0.000000
# 3 -0.004513 -0.002681 0.012304 0.000000 0.000594 0.000000
# 4 0.000000 0.000000 0.000000 0.065299 0.000000 -0.008239
# 5 0.002155 0.006536 0.000594 0.000000 0.028791 0.000000
# 6 0.000000 0.000000 0.000000 -0.008239 0.000000 -0.064076
#
#
# Mechanical properties :
#
#
# Convention : Reuss Voigt Hill
#
# Bulk Modulus (GPa) = 47.14112 60.68637 53.91375
# Shear Modulus (GPa) = 49.82700 20.32371 35.07536
#
# Velocity S-wave (km/s) = 5.16580 3.29918 4.33417
# Velocity P-wave (km/s) = 7.79920 6.85668 7.34308
#
# Compressibility (1/GPa) = 0.02121290
#
# Stress axis : x y z
#
# Youngs Moduli (GPa) = 88.30897 53.73534 81.27594
#
# Poissons Ratio (x) = 0.17832 0.36681
# Poissons Ratio (y) = 0.29305 0.21787
# Poissons Ratio (z) = 0.39856 0.14404
#
# Static dielectric constant tensor:
#      x y z
#    x 1.670970 0.000000 -0.017610 
#    y 0.000000 1.643780 0.000000 
#    z -0.017610 0.000000 1.709050 
# 
# From -- ./inp_files/165632.got.cif
#   From: 2010.05.17/outbox.cif.g08.bks.cpg/sg12_83_cif.got.tgz:165632.got - 2010.06.03 13:09:07.
