data_PCOD9174525
_publ_section_title
;
Structure prediction by ZEFSAII (Michael W. Deem and Ramdas Pophale) SiO2 
 PCOD9174525
Probable space group: C 2/M
;
_chemical_formula_sum "Si O2"
_cell_formula_units_Z 40
_cell_length_a 17.865142
_cell_length_b 18.199408
_cell_length_c 9.559789
_cell_angle_alpha 90.000000
_cell_angle_beta 46.583103
_cell_angle_gamma 90.000000
_cell_volume 2257.725521
_symmetry_space_group_name_H-M "C 2/M"
_symmetry_group_IT_number 12
_symmetry_cell_setting 'monoclinic'
loop_
_space_group_symop_operation_xyz
x,y,z
-x,y,-z
-x,-y,-z
x,-y,z
1/2+x,1/2+y,z
1/2-x,1/2+y,-z
1/2-x,1/2-y,-z
1/2+x,1/2-y,z
loop_
_atom_site_type_symbol
_atom_site_label
_atom_site_fract_x
_atom_site_fract_y
_atom_site_fract_z
Si Si1 0.439547 0.779074 0.789502
Si Si2 0.660396 0.195440 0.369404
Si Si3 0.745695 0.913754 0.473243
Si Si4 0.952211 0.161747 0.202759
Si Si5 0.339924 0.197779 0.208349
O O1 0.358650 0.796995 0.771203
O O2 0.548564 0.805237 0.586181
O O3 0.462536 0.692975 0.799134
O O4 0.398995 0.813188 0.986615
O O5 0.721168 0.126226 0.356381
O O6 0.728010 0.266243 0.324654
O O7 0.862287 0.891793 0.366582
O O8 0.673565 0.873362 0.679521
O O9 0.730883 0.000000 0.485475
O O10 0.898123 0.237610 0.218376
O O11 0.000000 0.129110 0.000000
#
# Coordination Sequence:
#
# PCOD9174525 Si02
#       5
#     8   8   8   8   8
#     4  10  18  31  59  81 100 129 184 227 261 290
#     4  10  19  34  53  81 105 135 180 220 262 304
#     4  11  21  35  52  77 114 146 169 207 265 325
#     4   9  17  33  59  79  99 134 185 227 254 302
#     4  10  18  34  54  78 104 139 181 217 257 307
#
# _framework density 17.716944999999999
#
# number of rings (size 3 to 8) (size 9 to 14) (size 15 to 20)
#    0.000    2.000    4.000    1.800    0.000    0.400 
#    0.000    5.000    0.000    2.400    0.000    0.000 
#    0.000    0.000    0.000    0.000    0.000    0.000 
#
# Total GULP energy -111359.240712 kJ/mol
# GULP energy per Si atom -5567.962036 kJ/mol
# Density = 1.767662 g / cm^3
# Si number density = 17.716945 Si / 1000 Ang^3
#
#
#
# Elastic Constant Matrix: (Units=GPa)
#
#
# Indices 1 2 3 4 5 6 
#
# 1 81.9709 30.0351 21.1174 0.0000 18.4510 0.0000
# 2 30.0351 84.2193 20.6619 0.0000 6.6974 0.0000
# 3 21.1174 20.6619 86.6165 0.0000 7.7507 0.0000
# 4 0.0000 0.0000 0.0000 11.9749 0.0000 -0.8780
# 5 18.4510 6.6974 7.7507 0.0000 28.3867 0.0000
# 6 0.0000 0.0000 0.0000 -0.8780 0.0000 12.3618
#
#
#
# Elastic Compliance Matrix: (Units=1/GPa)
#
#
# Indices 1 2 3 4 5 6 
#
# 1 0.016476 -0.004642 -0.002101 0.000000 -0.009041 0.000000
# 2 -0.004642 0.014056 -0.002250 0.000000 0.000315 0.000000
# 3 -0.002101 -0.002250 0.012735 0.000000 -0.001581 0.000000
# 4 0.000000 0.000000 0.000000 0.083945 0.000000 0.005962
# 5 -0.009041 0.000315 -0.001581 0.000000 0.041462 0.000000
# 6 0.000000 0.000000 0.000000 0.005962 0.000000 0.081318
#
#
# Mechanical properties :
#
#
# Convention : Reuss Voigt Hill
#
# Bulk Modulus (GPa) = 39.55081 44.04838 41.79960
# Shear Modulus (GPa) = 18.08944 22.61081 20.35013
#
# Velocity S-wave (km/s) = 3.19881 3.57631 3.39281
# Velocity P-wave (km/s) = 6.00128 6.47839 6.24440
#
# Compressibility (1/GPa) = 0.02528393
#
# Stress axis : x y z
#
# Youngs Moduli (GPa) = 60.69284 71.14422 78.52123
#
# Poissons Ratio (x) = 0.33023 0.16496
# Poissons Ratio (y) = 0.28171 0.17663
# Poissons Ratio (z) = 0.12750 0.16004
#
# Static dielectric constant tensor:
#      x y z
#    x 1.696230 0.000000 -0.008930 
#    y 0.000000 1.558250 0.000000 
#    z -0.008930 0.000000 1.670370 
# 
# From -- ./inp_files/61386.got.cif
#   From: 2010.05.17/outbox.cif.g08.bks.cpg/sg12_31_cif.got.tgz:61386.got - 2010.06.03 13:09:07.
