data_PCOD9174926
_publ_section_title
;
Structure prediction by ZEFSAII (Michael W. Deem and Ramdas Pophale) SiO2 
 PCOD9174926
Probable space group: C 2/M
;
_chemical_formula_sum "Si O2"
_cell_formula_units_Z 56
_cell_length_a 10.003154
_cell_length_b 15.326317
_cell_length_c 17.521286
_cell_angle_alpha 90.000000
_cell_angle_beta 121.095381
_cell_angle_gamma 90.000000
_cell_volume 2300.229165
_symmetry_space_group_name_H-M "C 2/M"
_symmetry_group_IT_number 12
_symmetry_cell_setting 'monoclinic'
loop_
_space_group_symop_operation_xyz
x,y,z
-x,y,-z
-x,-y,-z
x,-y,z
1/2+x,1/2+y,z
1/2-x,1/2+y,-z
1/2-x,1/2-y,-z
1/2+x,1/2-y,z
loop_
_atom_site_type_symbol
_atom_site_label
_atom_site_fract_x
_atom_site_fract_y
_atom_site_fract_z
Si Si1 0.198313 0.096497 0.712036
Si Si2 0.246086 0.134782 0.567391
Si Si3 0.963444 0.901639 0.182308
Si Si4 0.812956 0.338753 0.426779
Si Si5 0.509992 0.207783 0.822605
Si Si6 0.397990 0.098758 0.289621
Si Si7 0.850381 0.405076 0.009861
O O1 0.144313 0.101979 0.608339
O O2 0.067305 0.109257 0.736499
O O3 0.343824 0.159138 0.770271
O O4 0.262176 0.000000 0.744687
O O5 0.243336 0.238968 0.582404
O O6 0.224691 0.116020 0.471710
O O7 0.419171 0.099100 0.633905
O O8 0.031448 0.808843 0.178650
O O9 0.798713 0.899213 0.088486
O O10 0.025985 0.000000 0.186982
O O11 0.804113 0.379027 0.339816
O O12 0.000000 0.337781 0.500000
O O13 0.602309 0.175362 0.773621
O O14 0.618826 0.171589 0.921963
O O15 0.362482 0.000000 0.252311
O O16 0.842239 0.500000 0.047639
O O17 0.000000 0.405538 0.000000
#
# Coordination Sequence:
#
# PCOD9174926 Si02
#       7
#     8   8   8   8   8   8   8
#     4  10  19  33  54  79 102 131 176 219 253 297
#     4   9  17  30  49  73 101 137 170 206 251 304
#     4  10  21  34  52  78 105 137 172 211 257 305
#     4   9  18  31  48  73 106 136 169 208 257 305
#     4  11  19  32  54  78 104 134 171 213 260 301
#     4  10  20  32  52  79 103 131 174 219 258 301
#     4  10  18  32  54  80 106 130 170 219 252 295
#
# _framework density 24.345400000000001
#
# number of rings (size 3 to 8) (size 9 to 14) (size 15 to 20)
#    0.000    2.143    1.429    3.857    0.000    3.143 
#    0.000    0.000    0.000   11.571    0.000   16.000 
#    0.000    0.000    0.000    0.000    0.000    0.000 
#
# Total GULP energy -156342.685101 kJ/mol
# GULP energy per Si atom -5583.667325 kJ/mol
# Density = 2.428999 g / cm^3
# Si number density = 24.345400 Si / 1000 Ang^3
#
#
#
# Elastic Constant Matrix: (Units=GPa)
#
#
# Indices 1 2 3 4 5 6 
#
# 1 77.8642 14.7818 23.3598 0.0000 0.9477 0.0000
# 2 14.7818 141.7114 10.4540 0.0000 -1.0439 0.0000
# 3 23.3598 10.4540 90.1796 0.0000 -16.6590 0.0000
# 4 0.0000 0.0000 0.0000 29.3249 0.0000 -10.5800
# 5 0.9477 -1.0439 -16.6590 0.0000 33.8538 0.0000
# 6 0.0000 0.0000 0.0000 -10.5800 0.0000 16.4824
#
#
#
# Elastic Compliance Matrix: (Units=1/GPa)
#
#
# Indices 1 2 3 4 5 6 
#
# 1 0.014306 -0.001214 -0.004010 0.000000 -0.002411 0.000000
# 2 -0.001214 0.007222 -0.000523 0.000000 -0.000001 0.000000
# 3 -0.004010 -0.000523 0.013427 0.000000 0.006703 0.000000
# 4 0.000000 0.000000 0.000000 0.044378 0.000000 0.028486
# 5 -0.002411 -0.000001 0.006703 0.000000 0.032905 0.000000
# 6 0.000000 0.000000 0.000000 0.028486 0.000000 0.078956
#
#
# Mechanical properties :
#
#
# Convention : Reuss Voigt Hill
#
# Bulk Modulus (GPa) = 42.62639 45.21628 43.92133
# Shear Modulus (GPa) = 23.75200 33.34284 28.54742
#
# Velocity S-wave (km/s) = 3.12689 3.70479 3.42804
# Velocity P-wave (km/s) = 5.53024 6.07567 5.80936
#
# Compressibility (1/GPa) = 0.02345965
#
# Stress axis : x y z
#
# Youngs Moduli (GPa) = 69.90129 138.46957 74.47825
#
# Poissons Ratio (x) = 0.16812 0.29869
# Poissons Ratio (y) = 0.08487 0.03894
# Poissons Ratio (z) = 0.28034 0.07239
#
# Static dielectric constant tensor:
#      x y z
#    x 1.976060 0.000000 -0.017680 
#    y 0.000000 1.953850 0.000000 
#    z -0.017680 0.000000 1.966480 
# 
# From -- ./inp_files/263435.got.cif
#   From: 2010.05.17/outbox.cif.g08.bks.cpg/sg12_132_cif.got.tgz:263435.got - 2010.06.03 13:09:07.
