data_PCOD9174303
_publ_section_title
;
Structure prediction by ZEFSAII (Michael W. Deem and Ramdas Pophale) SiO2 
 PCOD9174303
Probable space group: C 2/M
;
_chemical_formula_sum "Si O2"
_cell_formula_units_Z 56
_cell_length_a 15.540217
_cell_length_b 9.587695
_cell_length_c 23.193290
_cell_angle_alpha 90.000000
_cell_angle_beta 130.952480
_cell_angle_gamma 90.000000
_cell_volume 2609.914985
_symmetry_space_group_name_H-M "C 2/M"
_symmetry_group_IT_number 12
_symmetry_cell_setting 'monoclinic'
loop_
_space_group_symop_operation_xyz
x,y,z
-x,y,-z
-x,-y,-z
x,-y,z
1/2+x,1/2+y,z
1/2-x,1/2+y,-z
1/2-x,1/2-y,-z
1/2+x,1/2-y,z
loop_
_atom_site_type_symbol
_atom_site_label
_atom_site_fract_x
_atom_site_fract_y
_atom_site_fract_z
Si Si1 0.997196 0.666365 0.244798
Si Si2 0.257443 0.168802 0.178680
Si Si3 0.320160 0.664041 0.983836
Si Si4 0.958423 0.165036 0.849754
Si Si5 0.947373 0.656472 0.411465
Si Si6 0.854876 0.154563 0.528457
Si Si7 0.242941 0.154028 0.639563
O O1 0.983727 0.500000 0.229280
O O2 0.994272 0.748879 0.183346
O O3 0.127685 0.687030 0.322250
O O4 0.890344 0.710171 0.237359
O O5 0.164972 0.219617 0.184218
O O6 0.252796 0.000000 0.180969
O O7 0.211448 0.206728 0.094732
O O8 0.291274 0.500000 0.976509
O O9 0.452851 0.678040 0.058579
O O10 0.250000 0.750000 0.000000
O O11 0.952115 0.000000 0.832196
O O12 0.949496 0.500000 0.388468
O O13 0.821278 0.720545 0.357068
O O14 0.000000 0.647371 0.500000
O O15 0.029122 0.761599 0.413740
O O16 0.750000 0.250000 0.500000
O O17 0.833692 0.138389 0.450968
O O18 0.853524 0.000000 0.554330
O O19 0.243406 0.000000 0.668606
#
# Coordination Sequence:
#
# PCOD9174303 Si02
#       7
#     8   8   8   8   8   8   8
#     4  10  20  37  57  76 108 148 183 218 268 331
#     4   9  18  34  55  77 106 145 183 221 270 329
#     4  10  18  31  54  79 105 139 180 228 276 323
#     4  10  20  34  54  81 108 139 185 231 273 320
#     4   9  17  31  53  77  99 128 169 213 258 309
#     4  10  19  33  53  79 110 139 174 221 267 316
#     4   9  19  35  54  75 104 142 176 210 263 325
#
# _framework density 21.456637000000001
#
# number of rings (size 3 to 8) (size 9 to 14) (size 15 to 20)
#    0.000    2.429    1.429    1.286    0.000    4.571 
#    2.571    1.429    0.000    1.714    0.000    0.000 
#    0.000    0.000    0.000    0.000    0.000    0.000 
#
# Total GULP energy -156217.820918 kJ/mol
# GULP energy per Si atom -5579.207890 kJ/mol
# Density = 2.140780 g / cm^3
# Si number density = 21.456637 Si / 1000 Ang^3
#
#
#
# Elastic Constant Matrix: (Units=GPa)
#
#
# Indices 1 2 3 4 5 6 
#
# 1 90.9810 38.7318 16.6546 0.0000 39.3551 0.0000
# 2 38.7318 94.1201 18.9155 0.0000 23.2283 0.0000
# 3 16.6546 18.9155 90.3891 0.0000 15.9015 0.0000
# 4 0.0000 0.0000 0.0000 17.7645 0.0000 6.2506
# 5 39.3551 23.2283 15.9015 0.0000 37.5944 0.0000
# 6 0.0000 0.0000 0.0000 6.2506 0.0000 22.0145
#
#
#
# Elastic Compliance Matrix: (Units=1/GPa)
#
#
# Indices 1 2 3 4 5 6 
#
# 1 0.021211 -0.003881 0.000420 0.000000 -0.019984 0.000000
# 2 -0.003881 0.013404 -0.001456 0.000000 -0.003603 0.000000
# 3 0.000420 -0.001456 0.012111 0.000000 -0.004662 0.000000
# 4 0.000000 0.000000 0.000000 0.062540 0.000000 -0.017757
# 5 -0.019984 -0.003603 -0.004662 0.000000 0.051718 0.000000
# 6 0.000000 0.000000 0.000000 -0.017757 0.000000 0.050466
#
#
# Mechanical properties :
#
#
# Convention : Reuss Voigt Hill
#
# Bulk Modulus (GPa) = 27.10717 47.12156 37.11436
# Shear Modulus (GPa) = 21.40580 28.88725 25.14653
#
# Velocity S-wave (km/s) = 3.16196 3.67319 3.42712
# Velocity P-wave (km/s) = 5.09819 6.32445 5.74414
#
# Compressibility (1/GPa) = 0.03689062
#
# Stress axis : x y z
#
# Youngs Moduli (GPa) = 47.14524 74.60659 82.57062
#
# Poissons Ratio (x) = 0.28955 -0.03465
# Poissons Ratio (y) = 0.18297 0.12022
# Poissons Ratio (z) = -0.01978 0.10863
#
# Static dielectric constant tensor:
#      x y z
#    x 1.800170 0.000000 -0.013660 
#    y 0.000000 1.762490 0.000000 
#    z -0.013660 0.000000 1.833180 
# 
# From -- ./inp_files/337901.got.cif
#   From: 2010.05.17/outbox.cif.g08.bks.cpg/sg12_169_cif.got.tgz:337901.got - 2010.06.03 13:09:07.
