data_PCOD9174706
_publ_section_title
;
Structure prediction by ZEFSAII (Michael W. Deem and Ramdas Pophale) SiO2 
 PCOD9174706
Probable space group: C 2/M
;
_chemical_formula_sum "Si O2"
_cell_formula_units_Z 40
_cell_length_a 29.652167
_cell_length_b 8.653795
_cell_length_c 10.451388
_cell_angle_alpha 90.000000
_cell_angle_beta 59.962075
_cell_angle_gamma 90.000000
_cell_volume 2321.675654
_symmetry_space_group_name_H-M "C 2/M"
_symmetry_group_IT_number 12
_symmetry_cell_setting 'monoclinic'
loop_
_space_group_symop_operation_xyz
x,y,z
-x,y,-z
-x,-y,-z
x,-y,z
1/2+x,1/2+y,z
1/2-x,1/2+y,-z
1/2-x,1/2-y,-z
1/2+x,1/2-y,z
loop_
_atom_site_type_symbol
_atom_site_label
_atom_site_fract_x
_atom_site_fract_y
_atom_site_fract_z
Si Si1 0.745303 0.185517 0.362330
Si Si2 0.136656 0.815030 0.522844
Si Si3 0.533163 0.314071 0.081294
Si Si4 0.140871 0.187611 0.815960
Si Si5 0.471735 0.184674 0.409844
O O1 0.750000 0.250000 0.500000
O O2 0.690955 0.251841 0.389397
O O3 0.800930 0.231513 0.222208
O O4 0.742564 0.000000 0.369334
O O5 0.133429 0.764593 0.677686
O O6 0.085534 0.756031 0.524832
O O7 0.138054 0.000000 0.520225
O O8 0.532746 0.500000 0.100735
O O9 0.506065 0.236666 0.240232
O O10 0.500000 0.283416 0.000000
O O11 0.592187 0.260677 0.969536
O O12 0.139058 0.000000 0.817238
O O13 0.500000 0.234972 0.500000
O O14 0.467063 0.000000 0.417493
#
# Coordination Sequence:
#
# PCOD9174706 Si02
#       5
#     8   8   8   8   8
#     4   9  16  27  45  73 107 139 170 208 259 311
#     4  10  18  32  52  74 102 136 176 218 262 310
#     4  10  18  33  56  79 105 137 173 216 260 310
#     4   8  15  28  48  76 106 133 163 208 260 306
#     4  11  24  38  51  74 108 142 176 217 265 316
#
# _framework density 17.228936000000001
#
# number of rings (size 3 to 8) (size 9 to 14) (size 15 to 20)
#    0.000    2.400    2.000    3.000    0.000    2.000 
#    0.000    2.000    0.000    1.200    0.000    0.000 
#    0.000    0.000    0.000    0.000    0.000    0.000 
#
# Total GULP energy -111462.837485 kJ/mol
# GULP energy per Si atom -5573.141874 kJ/mol
# Density = 1.718972 g / cm^3
# Si number density = 17.228936 Si / 1000 Ang^3
#
#
#
# Elastic Constant Matrix: (Units=GPa)
#
#
# Indices 1 2 3 4 5 6 
#
# 1 168.9535 46.0743 68.5450 0.0000 -36.4187 0.0000
# 2 46.0743 40.8115 27.8985 0.0000 -6.1069 0.0000
# 3 68.5450 27.8985 57.6592 0.0000 -17.1722 0.0000
# 4 0.0000 0.0000 0.0000 21.4304 0.0000 -6.1688
# 5 -36.4187 -6.1069 -17.1722 0.0000 35.4452 0.0000
# 6 0.0000 0.0000 0.0000 -6.1688 0.0000 26.3541
#
#
#
# Elastic Compliance Matrix: (Units=1/GPa)
#
#
# Indices 1 2 3 4 5 6 
#
# 1 0.013941 -0.007224 -0.010731 0.000000 0.007881 0.000000
# 2 -0.007224 0.040572 -0.013055 0.000000 -0.006757 0.000000
# 3 -0.010731 -0.013055 0.037937 0.000000 0.005105 0.000000
# 4 0.000000 0.000000 0.000000 0.050034 0.000000 0.011712
# 5 0.007881 -0.006757 0.005105 0.000000 0.037618 0.000000
# 6 0.000000 0.000000 0.000000 0.011712 0.000000 0.040686
#
#
# Mechanical properties :
#
#
# Convention : Reuss Voigt Hill
#
# Bulk Modulus (GPa) = 32.86242 61.38444 47.12343
# Shear Modulus (GPa) = 17.06770 24.97305 21.02038
#
# Velocity S-wave (km/s) = 3.15086 3.81134 3.49673
# Velocity P-wave (km/s) = 5.68794 7.42121 6.61162
#
# Compressibility (1/GPa) = 0.03042989
#
# Stress axis : x y z
#
# Youngs Moduli (GPa) = 71.73120 24.64756 26.35968
#
# Poissons Ratio (x) = 0.17806 0.28285
# Poissons Ratio (y) = 0.51820 0.34413
# Poissons Ratio (z) = 0.76971 0.32178
#
# Static dielectric constant tensor:
#      x y z
#    x 1.615500 0.000000 -0.032990 
#    y 0.000000 1.584620 0.000000 
#    z -0.032990 0.000000 1.571970 
# 
# From -- ./inp_files/100991.got.cif
#   From: 2010.05.17/outbox.cif.g08.bks.cpg/sg12_51_cif.got.tgz:100991.got - 2010.06.03 13:09:07.
