data_PCOD9174662
_publ_section_title
;
Structure prediction by ZEFSAII (Michael W. Deem and Ramdas Pophale) SiO2 
 PCOD9174662
Probable space group: C 2/M
;
_chemical_formula_sum "Si O2"
_cell_formula_units_Z 48
_cell_length_a 20.822131
_cell_length_b 18.696632
_cell_length_c 20.122020
_cell_angle_alpha 90.000000
_cell_angle_beta 159.434492
_cell_angle_gamma 90.000000
_cell_volume 2751.763961
_symmetry_space_group_name_H-M "C 2/M"
_symmetry_group_IT_number 12
_symmetry_cell_setting 'monoclinic'
loop_
_space_group_symop_operation_xyz
x,y,z
-x,y,-z
-x,-y,-z
x,-y,z
1/2+x,1/2+y,z
1/2-x,1/2+y,-z
1/2-x,1/2-y,-z
1/2+x,1/2-y,z
loop_
_atom_site_type_symbol
_atom_site_label
_atom_site_fract_x
_atom_site_fract_y
_atom_site_fract_z
Si Si1 0.400028 0.333620 0.677884
Si Si2 0.193680 0.697172 0.612569
Si Si3 0.241581 0.915577 0.051823
Si Si4 0.962451 0.332914 0.746159
Si Si5 0.265549 0.822151 0.201739
Si Si6 0.486066 0.810763 0.914466
O O1 0.285760 0.334732 0.636224
O O2 0.251263 0.345448 0.476547
O O3 0.482702 0.253025 0.754088
O O4 0.561667 0.389836 0.838308
O O5 0.244453 0.656718 0.730281
O O6 0.286696 0.774426 0.713219
O O7 0.976307 0.701000 0.395297
O O8 0.412637 0.876983 0.182723
O O9 0.223648 0.883717 0.108672
O O10 0.262446 0.000000 0.072492
O O11 0.016380 0.349988 0.874319
O O12 0.128135 0.756198 0.055728
O O13 0.500000 0.847440 0.000000
#
# Coordination Sequence:
#
# PCOD9174662 Si02
#       6
#     8   8   8   8   8   8
#     4  10  20  35  56  79 102 139 184 222 262 304
#     4   9  17  31  52  75 106 140 176 218 250 295
#     4  12  24  35  50  78 112 148 179 212 259 313
#     4  10  20  35  58  78 103 133 180 225 268 308
#     4  10  18  32  51  75 109 140 173 215 255 305
#     4   9  18  32  57  83 104 127 171 223 271 313
#
# _framework density 17.443356000000001
#
# number of rings (size 3 to 8) (size 9 to 14) (size 15 to 20)
#    0.000    2.000    5.000    0.500    0.000    0.667 
#    0.000    3.333    0.000    0.500    0.000    1.167 
#    0.000    0.000    0.000    0.000    0.000    0.000 
#
# Total GULP energy -133773.588837 kJ/mol
# GULP energy per Si atom -5573.899535 kJ/mol
# Density = 1.740365 g / cm^3
# Si number density = 17.443356 Si / 1000 Ang^3
#
#
#
# Elastic Constant Matrix: (Units=GPa)
#
#
# Indices 1 2 3 4 5 6 
#
# 1 54.7022 30.9520 10.9545 0.0180 -21.0584 0.0077
# 2 30.9520 51.3739 21.8858 0.0064 3.2203 0.0034
# 3 10.9545 21.8858 77.5119 -0.0082 -9.2912 -0.0043
# 4 0.0180 0.0064 -0.0082 -5.1860 -0.0033 -8.2703
# 5 -21.0584 3.2203 -9.2912 -0.0033 30.6465 0.0002
# 6 0.0077 0.0034 -0.0043 -8.2703 0.0002 7.8114
#
#
#
# Elastic Compliance Matrix: (Units=1/GPa)
#
#
# Indices 1 2 3 4 5 6 
#
# 1 0.058690 -0.042335 0.009367 0.000060 0.047616 0.000029
# 2 -0.042335 0.053245 -0.013707 -0.000020 -0.038840 -0.000009
# 3 0.009367 -0.013707 0.017010 -0.000011 0.013033 -0.000006
# 4 0.000060 -0.000020 -0.000011 -0.071725 0.000033 -0.075939
# 5 0.047616 -0.038840 0.013033 0.000033 0.073382 0.000010
# 6 0.000029 -0.000009 -0.000006 -0.075939 0.000010 0.047618
#
#
# Mechanical properties :
#
#
# Convention : Reuss Voigt Hill
#
# Bulk Modulus (GPa) = 28.09368 34.57472 31.33420
# Shear Modulus (GPa) = 17.64075 14.64076 16.14075
#
# Velocity S-wave (km/s) = 3.18357 2.90026 3.04521
# Velocity P-wave (km/s) = 5.44556 5.57490 5.51061
#
# Compressibility (1/GPa) = 0.03559520
#
# Stress axis : x y z
#
# Youngs Moduli (GPa) = 17.03873 18.78110 58.78932
#
# Poissons Ratio (x) = 0.79509 -0.55066
# Poissons Ratio (y) = 0.72133 0.80580
# Poissons Ratio (z) = -0.15960 0.25743
#
# Static dielectric constant tensor:
#      x y z
#    x 1.658180 0.000000 -0.018180 
#    y 0.000000 1.548460 0.000000 
#    z -0.018180 0.000000 1.622560 
# 
# From -- ./inp_files/322588.got.cif
#   From: 2010.05.17/outbox.cif.g08.bks.cpg/sg12_162_cif.got.tgz:322588.got - 2010.06.03 13:09:07.
