data_PCOD9174982
_publ_section_title
;
Structure prediction by ZEFSAII (Michael W. Deem and Ramdas Pophale) SiO2 
 PCOD9174982
Probable space group: C 2/M
;
_chemical_formula_sum "Si O2"
_cell_formula_units_Z 64
_cell_length_a 22.011817
_cell_length_b 17.751555
_cell_length_c 28.163199
_cell_angle_alpha 90.000000
_cell_angle_beta 18.928434
_cell_angle_gamma 90.000000
_cell_volume 3569.748113
_symmetry_space_group_name_H-M "C 2/M"
_symmetry_group_IT_number 12
_symmetry_cell_setting 'monoclinic'
loop_
_space_group_symop_operation_xyz
x,y,z
-x,y,-z
-x,-y,-z
x,-y,z
1/2+x,1/2+y,z
1/2-x,1/2+y,-z
1/2-x,1/2-y,-z
1/2+x,1/2-y,z
loop_
_atom_site_type_symbol
_atom_site_label
_atom_site_fract_x
_atom_site_fract_y
_atom_site_fract_z
Si Si1 0.315403 0.151537 0.665985
Si Si2 0.979498 0.202602 0.184825
Si Si3 0.786313 0.791724 0.548041
Si Si4 0.889559 0.171308 0.629478
Si Si5 0.001924 0.307953 0.682491
Si Si6 0.784119 0.088357 0.160346
Si Si7 0.232598 0.190048 0.083853
Si Si8 0.011077 0.410172 0.936094
O O1 0.500000 0.131555 0.500000
O O2 0.137318 0.148270 0.762821
O O3 0.336910 0.239709 0.665377
O O4 0.289664 0.103440 0.732061
O O5 0.829898 0.257036 0.322071
O O6 0.100879 0.165560 0.137239
O O7 0.116902 0.253022 0.051101
O O8 0.643878 0.834940 0.618676
O O9 0.961906 0.837488 0.437847
O O10 0.872617 0.723064 0.453520
O O11 0.704225 0.123654 0.773588
O O12 0.000000 0.151939 0.500000
O O13 0.849321 0.366181 0.776599
O O14 0.893984 0.237659 0.786133
O O15 0.782393 0.000000 0.150377
O O16 0.000000 0.115599 0.000000
O O17 0.342869 0.126355 0.030527
O O18 0.008219 0.500000 0.934536
O O19 0.000000 0.389032 0.000000
#
# Coordination Sequence:
#
# PCOD9174982 Si02
#       8
#     8   8   8   8   8   8   8   8
#     4  11  19  34  60  85 111 143 187 236 275 329
#     4  10  18  32  54  86 109 132 188 235 274 322
#     4  10  18  32  54  86 109 132 188 235 274 322
#     4  11  19  34  60  85 111 143 187 236 275 329
#     4  10  20  33  56  81 108 146 186 233 276 325
#     4  11  24  38  54  83 118 152 189 229 282 340
#     4  10  20  33  56  81 108 146 186 233 276 325
#     4  11  24  38  54  83 118 152 189 229 282 340
#
# _framework density 17.928436000000001
#
# number of rings (size 3 to 8) (size 9 to 14) (size 15 to 20)
#    0.000    1.500    5.000    1.500    0.000    0.500 
#    0.000    1.250    0.000   22.500    0.000    0.000 
#    0.000    0.000    0.000    0.000    0.000    0.000 
#
# Total GULP energy -178628.788363 kJ/mol
# GULP energy per Si atom -5582.149636 kJ/mol
# Density = 1.788763 g / cm^3
# Si number density = 17.928436 Si / 1000 Ang^3
#
#
#
# Elastic Constant Matrix: (Units=GPa)
#
#
# Indices 1 2 3 4 5 6 
#
# 1 103.7558 24.9391 19.5446 -0.0397 -38.6994 0.0211
# 2 24.9391 25.8681 16.2184 -0.0102 -13.7338 0.0110
# 3 19.5446 16.2184 79.6120 0.0364 -11.4643 -0.0032
# 4 -0.0397 -0.0102 0.0364 12.7880 -0.0040 1.7972
# 5 -38.6994 -13.7338 -11.4643 -0.0040 46.7094 -0.0006
# 6 0.0211 0.0110 -0.0032 1.7972 -0.0006 13.8765
#
#
#
# Elastic Compliance Matrix: (Units=1/GPa)
#
#
# Indices 1 2 3 4 5 6 
#
# 1 0.015821 -0.009550 -0.000472 0.000049 0.010184 -0.000023
# 2 -0.009550 0.056576 -0.008215 0.000046 0.006706 -0.000038
# 3 -0.000472 -0.008215 0.014457 -0.000051 0.000742 0.000017
# 4 0.000049 0.000046 -0.000051 0.079648 0.000048 -0.010316
# 5 0.010184 0.006706 0.000742 0.000048 0.032000 -0.000026
# 6 -0.000023 -0.000038 0.000017 -0.010316 -0.000026 0.073400
#
#
# Mechanical properties :
#
#
# Convention : Reuss Voigt Hill
#
# Bulk Modulus (GPa) = 19.84938 36.73778 28.29358
# Shear Modulus (GPa) = 15.37656 24.57705 19.97681
#
# Velocity S-wave (km/s) = 2.93177 3.70650 3.34166
# Velocity P-wave (km/s) = 4.74930 6.23325 5.54117
#
# Compressibility (1/GPa) = 0.05037940
#
# Stress axis : x y z
#
# Youngs Moduli (GPa) = 63.20742 17.67544 69.16947
#
# Poissons Ratio (x) = 0.16880 0.03265
# Poissons Ratio (y) = 0.60362 0.56825
# Poissons Ratio (z) = 0.02984 0.14521
#
# Static dielectric constant tensor:
#      x y z
#    x 1.645450 0.000000 -0.017110 
#    y 0.000000 1.567170 0.000020 
#    z -0.017110 0.000020 1.618570 
# 
# From -- ./inp_files/366790.got.cif
#   From: 2010.05.17/outbox.cif.g08.bks.cpg/sg12_184_cif.got.tgz:366790.got - 2010.06.03 13:09:07.
