data_PCOD9174538
_publ_section_title
;
Structure prediction by ZEFSAII (Michael W. Deem and Ramdas Pophale) SiO2 
 PCOD9174538
Probable space group: C 2/M
;
_chemical_formula_sum "Si O2"
_cell_formula_units_Z 60
_cell_length_a 16.071157
_cell_length_b 27.583910
_cell_length_c 9.158874
_cell_angle_alpha 90.000000
_cell_angle_beta 108.655021
_cell_angle_gamma 90.000000
_cell_volume 3846.862895
_symmetry_space_group_name_H-M "C 2/M"
_symmetry_group_IT_number 12
_symmetry_cell_setting 'monoclinic'
loop_
_space_group_symop_operation_xyz
x,y,z
-x,y,-z
-x,-y,-z
x,-y,z
1/2+x,1/2+y,z
1/2-x,1/2+y,-z
1/2-x,1/2-y,-z
1/2+x,1/2-y,z
loop_
_atom_site_type_symbol
_atom_site_label
_atom_site_fract_x
_atom_site_fract_y
_atom_site_fract_z
Si Si1 0.873941 0.057754 0.070135
Si Si2 0.000000 0.206036 0.500000
Si Si3 0.288375 0.270244 0.673696
Si Si4 0.397796 0.797504 0.929300
Si Si5 0.768453 0.861789 0.178956
Si Si6 0.155211 0.140569 0.460309
Si Si7 0.363465 0.262060 0.200334
Si Si8 0.577085 0.442869 0.238191
O O1 0.803080 0.091135 0.112490
O O2 0.972834 0.068584 0.182993
O O3 0.857876 0.000000 0.080994
O O4 0.883894 0.066844 0.901782
O O5 0.071843 0.171708 0.466563
O O6 0.050840 0.236680 0.649931
O O7 0.250000 0.250000 0.500000
O O8 0.368716 0.236453 0.775138
O O9 0.307903 0.325948 0.649255
O O10 0.213977 0.263657 0.753286
O O11 0.330908 0.842938 0.897612
O O12 0.500000 0.810678 0.000000
O O13 0.378671 0.763928 0.057943
O O14 0.784883 0.865106 0.362692
O O15 0.830439 0.817190 0.161214
O O16 0.126087 0.089358 0.382821
O O17 0.585733 0.500000 0.269304
#
# Coordination Sequence:
#
# PCOD9174538 Si02
#       8
#     8   4   8   8   8   8   8   8
#     4   9  19  35  53  74 104 134 166 212 258 306
#     4  10  18  32  45  74 104 132 175 206 252 304
#     4  11  19  36  50  71 107 141 172 217 254 297
#     4  11  23  35  52  75 103 139 181 219 256 304
#     4  10  20  35  49  73 104 132 174 209 252 308
#     4  11  20  30  51  70 104 140 166 206 256 300
#     4  10  21  32  51  73 103 138 175 211 253 306
#     4   9  19  33  50  78 105 130 168 209 252 313
#
# _framework density 15.597125
#
# number of rings (size 3 to 8) (size 9 to 14) (size 15 to 20)
#    0.000    1.867    4.000    4.800    3.733    0.533 
#    0.000    1.667    0.000    0.400    0.000    0.000 
#    0.000    2.133    0.000    0.000    0.000    0.000 
#
# Total GULP energy -167257.453139 kJ/mol
# GULP energy per Si atom -5575.248438 kJ/mol
# Density = 1.556163 g / cm^3
# Si number density = 15.597125 Si / 1000 Ang^3
#
#
#
# Elastic Constant Matrix: (Units=GPa)
#
#
# Indices 1 2 3 4 5 6 
#
# 1 80.1736 38.3287 49.1412 0.0000 15.7971 0.0000
# 2 38.3287 66.6236 49.5719 0.0000 2.8109 0.0000
# 3 49.1412 49.5719 78.7296 0.0000 18.4941 0.0000
# 4 0.0000 0.0000 0.0000 -9.4367 0.0000 13.4618
# 5 15.7971 2.8109 18.4941 0.0000 25.6656 0.0000
# 6 0.0000 0.0000 0.0000 13.4618 0.0000 18.6624
#
#
#
# Elastic Compliance Matrix: (Units=1/GPa)
#
#
# Indices 1 2 3 4 5 6 
#
# 1 0.021732 -0.006262 -0.007993 0.000000 -0.006930 0.000000
# 2 -0.006262 0.033300 -0.020593 0.000000 0.015046 0.000000
# 3 -0.007993 -0.020593 0.034875 0.000000 -0.017955 0.000000
# 4 0.000000 0.000000 0.000000 -0.052227 0.000000 0.037673
# 5 -0.006930 0.015046 -0.017955 0.000000 0.054518 0.000000
# 6 0.000000 0.000000 0.000000 0.037673 0.000000 0.026409
#
#
# Mechanical properties :
#
#
# Convention : Reuss Voigt Hill
#
# Bulk Modulus (GPa) = 49.48210 55.51225 52.49717
# Shear Modulus (GPa) = 25.63573 12.87726 19.25649
#
# Velocity S-wave (km/s) = 4.05855 2.87647 3.51753
# Velocity P-wave (km/s) = 7.33188 6.83379 7.08722
#
# Compressibility (1/GPa) = 0.02020933
#
# Stress axis : x y z
#
# Youngs Moduli (GPa) = 46.01574 30.03007 28.67380
#
# Poissons Ratio (x) = 0.18806 0.22920
# Poissons Ratio (y) = 0.28816 0.59048
# Poissons Ratio (z) = 0.36783 0.61841
#
# Static dielectric constant tensor:
#      x y z
#    x 1.535900 0.000000 -0.000140 
#    y 0.000000 1.517000 0.000000 
#    z -0.000140 0.000000 1.548070 
# 
# From -- ./inp_files/66550.got.cif
#   From: 2010.05.17/outbox.cif.g08.bks.cpg/sg12_34_cif.got.tgz:66550.got - 2010.06.03 13:09:07.
