data_PCOD9174366
_publ_section_title
;
Structure prediction by ZEFSAII (Michael W. Deem and Ramdas Pophale) SiO2 
 PCOD9174366
Probable space group: C 2/M
;
_chemical_formula_sum "Si O2"
_cell_formula_units_Z 48
_cell_length_a 14.438779
_cell_length_b 14.328440
_cell_length_c 12.518811
_cell_angle_alpha 90.000000
_cell_angle_beta 65.462137
_cell_angle_gamma 90.000000
_cell_volume 2356.049787
_symmetry_space_group_name_H-M "C 2/M"
_symmetry_group_IT_number 12
_symmetry_cell_setting 'monoclinic'
loop_
_space_group_symop_operation_xyz
x,y,z
-x,y,-z
-x,-y,-z
x,-y,z
1/2+x,1/2+y,z
1/2-x,1/2+y,-z
1/2-x,1/2-y,-z
1/2+x,1/2-y,z
loop_
_atom_site_type_symbol
_atom_site_label
_atom_site_fract_x
_atom_site_fract_y
_atom_site_fract_z
Si Si1 0.138319 0.606330 0.745796
Si Si2 0.900423 0.395170 0.607005
Si Si3 0.383083 0.107468 0.013500
Si Si4 0.266407 0.360187 0.486185
Si Si5 0.566449 0.781000 0.211238
Si Si6 0.500210 0.393038 0.626446
O O1 0.096943 0.500000 0.769045
O O2 0.230385 0.606152 0.619213
O O3 0.048025 0.674036 0.747786
O O4 0.174236 0.629991 0.848444
O O5 0.927214 0.500000 0.628411
O O6 0.810710 0.396470 0.565650
O O7 0.877741 0.335455 0.720717
O O8 0.000000 0.355765 0.500000
O O9 0.379171 0.186260 0.924334
O O10 0.359558 0.000000 0.989894
O O11 0.500000 0.107154 0.000000
O O12 0.250000 0.250000 0.500000
O O13 0.380017 0.387998 0.404472
O O14 0.553706 0.677041 0.264267
O O15 0.500000 0.365235 0.500000
O O16 0.463360 0.500000 0.651323
#
# Coordination Sequence:
#
# PCOD9174366 Si02
#       6
#     8   8   8   8   8   8
#     4  10  18  31  54  85 116 144 178 225 281 336
#     4  11  20  30  51  84 117 140 170 226 292 344
#     4   8  16  29  51  83 114 143 176 220 278 339
#     4  12  21  35  55  83 116 150 184 227 281 334
#     4  11  18  33  54  82 113 143 178 222 279 337
#     4  11  24  40  55  77 111 154 199 233 266 324
#
# _framework density 20.373085
#
# number of rings (size 3 to 8) (size 9 to 14) (size 15 to 20)
#    0.000    1.500    3.333    5.500    0.000    0.000 
#    0.000    0.000    0.000    8.500    0.000    2.333 
#    0.000    0.000    0.000    0.000    0.000    0.000 
#
# Total GULP energy -133936.057258 kJ/mol
# GULP energy per Si atom -5580.669052 kJ/mol
# Density = 2.032671 g / cm^3
# Si number density = 20.373085 Si / 1000 Ang^3
#
#
#
# Elastic Constant Matrix: (Units=GPa)
#
#
# Indices 1 2 3 4 5 6 
#
# 1 46.0765 -1.4195 22.0209 0.0000 10.6899 0.0000
# 2 -1.4195 142.2075 58.7508 0.0000 13.8183 0.0000
# 3 22.0209 58.7508 155.7571 0.0000 20.4045 0.0000
# 4 0.0000 0.0000 0.0000 36.4480 0.0000 4.4517
# 5 10.6899 13.8183 20.4045 0.0000 15.5263 0.0000
# 6 0.0000 0.0000 0.0000 4.4517 0.0000 18.1234
#
#
#
# Elastic Compliance Matrix: (Units=1/GPa)
#
#
# Indices 1 2 3 4 5 6 
#
# 1 0.027262 0.003129 -0.002671 0.000000 -0.018045 0.000000
# 2 0.003129 0.008897 -0.002994 0.000000 -0.006137 0.000000
# 3 -0.002671 -0.002994 0.008863 0.000000 -0.007144 0.000000
# 4 0.000000 0.000000 0.000000 0.028285 0.000000 -0.006948
# 5 -0.018045 -0.006137 -0.007144 0.000000 0.091682 0.000000
# 6 0.000000 0.000000 0.000000 -0.006948 0.000000 0.056884
#
#
# Mechanical properties :
#
#
# Convention : Reuss Voigt Hill
#
# Bulk Modulus (GPa) = 25.03113 55.86063 40.44588
# Shear Modulus (GPa) = 20.81071 31.66548 26.23809
#
# Velocity S-wave (km/s) = 3.19953 3.94671 3.59260
# Velocity P-wave (km/s) = 5.09533 6.94601 6.09136
#
# Compressibility (1/GPa) = 0.03995026
#
# Stress axis : x y z
#
# Youngs Moduli (GPa) = 36.68075 112.40351 112.82733
#
# Poissons Ratio (x) = -0.35170 0.30131
# Poissons Ratio (y) = -0.11477 0.33781
# Poissons Ratio (z) = 0.09796 0.33655
#
# Static dielectric constant tensor:
#      x y z
#    x 1.730130 0.000000 -0.033300 
#    y 0.000000 1.737710 0.000000 
#    z -0.033300 0.000000 1.816280 
# 
# From -- ./inp_files/142830.got.cif
#   From: 2010.05.17/outbox.cif.g08.bks.cpg/sg12_72_cif.got.tgz:142830.got - 2010.06.03 13:09:07.
