data_PCOD9174181
_publ_section_title
;
Structure prediction by ZEFSAII (Michael W. Deem and Ramdas Pophale) SiO2 
 PCOD9174181
Probable space group: C 2/M
;
_chemical_formula_sum "Si O2"
_cell_formula_units_Z 40
_cell_length_a 10.127841
_cell_length_b 14.291645
_cell_length_c 17.821515
_cell_angle_alpha 90.000000
_cell_angle_beta 39.528998
_cell_angle_gamma 90.000000
_cell_volume 1641.801858
_symmetry_space_group_name_H-M "C 2/M"
_symmetry_group_IT_number 12
_symmetry_cell_setting 'monoclinic'
loop_
_space_group_symop_operation_xyz
x,y,z
-x,y,-z
-x,-y,-z
x,-y,z
1/2+x,1/2+y,z
1/2-x,1/2+y,-z
1/2-x,1/2-y,-z
1/2+x,1/2-y,z
loop_
_atom_site_type_symbol
_atom_site_label
_atom_site_fract_x
_atom_site_fract_y
_atom_site_fract_z
Si Si1 0.944895 0.135957 0.912432
Si Si2 0.897832 0.398678 0.764095
Si Si3 0.847344 0.391550 0.502389
Si Si4 0.447053 0.317566 0.741254
Si Si5 0.498477 0.145811 0.915028
O O1 0.150636 0.094859 0.858619
O O2 0.971775 0.129750 0.810234
O O3 0.953928 0.243481 0.934583
O O4 0.708361 0.104163 0.032634
O O5 0.969857 0.500000 0.764560
O O6 0.024128 0.392023 0.630192
O O7 0.931855 0.291042 0.775321
O O8 0.792747 0.500000 0.543333
O O9 0.638336 0.333203 0.602409
O O10 0.000000 0.356214 0.500000
O O11 0.241180 0.355130 0.788513
O O12 0.500000 0.111472 0.000000
#
# Coordination Sequence:
#
# PCOD9174181 Si02
#       5
#     8   8   8   8   8
#     4   9  16  30  51  73 102 134 166 206 252 296
#     4  10  20  33  52  78 105 135 171 209 250 302
#     4  10  19  32  51  76 103 131 170 215 253 297
#     4  10  18  31  53  77 102 136 171 208 255 300
#     4   8  16  29  49  74  98 129 170 207 247 299
#
# _framework density 24.363475999999999
#
# number of rings (size 3 to 8) (size 9 to 14) (size 15 to 20)
#    0.000    2.600    2.000    0.600    0.000    0.000 
#    0.000    1.000    0.000   69.000    0.000    0.000 
#    0.000    0.000    0.000    0.000    0.000    0.000 
#
# Total GULP energy -111483.179420 kJ/mol
# GULP energy per Si atom -5574.158971 kJ/mol
# Density = 2.430802 g / cm^3
# Si number density = 24.363476 Si / 1000 Ang^3
#
#
#
# Elastic Constant Matrix: (Units=GPa)
#
#
# Indices 1 2 3 4 5 6 
#
# 1 66.3596 6.6910 33.6109 0.0003 -21.9220 0.0000
# 2 6.6910 90.9898 33.4557 -0.0015 -11.7448 0.0000
# 3 33.6109 33.4557 161.0314 -0.0072 -28.9343 -0.0001
# 4 0.0003 -0.0015 -0.0072-1132.4549 0.0013 24.1906
# 5 -21.9220 -11.7448 -28.9343 0.0013 47.0053 0.0001
# 6 0.0000 0.0000 -0.0001 24.1906 0.0001 2.7975
#
#
#
# Elastic Compliance Matrix: (Units=1/GPa)
#
#
# Indices 1 2 3 4 5 6 
#
# 1 0.018784 0.000557 -0.002740 0.000000 0.007213 -0.000001
# 2 0.000557 0.012028 -0.002281 0.000000 0.001861 0.000000
# 3 -0.002740 -0.002281 0.007785 0.000000 0.002944 0.000001
# 4 0.000000 0.000000 0.000000 -0.000745 0.000000 0.006445
# 5 0.007213 0.001861 0.002944 0.000000 0.026915 0.000000
# 6 -0.000001 0.000000 0.000001 0.006445 0.000000 0.301726
#
#
# Mechanical properties :
#
#
# Convention : Reuss Voigt Hill
#
# Bulk Modulus (GPa) = 33.70523 51.76622 42.73573
# Shear Modulus (GPa) = 12.97655 -200.22220 -93.62283
#
# Velocity S-wave (km/s) = 2.31037 -9.07522 -6.20572
# Velocity P-wave (km/s) = 4.58055 9.40847 5.81111
#
# Compressibility (1/GPa) = 0.02966898
#
# Stress axis : x y z
#
# Youngs Moduli (GPa) = 53.23695 83.13833 128.45537
#
# Poissons Ratio (x) = -0.04633 0.35202
# Poissons Ratio (y) = -0.02967 0.29299
# Poissons Ratio (z) = 0.14589 0.18962
#
# Static dielectric constant tensor:
#      x y z
#    x 2.031190 0.000000 0.030010 
#    y 0.000000 1.966470 0.000000 
#    z 0.030010 0.000000 1.935780 
# 
# From -- ./inp_files/176332.got.cif
#   From: 2010.05.17/outbox.cif.g08.bks.cpg/sg12_89_cif.got.tgz:176332.got - 2010.06.03 13:09:07.
