data_PCOD9174615
_publ_section_title
;
Structure prediction by ZEFSAII (Michael W. Deem and Ramdas Pophale) SiO2 
 PCOD9174615
Probable space group: C 2/M
;
_chemical_formula_sum "Si O2"
_cell_formula_units_Z 56
_cell_length_a 7.083723
_cell_length_b 30.907491
_cell_length_c 14.153192
_cell_angle_alpha 90.000000
_cell_angle_beta 131.964269
_cell_angle_gamma 90.000000
_cell_volume 2304.076463
_symmetry_space_group_name_H-M "C 2/M"
_symmetry_group_IT_number 12
_symmetry_cell_setting 'monoclinic'
loop_
_space_group_symop_operation_xyz
x,y,z
-x,y,-z
-x,-y,-z
x,-y,z
1/2+x,1/2+y,z
1/2-x,1/2+y,-z
1/2-x,1/2-y,-z
1/2+x,1/2-y,z
loop_
_atom_site_type_symbol
_atom_site_label
_atom_site_fract_x
_atom_site_fract_y
_atom_site_fract_z
Si Si1 0.261873 0.698240 0.531867
Si Si2 0.622249 0.071693 0.301645
Si Si3 0.467777 0.837238 0.724066
Si Si4 0.617719 0.548754 0.220457
Si Si5 0.750400 0.700223 0.023227
Si Si6 0.495599 0.647427 0.785399
Si Si7 0.674939 0.453295 0.447889
O O1 0.250000 0.750000 0.500000
O O2 0.235248 0.677309 0.419813
O O3 0.451660 0.671553 0.667886
O O4 0.000000 0.691950 0.500000
O O5 0.592551 0.117793 0.245216
O O6 0.342036 0.051903 0.217550
O O7 0.717992 0.080326 0.441990
O O8 0.867576 0.048801 0.340856
O O9 0.726290 0.844562 0.749820
O O10 0.522340 0.805145 0.827000
O O11 0.498339 0.500000 0.171796
O O12 0.472178 0.594936 0.184985
O O13 0.759433 0.548491 0.369453
O O14 0.713564 0.672106 0.916756
O O15 0.500000 0.688999 0.000000
O O16 0.750000 0.750000 0.000000
O O17 0.743277 0.500000 0.512788
#
# Coordination Sequence:
#
# PCOD9174615 Si02
#       7
#     8   8   8   8   8   8   8
#     4  10  19  34  51  78 111 144 177 228 288 344
#     4  10  18  32  50  76 111 150 187 233 288 335
#     4   9  19  34  55  76 111 146 181 230 286 340
#     4  10  19  33  54  79 109 152 194 234 286 343
#     4  10  20  38  59  82 109 147 190 237 284 346
#     4   9  19  35  57  80 112 148 187 234 284 339
#     4  10  19  30  49  80 114 149 193 237 276 336
#
# _framework density 24.304749999999999
#
# number of rings (size 3 to 8) (size 9 to 14) (size 15 to 20)
#    0.000    2.286    0.000    3.857    0.000    3.429 
#    7.714    0.000    0.000   12.429    0.000    2.000 
#    0.000    0.000    0.000    0.000    0.000    0.000 
#
# Total GULP energy -155901.087364 kJ/mol
# GULP energy per Si atom -5567.895977 kJ/mol
# Density = 2.424943 g / cm^3
# Si number density = 24.304750 Si / 1000 Ang^3
#
#
#
# Elastic Constant Matrix: (Units=GPa)
#
#
# Indices 1 2 3 4 5 6 
#
# 1 82.0244 6.8087 27.1082 0.0000 2.3915 0.0000
# 2 6.8087 188.5759 67.9870 0.0000 -10.3247 0.0000
# 3 27.1082 67.9870 103.1281 0.0000 -12.7541 0.0000
# 4 0.0000 0.0000 0.0000 33.0956 0.0000 0.0855
# 5 2.3915 -10.3247 -12.7541 0.0000 22.8056 0.0000
# 6 0.0000 0.0000 0.0000 0.0855 0.0000 29.3276
#
#
#
# Elastic Compliance Matrix: (Units=1/GPa)
#
#
# Indices 1 2 3 4 5 6 
#
# 1 0.013780 0.001012 -0.004739 0.000000 -0.003637 0.000000
# 2 0.001012 0.007039 -0.004862 0.000000 0.000362 0.000000
# 3 -0.004739 -0.004862 0.014972 0.000000 0.006669 0.000000
# 4 0.000000 0.000000 0.000000 0.030216 0.000000 -0.000088
# 5 -0.003637 0.000362 0.006669 0.000000 0.048124 0.000000
# 6 0.000000 0.000000 0.000000 -0.000088 0.000000 0.034098
#
#
# Mechanical properties :
#
#
# Convention : Reuss Voigt Hill
#
# Bulk Modulus (GPa) = 53.72509 64.17068 58.94788
# Shear Modulus (GPa) = 29.13578 35.16739 32.15158
#
# Velocity S-wave (km/s) = 3.46608 3.80799 3.64105
# Velocity P-wave (km/s) = 6.17827 6.76714 6.47940
#
# Compressibility (1/GPa) = 0.01861328
#
# Stress axis : x y z
#
# Youngs Moduli (GPa) = 72.57021 142.06683 66.79037
#
# Poissons Ratio (x) = -0.14376 0.31652
# Poissons Ratio (y) = -0.07343 0.32471
# Poissons Ratio (z) = 0.34391 0.69068
#
# Static dielectric constant tensor:
#      x y z
#    x 2.024170 0.000000 -0.007700 
#    y 0.000000 1.965350 0.000000 
#    z -0.007700 0.000000 1.919460 
# 
# From -- ./inp_files/201007.got.cif
#   From: 2010.05.17/outbox.cif.g08.bks.cpg/sg12_101_cif.got.tgz:201007.got - 2010.06.03 13:09:07.
