data_PCOD9174672
_publ_section_title
;
Structure prediction by ZEFSAII (Michael W. Deem and Ramdas Pophale) SiO2 
 PCOD9174672
Probable space group: C 2/M
;
_chemical_formula_sum "Si O2"
_cell_formula_units_Z 48
_cell_length_a 29.058267
_cell_length_b 15.617108
_cell_length_c 5.030493
_cell_angle_alpha 90.000000
_cell_angle_beta 111.158227
_cell_angle_gamma 90.000000
_cell_volume 2128.973842
_symmetry_space_group_name_H-M "C 2/M"
_symmetry_group_IT_number 12
_symmetry_cell_setting 'monoclinic'
loop_
_space_group_symop_operation_xyz
x,y,z
-x,y,-z
-x,-y,-z
x,-y,z
1/2+x,1/2+y,z
1/2-x,1/2+y,-z
1/2-x,1/2-y,-z
1/2+x,1/2-y,z
loop_
_atom_site_type_symbol
_atom_site_label
_atom_site_fract_x
_atom_site_fract_y
_atom_site_fract_z
Si Si1 0.549977 0.627078 0.232773
Si Si2 0.688519 0.500000 0.870674
Si Si3 0.635316 0.802891 0.706220
Si Si4 0.395363 0.623774 0.161386
Si Si5 0.297894 0.812290 0.642867
Si Si6 0.741730 0.000000 0.489274
Si Si7 0.966112 0.327843 0.690587
O O1 0.560783 0.597166 0.550886
O O2 0.545679 0.730707 0.236781
O O3 0.500000 0.595820 0.000000
O O4 0.593364 0.603271 0.118274
O O5 0.653029 0.581427 0.818402
O O6 0.726514 0.500000 0.712298
O O7 0.719390 0.500000 0.198482
O O8 0.609526 0.724452 0.805242
O O9 0.662208 0.779027 0.487430
O O10 0.588414 0.861682 0.515644
O O11 0.678778 0.821853 0.011761
O O12 0.250000 0.750000 0.500000
O O13 0.287001 0.910871 0.545866
O O14 0.000000 0.325126 0.500000
O O15 0.000000 0.366818 0.000000
#
# Coordination Sequence:
#
# PCOD9174672 Si02
#       7
#     8   4   8   8   8   4   8
#     4  10  18  32  51  78 115 155 196 246 293 344
#     4  12  24  42  57  78 110 155 202 246 296 360
#     4  11  21  37  61  90 119 153 198 250 300 359
#     4  11  21  35  56  81 112 155 199 244 293 348
#     4  12  24  41  63  92 122 159 202 250 304 362
#     4  12  26  44  64  86 119 155 194 250 306 358
#     4  10  18  32  56  89 121 153 194 247 303 361
#
# _framework density 22.546074999999998
#
# number of rings (size 3 to 8) (size 9 to 14) (size 15 to 20)
#    0.000    1.000    0.000   12.000    0.000    0.000 
#    0.000    2.500    0.000    0.000    0.000   11.667 
#    0.000    0.000    0.000    0.000    0.000    0.000 
#
# Total GULP energy -133858.010910 kJ/mol
# GULP energy per Si atom -5577.417121 kJ/mol
# Density = 2.249476 g / cm^3
# Si number density = 22.546075 Si / 1000 Ang^3
#
#
#
# Elastic Constant Matrix: (Units=GPa)
#
#
# Indices 1 2 3 4 5 6 
#
# 1 109.9499 -12.5984 34.0238 0.0000 -12.4292 0.0000
# 2 -12.5984 46.4923 4.5354 0.0000 12.8991 0.0000
# 3 34.0238 4.5354 177.5280 0.0000 13.5770 0.0000
# 4 0.0000 0.0000 0.0000 5.4369 0.0000 -0.6614
# 5 -12.4292 12.8991 13.5770 0.0000 60.8881 0.0000
# 6 0.0000 0.0000 0.0000 -0.6614 0.0000 11.8525
#
#
#
# Elastic Compliance Matrix: (Units=1/GPa)
#
#
# Indices 1 2 3 4 5 6 
#
# 1 0.010286 0.002425 -0.002192 0.000000 0.002075 0.000000
# 2 0.002425 0.023432 -0.000734 0.000000 -0.004305 0.000000
# 3 -0.002192 -0.000734 0.006200 0.000000 -0.001674 0.000000
# 4 0.000000 0.000000 0.000000 0.185185 0.000000 0.010334
# 5 0.002075 -0.004305 -0.001674 0.000000 0.018132 0.000000
# 6 0.000000 0.000000 0.000000 0.010334 0.000000 0.084947
#
#
# Mechanical properties :
#
#
# Convention : Reuss Voigt Hill
#
# Bulk Modulus (GPa) = 25.69605 42.87687 34.28646
# Shear Modulus (GPa) = 14.61324 36.16948 25.39136
#
# Velocity S-wave (km/s) = 2.54864 4.00965 3.35953
# Velocity P-wave (km/s) = 4.48136 6.36358 5.50353
#
# Compressibility (1/GPa) = 0.03891649
#
# Stress axis : x y z
#
# Youngs Moduli (GPa) = 97.22157 42.67619 161.29524
#
# Poissons Ratio (x) = -0.10351 0.35355
# Poissons Ratio (y) = -0.23581 0.11843
# Poissons Ratio (z) = 0.21310 0.03133
#
# Static dielectric constant tensor:
#      x y z
#    x 1.805130 0.000000 0.081840 
#    y 0.000000 1.932140 0.000000 
#    z 0.081840 0.000000 1.889080 
# 
# From -- ./inp_files/25033.got.cif
#   From: 2010.05.17/outbox.cif.g08.bks.cpg/sg12_13_cif.got.tgz:25033.got - 2010.06.03 13:09:07.
