data_PCOD9174542
_publ_section_title
;
Structure prediction by ZEFSAII (Michael W. Deem and Ramdas Pophale) SiO2 
 PCOD9174542
Probable space group: C 2/M
;
_chemical_formula_sum "Si O2"
_cell_formula_units_Z 64
_cell_length_a 22.100826
_cell_length_b 12.406738
_cell_length_c 19.268659
_cell_angle_alpha 90.000000
_cell_angle_beta 135.735864
_cell_angle_gamma 90.000000
_cell_volume 3687.674663
_symmetry_space_group_name_H-M "C 2/M"
_symmetry_group_IT_number 12
_symmetry_cell_setting 'monoclinic'
loop_
_space_group_symop_operation_xyz
x,y,z
-x,y,-z
-x,-y,-z
x,-y,z
1/2+x,1/2+y,z
1/2-x,1/2+y,-z
1/2-x,1/2-y,-z
1/2+x,1/2-y,z
loop_
_atom_site_type_symbol
_atom_site_label
_atom_site_fract_x
_atom_site_fract_y
_atom_site_fract_z
Si Si1 0.242568 0.778881 0.107502
Si Si2 0.348617 0.125023 0.693912
Si Si3 0.273713 0.877969 0.786734
Si Si4 0.973490 0.765833 0.711313
Si Si5 0.839745 0.872515 0.501592
Si Si6 0.594247 0.305713 0.586825
Si Si7 0.917332 0.373420 0.309099
Si Si8 0.852258 0.126139 0.096692
O O1 0.202208 0.713033 0.138303
O O2 0.320321 0.854643 0.198974
O O3 0.289164 0.689933 0.097168
O O4 0.175718 0.840981 0.003877
O O5 0.316967 0.141494 0.747122
O O6 0.425708 0.198950 0.731666
O O7 0.263289 0.143124 0.575926
O O8 0.373350 0.000000 0.707709
O O9 0.169138 0.868261 0.690349
O O10 0.294479 0.000000 0.825685
O O11 0.901207 0.838945 0.614560
O O12 0.016668 0.684742 0.690205
O O13 0.051373 0.836056 0.805668
O O14 0.868695 0.800049 0.460080
O O15 0.851263 0.000000 0.493487
O O16 0.500000 0.358695 0.500000
O O17 0.580144 0.195029 0.617400
O O18 0.935104 0.500000 0.331693
O O19 0.842365 0.000000 0.098841
#
# Coordination Sequence:
#
# PCOD9174542 Si02
#       8
#     8   8   8   8   8   8   8   8
#     4   9  19  35  55  79 106 134 167 207 261 310
#     4   9  19  35  54  73 101 137 172 209 253 300
#     4   9  18  33  55  78 101 133 169 211 258 304
#     4  11  20  34  51  77 102 135 176 214 252 298
#     4  10  20  34  52  75 103 137 170 211 259 304
#     4  10  18  32  46  78 106 131 168 206 260 304
#     4  10  20  33  50  73 106 140 171 206 252 309
#     4  10  20  34  55  81 107 134 166 211 260 308
#
# _framework density 17.355111000000001
#
# number of rings (size 3 to 8) (size 9 to 14) (size 15 to 20)
#    0.000    2.250    1.250    3.000    0.000    1.250 
#    0.000    2.500    0.000   17.250    0.000    0.000 
#    0.000    0.000    0.000    0.000    0.000    0.000 
#
# Total GULP energy -178389.212332 kJ/mol
# GULP energy per Si atom -5574.662885 kJ/mol
# Density = 1.731561 g / cm^3
# Si number density = 17.355111 Si / 1000 Ang^3
#
#
#
# Elastic Constant Matrix: (Units=GPa)
#
#
# Indices 1 2 3 4 5 6 
#
# 1 32.2989 23.7447 2.9574 0.0000 -0.5062 0.0000
# 2 23.7447 77.1381 15.3066 0.0000 1.0601 0.0000
# 3 2.9574 15.3066 50.2224 0.0000 -8.6604 0.0000
# 4 0.0000 0.0000 0.0000 17.8386 0.0000 -3.4831
# 5 -0.5062 1.0601 -8.6604 0.0000 12.7622 0.0000
# 6 0.0000 0.0000 0.0000 -3.4831 0.0000 15.6605
#
#
#
# Elastic Compliance Matrix: (Units=1/GPa)
#
#
# Indices 1 2 3 4 5 6 
#
# 1 0.040318 -0.012924 0.002294 0.000000 0.004229 0.000000
# 2 -0.012924 0.018176 -0.005807 0.000000 -0.005963 0.000000
# 3 0.002294 -0.005807 0.024514 0.000000 0.017208 0.000000
# 4 0.000000 0.000000 0.000000 0.058603 0.000000 0.013034
# 5 0.004229 -0.005963 0.017208 0.000000 0.090697 0.000000
# 6 0.000000 0.000000 0.000000 0.013034 0.000000 0.066754
#
#
# Mechanical properties :
#
#
# Convention : Reuss Voigt Hill
#
# Bulk Modulus (GPa) = 19.94646 27.07519 23.51083
# Shear Modulus (GPa) = 14.34116 17.09566 15.71841
#
# Velocity S-wave (km/s) = 2.87772 3.14196 3.01274
# Velocity P-wave (km/s) = 4.74972 5.36629 5.06739
#
# Compressibility (1/GPa) = 0.05013421
#
# Stress axis : x y z
#
# Youngs Moduli (GPa) = 24.80271 55.01677 40.79384
#
# Poissons Ratio (x) = 0.71104 -0.09359
# Poissons Ratio (y) = 0.32055 0.23689
# Poissons Ratio (z) = -0.05690 0.31948
#
# Static dielectric constant tensor:
#      x y z
#    x 1.583520 0.000000 -0.005900 
#    y 0.000000 1.568890 0.000000 
#    z -0.005900 0.000000 1.609760 
# 
# From -- ./inp_files/324969.got.cif
#   From: 2010.05.17/outbox.cif.g08.bks.cpg/sg12_163_cif.got.tgz:324969.got - 2010.06.03 13:09:07.
