data_PCOD9174097
_publ_section_title
;
Structure prediction by ZEFSAII (Michael W. Deem and Ramdas Pophale) SiO2 
 PCOD9174097
Probable space group: C 2/M
;
_chemical_formula_sum "Si O2"
_cell_formula_units_Z 40
_cell_length_a 15.599064
_cell_length_b 8.173085
_cell_length_c 11.958124
_cell_angle_alpha 90.000000
_cell_angle_beta 83.400983
_cell_angle_gamma 90.000000
_cell_volume 1514.470155
_symmetry_space_group_name_H-M "C 2/M"
_symmetry_group_IT_number 12
_symmetry_cell_setting 'monoclinic'
loop_
_space_group_symop_operation_xyz
x,y,z
-x,y,-z
-x,-y,-z
x,-y,z
1/2+x,1/2+y,z
1/2-x,1/2+y,-z
1/2-x,1/2-y,-z
1/2+x,1/2-y,z
loop_
_atom_site_type_symbol
_atom_site_label
_atom_site_fract_x
_atom_site_fract_y
_atom_site_fract_z
Si Si1 0.864302 0.311687 0.519267
Si Si2 0.998241 0.816578 0.338744
Si Si3 0.840032 0.194940 0.929471
Si Si4 0.425207 0.811880 0.133461
Si Si5 0.750890 0.694933 0.733008
O O1 0.853187 0.500000 0.486265
O O2 0.905173 0.205802 0.413767
O O3 0.782616 0.254421 0.605194
O O4 0.939964 0.304257 0.603168
O O5 0.985071 0.788723 0.209377
O O6 0.030183 0.000000 0.353993
O O7 0.828598 0.270114 0.808717
O O8 0.843975 0.000000 0.922153
O O9 0.750000 0.250000 0.000000
O O10 0.910110 0.256617 0.008314
O O11 0.330764 0.790421 0.205946
O O12 0.450833 0.000000 0.133826
O O13 0.733194 0.500000 0.737122
#
# Coordination Sequence:
#
# PCOD9174097 Si02
#       5
#     8   8   8   8   8
#     4  10  21  38  58  79 107 142 178 217 265 320
#     4  11  22  37  57  79 107 141 179 221 266 318
#     4  10  18  31  52  78 109 141 175 215 263 316
#     4  11  21  35  56  80 109 142 179 221 264 313
#     4  10  20  35  56  82 110 140 177 219 263 314
#
# _framework density 26.411877
#
# number of rings (size 3 to 8) (size 9 to 14) (size 15 to 20)
#    0.000    1.600    0.000   10.200    0.000    4.000 
#    0.000    1.000    0.000    6.000    0.000    0.000 
#    0.000    0.000    0.000    0.000    0.000    0.000 
#
# Total GULP energy -112079.154737 kJ/mol
# GULP energy per Si atom -5603.957737 kJ/mol
# Density = 2.635176 g / cm^3
# Si number density = 26.411877 Si / 1000 Ang^3
#
#
#
# Elastic Constant Matrix: (Units=GPa)
#
#
# Indices 1 2 3 4 5 6 
#
# 1 76.8360 -17.1653 -7.0369 0.0000 1.8132 0.0000
# 2 -17.1653 142.6421 16.8819 0.0000 -0.0016 0.0000
# 3 -7.0369 16.8819 189.6200 0.0000 3.5271 0.0000
# 4 0.0000 0.0000 0.0000 34.3511 0.0000 6.7674
# 5 1.8132 -0.0016 3.5271 0.0000 51.4285 0.0000
# 6 0.0000 0.0000 0.0000 6.7674 0.0000 26.6839
#
#
#
# Elastic Compliance Matrix: (Units=1/GPa)
#
#
# Indices 1 2 3 4 5 6 
#
# 1 0.013411 0.001570 0.000367 0.000000 -0.000498 0.000000
# 2 0.001570 0.007269 -0.000589 0.000000 -0.000015 0.000000
# 3 0.000367 -0.000589 0.005347 0.000000 -0.000380 0.000000
# 4 0.000000 0.000000 0.000000 0.030642 0.000000 -0.007771
# 5 -0.000498 -0.000015 -0.000380 0.000000 0.019488 0.000000
# 6 0.000000 0.000000 0.000000 -0.007771 0.000000 0.039447
#
#
# Mechanical properties :
#
#
# Convention : Reuss Voigt Hill
#
# Bulk Modulus (GPa) = 34.81319 43.82860 39.32089
# Shear Modulus (GPa) = 40.82270 50.25393 45.53831
#
# Velocity S-wave (km/s) = 3.93570 4.36673 4.15681
# Velocity P-wave (km/s) = 5.81915 6.48496 6.16106
#
# Compressibility (1/GPa) = 0.02872475
#
# Stress axis : x y z
#
# Youngs Moduli (GPa) = 74.56597 137.56678 187.02781
#
# Poissons Ratio (x) = -0.21603 -0.06866
# Poissons Ratio (y) = -0.11710 0.11009
# Poissons Ratio (z) = -0.02738 0.08098
#
# Static dielectric constant tensor:
#      x y z
#    x 2.186240 0.000000 0.046940 
#    y 0.000000 1.887970 0.000000 
#    z 0.046940 0.000000 2.001250 
# 
# From -- ./inp_files/162583.got.cif
#   From: 2010.05.17/outbox.cif.g08.bks.cpg/sg12_82_cif.got.tgz:162583.got - 2010.06.03 13:09:07.
