data_PCOD9174707
_publ_section_title
;
Structure prediction by ZEFSAII (Michael W. Deem and Ramdas Pophale) SiO2 
 PCOD9174707
Probable space group: C 2/M
;
_chemical_formula_sum "Si O2"
_cell_formula_units_Z 64
_cell_length_a 25.790849
_cell_length_b 7.517082
_cell_length_c 14.830531
_cell_angle_alpha 90.000000
_cell_angle_beta 88.827549
_cell_angle_gamma 90.000000
_cell_volume 2874.621656
_symmetry_space_group_name_H-M "C 2/M"
_symmetry_group_IT_number 12
_symmetry_cell_setting 'monoclinic'
loop_
_space_group_symop_operation_xyz
x,y,z
-x,y,-z
-x,-y,-z
x,-y,z
1/2+x,1/2+y,z
1/2-x,1/2+y,-z
1/2-x,1/2-y,-z
1/2+x,1/2-y,z
loop_
_atom_site_type_symbol
_atom_site_label
_atom_site_fract_x
_atom_site_fract_y
_atom_site_fract_z
Si Si1 0.139899 0.705556 0.355560
Si Si2 0.338041 0.782664 0.267278
Si Si3 0.726852 0.715992 0.221830
Si Si4 0.052113 0.295209 0.808359
Si Si5 0.809841 0.286009 0.471088
Si Si6 0.439091 0.784056 0.794459
Si Si7 0.585165 0.709626 0.995399
Si Si8 0.807183 0.212268 0.964671
O O1 0.124382 0.500000 0.367825
O O2 0.196986 0.714722 0.309248
O O3 0.150384 0.783915 0.453987
O O4 0.100508 0.781389 0.281668
O O5 0.286592 0.727440 0.214124
O O6 0.393117 0.717831 0.227454
O O7 0.325797 0.727078 0.370419
O O8 0.338636 0.000000 0.264360
O O9 0.725868 0.500000 0.224622
O O10 0.693848 0.778824 0.137630
O O11 0.052589 0.500000 0.778702
O O12 0.051117 0.292329 0.917630
O O13 0.997866 0.219242 0.775660
O O14 0.814251 0.500000 0.470417
O O15 0.750000 0.250000 0.500000
O O16 0.438121 0.000000 0.793027
O O17 0.426271 0.734335 0.898453
O O18 0.582182 0.500000 0.977239
O O19 0.644028 0.781992 0.982261
O O20 0.813883 0.000000 0.961789
O O21 0.750000 0.250000 0.000000
#
# Coordination Sequence:
#
# PCOD9174707 Si02
#       8
#     8   8   8   8   8   8   8   8
#     4  10  20  33  52  81 109 133 171 222 264 306
#     4   9  18  33  55  79 106 140 177 217 263 319
#     4  10  18  32  52  74 103 139 174 208 258 322
#     4  10  21  38  57  76 104 147 188 222 266 320
#     4  10  19  33  55  82 110 139 173 216 268 322
#     4  10  21  37  56  78 107 145 187 224 264 317
#     4  11  22  36  55  81 109 139 181 229 273 316
#     4  10  21  33  48  74 107 142 178 215 263 321
#
# _framework density 22.263798000000001
#
# number of rings (size 3 to 8) (size 9 to 14) (size 15 to 20)
#    0.000    2.000    2.500    1.500    0.000    4.500 
#    0.000    1.875    0.000    3.750    0.000    0.000 
#    0.000    4.000    0.000    0.000    0.000    0.000 
#
# Total GULP energy -178598.027327 kJ/mol
# GULP energy per Si atom -5581.188354 kJ/mol
# Density = 2.221312 g / cm^3
# Si number density = 22.263798 Si / 1000 Ang^3
#
#
#
# Elastic Constant Matrix: (Units=GPa)
#
#
# Indices 1 2 3 4 5 6 
#
# 1 149.2302 -1.7227 39.7477 0.0000 20.4598 0.0000
# 2 -1.7227 61.7331 -6.1530 0.0000 0.7100 0.0000
# 3 39.7477 -6.1530 88.5098 0.0000 18.2673 0.0000
# 4 0.0000 0.0000 0.0000 6.7937 0.0000 -5.3913
# 5 20.4598 0.7100 18.2673 0.0000 30.6036 0.0000
# 6 0.0000 0.0000 0.0000 -5.3913 0.0000 10.5670
#
#
#
# Elastic Compliance Matrix: (Units=1/GPa)
#
#
# Indices 1 2 3 4 5 6 
#
# 1 0.007950 -0.000018 -0.002822 0.000000 -0.003630 0.000000
# 2 -0.000018 0.016351 0.001392 0.000000 -0.001198 0.000000
# 3 -0.002822 0.001392 0.014005 0.000000 -0.006505 0.000000
# 4 0.000000 0.000000 0.000000 0.247337 0.000000 0.126192
# 5 -0.003630 -0.001198 -0.006505 0.000000 0.039013 0.000000
# 6 0.000000 0.000000 0.000000 0.126192 0.000000 0.159017
#
#
# Mechanical properties :
#
#
# Convention : Reuss Voigt Hill
#
# Bulk Modulus (GPa) = 28.24073 40.35747 34.29910
# Shear Modulus (GPa) = 10.03264 27.43293 18.73278
#
# Velocity S-wave (km/s) = 2.12510 3.51405 2.90384
# Velocity P-wave (km/s) = 4.32822 5.88481 5.16549
#
# Compressibility (1/GPa) = 0.03540984
#
# Stress axis : x y z
#
# Youngs Moduli (GPa) = 125.78192 61.15915 71.40337
#
# Poissons Ratio (x) = 0.00108 0.20152
# Poissons Ratio (y) = 0.00223 -0.09939
# Poissons Ratio (z) = 0.35500 -0.08513
#
# Static dielectric constant tensor:
#      x y z
#    x 1.766580 0.000000 -0.009340 
#    y 0.000000 1.795390 0.000000 
#    z -0.009340 0.000000 1.840090 
# 
# From -- ./inp_files/238749.got.cif
#   From: 2010.05.17/outbox.cif.g08.bks.cpg/sg12_120_cif.got.tgz:238749.got - 2010.06.03 13:09:07.
