data_PCOD9174164
_publ_section_title
;
Structure prediction by ZEFSAII (Michael W. Deem and Ramdas Pophale) SiO2 
 PCOD9174164
Probable space group: C 2/M
;
_chemical_formula_sum "Si O2"
_cell_formula_units_Z 56
_cell_length_a 12.660734
_cell_length_b 19.340057
_cell_length_c 22.375015
_cell_angle_alpha 90.000000
_cell_angle_beta 151.693415
_cell_angle_gamma 90.000000
_cell_volume 2597.956111
_symmetry_space_group_name_H-M "C 2/M"
_symmetry_group_IT_number 12
_symmetry_cell_setting 'monoclinic'
loop_
_space_group_symop_operation_xyz
x,y,z
-x,y,-z
-x,-y,-z
x,-y,z
1/2+x,1/2+y,z
1/2-x,1/2+y,-z
1/2-x,1/2-y,-z
1/2+x,1/2-y,z
loop_
_atom_site_type_symbol
_atom_site_label
_atom_site_fract_x
_atom_site_fract_y
_atom_site_fract_z
Si Si1 0.612761 0.226568 0.792523
Si Si2 0.584180 0.345263 0.393547
Si Si3 0.303720 0.156201 0.970510
Si Si4 0.283020 0.922439 0.839277
Si Si5 0.864268 0.157466 0.813520
Si Si6 0.178840 0.778216 0.635595
Si Si7 0.495980 0.921668 0.426035
O O1 0.489722 0.283701 0.688266
O O2 0.754804 0.272018 0.911206
O O3 0.769453 0.178213 0.830710
O O4 0.399508 0.189367 0.715707
O O5 0.460713 0.412820 0.307785
O O6 0.477009 0.327426 0.403114
O O7 0.841834 0.363451 0.521049
O O8 0.263728 0.098304 0.899247
O O9 0.129197 0.151367 0.936911
O O10 0.558851 0.137044 0.111604
O O11 0.364081 0.000000 0.870633
O O12 0.785473 0.219496 0.730444
O O13 0.742909 0.092403 0.722878
O O14 0.000000 0.747651 0.500000
O O15 0.500000 0.914446 0.500000
O O16 0.565043 0.000000 0.446701
#
# Coordination Sequence:
#
# PCOD9174164 Si02
#       7
#     8   8   8   8   8   8   8
#     4   9  18  32  50  75 103 130 164 208 256 300
#     4  10  20  33  50  77 105 132 170 208 248 298
#     4   9  18  32  51  78 101 126 169 207 246 302
#     4  10  19  34  54  74 102 137 168 204 250 300
#     4  10  19  32  51  76 105 134 164 206 259 304
#     4  10  18  31  53  75 102 137 169 204 249 302
#     4  11  21  31  48  75 105 134 168 213 257 299
#
# _framework density 21.555408
#
# number of rings (size 3 to 8) (size 9 to 14) (size 15 to 20)
#    0.000    2.143    0.000    6.000    0.000    4.571 
#    0.000   19.286    0.000    7.714    0.000    1.000 
#    0.000    0.000    0.000    0.000    0.000    0.000 
#
# Total GULP energy -156305.462712 kJ/mol
# GULP energy per Si atom -5582.337954 kJ/mol
# Density = 2.150635 g / cm^3
# Si number density = 21.555408 Si / 1000 Ang^3
#
#
#
# Elastic Constant Matrix: (Units=GPa)
#
#
# Indices 1 2 3 4 5 6 
#
# 1 103.8002 25.3453 15.0412 -0.0016 35.8954 0.0001
# 2 25.3453 58.8301 3.1613 -0.0038 3.2062 0.0001
# 3 15.0412 3.1613 46.3160 -0.0142 18.1257 0.0024
# 4 -0.0016 -0.0038 -0.0142 19.0771 0.0007 5.5753
# 5 35.8954 3.2062 18.1257 0.0007 32.9442 0.0003
# 6 0.0001 0.0001 0.0024 5.5753 0.0003 14.5824
#
#
#
# Elastic Compliance Matrix: (Units=1/GPa)
#
#
# Indices 1 2 3 4 5 6 
#
# 1 0.017929 -0.006757 0.002582 0.000003 -0.020298 -0.000001
# 2 -0.006757 0.019651 -0.001631 0.000002 0.006347 -0.000001
# 3 0.002582 -0.001631 0.027913 0.000025 -0.018012 -0.000014
# 4 0.000003 0.000002 0.000025 0.059013 -0.000019 -0.022563
# 5 -0.020298 0.006347 -0.018012 -0.000019 0.061764 0.000009
# 6 -0.000001 -0.000001 -0.000014 -0.022563 0.000009 0.077202
#
#
# Mechanical properties :
#
#
# Convention : Reuss Voigt Hill
#
# Bulk Modulus (GPa) = 18.55905 32.89355 25.72630
# Shear Modulus (GPa) = 17.06242 24.34731 20.70487
#
# Velocity S-wave (km/s) = 2.81652 3.36448 3.10262
# Velocity P-wave (km/s) = 4.38243 5.51236 4.97955
#
# Compressibility (1/GPa) = 0.05388207
#
# Stress axis : x y z
#
# Youngs Moduli (GPa) = 55.77599 50.88857 35.82609
#
# Poissons Ratio (x) = 0.34384 -0.09252
# Poissons Ratio (y) = 0.37686 0.05843
# Poissons Ratio (z) = -0.14404 0.08299
#
# Static dielectric constant tensor:
#      x y z
#    x 1.836040 0.000000 0.002530 
#    y 0.000000 1.764160 0.000000 
#    z 0.002530 0.000000 1.854090 
# 
# From -- ./inp_files/336810.got.cif
#   From: 2010.05.17/outbox.cif.g08.bks.cpg/sg12_169_cif.got.tgz:336810.got - 2010.06.03 13:09:07.
