data_PCOD9174656
_publ_section_title
;
Structure prediction by ZEFSAII (Michael W. Deem and Ramdas Pophale) SiO2 
 PCOD9174656
Probable space group: C 2/M
;
_chemical_formula_sum "Si O2"
_cell_formula_units_Z 64
_cell_length_a 20.845444
_cell_length_b 7.480158
_cell_length_c 19.653891
_cell_angle_alpha 90.000000
_cell_angle_beta 88.237016
_cell_angle_gamma 90.000000
_cell_volume 3063.125848
_symmetry_space_group_name_H-M "C 2/M"
_symmetry_group_IT_number 12
_symmetry_cell_setting 'monoclinic'
loop_
_space_group_symop_operation_xyz
x,y,z
-x,y,-z
-x,-y,-z
x,-y,z
1/2+x,1/2+y,z
1/2-x,1/2+y,-z
1/2-x,1/2-y,-z
1/2+x,1/2-y,z
loop_
_atom_site_type_symbol
_atom_site_label
_atom_site_fract_x
_atom_site_fract_y
_atom_site_fract_z
Si Si1 0.634369 0.787475 0.700217
Si Si2 0.080792 0.786355 0.561775
Si Si3 0.199254 0.286242 0.942466
Si Si4 0.054311 0.281473 0.945477
Si Si5 0.247986 0.719470 0.793502
Si Si6 0.483227 0.784206 0.205505
Si Si7 0.882154 0.210699 0.731834
Si Si8 0.565554 0.281159 0.412115
O O1 0.629769 0.756661 0.620072
O O2 0.696654 0.722444 0.738321
O O3 0.569852 0.717623 0.738949
O O4 0.633864 0.000000 0.710158
O O5 0.093698 0.724715 0.484333
O O6 0.009221 0.723711 0.585365
O O7 0.076779 0.000000 0.558252
O O8 0.194025 0.500000 0.936449
O O9 0.126854 0.221550 0.959313
O O10 0.224851 0.220444 0.868650
O O11 0.250000 0.250000 0.000000
O O12 0.054031 0.500000 0.946834
O O13 0.036127 0.226834 0.869502
O O14 0.000000 0.221728 0.000000
O O15 0.248355 0.500000 0.795309
O O16 0.318799 0.781894 0.770494
O O17 0.554149 0.730679 0.225351
O O18 0.481767 0.000000 0.206081
O O19 0.898379 0.283719 0.656211
O O20 0.870485 0.000000 0.722794
O O21 0.565548 0.500000 0.410158
#
# Coordination Sequence:
#
# PCOD9174656 Si02
#       8
#     8   8   8   8   8   8   8   8
#     4  10  18  32  51  73  98 131 166 199 243 295
#     4   9  16  29  49  72  98 127 163 206 244 284
#     4  10  20  36  54  74 101 133 166 200 242 294
#     4   9  18  33  53  74  98 132 168 198 238 295
#     4   9  19  35  53  71 100 136 165 195 242 302
#     4  10  19  32  52  75 100 127 164 210 245 282
#     4  10  19  33  53  74  97 131 169 202 241 294
#     4   8  15  28  47  71  98 128 163 199 241 294
#
# _framework density 20.893689999999999
#
# number of rings (size 3 to 8) (size 9 to 14) (size 15 to 20)
#    0.000    2.625    2.500    0.750    1.750    0.000 
#    0.000    4.375    0.000    0.750    0.000    0.000 
#    0.000    0.000    0.000    0.000    0.000    0.000 
#
# Total GULP energy -178615.081494 kJ/mol
# GULP energy per Si atom -5581.721297 kJ/mol
# Density = 2.084614 g / cm^3
# Si number density = 20.893690 Si / 1000 Ang^3
#
#
#
# Elastic Constant Matrix: (Units=GPa)
#
#
# Indices 1 2 3 4 5 6 
#
# 1 176.5477 0.8797 95.5552 0.0000 5.1383 0.0000
# 2 0.8797 55.2891 -1.3175 0.0000 -7.7844 0.0000
# 3 95.5552 -1.3175 155.5081 0.0000 16.6300 0.0000
# 4 0.0000 0.0000 0.0000 45.1421 0.0000 -7.3099
# 5 5.1383 -7.7844 16.6300 0.0000 32.7153 0.0000
# 6 0.0000 0.0000 0.0000 -7.3099 0.0000 20.3184
#
#
#
# Elastic Compliance Matrix: (Units=1/GPa)
#
#
# Indices 1 2 3 4 5 6 
#
# 1 0.008547 -0.000069 -0.005401 0.000000 0.001386 0.000000
# 2 -0.000069 0.018731 -0.000292 0.000000 0.004616 0.000000
# 3 -0.005401 -0.000292 0.010219 0.000000 -0.004416 0.000000
# 4 0.000000 0.000000 0.000000 0.023523 0.000000 0.008463
# 5 0.001386 0.004616 -0.004416 0.000000 0.033692 0.000000
# 6 0.000000 0.000000 0.000000 0.008463 0.000000 0.052261
#
#
# Mechanical properties :
#
#
# Convention : Reuss Voigt Hill
#
# Bulk Modulus (GPa) = 38.50335 64.17553 51.33944
# Shear Modulus (GPa) = 29.91219 39.11699 34.51459
#
# Velocity S-wave (km/s) = 3.78780 4.33158 4.06878
# Velocity P-wave (km/s) = 6.13173 7.46985 6.83362
#
# Compressibility (1/GPa) = 0.02597177
#
# Stress axis : x y z
#
# Youngs Moduli (GPa) = 116.99404 53.38785 97.85648
#
# Poissons Ratio (x) = 0.00371 0.52852
# Poissons Ratio (y) = 0.00813 0.02860
# Poissons Ratio (z) = 0.63189 0.01560
#
# Static dielectric constant tensor:
#      x y z
#    x 1.720380 0.000000 -0.007160 
#    y 0.000000 1.802560 0.000000 
#    z -0.007160 0.000000 1.741240 
# 
# From -- ./inp_files/281411.got.cif
#   From: 2010.05.17/outbox.cif.g08.bks.cpg/sg12_141_cif.got.tgz:281411.got - 2010.06.03 13:09:07.
