data_PCOD9174067
_publ_section_title
;
Structure prediction by ZEFSAII (Michael W. Deem and Ramdas Pophale) SiO2 
 PCOD9174067
Probable space group: C 2/M
;
_chemical_formula_sum "Si O2"
_cell_formula_units_Z 64
_cell_length_a 21.088590
_cell_length_b 7.670177
_cell_length_c 26.531223
_cell_angle_alpha 90.000000
_cell_angle_beta 133.934749
_cell_angle_gamma 90.000000
_cell_volume 3090.447494
_symmetry_space_group_name_H-M "C 2/M"
_symmetry_group_IT_number 12
_symmetry_cell_setting 'monoclinic'
loop_
_space_group_symop_operation_xyz
x,y,z
-x,y,-z
-x,-y,-z
x,-y,z
1/2+x,1/2+y,z
1/2-x,1/2+y,-z
1/2-x,1/2-y,-z
1/2+x,1/2-y,z
loop_
_atom_site_type_symbol
_atom_site_label
_atom_site_fract_x
_atom_site_fract_y
_atom_site_fract_z
Si Si1 0.922354 0.713635 0.781822
Si Si2 0.637124 0.297701 0.085231
Si Si3 0.826221 0.298219 0.216941
Si Si4 0.901277 0.288613 0.459196
Si Si5 0.350456 0.790716 0.542429
Si Si6 0.726743 0.704844 0.702804
Si Si7 0.522042 0.200137 0.932174
Si Si8 0.480353 0.214156 0.702451
O O1 0.921905 0.500000 0.782664
O O2 0.825138 0.770865 0.745377
O O3 0.994102 0.772017 0.862520
O O4 0.944866 0.766928 0.737587
O O5 0.638803 0.500000 0.102240
O O6 0.735124 0.223422 0.144694
O O7 0.567299 0.206486 0.083559
O O8 0.596367 0.289180 0.006968
O O9 0.827888 0.500000 0.201419
O O10 0.815939 0.290888 0.271651
O O11 0.919994 0.223966 0.252173
O O12 0.899928 0.500000 0.458449
O O13 0.874957 0.225838 0.500286
O O14 0.833186 0.229248 0.379224
O O15 0.000000 0.232722 0.500000
O O16 0.250000 0.750000 0.500000
O O17 0.416051 0.726697 0.622187
O O18 0.359835 0.000000 0.546288
O O19 0.733385 0.500000 0.718057
O O20 0.549045 0.000000 0.941112
O O21 0.480426 0.000000 0.701449
#
# Coordination Sequence:
#
# PCOD9174067 Si02
#       8
#     8   8   8   8   8   8   8   8
#     4   9  18  32  52  79 105 135 176 219 258 306
#     4  10  19  31  50  79 108 136 172 217 263 308
#     4  10  20  35  56  79 106 142 178 216 263 317
#     4  10  21  37  55  77 105 139 179 219 263 318
#     4  10  20  35  57  79 104 138 177 221 264 315
#     4  11  21  34  55  81 107 134 173 224 270 313
#     4  10  18  31  52  77 106 140 176 215 258 308
#     4   9  18  35  56  76 102 140 181 213 254 317
#
# _framework density 20.708974000000001
#
# number of rings (size 3 to 8) (size 9 to 14) (size 15 to 20)
#    0.000    2.125    1.250    3.375    0.000    4.250 
#    0.000    2.500    0.000    3.750    0.000    0.000 
#    0.000    0.000    0.000    0.000    0.000    0.000 
#
# Total GULP energy -178731.649568 kJ/mol
# GULP energy per Si atom -5585.364049 kJ/mol
# Density = 2.066184 g / cm^3
# Si number density = 20.708974 Si / 1000 Ang^3
#
#
#
# Elastic Constant Matrix: (Units=GPa)
#
#
# Indices 1 2 3 4 5 6 
#
# 1 98.2475 -6.8887 31.5915 0.0000 3.6868 0.0000
# 2 -6.8887 39.1795 -8.3028 -0.0002 2.9067 -0.0001
# 3 31.5915 -8.3028 135.0219 0.0000 5.6823 0.0000
# 4 0.0000 -0.0002 0.0000 7.1288 0.0000 -1.2792
# 5 3.6868 2.9067 5.6823 0.0000 23.6883 0.0000
# 6 0.0000 -0.0001 0.0000 -1.2792 0.0000 12.1499
#
#
#
# Elastic Compliance Matrix: (Units=1/GPa)
#
#
# Indices 1 2 3 4 5 6 
#
# 1 0.011125 0.001535 -0.002452 0.000000 -0.001331 0.000000
# 2 0.001535 0.026378 0.001424 0.000001 -0.003817 0.000000
# 3 -0.002452 0.001424 0.008141 0.000000 -0.001746 0.000000
# 4 0.000000 0.000001 0.000000 0.142977 0.000000 0.015053
# 5 -0.001331 -0.003817 -0.001746 0.000000 0.043309 0.000000
# 6 0.000000 0.000000 0.000000 0.015053 0.000000 0.083890
#
#
# Mechanical properties :
#
#
# Convention : Reuss Voigt Hill
#
# Bulk Modulus (GPa) = 21.43336 33.91654 27.67495
# Shear Modulus (GPa) = 15.13504 25.66335 20.39919
#
# Velocity S-wave (km/s) = 2.70635 3.52410 3.14194
# Velocity P-wave (km/s) = 4.48754 5.74215 5.15317
#
# Compressibility (1/GPa) = 0.04665623
#
# Stress axis : x y z
#
# Youngs Moduli (GPa) = 89.89132 37.90991 122.83486
#
# Poissons Ratio (x) = -0.05819 0.30124
# Poissons Ratio (y) = -0.13799 -0.17486
# Poissons Ratio (z) = 0.22045 -0.05397
#
# Static dielectric constant tensor:
#      x y z
#    x 1.720810 0.000000 0.013400 
#    y 0.000000 1.790080 0.000000 
#    z 0.013400 0.000000 1.733630 
# 
# From -- ./inp_files/346274.got.cif
#   From: 2010.05.17/outbox.cif.g08.bks.cpg/sg12_174_cif.got.tgz:346274.got - 2010.06.03 13:09:07.
