data_PCOD9174420
_publ_section_title
;
Structure prediction by ZEFSAII (Michael W. Deem and Ramdas Pophale) SiO2 
 PCOD9174420
Probable space group: C 2/M
;
_chemical_formula_sum "Si O2"
_cell_formula_units_Z 64
_cell_length_a 15.347008
_cell_length_b 14.899319
_cell_length_c 21.266349
_cell_angle_alpha 90.000000
_cell_angle_beta 143.838381
_cell_angle_gamma 90.000000
_cell_volume 2869.345928
_symmetry_space_group_name_H-M "C 2/M"
_symmetry_group_IT_number 12
_symmetry_cell_setting 'monoclinic'
loop_
_space_group_symop_operation_xyz
x,y,z
-x,y,-z
-x,-y,-z
x,-y,z
1/2+x,1/2+y,z
1/2-x,1/2+y,-z
1/2-x,1/2-y,-z
1/2+x,1/2-y,z
loop_
_atom_site_type_symbol
_atom_site_label
_atom_site_fract_x
_atom_site_fract_y
_atom_site_fract_z
Si Si1 0.525079 0.654578 0.196546
Si Si2 0.834892 0.708798 0.417226
Si Si3 0.905592 0.640920 0.120913
Si Si4 0.219833 0.401844 0.352037
Si Si5 0.359418 0.836948 0.952319
Si Si6 0.108586 0.874727 0.008629
Si Si7 0.077438 0.100449 0.728684
Si Si8 0.762980 0.894017 0.517120
O O1 0.700633 0.669792 0.297401
O O2 0.440036 0.751761 0.150468
O O3 0.488728 0.603379 0.239230
O O4 0.469507 0.606140 0.102688
O O5 0.818481 0.815372 0.395979
O O6 0.795962 0.673486 0.464675
O O7 0.000000 0.678821 0.500000
O O8 0.782518 0.606083 0.098421
O O9 0.067698 0.600949 0.224982
O O10 0.844708 0.624769 0.014593
O O11 0.290209 0.500000 0.385955
O O12 0.179837 0.389355 0.402613
O O13 0.389473 0.732851 0.982177
O O14 0.225131 0.844087 0.824983
O O15 0.500000 0.878886 0.000000
O O16 0.000000 0.907618 0.000000
O O17 0.936493 0.129476 0.606061
O O18 0.119108 0.000000 0.734357
O O19 0.759915 0.000000 0.535396
#
# Coordination Sequence:
#
# PCOD9174420 Si02
#       8
#     8   8   8   8   8   8   8   8
#     4   9  17  35  52  75 114 146 187 241 286 343
#     4  10  21  36  60  90 114 153 202 246 297 353
#     4  10  18  35  58  78 111 154 190 233 290 347
#     4  10  22  40  59  83 120 162 197 239 297 357
#     4  10  19  33  54  83 111 142 191 244 291 344
#     4  10  18  31  55  84 110 149 185 233 301 348
#     4  10  18  32  55  76 105 148 184 234 292 338
#     4   9  20  39  60  84 114 153 200 245 297 351
#
# _framework density 22.304734
#
# number of rings (size 3 to 8) (size 9 to 14) (size 15 to 20)
#    0.000    2.250    2.500    1.125    0.000    2.250 
#    9.000    0.000    0.000    1.500    0.000    0.000 
#    0.000    0.000    0.000    0.000    0.000    0.000 
#
# Total GULP energy -178422.813454 kJ/mol
# GULP energy per Si atom -5575.712920 kJ/mol
# Density = 2.225397 g / cm^3
# Si number density = 22.304734 Si / 1000 Ang^3
#
#
#
# Elastic Constant Matrix: (Units=GPa)
#
#
# Indices 1 2 3 4 5 6 
#
# 1 45.5589 -4.4177 16.1108 0.0000 21.1740 0.0000
# 2 -4.4177 61.7120 6.1477 0.0001 -0.9748 0.0000
# 3 16.1108 6.1477 96.2210 0.0005 15.3199 0.0001
# 4 0.0000 0.0001 0.0005 -2.8360 0.0001 -4.2720
# 5 21.1740 -0.9748 15.3199 0.0001 33.5018 0.0000
# 6 0.0000 0.0000 0.0001 -4.2720 0.0000 -12.4952
#
#
#
# Elastic Compliance Matrix: (Units=1/GPa)
#
#
# Indices 1 2 3 4 5 6 
#
# 1 0.031833 0.002225 -0.002458 -0.000002 -0.018930 0.000001
# 2 0.002225 0.016496 -0.001379 0.000001 -0.000295 0.000000
# 3 -0.002458 -0.001379 0.011488 0.000003 -0.003740 -0.000001
# 4 -0.000002 0.000001 0.000003 -0.727019 0.000002 0.248558
# 5 -0.018930 -0.000295 -0.003740 0.000002 0.043515 -0.000001
# 6 0.000001 0.000000 -0.000001 0.248558 -0.000001 -0.165009
#
#
# Mechanical properties :
#
#
# Convention : Reuss Voigt Hill
#
# Bulk Modulus (GPa) = 17.67064 26.57485 22.12274
# Shear Modulus (GPa) = -6.52225 16.01084 4.74430
#
# Velocity S-wave (km/s) = -1.71187 2.68213 1.46002
# Velocity P-wave (km/s) = 2.00804 4.64026 3.57521
#
# Compressibility (1/GPa) = 0.05659106
#
# Stress axis : x y z
#
# Youngs Moduli (GPa) = 31.41432 60.61964 87.04818
#
# Poissons Ratio (x) = -0.13485 0.21397
# Poissons Ratio (y) = -0.06988 0.12008
# Poissons Ratio (z) = 0.07722 0.08362
#
# Static dielectric constant tensor:
#      x y z
#    x 1.823800 0.000000 0.007930 
#    y 0.000000 1.854580 0.000000 
#    z 0.007930 0.000000 1.814290 
# 
# From -- ./inp_files/340869.got.cif
#   From: 2010.05.17/outbox.cif.g08.bks.cpg/sg12_171_cif.got.tgz:340869.got - 2010.06.03 13:09:07.
