data_PCOD9174857
_publ_section_title
;
Structure prediction by ZEFSAII (Michael W. Deem and Ramdas Pophale) SiO2 
 PCOD9174857
Probable space group: C 2/M
;
_chemical_formula_sum "Si O2"
_cell_formula_units_Z 56
_cell_length_a 25.302512
_cell_length_b 16.885699
_cell_length_c 11.145738
_cell_angle_alpha 90.000000
_cell_angle_beta 138.965566
_cell_angle_gamma 90.000000
_cell_volume 3126.327708
_symmetry_space_group_name_H-M "C 2/M"
_symmetry_group_IT_number 12
_symmetry_cell_setting 'monoclinic'
loop_
_space_group_symop_operation_xyz
x,y,z
-x,y,-z
-x,-y,-z
x,-y,z
1/2+x,1/2+y,z
1/2-x,1/2+y,-z
1/2-x,1/2-y,-z
1/2+x,1/2-y,z
loop_
_atom_site_type_symbol
_atom_site_label
_atom_site_fract_x
_atom_site_fract_y
_atom_site_fract_z
Si Si1 0.572331 0.792075 0.929091
Si Si2 0.302800 0.187509 0.663151
Si Si3 0.677627 0.089520 0.951355
Si Si4 0.314561 0.592931 0.360747
Si Si5 0.036445 0.198816 0.436538
Si Si6 0.429938 0.909882 0.728493
Si Si7 0.582325 0.123226 0.568305
O O1 0.621589 0.846355 0.919872
O O2 0.528116 0.724519 0.775729
O O3 0.506139 0.851434 0.871782
O O4 0.634493 0.768992 0.139370
O O5 0.250000 0.250000 0.500000
O O6 0.244772 0.133234 0.644884
O O7 0.355419 0.131654 0.666807
O O8 0.657597 0.098173 0.777647
O O9 0.654560 0.000000 0.949996
O O10 0.767830 0.101840 0.153012
O O11 0.323979 0.500000 0.400685
O O12 0.398261 0.638515 0.501174
O O13 0.078954 0.282126 0.544548
O O14 0.000000 0.169012 0.500000
O O15 0.416701 0.911586 0.562277
O O16 0.442292 0.000000 0.791024
O O17 0.500000 0.101462 0.500000
#
# Coordination Sequence:
#
# PCOD9174857 Si02
#       7
#     8   8   8   8   8   8   8
#     4  10  20  35  57  85 110 146 183 226 278 328
#     4  11  23  40  56  79 113 150 190 231 273 328
#     4  10  18  32  53  83 118 148 178 219 285 342
#     4  10  23  39  58  81 112 150 185 234 287 328
#     4  10  19  38  59  87 110 140 191 233 275 332
#     4  11  21  32  54  85 114 147 185 225 271 332
#     4  10  18  32  53  85 119 150 179 222 280 337
#
# _framework density 17.912389999999998
#
# number of rings (size 3 to 8) (size 9 to 14) (size 15 to 20)
#    0.000    1.714    4.286    3.429    0.000    3.714 
#    2.571    0.000    0.000    2.571    0.000    0.000 
#    0.000    0.000    0.000    0.000    0.000    0.000 
#
# Total GULP energy -156241.748372 kJ/mol
# GULP energy per Si atom -5580.062442 kJ/mol
# Density = 1.787162 g / cm^3
# Si number density = 17.912390 Si / 1000 Ang^3
#
#
#
# Elastic Constant Matrix: (Units=GPa)
#
#
# Indices 1 2 3 4 5 6 
#
# 1 86.2281 36.9450 51.9406 0.0000 -0.7534 0.0000
# 2 36.9450 70.2989 63.6419 0.0000 6.8661 0.0000
# 3 51.9406 63.6419 153.6398 0.0000 -13.4924 0.0000
# 4 0.0000 0.0000 0.0000 -2.8307 0.0000 -20.9374
# 5 -0.7534 6.8661 -13.4924 0.0000 27.7380 0.0000
# 6 0.0000 0.0000 0.0000 -20.9374 0.0000 -12.8609
#
#
#
# Elastic Compliance Matrix: (Units=1/GPa)
#
#
# Indices 1 2 3 4 5 6 
#
# 1 0.015814 -0.005664 -0.002966 0.000000 0.000389 0.000000
# 2 -0.005664 0.028279 -0.010893 0.000000 -0.012452 0.000000
# 3 -0.002966 -0.010893 0.012800 0.000000 0.008842 0.000000
# 4 0.000000 0.000000 0.000000 0.031995 0.000000 -0.052087
# 5 0.000389 -0.012452 0.008842 0.000000 0.043445 0.000000
# 6 0.000000 0.000000 0.000000 -0.052087 0.000000 0.007042
#
#
# Mechanical properties :
#
#
# Convention : Reuss Voigt Hill
#
# Bulk Modulus (GPa) = 56.02886 68.35796 62.19341
# Shear Modulus (GPa) = 27.11954 12.91859 20.01906
#
# Velocity S-wave (km/s) = 3.89525 2.68845 3.34669
# Velocity P-wave (km/s) = 7.18178 6.91970 7.05196
#
# Compressibility (1/GPa) = 0.01784795
#
# Stress axis : x y z
#
# Youngs Moduli (GPa) = 63.23616 35.36197 78.12517
#
# Poissons Ratio (x) = 0.20028 0.23171
# Poissons Ratio (y) = 0.35815 0.85100
# Poissons Ratio (z) = 0.18755 0.38519
#
# Static dielectric constant tensor:
#      x y z
#    x 1.618150 0.000000 -0.019810 
#    y 0.000000 1.597650 0.000000 
#    z -0.019810 0.000000 1.643790 
# 
# From -- ./inp_files/177170.got.cif
#   From: 2010.05.17/outbox.cif.g08.bks.cpg/sg12_89_cif.got.tgz:177170.got - 2010.06.03 13:09:07.
