data_PCOD9174717
_publ_section_title
;
Structure prediction by ZEFSAII (Michael W. Deem and Ramdas Pophale) SiO2 
 PCOD9174717
Probable space group: C 2/M
;
_chemical_formula_sum "Si O2"
_cell_formula_units_Z 32
_cell_length_a 31.007335
_cell_length_b 5.484555
_cell_length_c 7.610559
_cell_angle_alpha 90.000000
_cell_angle_beta 95.868848
_cell_angle_gamma 90.000000
_cell_volume 1287.478778
_symmetry_space_group_name_H-M "C 2/M"
_symmetry_group_IT_number 12
_symmetry_cell_setting 'monoclinic'
loop_
_space_group_symop_operation_xyz
x,y,z
-x,y,-z
-x,-y,-z
x,-y,z
1/2+x,1/2+y,z
1/2-x,1/2+y,-z
1/2-x,1/2-y,-z
1/2+x,1/2-y,z
loop_
_atom_site_type_symbol
_atom_site_label
_atom_site_fract_x
_atom_site_fract_y
_atom_site_fract_z
Si Si1 0.095147 0.000000 0.582653
Si Si2 0.308949 0.500000 0.810111
Si Si3 0.905681 0.000000 0.991058
Si Si4 0.784745 0.500000 0.617966
Si Si5 0.948938 0.500000 0.438678
Si Si6 0.312558 0.500000 0.268654
Si Si7 0.550733 0.000000 0.983065
Si Si8 0.288254 0.000000 0.197054
O O1 0.091049 0.000000 0.794433
O O2 0.073406 0.750823 0.506581
O O3 0.146938 0.000000 0.583592
O O4 0.304960 0.754834 0.703059
O O5 0.261148 0.500000 0.888078
O O6 0.356400 0.500000 0.910381
O O7 0.928382 0.750279 0.939267
O O8 0.734481 0.500000 0.658609
O O9 0.787262 0.500000 0.409435
O O10 0.943386 0.500000 0.225425
O O11 0.000000 0.500000 0.500000
O O12 0.313301 0.246044 0.162297
O O13 0.500000 0.000000 0.000000
#
# Coordination Sequence:
#
# PCOD9174717 Si02
#       8
#     4   4   4   4   4   4   4   4
#     4  10  21  37  57  78 107 140 176 223 271 320
#     4  10  18  32  52  75 101 140 180 209 257 319
#     4  10  21  37  57  78 107 140 176 223 271 320
#     4  10  19  33  50  73 110 146 174 218 268 308
#     4  10  21  40  61  82 110 142 176 222 277 329
#     4  10  18  32  52  75 101 140 180 209 257 319
#     4  10  21  40  61  82 110 142 176 222 277 329
#     4  10  19  33  50  73 110 146 174 218 268 308
#
# _framework density 24.854776999999999
#
# number of rings (size 3 to 8) (size 9 to 14) (size 15 to 20)
#    0.000    2.000    0.000    6.000    0.000    0.000 
#    0.000   15.000    0.000    0.000    0.000    0.000 
#    0.000    0.000    0.000    0.000    0.000    0.000 
#
# Total GULP energy -89605.314840 kJ/mol
# GULP energy per Si atom -5600.332178 kJ/mol
# Density = 2.479821 g / cm^3
# Si number density = 24.854777 Si / 1000 Ang^3
#
#
#
# Elastic Constant Matrix: (Units=GPa)
#
#
# Indices 1 2 3 4 5 6 
#
# 1 163.1275 123.6475 39.4757 0.0000 45.7563 0.0000
# 2 123.6475 317.4915 56.9575 0.0000 49.1677 0.0000
# 3 39.4757 56.9575 64.9886 0.0000 24.8107 0.0000
# 4 0.0000 0.0000 0.0000 17.8895 0.0000 11.2004
# 5 45.7563 49.1677 24.8107 0.0000 52.8818 0.0000
# 6 0.0000 0.0000 0.0000 11.2004 0.0000 41.9034
#
#
#
# Elastic Compliance Matrix: (Units=1/GPa)
#
#
# Indices 1 2 3 4 5 6 
#
# 1 0.010197 -0.002839 -0.001639 0.000000 -0.005415 0.000000
# 2 -0.002839 0.004786 -0.002082 0.000000 -0.001017 0.000000
# 3 -0.001639 -0.002082 0.020621 0.000000 -0.006321 0.000000
# 4 0.000000 0.000000 0.000000 0.067133 0.000000 -0.017944
# 5 -0.005415 -0.001017 -0.006321 0.000000 0.027506 0.000000
# 6 0.000000 0.000000 0.000000 -0.017944 0.000000 0.028661
#
#
# Mechanical properties :
#
#
# Convention : Reuss Voigt Hill
#
# Bulk Modulus (GPa) = 44.47478 109.52989 77.00233
# Shear Modulus (GPa) = 27.85213 44.23675 36.04444
#
# Velocity S-wave (km/s) = 3.35116 4.22335 3.81228
# Velocity P-wave (km/s) = 5.73641 8.24293 7.10114
#
# Compressibility (1/GPa) = 0.02248465
#
# Stress axis : x y z
#
# Youngs Moduli (GPa) = 98.06413 208.92982 48.49483
#
# Poissons Ratio (x) = 0.59311 0.07948
# Poissons Ratio (y) = 0.27838 0.10098
# Poissons Ratio (z) = 0.16071 0.43504
#
# Static dielectric constant tensor:
#      x y z
#    x 1.911860 0.000000 -0.067850 
#    y 0.000000 2.040470 0.000000 
#    z -0.067850 0.000000 2.025820 
# 
# From -- ./inp_files/178778.got.cif
#   From: 2010.05.17/outbox.cif.g08.bks.cpg/sg12_90_cif.got.tgz:178778.got - 2010.06.03 13:09:07.
