data_PCOD9174687
_publ_section_title
;
Structure prediction by ZEFSAII (Michael W. Deem and Ramdas Pophale) SiO2 
 PCOD9174687
Probable space group: C 2/M
;
_chemical_formula_sum "Si O2"
_cell_formula_units_Z 40
_cell_length_a 29.603331
_cell_length_b 17.608675
_cell_length_c 8.775216
_cell_angle_alpha 90.000000
_cell_angle_beta 31.468726
_cell_angle_gamma 90.000000
_cell_volume 2387.938315
_symmetry_space_group_name_H-M "C 2/M"
_symmetry_group_IT_number 12
_symmetry_cell_setting 'monoclinic'
loop_
_space_group_symop_operation_xyz
x,y,z
-x,y,-z
-x,-y,-z
x,-y,z
1/2+x,1/2+y,z
1/2-x,1/2+y,-z
1/2-x,1/2-y,-z
1/2+x,1/2-y,z
loop_
_atom_site_type_symbol
_atom_site_label
_atom_site_fract_x
_atom_site_fract_y
_atom_site_fract_z
Si Si1 0.413044 0.240620 0.816379
Si Si2 0.988740 0.000000 0.776719
Si Si3 0.713014 0.657597 0.986387
Si Si4 0.936365 0.162268 0.054514
Si Si5 0.732853 0.309698 0.278757
Si Si6 0.649605 0.500000 0.098136
O O1 0.500000 0.205192 0.500000
O O2 0.379333 0.302946 0.788774
O O3 0.430470 0.285821 0.921495
O O4 0.329720 0.186110 0.067814
O O5 0.917217 0.000000 0.848626
O O6 0.085404 0.000000 0.429287
O O7 0.971891 0.078605 0.912273
O O8 0.728510 0.655809 0.121891
O O9 0.707708 0.574769 0.932959
O O10 0.777512 0.718389 0.722692
O O11 0.840891 0.158620 0.401742
O O12 0.000000 0.195297 0.000000
#
# Coordination Sequence:
#
# PCOD9174687 Si02
#       6
#     8   4   8   8   8   4
#     4  10  18  32  52  71 102 137 170 215 253 302
#     4  11  21  30  48  76 116 138 169 199 259 323
#     4   9  19  33  54  69 106 135 176 206 256 316
#     4  12  22  31  49  79 111 140 172 207 257 306
#     4   9  20  35  49  73 106 135 177 217 251 304
#     4  11  18  32  52  78 101 147 165 203 263 327
#
# _framework density 16.750851999999998
#
# number of rings (size 3 to 8) (size 9 to 14) (size 15 to 20)
#    1.200    0.600    2.000    4.500    0.000    0.800 
#    0.000    0.000    0.000    0.000    0.000    3.500 
#    0.000    0.000    0.000    0.000    0.000    0.000 
#
# Total GULP energy -111335.782119 kJ/mol
# GULP energy per Si atom -5566.789106 kJ/mol
# Density = 1.671273 g / cm^3
# Si number density = 16.750852 Si / 1000 Ang^3
#
#
#
# Elastic Constant Matrix: (Units=GPa)
#
#
# Indices 1 2 3 4 5 6 
#
# 1 97.2887 -0.1875 17.3629 0.0000 -6.9436 0.0000
# 2 -0.1875 19.6651 -19.4202 0.0000 -1.7166 0.0000
# 3 17.3629 -19.4202 55.6813 0.0000 -0.4836 0.0000
# 4 0.0000 0.0000 0.0000 14.0464 0.0000 -1.0751
# 5 -6.9436 -1.7166 -0.4836 0.0000 19.1280 0.0000
# 6 0.0000 0.0000 0.0000 -1.0751 0.0000 16.2683
#
#
#
# Elastic Compliance Matrix: (Units=1/GPa)
#
#
# Indices 1 2 3 4 5 6 
#
# 1 0.011450 -0.004685 -0.005173 0.000000 0.003605 0.000000
# 2 -0.004685 0.080620 0.029633 0.000000 0.006283 0.000000
# 3 -0.005173 0.029633 0.029921 0.000000 0.001538 0.000000
# 4 0.000000 0.000000 0.000000 0.071554 0.000000 0.004729
# 5 0.003605 0.006283 0.001538 0.000000 0.054191 0.000000
# 6 0.000000 0.000000 0.000000 0.004729 0.000000 0.061782
#
#
# Mechanical properties :
#
#
# Convention : Reuss Voigt Hill
#
# Bulk Modulus (GPa) = 6.19034 18.68285 12.43660
# Shear Modulus (GPa) = 15.44096 21.54722 18.49409
#
# Velocity S-wave (km/s) = 3.03941 3.59044 3.32636
# Velocity P-wave (km/s) = 4.00262 5.32597 4.71099
#
# Compressibility (1/GPa) = 0.16154196
#
# Stress axis : x y z
#
# Youngs Moduli (GPa) = 87.33478 12.40393 33.42119
#
# Poissons Ratio (x) = 0.05811 0.17289
# Poissons Ratio (y) = 0.40915 -0.99038
# Poissons Ratio (z) = 0.45179 -0.36757
#
# Static dielectric constant tensor:
#      x y z
#    x 1.593900 0.000000 0.004650 
#    y 0.000000 1.553750 0.000000 
#    z 0.004650 0.000000 1.569960 
# 
# From -- ./inp_files/113068.got.cif
#   From: 2010.05.17/outbox.cif.g08.bks.cpg/sg12_57_cif.got.tgz:113068.got - 2010.06.03 13:09:07.
