data_PCOD9174405
_publ_section_title
;
Structure prediction by ZEFSAII (Michael W. Deem and Ramdas Pophale) SiO2 
 PCOD9174405
Probable space group: C 2/M
;
_chemical_formula_sum "Si O2"
_cell_formula_units_Z 44
_cell_length_a 26.663121
_cell_length_b 13.202783
_cell_length_c 16.648805
_cell_angle_alpha 90.000000
_cell_angle_beta 20.658196
_cell_angle_gamma 90.000000
_cell_volume 2067.657263
_symmetry_space_group_name_H-M "C 2/M"
_symmetry_group_IT_number 12
_symmetry_cell_setting 'monoclinic'
loop_
_space_group_symop_operation_xyz
x,y,z
-x,y,-z
-x,-y,-z
x,-y,z
1/2+x,1/2+y,z
1/2-x,1/2+y,-z
1/2-x,1/2-y,-z
1/2+x,1/2-y,z
loop_
_atom_site_type_symbol
_atom_site_label
_atom_site_fract_x
_atom_site_fract_y
_atom_site_fract_z
Si Si1 0.874445 0.389672 0.752518
Si Si2 0.239047 0.746802 0.840538
Si Si3 0.013191 0.385135 0.720380
Si Si4 0.994145 0.884830 0.862924
Si Si5 0.188209 0.802114 0.434687
Si Si6 0.000000 0.736887 0.000000
O O1 0.795717 0.500000 0.868550
O O2 0.796616 0.287602 0.839093
O O3 0.948111 0.383150 0.728301
O O4 0.000000 0.396296 0.500000
O O5 0.338358 0.700335 0.622029
O O6 0.111704 0.667598 0.042127
O O7 0.166862 0.849257 0.914238
O O8 0.042586 0.500000 0.699932
O O9 0.148622 0.312399 0.520987
O O10 0.087093 0.868527 0.642777
O O11 0.001693 0.000000 0.877510
O O12 0.037763 0.808171 0.867783
O O13 0.354931 0.822749 0.198229
#
# Coordination Sequence:
#
# PCOD9174405 Si02
#       6
#     8   8   8   8   8   4
#     4  10  18  31  55  82 106 138 179 220 257 304
#     4  10  20  35  55  78 109 143 173 215 263 310
#     4  10  21  35  54  79 107 141 181 217 257 309
#     4  10  21  36  56  81 106 136 174 216 262 314
#     4  10  21  37  55  78 108 138 173 218 264 312
#     4  10  21  38  57  78 104 138 173 218 265 312
#
# _framework density 21.280123
#
# number of rings (size 3 to 8) (size 9 to 14) (size 15 to 20)
#    0.000    2.000    1.818    1.909    0.000    4.364 
#    0.000    0.455    0.000    0.545    0.000    0.000 
#    0.000    0.000    0.000    0.000    0.000    0.000 
#
# Total GULP energy -122582.201163 kJ/mol
# GULP energy per Si atom -5571.918235 kJ/mol
# Density = 2.123169 g / cm^3
# Si number density = 21.280123 Si / 1000 Ang^3
#
#
#
# Elastic Constant Matrix: (Units=GPa)
#
#
# Indices 1 2 3 4 5 6 
#
# 1 54.4558 -13.1420 -0.3016 0.0000 11.9254 0.0000
# 2 -13.1420 24.8975 -4.9952 0.0000 -0.3853 0.0000
# 3 -0.3016 -4.9952 62.0405 0.0000 20.1420 0.0000
# 4 0.0000 0.0000 0.0000 6.9257 0.0000 13.7555
# 5 11.9254 -0.3853 20.1420 0.0000 36.8782 0.0000
# 6 0.0000 0.0000 0.0000 13.7555 0.0000 -48.3342
#
#
#
# Elastic Compliance Matrix: (Units=1/GPa)
#
#
# Indices 1 2 3 4 5 6 
#
# 1 0.023775 0.013282 0.004420 0.000000 -0.009963 0.000000
# 2 0.013282 0.048329 0.006304 0.000000 -0.007233 0.000000
# 3 0.004420 0.006304 0.020774 0.000000 -0.012709 0.000000
# 4 0.000000 0.000000 0.000000 0.092247 0.000000 0.026253
# 5 -0.009963 -0.007233 -0.012709 0.000000 0.037204 0.000000
# 6 0.000000 0.000000 0.000000 0.026253 0.000000 -0.013218
#
#
# Mechanical properties :
#
#
# Convention : Reuss Voigt Hill
#
# Bulk Modulus (GPa) = 7.09774 11.61290 9.35532
# Shear Modulus (GPa) = 24.03129 9.74948 16.89038
#
# Velocity S-wave (km/s) = 3.36413 2.14276 2.82035
# Velocity P-wave (km/s) = 4.29330 3.40455 3.87449
#
# Compressibility (1/GPa) = 0.14088987
#
# Stress axis : x y z
#
# Youngs Moduli (GPa) = 42.06032 20.69171 48.13759
#
# Poissons Ratio (x) = -0.27483 -0.21276
# Poissons Ratio (y) = -0.55866 -0.30346
# Poissons Ratio (z) = -0.18590 -0.13044
#
# Static dielectric constant tensor:
#      x y z
#    x 1.880180 0.000000 -0.006560 
#    y 0.000000 1.805510 0.000000 
#    z -0.006560 0.000000 1.778440 
# 
# From -- ./inp_files/262014.got.cif
#   From: 2010.05.17/outbox.cif.g08.bks.cpg/sg12_132_cif.got.tgz:262014.got - 2010.06.03 13:09:07.
