data_PCOD9174844
_publ_section_title
;
Structure prediction by ZEFSAII (Michael W. Deem and Ramdas Pophale) SiO2 
 PCOD9174844
Probable space group: C 2/M
;
_chemical_formula_sum "Si O2"
_cell_formula_units_Z 40
_cell_length_a 32.856536
_cell_length_b 8.564614
_cell_length_c 28.368903
_cell_angle_alpha 90.000000
_cell_angle_beta 15.912790
_cell_angle_gamma 90.000000
_cell_volume 2188.760385
_symmetry_space_group_name_H-M "C 2/M"
_symmetry_group_IT_number 12
_symmetry_cell_setting 'monoclinic'
loop_
_space_group_symop_operation_xyz
x,y,z
-x,y,-z
-x,-y,-z
x,-y,z
1/2+x,1/2+y,z
1/2-x,1/2+y,-z
1/2-x,1/2-y,-z
1/2+x,1/2-y,z
loop_
_atom_site_type_symbol
_atom_site_label
_atom_site_fract_x
_atom_site_fract_y
_atom_site_fract_z
Si Si1 0.303717 0.813171 0.051262
Si Si2 0.513480 0.186825 0.631507
Si Si3 0.396470 0.312889 0.049490
Si Si4 0.909433 0.813217 0.840547
Si Si5 0.288265 0.812890 0.265757
O O1 0.346102 0.750526 0.055223
O O2 0.417451 0.750662 0.884634
O O3 0.301835 0.000000 0.052325
O O4 0.140776 0.750057 0.218545
O O5 0.521585 0.249334 0.676273
O O6 0.648568 0.249352 0.450049
O O7 0.509822 0.000000 0.636004
O O8 0.397018 0.500000 0.049408
O O9 0.560688 0.250005 0.878701
O O10 0.292847 0.249931 0.207128
O O11 0.908939 0.000000 0.841041
O O12 0.750000 0.750000 0.000000
O O13 0.289682 0.000000 0.263925
#
# Coordination Sequence:
#
# PCOD9174844 Si02
#       5
#     8   8   8   8   8
#     4  11  21  36  57  84 113 146 184 228 273 323
#     4  11  21  36  57  84 113 146 184 228 273 323
#     4  11  22  39  59  82 110 146 184 225 274 329
#     4  10  18  32  53  80 111 146 181 222 272 326
#     4  11  22  39  59  82 110 146 184 225 274 329
#
# _framework density 18.275186000000001
#
# number of rings (size 3 to 8) (size 9 to 14) (size 15 to 20)
#    0.000    1.200    0.000   12.600    0.000    0.800 
#    0.000    5.000    0.000    0.000    0.000    0.000 
#    0.000    0.000    0.000    0.000    0.000    0.000 
#
# Total GULP energy -111759.294075 kJ/mol
# GULP energy per Si atom -5587.964704 kJ/mol
# Density = 1.823359 g / cm^3
# Si number density = 18.275186 Si / 1000 Ang^3
#
#
#
# Elastic Constant Matrix: (Units=GPa)
#
#
# Indices 1 2 3 4 5 6 
#
# 1 -432.9360 75.2864 661.2963 0.2424 60.8682 -0.0384
# 2 75.2864 246.8226 67.3472 -0.0047 29.9547 -0.0031
# 3 661.2963 67.3472 -456.9706 -0.2416 31.9953 0.0315
# 4 0.2424 -0.0047 -0.2416 33.5051 -0.0113 4.9645
# 5 60.8682 29.9547 31.9953 -0.0113 29.5450 0.0053
# 6 -0.0384 -0.0031 0.0315 4.9645 0.0053 33.7217
#
#
#
# Elastic Compliance Matrix: (Units=1/GPa)
#
#
# Indices 1 2 3 4 5 6 
#
# 1 0.006736 -0.001718 0.008036 0.000002 -0.020837 0.000003
# 2 -0.001718 0.005006 -0.001726 0.000001 0.000333 0.000000
# 3 0.008036 -0.001726 0.007575 -0.000013 -0.023009 0.000007
# 4 0.000002 0.000001 -0.000013 0.030512 0.000022 -0.004492
# 5 -0.020837 0.000333 -0.023009 0.000022 0.101354 -0.000021
# 6 0.000003 0.000000 0.000007 -0.004492 -0.000021 0.030316
#
#
# Mechanical properties :
#
#
# Convention : Reuss Voigt Hill
#
# Bulk Modulus (GPa) = 35.08738 107.19732 71.14235
# Shear Modulus (GPa) = 27.50048 -77.11322 -24.80637
#
# Velocity S-wave (km/s) = 3.88338 -6.50286 -3.68826
# Velocity P-wave (km/s) = 6.27285 1.54975 4.56894
#
# Compressibility (1/GPa) = 0.02850028
#
# Stress axis : x y z
#
# Youngs Moduli (GPa) = 148.45716 199.76011 132.01335
#
# Poissons Ratio (x) = 0.34326 -1.06081
# Poissons Ratio (y) = 0.25510 0.22780
# Poissons Ratio (z) = -1.19294 0.34470
#
# Static dielectric constant tensor:
#      x y z
#    x 1.657510 0.000000 -0.000580 
#    y 0.000000 1.603280 0.000000 
#    z -0.000580 0.000000 1.657530 
# 
# From -- ./inp_files/352967.got.cif
#   From: 2010.05.17/outbox.cif.g08.bks.cpg/sg12_177_cif.got.tgz:352967.got - 2010.06.03 13:09:07.
