data_PCOD9174835
_publ_section_title
;
Structure prediction by ZEFSAII (Michael W. Deem and Ramdas Pophale) SiO2 
 PCOD9174835
Probable space group: C 2/M
;
_chemical_formula_sum "Si O2"
_cell_formula_units_Z 48
_cell_length_a 7.719179
_cell_length_b 22.688098
_cell_length_c 14.572800
_cell_angle_alpha 90.000000
_cell_angle_beta 114.110533
_cell_angle_gamma 90.000000
_cell_volume 2329.530364
_symmetry_space_group_name_H-M "C 2/M"
_symmetry_group_IT_number 12
_symmetry_cell_setting 'monoclinic'
loop_
_space_group_symop_operation_xyz
x,y,z
-x,y,-z
-x,-y,-z
x,-y,z
1/2+x,1/2+y,z
1/2-x,1/2+y,-z
1/2-x,1/2-y,-z
1/2+x,1/2-y,z
loop_
_atom_site_type_symbol
_atom_site_label
_atom_site_fract_x
_atom_site_fract_y
_atom_site_fract_z
Si Si1 0.816630 0.068805 0.695551
Si Si2 0.010661 0.368853 0.274257
Si Si3 0.744098 0.931145 0.165732
Si Si4 0.011038 0.727724 0.143421
Si Si5 0.776401 0.068402 0.473606
Si Si6 0.283983 0.326770 0.060195
O O1 0.694091 0.108780 0.736878
O O2 0.750402 0.077483 0.576407
O O3 0.043326 0.078284 0.747874
O O4 0.784428 0.000000 0.712161
O O5 0.090591 0.404425 0.202740
O O6 0.153822 0.387468 0.386231
O O7 0.013024 0.300316 0.244589
O O8 0.754314 0.895038 0.072874
O O9 0.711985 0.000000 0.146360
O O10 0.987821 0.796194 0.110889
O O11 0.195647 0.704447 0.131443
O O12 0.839400 0.695203 0.051341
O O13 0.000000 0.073964 0.500000
O O14 0.722965 0.000000 0.439832
#
# Coordination Sequence:
#
# PCOD9174835 Si02
#       6
#     8   8   8   8   8   8
#     4  10  20  32  52  82 113 151 188 224 277 331
#     4  11  20  33  54  84 113 142 187 235 276 323
#     4  10  20  35  55  82 116 147 182 233 284 331
#     4   9  20  36  59  84 105 147 190 231 279 328
#     4  10  18  32  53  78 113 154 190 228 274 333
#     4   9  19  38  58  83 110 144 192 229 277 340
#
# _framework density 20.605013
#
# number of rings (size 3 to 8) (size 9 to 14) (size 15 to 20)
#    0.000    2.167    1.667    2.000    2.333    1.333 
#    0.000    8.333    0.000    3.000    4.333    0.000 
#    0.000    0.000    0.000    0.000    0.000    0.000 
#
# Total GULP energy -133857.748001 kJ/mol
# GULP energy per Si atom -5577.406167 kJ/mol
# Density = 2.055811 g / cm^3
# Si number density = 20.605013 Si / 1000 Ang^3
#
#
#
# Elastic Constant Matrix: (Units=GPa)
#
#
# Indices 1 2 3 4 5 6 
#
# 1 67.2309 10.1442 -2.4187 0.0000 -12.1039 0.0000
# 2 10.1442 53.8475 20.6146 0.0000 1.7592 0.0000
# 3 -2.4187 20.6146 58.8752 0.0000 1.9193 0.0000
# 4 0.0000 0.0000 0.0000 35.0236 0.0000 -0.5462
# 5 -12.1039 1.7592 1.9193 0.0000 23.5225 0.0000
# 6 0.0000 0.0000 0.0000 -0.5462 0.0000 22.7997
#
#
#
# Elastic Compliance Matrix: (Units=1/GPa)
#
#
# Indices 1 2 3 4 5 6 
#
# 1 0.017210 -0.004267 0.001907 0.000000 0.009019 0.000000
# 2 -0.004267 0.022527 -0.007958 0.000000 -0.003231 0.000000
# 3 0.001907 -0.007958 0.019851 0.000000 -0.000043 0.000000
# 4 0.000000 0.000000 0.000000 0.028563 0.000000 0.000684
# 5 0.009019 -0.003231 -0.000043 0.000000 0.047399 0.000000
# 6 0.000000 0.000000 0.000000 0.000684 0.000000 0.043877
#
#
# Mechanical properties :
#
#
# Convention : Reuss Voigt Hill
#
# Bulk Modulus (GPa) = 25.67172 26.29265 25.98219
# Shear Modulus (GPa) = 23.46913 26.37672 24.92293
#
# Velocity S-wave (km/s) = 3.37857 3.58175 3.48164
# Velocity P-wave (km/s) = 5.26362 5.46747 5.36651
#
# Compressibility (1/GPa) = 0.03895337
#
# Stress axis : x y z
#
# Youngs Moduli (GPa) = 58.10455 44.39166 50.37510
#
# Poissons Ratio (x) = 0.18942 -0.09607
# Poissons Ratio (y) = 0.24793 0.40086
# Poissons Ratio (z) = -0.11081 0.35325
#
# Static dielectric constant tensor:
#      x y z
#    x 1.817750 0.000000 -0.004020 
#    y 0.000000 1.818630 0.000000 
#    z -0.004020 0.000000 1.734830 
# 
# From -- ./inp_files/198033.got.cif
#   From: 2010.05.17/outbox.cif.g08.bks.cpg/sg12_100_cif.got.tgz:198033.got - 2010.06.03 13:09:07.
