data_PCOD9174984
_publ_section_title
;
Structure prediction by ZEFSAII (Michael W. Deem and Ramdas Pophale) SiO2 
 PCOD9174984
Probable space group: C 2/M
;
_chemical_formula_sum "Si O2"
_cell_formula_units_Z 64
_cell_length_a 24.161258
_cell_length_b 29.493826
_cell_length_c 9.256170
_cell_angle_alpha 90.000000
_cell_angle_beta 149.355407
_cell_angle_gamma 90.000000
_cell_volume 3362.065205
_symmetry_space_group_name_H-M "C 2/M"
_symmetry_group_IT_number 12
_symmetry_cell_setting 'monoclinic'
loop_
_space_group_symop_operation_xyz
x,y,z
-x,y,-z
-x,-y,-z
x,-y,z
1/2+x,1/2+y,z
1/2-x,1/2+y,-z
1/2-x,1/2-y,-z
1/2+x,1/2-y,z
loop_
_atom_site_type_symbol
_atom_site_label
_atom_site_fract_x
_atom_site_fract_y
_atom_site_fract_z
Si Si1 0.884018 0.448260 0.820954
Si Si2 0.966771 0.834795 0.207376
Si Si3 0.950880 0.602594 0.233328
Si Si4 0.637267 0.837128 0.546304
Si Si5 0.223862 0.865474 0.398971
Si Si6 0.786318 0.684718 0.815579
Si Si7 0.830908 0.171962 0.180029
Si Si8 0.983096 0.737828 0.129344
O O1 0.851106 0.500000 0.719701
O O2 0.790785 0.412081 0.568835
O O3 0.905321 0.438789 0.038577
O O4 0.000000 0.441192 0.000000
O O5 0.899356 0.813606 0.192658
O O6 0.993711 0.791096 0.173061
O O7 0.077194 0.855221 0.522670
O O8 0.889544 0.867532 0.941817
O O9 0.000000 0.592509 0.500000
O O10 0.046012 0.624747 0.350197
O O11 0.861715 0.642706 0.038305
O O12 0.698223 0.836458 0.531298
O O13 0.572976 0.790200 0.421622
O O14 0.726713 0.848756 0.867020
O O15 0.214745 0.838082 0.528198
O O16 0.721927 0.702170 0.811318
O O17 0.866152 0.721110 0.923388
O O18 0.000000 0.725495 0.000000
#
# Coordination Sequence:
#
# PCOD9174984 Si02
#       8
#     8   8   8   8   8   8   8   8
#     4  10  20  34  60  93 120 143 180 233 290 363
#     4  10  25  38  54  73 111 155 201 251 276 330
#     4  10  18  32  54  87 115 150 177 223 289 357
#     4  10  19  36  57  76 115 149 188 232 288 340
#     4  10  20  38  58  81 111 155 182 231 293 342
#     4  10  21  33  58  79 108 148 193 242 285 345
#     4  10  22  40  51  79 105 149 206 239 292 323
#     4  11  23  36  53  83 113 147 200 245 296 339
#
# _framework density 19.035917999999999
#
# number of rings (size 3 to 8) (size 9 to 14) (size 15 to 20)
#    0.000    1.875    3.750    0.000    1.750    5.750 
#    0.000    0.000    0.000    0.000    0.000   14.875 
#    0.000    0.000    0.000    0.000    0.000    0.000 
#
# Total GULP energy -178168.939183 kJ/mol
# GULP energy per Si atom -5567.779349 kJ/mol
# Density = 1.899259 g / cm^3
# Si number density = 19.035918 Si / 1000 Ang^3
#
#
#
# Elastic Constant Matrix: (Units=GPa)
#
#
# Indices 1 2 3 4 5 6 
#
# 1 76.2877 -2.7425 15.6281 0.0000 -13.5437 0.0000
# 2 -2.7425 62.9807 38.8668 0.0000 -3.4115 0.0000
# 3 15.6281 38.8668 132.1666 0.0000 -10.7189 0.0000
# 4 0.0000 0.0000 0.0000 1.6364 0.0000 3.1795
# 5 -13.5437 -3.4115 -10.7189 0.0000 25.8012 0.0000
# 6 0.0000 0.0000 0.0000 3.1795 0.0000 13.9728
#
#
#
# Elastic Compliance Matrix: (Units=1/GPa)
#
#
# Indices 1 2 3 4 5 6 
#
# 1 0.014856 0.002152 -0.001794 0.000000 0.007337 0.000000
# 2 0.002152 0.019711 -0.005948 0.000000 0.001265 0.000000
# 3 -0.001794 -0.005948 0.009715 0.000000 0.002308 0.000000
# 4 0.000000 0.000000 0.000000 1.095356 0.000000 -0.249245
# 5 0.007337 0.001265 0.002308 0.000000 0.043735 0.000000
# 6 0.000000 0.000000 0.000000 -0.249245 0.000000 0.128283
#
#
# Mechanical properties :
#
#
# Convention : Reuss Voigt Hill
#
# Bulk Modulus (GPa) = 30.21191 41.65997 35.93594
# Shear Modulus (GPa) = 3.74849 22.92759 13.33804
#
# Velocity S-wave (km/s) = 1.40479 3.47427 2.64990
# Velocity P-wave (km/s) = 4.30543 6.16656 5.31804
#
# Compressibility (1/GPa) = 0.03309953
#
# Stress axis : x y z
#
# Youngs Moduli (GPa) = 67.31372 50.73325 102.93601
#
# Poissons Ratio (x) = -0.10916 0.18470
# Poissons Ratio (y) = -0.14484 0.61230
# Poissons Ratio (z) = 0.12078 0.30178
#
# Static dielectric constant tensor:
#      x y z
#    x 1.717940 0.000000 0.005240 
#    y 0.000000 1.603450 0.000000 
#    z 0.005240 0.000000 1.722910 
# 
# From -- ./inp_files/100260.got.cif
#   From: 2010.05.17/outbox.cif.g08.bks.cpg/sg12_51_cif.got.tgz:100260.got - 2010.06.03 13:09:07.
