data_PCOD9174596
_publ_section_title
;
Structure prediction by ZEFSAII (Michael W. Deem and Ramdas Pophale) SiO2 
 PCOD9174596
Probable space group: C 2/M
;
_chemical_formula_sum "Si O2"
_cell_formula_units_Z 56
_cell_length_a 20.276738
_cell_length_b 8.769448
_cell_length_c 18.676606
_cell_angle_alpha 90.000000
_cell_angle_beta 99.065750
_cell_angle_gamma 90.000000
_cell_volume 3279.510326
_symmetry_space_group_name_H-M "C 2/M"
_symmetry_group_IT_number 12
_symmetry_cell_setting 'monoclinic'
loop_
_space_group_symop_operation_xyz
x,y,z
-x,y,-z
-x,-y,-z
x,-y,z
1/2+x,1/2+y,z
1/2-x,1/2+y,-z
1/2-x,1/2-y,-z
1/2+x,1/2-y,z
loop_
_atom_site_type_symbol
_atom_site_label
_atom_site_fract_x
_atom_site_fract_y
_atom_site_fract_z
Si Si1 0.182417 0.319270 0.957114
Si Si2 0.925052 0.179621 0.956314
Si Si3 0.445443 0.317527 0.648366
Si Si4 0.920632 0.681113 0.501028
Si Si5 0.961144 0.184668 0.806793
Si Si6 0.383881 0.683075 0.192018
Si Si7 0.905485 0.316659 0.342979
O O1 0.187726 0.500000 0.951378
O O2 0.163593 0.247585 0.877277
O O3 0.250000 0.250000 0.000000
O O4 0.123794 0.273136 0.001824
O O5 0.928263 0.236589 0.874938
O O6 0.905225 0.000000 0.954595
O O7 0.000000 0.187055 0.000000
O O8 0.452154 0.500000 0.646685
O O9 0.403851 0.262446 0.572664
O O10 0.425113 0.274300 0.725968
O O11 0.518663 0.243187 0.652625
O O12 0.912683 0.500000 0.509033
O O13 0.885013 0.727569 0.420663
O O14 0.000000 0.708566 0.500000
O O15 0.039352 0.230321 0.814480
O O16 0.117748 0.000000 0.807443
O O17 0.368284 0.746449 0.268494
O O18 0.037908 0.000000 0.188864
O O19 0.905120 0.500000 0.339116
#
# Coordination Sequence:
#
# PCOD9174596 Si02
#       7
#     8   8   8   8   8   8   8
#     4  12  25  39  54  75 102 133 170 211 256 302
#     4  10  18  34  57  76 100 134 168 207 256 304
#     4   9  15  22  35  57  86 121 160 198 237 288
#     4   8  14  23  33  49  81 121 157 193 239 288
#     4   8  15  27  45  69  95 125 160 199 247 296
#     4  10  18  32  50  70  94 125 163 203 249 299
#     4   9  16  25  37  57  85 120 158 198 242 290
#
# _framework density 17.07572
#
# number of rings (size 3 to 8) (size 9 to 14) (size 15 to 20)
#    0.000    2.571    1.429    4.286    0.000    3.429 
#    0.000    1.429    0.000    0.000    0.000    0.000 
#    0.000    1.143    0.000    3.429    0.000    7.000 
#
# Total GULP energy -155910.616623 kJ/mol
# GULP energy per Si atom -5568.236308 kJ/mol
# Density = 1.703686 g / cm^3
# Si number density = 17.075720 Si / 1000 Ang^3
#
#
#
# Elastic Constant Matrix: (Units=GPa)
#
#
# Indices 1 2 3 4 5 6 
#
# 1 21.3955 16.4285 26.8824 0.0000 8.0181 0.0000
# 2 16.4285 66.3697 57.6138 0.0000 5.0492 0.0000
# 3 26.8824 57.6138 208.1308 0.0000 3.1347 0.0000
# 4 0.0000 0.0000 0.0000 31.3239 0.0000 2.3788
# 5 8.0181 5.0492 3.1347 0.0000 11.0859 0.0000
# 6 0.0000 0.0000 0.0000 2.3788 0.0000 10.3056
#
#
#
# Elastic Compliance Matrix: (Units=1/GPa)
#
#
# Indices 1 2 3 4 5 6 
#
# 1 0.083963 -0.010493 -0.007128 0.000000 -0.053934 0.000000
# 2 -0.010493 0.021787 -0.004661 0.000000 -0.001016 0.000000
# 3 -0.007128 -0.004661 0.006935 0.000000 0.005317 0.000000
# 4 0.000000 0.000000 0.000000 0.032494 0.000000 -0.007501
# 5 -0.053934 -0.001016 0.005317 0.000000 0.128173 0.000000
# 6 0.000000 0.000000 0.000000 -0.007501 0.000000 0.098766
#
#
# Mechanical properties :
#
#
# Convention : Reuss Voigt Hill
#
# Bulk Modulus (GPa) = 14.67917 55.30502 34.99209
# Shear Modulus (GPa) = 11.37943 23.54117 17.46030
#
# Velocity S-wave (km/s) = 2.58429 3.71702 3.20116
# Velocity P-wave (km/s) = 4.18568 7.13303 5.84808
#
# Compressibility (1/GPa) = 0.06812375
#
# Stress axis : x y z
#
# Youngs Moduli (GPa) = 11.90994 45.89811 144.18901
#
# Poissons Ratio (x) = 0.48160 1.02777
# Poissons Ratio (y) = 0.12497 0.67200
# Poissons Ratio (z) = 0.08489 0.21391
#
# Static dielectric constant tensor:
#      x y z
#    x 1.548760 0.000000 0.001770 
#    y 0.000000 1.574070 0.000000 
#    z 0.001770 0.000000 1.657860 
# 
# From -- ./inp_files/280183.got.cif
#   From: 2010.05.17/outbox.cif.g08.bks.cpg/sg12_141_cif.got.tgz:280183.got - 2010.06.03 13:09:07.
