data_PCOD9174247
_publ_section_title
;
Structure prediction by ZEFSAII (Michael W. Deem and Ramdas Pophale) SiO2 
 PCOD9174247
Probable space group: C 2/M
;
_chemical_formula_sum "Si O2"
_cell_formula_units_Z 56
_cell_length_a 14.301932
_cell_length_b 17.804368
_cell_length_c 12.716613
_cell_angle_alpha 90.000000
_cell_angle_beta 52.805281
_cell_angle_gamma 90.000000
_cell_volume 2579.438629
_symmetry_space_group_name_H-M "C 2/M"
_symmetry_group_IT_number 12
_symmetry_cell_setting 'monoclinic'
loop_
_space_group_symop_operation_xyz
x,y,z
-x,y,-z
-x,-y,-z
x,-y,z
1/2+x,1/2+y,z
1/2-x,1/2+y,-z
1/2-x,1/2-y,-z
1/2+x,1/2-y,z
loop_
_atom_site_type_symbol
_atom_site_label
_atom_site_fract_x
_atom_site_fract_y
_atom_site_fract_z
Si Si1 0.362933 0.675677 0.801992
Si Si2 0.295170 0.300746 0.369943
Si Si3 0.413600 0.412162 0.423238
Si Si4 0.906080 0.329658 0.656103
Si Si5 0.486034 0.086294 0.803997
Si Si6 0.253487 0.088027 0.281214
Si Si7 0.531622 0.755007 0.098459
O O1 0.462954 0.615998 0.703813
O O2 0.407170 0.752401 0.719389
O O3 0.251116 0.642528 0.816435
O O4 0.369302 0.698788 0.920373
O O5 0.250000 0.250000 0.500000
O O6 0.322968 0.381104 0.400806
O O7 0.213742 0.320075 0.327000
O O8 0.413237 0.263116 0.245251
O O9 0.416392 0.500000 0.431118
O O10 0.357103 0.385377 0.571876
O O11 0.000000 0.331395 0.500000
O O12 0.940821 0.393896 0.716917
O O13 0.626995 0.091011 0.731475
O O14 0.439644 0.157275 0.902314
O O15 0.452334 0.000000 0.854595
O O16 0.239106 0.000000 0.261895
O O17 0.500000 0.740281 0.000000
#
# Coordination Sequence:
#
# PCOD9174247 Si02
#       7
#     8   8   8   8   8   8   8
#     4  10  19  32  52  78 108 143 187 233 285 341
#     4  11  21  37  61  86 116 152 191 236 283 334
#     4  10  19  30  50  82 115 146 183 232 288 339
#     4  11  20  32  54  83 116 153 187 229 279 332
#     4  10  22  37  53  78 112 151 193 233 277 333
#     4  10  18  31  53  81 114 148 185 232 282 335
#     4  10  22  40  61  84 111 146 189 238 290 344
#
# _framework density 21.710149999999999
#
# number of rings (size 3 to 8) (size 9 to 14) (size 15 to 20)
#    0.000    1.714    0.000    7.714    0.000    2.286 
#    0.000    6.429    0.000   10.714    0.000    0.000 
#    0.000    0.000    0.000    0.000    0.000    0.000 
#
# Total GULP energy -156129.340607 kJ/mol
# GULP energy per Si atom -5576.047879 kJ/mol
# Density = 2.166074 g / cm^3
# Si number density = 21.710150 Si / 1000 Ang^3
#
#
#
# Elastic Constant Matrix: (Units=GPa)
#
#
# Indices 1 2 3 4 5 6 
#
# 1 129.4709 34.1039 31.8953 0.0000 37.7672 0.0000
# 2 34.1039 84.1085 18.8291 0.0000 20.2278 0.0000
# 3 31.8953 18.8291 86.7365 0.0000 22.5413 0.0000
# 4 0.0000 0.0000 0.0000 -65.2992 0.0000 -64.8231
# 5 37.7672 20.2278 22.5413 0.0000 45.3866 0.0000
# 6 0.0000 0.0000 0.0000 -64.8231 0.0000 -40.4102
#
#
#
# Elastic Compliance Matrix: (Units=1/GPa)
#
#
# Indices 1 2 3 4 5 6 
#
# 1 0.010821 -0.002300 -0.001615 0.000000 -0.007177 0.000000
# 2 -0.002300 0.013989 -0.001226 0.000000 -0.003712 0.000000
# 3 -0.001615 -0.001226 0.013661 0.000000 -0.004895 0.000000
# 4 0.000000 0.000000 0.000000 0.025850 0.000000 -0.041466
# 5 -0.007177 -0.003712 -0.004895 0.000000 0.032091 0.000000
# 6 0.000000 0.000000 0.000000 -0.041466 0.000000 0.041771
#
#
# Mechanical properties :
#
#
# Convention : Reuss Voigt Hill
#
# Bulk Modulus (GPa) = 35.47451 52.21916 43.84684
# Shear Modulus (GPa) = 31.67348 2.30129 16.98738
#
# Velocity S-wave (km/s) = 3.82373 1.03068 2.80029
# Velocity P-wave (km/s) = 5.98916 5.05188 5.54038
#
# Compressibility (1/GPa) = 0.02818926
#
# Stress axis : x y z
#
# Youngs Moduli (GPa) = 92.41246 71.48362 73.20006
#
# Poissons Ratio (x) = 0.16442 0.11819
# Poissons Ratio (y) = 0.21255 0.08978
# Poissons Ratio (z) = 0.14921 0.08767
#
# Static dielectric constant tensor:
#      x y z
#    x 0.446790 0.000000 0.219760 
#    y 0.000000 1.773140 0.000000 
#    z 0.219760 0.000000 1.803730 
# 
# From -- ./inp_files/145494.got.cif
#   From: 2010.05.17/outbox.cif.g08.bks.cpg/sg12_73_cif.got.tgz:145494.got - 2010.06.03 13:09:07.
