data_PCOD9174195
_publ_section_title
;
Structure prediction by ZEFSAII (Michael W. Deem and Ramdas Pophale) SiO2 
 PCOD9174195
Probable space group: C 2/M
;
_chemical_formula_sum "Si O2"
_cell_formula_units_Z 44
_cell_length_a 22.333135
_cell_length_b 7.767796
_cell_length_c 27.966907
_cell_angle_alpha 90.000000
_cell_angle_beta 155.654610
_cell_angle_gamma 90.000000
_cell_volume 2000.037401
_symmetry_space_group_name_H-M "C 2/M"
_symmetry_group_IT_number 12
_symmetry_cell_setting 'monoclinic'
loop_
_space_group_symop_operation_xyz
x,y,z
-x,y,-z
-x,-y,-z
x,-y,z
1/2+x,1/2+y,z
1/2-x,1/2+y,-z
1/2-x,1/2-y,-z
1/2+x,1/2-y,z
loop_
_atom_site_type_symbol
_atom_site_label
_atom_site_fract_x
_atom_site_fract_y
_atom_site_fract_z
Si Si1 0.185751 0.203845 0.269073
Si Si2 0.500000 0.255456 0.500000
Si Si3 0.632619 0.700003 0.792062
Si Si4 0.543942 0.790940 0.978771
Si Si5 0.133118 0.791128 0.338811
Si Si6 0.954698 0.695538 0.578446
O O1 0.332865 0.313819 0.371227
O O2 0.116692 0.242961 0.270472
O O3 0.230459 0.000000 0.301601
O O4 0.072882 0.232589 0.144910
O O5 0.477473 0.187843 0.538077
O O6 0.643453 0.500000 0.813957
O O7 0.793405 0.773674 0.914230
O O8 0.501308 0.774718 0.728160
O O9 0.578690 0.709208 0.698034
O O10 0.546193 0.000000 0.980324
O O11 0.500000 0.735108 0.000000
O O12 0.293974 0.727979 0.470524
O O13 0.140052 0.000000 0.348963
O O14 0.958086 0.500000 0.598560
#
# Coordination Sequence:
#
# PCOD9174195 Si02
#       6
#     8   4   8   8   8   8
#     4  10  19  34  56  77  98 127 167 206 243 295
#     4  10  19  34  55  78 103 130 157 202 261 296
#     4  10  20  35  52  70 101 139 166 197 248 297
#     4  10  22  37  50  70 103 137 166 201 247 294
#     4   8  17  33  52  75 101 130 162 203 253 294
#     4  10  18  31  53  78 102 127 164 207 245 292
#
# _framework density 21.999589
#
# number of rings (size 3 to 8) (size 9 to 14) (size 15 to 20)
#    0.000    2.364    0.000    4.364    0.000    1.818 
#    0.000    5.455    0.000    0.000    0.000    0.000 
#    0.000    0.000    0.000    0.000    0.000    0.000 
#
# Total GULP energy -122574.451827 kJ/mol
# GULP energy per Si atom -5571.565992 kJ/mol
# Density = 2.194952 g / cm^3
# Si number density = 21.999589 Si / 1000 Ang^3
#
#
#
# Elastic Constant Matrix: (Units=GPa)
#
#
# Indices 1 2 3 4 5 6 
#
# 1 103.6546 14.7820 71.4016 -0.0012 13.1602 0.0002
# 2 14.7820 43.7514 12.2697 0.0002 8.3771 -0.0001
# 3 71.4016 12.2697 183.1821 0.0025 -0.8042 -0.0001
# 4 -0.0012 0.0002 0.0025 60.4201 0.0004 -0.9871
# 5 13.1602 8.3771 -0.8042 0.0004 38.8060 -0.0001
# 6 0.0002 -0.0001 -0.0001 -0.9871 -0.0001 -8.2248
#
#
#
# Elastic Compliance Matrix: (Units=1/GPa)
#
#
# Indices 1 2 3 4 5 6 
#
# 1 0.014300 -0.002461 -0.005429 0.000001 -0.004431 0.000000
# 2 -0.002461 0.024756 -0.000719 0.000000 -0.004524 0.000000
# 3 -0.005429 -0.000719 0.007633 0.000000 0.002154 0.000000
# 4 0.000001 0.000000 0.000000 0.016518 0.000000 -0.001983
# 5 -0.004431 -0.004524 0.002154 0.000000 0.028293 0.000000
# 6 0.000000 0.000000 0.000000 -0.001983 0.000000 -0.121346
#
#
# Mechanical properties :
#
#
# Convention : Reuss Voigt Hill
#
# Bulk Modulus (GPa) = 33.93028 58.61051 46.27039
# Shear Modulus (GPa) = -1782.73753 33.67591 -874.53081
#
# Velocity S-wave (km/s) = -28.49754 3.91673 -19.95957
# Velocity P-wave (km/s) = 32.67042 6.86686 22.58542
#
# Compressibility (1/GPa) = 0.02947220
#
# Stress axis : x y z
#
# Youngs Moduli (GPa) = 69.92789 40.39468 131.01545
#
# Poissons Ratio (x) = 0.09940 0.71125
# Poissons Ratio (y) = 0.17208 0.09418
# Poissons Ratio (z) = 0.37962 0.02904
#
# Static dielectric constant tensor:
#      x y z
#    x 1.785470 0.000000 0.035940 
#    y 0.000000 1.807360 0.000000 
#    z 0.035940 0.000000 1.778040 
# 
# From -- ./inp_files/382581.got.cif
#   From: 2010.05.17/outbox.cif.g08.bks.cpg/sg12_192_cif.got.tgz:382581.got - 2010.06.03 13:09:07.
