data_PCOD9174267
_publ_section_title
;
Structure prediction by ZEFSAII (Michael W. Deem and Ramdas Pophale) SiO2 
 PCOD9174267
Probable space group: C 2/M
;
_chemical_formula_sum "Si O2"
_cell_formula_units_Z 40
_cell_length_a 20.388700
_cell_length_b 18.075588
_cell_length_c 7.266529
_cell_angle_alpha 90.000000
_cell_angle_beta 137.466543
_cell_angle_gamma 90.000000
_cell_volume 1810.376569
_symmetry_space_group_name_H-M "C 2/M"
_symmetry_group_IT_number 12
_symmetry_cell_setting 'monoclinic'
loop_
_space_group_symop_operation_xyz
x,y,z
-x,y,-z
-x,-y,-z
x,-y,z
1/2+x,1/2+y,z
1/2-x,1/2+y,-z
1/2-x,1/2-y,-z
1/2+x,1/2-y,z
loop_
_atom_site_type_symbol
_atom_site_label
_atom_site_fract_x
_atom_site_fract_y
_atom_site_fract_z
Si Si1 0.114567 0.417517 0.186088
Si Si2 0.769286 0.357132 0.235359
Si Si3 0.875969 0.266262 0.920447
Si Si4 0.609308 0.418041 0.639067
Si Si5 0.588540 0.259727 0.441147
O O1 0.126965 0.500000 0.138775
O O2 0.176917 0.406060 0.500122
O O3 0.146447 0.353156 0.112734
O O4 0.000000 0.407467 0.000000
O O5 0.701931 0.293744 0.185851
O O6 0.852230 0.302562 0.323332
O O7 0.696862 0.405762 0.964408
O O8 0.893691 0.256883 0.737842
O O9 0.974244 0.248551 0.230533
O O10 0.500000 0.416030 0.500000
O O11 0.618955 0.500000 0.572923
O O12 0.616546 0.344230 0.533026
#
# Coordination Sequence:
#
# PCOD9174267 Si02
#       5
#     8   8   8   8   8
#     4  10  18  31  53  84 112 136 175 230 277 320
#     4  11  20  37  61  82 109 152 189 224 277 339
#     4  10  19  36  59  84 110 145 191 227 273 337
#     4  11  23  38  55  82 116 150 189 232 277 329
#     4  10  19  37  57  82 111 147 186 228 277 330
#
# _framework density 22.094850000000001
#
# number of rings (size 3 to 8) (size 9 to 14) (size 15 to 20)
#    0.000    1.600    6.000    3.600    0.000    0.000 
#    0.000    7.000    0.000    0.000    0.000    2.800 
#    0.000    0.000    0.000    0.000    0.000    0.000 
#
# Total GULP energy -111676.520905 kJ/mol
# GULP energy per Si atom -5583.826045 kJ/mol
# Density = 2.204456 g / cm^3
# Si number density = 22.094850 Si / 1000 Ang^3
#
#
#
# Elastic Constant Matrix: (Units=GPa)
#
#
# Indices 1 2 3 4 5 6 
#
# 1 30.3839 0.1969 18.2538 0.0000 13.5191 0.0000
# 2 0.1969 171.8192 33.2280 0.0000 -6.8871 0.0000
# 3 18.2538 33.2280 150.4279 0.0000 26.9217 0.0000
# 4 0.0000 0.0000 0.0000 27.3432 0.0000 -10.9138
# 5 13.5191 -6.8871 26.9217 0.0000 29.3037 0.0000
# 6 0.0000 0.0000 0.0000 -10.9138 0.0000 1.2219
#
#
#
# Elastic Compliance Matrix: (Units=1/GPa)
#
#
# Indices 1 2 3 4 5 6 
#
# 1 0.041909 -0.000409 -0.001816 0.000000 -0.017762 0.000000
# 2 -0.000409 0.006343 -0.001977 0.000000 0.003496 0.000000
# 3 -0.001816 -0.001977 0.008662 0.000000 -0.007585 0.000000
# 4 0.000000 0.000000 0.000000 -0.014258 0.000000 -0.127350
# 5 -0.017762 0.003496 -0.007585 0.000000 0.050109 0.000000
# 6 0.000000 0.000000 0.000000 -0.127350 0.000000 -0.319063
#
#
# Mechanical properties :
#
#
# Convention : Reuss Voigt Hill
#
# Bulk Modulus (GPa) = 20.61437 50.66537 35.63987
# Shear Modulus (GPa) = -24.78650 31.63726 3.42538
#
# Velocity S-wave (km/s) = -3.35300 3.78813 1.24646
# Velocity P-wave (km/s) = 2.37485 6.48952 4.27048
#
# Compressibility (1/GPa) = 0.04850985
#
# Stress axis : x y z
#
# Youngs Moduli (GPa) = 23.86117 157.65368 115.44289
#
# Poissons Ratio (x) = 0.06443 0.20970
# Poissons Ratio (y) = 0.00975 0.22825
# Poissons Ratio (z) = 0.04334 0.31170
#
# Static dielectric constant tensor:
#      x y z
#    x 1.859840 0.000000 0.019230 
#    y 0.000000 1.803910 0.000000 
#    z 0.019230 0.000000 1.862740 
# 
# From -- ./inp_files/60246.got.cif
#   From: 2010.05.17/outbox.cif.g08.bks.cpg/sg12_31_cif.got.tgz:60246.got - 2010.06.03 13:09:07.
