data_PCOD9174566
_publ_section_title
;
Structure prediction by ZEFSAII (Michael W. Deem and Ramdas Pophale) SiO2 
 PCOD9174566
Probable space group: C 2/M
;
_chemical_formula_sum "Si O2"
_cell_formula_units_Z 60
_cell_length_a 30.295185
_cell_length_b 28.223750
_cell_length_c 24.453161
_cell_angle_alpha 90.000000
_cell_angle_beta 168.945676
_cell_angle_gamma 90.000000
_cell_volume 4008.992098
_symmetry_space_group_name_H-M "C 2/M"
_symmetry_group_IT_number 12
_symmetry_cell_setting 'monoclinic'
loop_
_space_group_symop_operation_xyz
x,y,z
-x,y,-z
-x,-y,-z
x,-y,z
1/2+x,1/2+y,z
1/2-x,1/2+y,-z
1/2-x,1/2-y,-z
1/2+x,1/2-y,z
loop_
_atom_site_type_symbol
_atom_site_label
_atom_site_fract_x
_atom_site_fract_y
_atom_site_fract_z
Si Si1 0.403518 0.117853 0.771267
Si Si2 0.000000 0.757361 0.500000
Si Si3 0.929660 0.315358 0.194465
Si Si4 0.779295 0.276849 0.121579
Si Si5 0.712626 0.306789 0.455035
Si Si6 0.304232 0.820729 0.796382
Si Si7 0.687037 0.556450 0.774795
Si Si8 0.522099 0.617138 0.674010
O O1 0.344837 0.163495 0.662343
O O2 0.161657 0.101377 0.503454
O O3 0.560051 0.135793 0.011637
O O4 0.567242 0.081128 0.938956
O O5 0.901958 0.730032 0.328521
O O6 0.802787 0.790512 0.285435
O O7 0.938680 0.296989 0.267266
O O8 0.175444 0.324543 0.465403
O O9 0.814391 0.273190 0.017311
O O10 0.754936 0.359252 0.979375
O O11 0.557995 0.310333 0.862190
O O12 0.750000 0.250000 0.500000
O O13 0.107697 0.841060 0.518003
O O14 0.500000 0.793641 0.000000
O O15 0.500000 0.568819 0.500000
O O16 0.710596 0.500000 0.804529
O O17 0.587307 0.576984 0.709939
#
# Coordination Sequence:
#
# PCOD9174566 Si02
#       8
#     8   4   8   8   8   8   8   8
#     4  11  20  33  51  72  97 130 176 215 253 293
#     4  12  20  32  46  64 103 136 163 212 250 292
#     4  10  18  32  49  66  95 126 169 206 247 289
#     4  10  21  30  44  70  95 127 166 208 244 294
#     4  10  19  30  48  70  95 126 166 211 247 292
#     4  10  20  28  46  70  90 128 174 209 247 285
#     4  11  23  36  51  73 100 133 172 215 262 302
#     4  11  19  33  51  70  93 129 172 214 249 291
#
# _framework density 14.966355
#
# number of rings (size 3 to 8) (size 9 to 14) (size 15 to 20)
#    0.000    1.467    5.333    2.400    0.000    1.600 
#    0.000    1.333    0.000    0.000    0.000    0.000 
#    0.000    0.000    0.000    3.600    0.000    0.000 
#
# Total GULP energy -167147.141033 kJ/mol
# GULP energy per Si atom -5571.571368 kJ/mol
# Density = 1.493229 g / cm^3
# Si number density = 14.966355 Si / 1000 Ang^3
#
#
#
# Elastic Constant Matrix: (Units=GPa)
#
#
# Indices 1 2 3 4 5 6 
#
# 1 104.7458 24.4843 33.9308 -0.0216 21.1626 -0.0355
# 2 24.4843 45.2246 23.4215 -0.0014 8.1157 -0.0031
# 3 33.9308 23.4215 49.5072 -0.1165 18.4800 -0.1473
# 4 -0.0216 -0.0014 -0.1165 33.1048 -0.0675 17.4849
# 5 21.1626 8.1157 18.4800 -0.0675 37.0440 -0.0960
# 6 -0.0355 -0.0031 -0.1473 17.4849 -0.0960 42.3626
#
#
#
# Elastic Compliance Matrix: (Units=1/GPa)
#
#
# Indices 1 2 3 4 5 6 
#
# 1 0.013000 -0.003279 -0.005965 -0.000013 -0.003732 -0.000013
# 2 -0.003279 0.030126 -0.012584 -0.000026 0.001551 -0.000030
# 3 -0.005965 -0.012584 0.034334 0.000060 -0.010963 0.000064
# 4 -0.000013 -0.000026 0.000060 0.038628 0.000012 -0.015943
# 5 -0.003732 0.001551 -0.010963 0.000012 0.034256 0.000031
# 6 -0.000013 -0.000030 0.000064 -0.015943 0.000031 0.030187
#
#
# Mechanical properties :
#
#
# Convention : Reuss Voigt Hill
#
# Bulk Modulus (GPa) = 29.58356 40.35010 34.96683
# Shear Modulus (GPa) = 21.23552 30.34502 25.79027
#
# Velocity S-wave (km/s) = 3.77089 4.50772 4.15567
# Velocity P-wave (km/s) = 6.22649 7.35607 6.81472
#
# Compressibility (1/GPa) = 0.03380256
#
# Stress axis : x y z
#
# Youngs Moduli (GPa) = 76.92431 33.19394 29.12605
#
# Poissons Ratio (x) = 0.10884 0.17375
# Poissons Ratio (y) = 0.25222 0.36653
# Poissons Ratio (z) = 0.45888 0.41772
#
# Static dielectric constant tensor:
#      x y z
#    x 1.530150 0.000000 0.033630 
#    y 0.000000 1.481060 -0.000020 
#    z 0.033630 -0.000020 1.522650 
# 
# From -- ./inp_files/354617.got.cif
#   From: 2010.05.17/outbox.cif.g08.bks.cpg/sg12_178_cif.got.tgz:354617.got - 2010.06.03 13:09:07.
