data_PCOD9174845
_publ_section_title
;
Structure prediction by ZEFSAII (Michael W. Deem and Ramdas Pophale) SiO2 
 PCOD9174845
Probable space group: C 2/M
;
_chemical_formula_sum "Si O2"
_cell_formula_units_Z 64
_cell_length_a 25.580036
_cell_length_b 9.026361
_cell_length_c 15.114625
_cell_angle_alpha 90.000000
_cell_angle_beta 77.083364
_cell_angle_gamma 90.000000
_cell_volume 3401.578973
_symmetry_space_group_name_H-M "C 2/M"
_symmetry_group_IT_number 12
_symmetry_cell_setting 'monoclinic'
loop_
_space_group_symop_operation_xyz
x,y,z
-x,y,-z
-x,-y,-z
x,-y,z
1/2+x,1/2+y,z
1/2-x,1/2+y,-z
1/2-x,1/2-y,-z
1/2+x,1/2-y,z
loop_
_atom_site_type_symbol
_atom_site_label
_atom_site_fract_x
_atom_site_fract_y
_atom_site_fract_z
Si Si1 0.518673 0.822713 0.154509
Si Si2 0.587935 0.175194 0.585733
Si Si3 0.691390 0.676482 0.874188
Si Si4 0.602402 0.176003 0.789080
Si Si5 0.367351 0.676109 0.592274
Si Si6 0.624207 0.677444 0.072125
Si Si7 0.478057 0.324024 0.654602
Si Si8 0.195413 0.178790 0.212234
O O1 0.457309 0.783616 0.153713
O O2 0.567191 0.755819 0.080115
O O3 0.526864 0.758179 0.249896
O O4 0.521955 0.000000 0.154802
O O5 0.602533 0.200515 0.683070
O O6 0.630950 0.236155 0.499929
O O7 0.532114 0.261093 0.591042
O O8 0.579745 0.000000 0.577127
O O9 0.697362 0.500000 0.867480
O O10 0.648247 0.732884 0.819503
O O11 0.748169 0.752499 0.835703
O O12 0.666226 0.714579 0.979287
O O13 0.610259 0.000000 0.801121
O O14 0.361868 0.500000 0.578042
O O15 0.424954 0.700325 0.617551
O O16 0.323890 0.721895 0.682248
O O17 0.615947 0.500000 0.075766
O O18 0.650747 0.720181 0.155949
O O19 0.483344 0.500000 0.667168
O O20 0.198992 0.000000 0.209054
#
# Coordination Sequence:
#
# PCOD9174845 Si02
#       8
#     8   8   8   8   8   8   8   8
#     4  10  20  34  57  88 117 150 191 234 282 334
#     4  10  21  35  54  83 115 149 190 235 280 330
#     4  11  24  39  60  87 110 145 197 244 283 330
#     4   9  21  41  58  78 115 156 191 230 284 339
#     4  10  20  34  55  83 112 151 190 223 280 346
#     4  10  21  39  60  86 119 149 183 230 290 350
#     4  10  18  32  53  80 118 155 186 224 280 345
#     4  10  21  40  61  82 116 154 186 227 286 348
#
# _framework density 18.814789999999999
#
# number of rings (size 3 to 8) (size 9 to 14) (size 15 to 20)
#    0.000    2.000    1.250    3.000    0.000    8.000 
#    0.000    3.125    0.000    0.000    0.000    0.000 
#    0.000    0.000    0.000    0.000    0.000    0.000 
#
# Total GULP energy -178700.828978 kJ/mol
# GULP energy per Si atom -5584.400906 kJ/mol
# Density = 1.877197 g / cm^3
# Si number density = 18.814790 Si / 1000 Ang^3
#
#
#
# Elastic Constant Matrix: (Units=GPa)
#
#
# Indices 1 2 3 4 5 6 
#
# 1 131.0582 39.4708 39.5396 0.0000 -53.2141 0.0000
# 2 39.4708 25.3371 26.8651 0.0000 -17.2256 0.0000
# 3 39.5396 26.8651 85.6662 0.0000 -33.1413 0.0000
# 4 0.0000 0.0000 0.0000 18.7229 0.0000 -14.9324
# 5 -53.2141 -17.2256 -33.1413 0.0000 45.7751 0.0000
# 6 0.0000 0.0000 0.0000 -14.9324 0.0000 24.7687
#
#
#
# Elastic Compliance Matrix: (Units=1/GPa)
#
#
# Indices 1 2 3 4 5 6 
#
# 1 0.022043 -0.027326 0.006016 0.000000 0.019698 0.000000
# 2 -0.027326 0.098410 -0.022520 0.000000 -0.011038 0.000000
# 3 0.006016 -0.022520 0.021372 0.000000 0.013993 0.000000
# 4 0.000000 0.000000 0.000000 0.102874 0.000000 0.062020
# 5 0.019698 -0.011038 0.013993 0.000000 0.050721 0.000000
# 6 0.000000 0.000000 0.000000 0.062020 0.000000 0.077764
#
#
# Mechanical properties :
#
#
# Convention : Reuss Voigt Hill
#
# Bulk Modulus (GPa) = 18.46195 50.42360 34.44277
# Shear Modulus (GPa) = 10.44060 26.93241 18.68651
#
# Velocity S-wave (km/s) = 2.35822 3.78755 3.15490
# Velocity P-wave (km/s) = 4.15315 6.78127 5.62291
#
# Compressibility (1/GPa) = 0.05416547
#
# Stress axis : x y z
#
# Youngs Moduli (GPa) = 45.36589 10.16154 46.79018
#
# Poissons Ratio (x) = 0.27768 -0.28148
# Poissons Ratio (y) = 1.23968 1.05369
# Poissons Ratio (z) = -0.27291 0.22883
#
# Static dielectric constant tensor:
#      x y z
#    x 1.627770 0.000000 -0.015520 
#    y 0.000000 1.623670 0.000000 
#    z -0.015520 0.000000 1.681630 
# 
# From -- ./inp_files/243894.got.cif
#   From: 2010.05.17/outbox.cif.g08.bks.cpg/sg12_122_cif.got.tgz:243894.got - 2010.06.03 13:09:07.
