data_PCOD9174128
_publ_section_title
;
Structure prediction by ZEFSAII (Michael W. Deem and Ramdas Pophale) SiO2 
 PCOD9174128
Probable space group: C 2/M
;
_chemical_formula_sum "Si O2"
_cell_formula_units_Z 56
_cell_length_a 13.189421
_cell_length_b 25.312125
_cell_length_c 11.859031
_cell_angle_alpha 90.000000
_cell_angle_beta 41.325180
_cell_angle_gamma 90.000000
_cell_volume 2614.362053
_symmetry_space_group_name_H-M "C 2/M"
_symmetry_group_IT_number 12
_symmetry_cell_setting 'monoclinic'
loop_
_space_group_symop_operation_xyz
x,y,z
-x,y,-z
-x,-y,-z
x,-y,z
1/2+x,1/2+y,z
1/2-x,1/2+y,-z
1/2-x,1/2-y,-z
1/2+x,1/2-y,z
loop_
_atom_site_type_symbol
_atom_site_label
_atom_site_fract_x
_atom_site_fract_y
_atom_site_fract_z
Si Si1 0.248144 0.330237 0.176581
Si Si2 0.062177 0.166424 0.767878
Si Si3 0.955206 0.058572 0.792415
Si Si4 0.580807 0.058959 0.810046
Si Si5 0.161294 0.557807 0.190957
Si Si6 0.832112 0.876561 0.693617
Si Si7 0.929014 0.228666 0.682128
O O1 0.310079 0.317575 0.249657
O O2 0.164306 0.386862 0.252975
O O3 0.143080 0.283344 0.219156
O O4 0.398082 0.332354 0.970718
O O5 0.074812 0.105135 0.719014
O O6 0.047309 0.204196 0.672989
O O7 0.853977 0.079456 0.771964
O O8 0.018360 0.000000 0.718936
O O9 0.833210 0.054990 0.995717
O O10 0.457809 0.063524 0.813205
O O11 0.709165 0.103775 0.707084
O O12 0.649933 0.000000 0.744301
O O13 0.500000 0.062534 0.000000
O O14 0.132081 0.500000 0.269797
O O15 0.804480 0.819037 0.770603
O O16 0.000000 0.872552 0.500000
O O17 0.000000 0.238223 0.500000
#
# Coordination Sequence:
#
# PCOD9174128 Si02
#       7
#     8   8   8   8   8   8   8
#     4  10  20  37  58  81 113 150 186 238 290 336
#     4   9  20  36  55  84 113 141 192 241 277 342
#     4   9  16  30  51  76 109 147 180 225 283 333
#     4  10  18  31  52  81 114 150 189 229 281 340
#     4   9  18  32  54  82 111 143 187 235 282 341
#     4  10  20  33  50  79 114 148 189 233 282 340
#     4  10  22  39  57  79 110 148 191 241 289 343
#
# _framework density 21.420138999999999
#
# number of rings (size 3 to 8) (size 9 to 14) (size 15 to 20)
#    0.000    2.429    1.429    0.857    0.000    3.429 
#    2.571    5.714    0.000    0.429    0.000    0.000 
#    0.000    0.000    0.000    0.000    0.000    0.000 
#
# Total GULP energy -156170.009750 kJ/mol
# GULP energy per Si atom -5577.500348 kJ/mol
# Density = 2.137139 g / cm^3
# Si number density = 21.420139 Si / 1000 Ang^3
#
#
#
# Elastic Constant Matrix: (Units=GPa)
#
#
# Indices 1 2 3 4 5 6 
#
# 1 48.9640 28.1812 3.7144 0.0000 9.4292 0.0000
# 2 28.1812 143.4105 14.8494 0.0000 0.2503 0.0000
# 3 3.7144 14.8494 24.2095 0.0000 7.6202 0.0000
# 4 0.0000 0.0000 0.0000 -49.1721 0.0000 -4.3096
# 5 9.4292 0.2503 7.6202 0.0000 20.6932 0.0000
# 6 0.0000 0.0000 0.0000 -4.3096 0.0000 18.5963
#
#
#
# Elastic Compliance Matrix: (Units=1/GPa)
#
#
# Indices 1 2 3 4 5 6 
#
# 1 0.025759 -0.005394 0.003428 0.000000 -0.012934 0.000000
# 2 -0.005394 0.008635 -0.005893 0.000000 0.004523 0.000000
# 3 0.003428 -0.005893 0.050746 0.000000 -0.020178 0.000000
# 4 0.000000 0.000000 0.000000 -0.019932 0.000000 -0.004619
# 5 -0.012934 0.004523 -0.020178 0.000000 0.061594 0.000000
# 6 0.000000 0.000000 0.000000 -0.004619 0.000000 0.052704
#
#
# Mechanical properties :
#
#
# Convention : Reuss Voigt Hill
#
# Bulk Modulus (GPa) = 14.40481 34.45267 24.42874
# Shear Modulus (GPa) = 22.89748 9.34608 16.12178
#
# Velocity S-wave (km/s) = 3.27306 2.09110 2.74642
# Velocity P-wave (km/s) = 4.58512 4.68502 4.63534
#
# Compressibility (1/GPa) = 0.06942124
#
# Stress axis : x y z
#
# Youngs Moduli (GPa) = 38.82203 115.80435 19.70605
#
# Poissons Ratio (x) = 0.62466 -0.06755
# Poissons Ratio (y) = 0.20941 0.11612
# Poissons Ratio (z) = -0.13307 0.68242
#
# Static dielectric constant tensor:
#      x y z
#    x 1.765140 0.000000 0.022830 
#    y 0.000000 1.826030 0.000000 
#    z 0.022830 0.000000 1.813920 
# 
# From -- ./inp_files/135255.got.cif
#   From: 2010.05.17/outbox.cif.g08.bks.cpg/sg12_68_cif.got.tgz:135255.got - 2010.06.03 13:09:07.
