data_PCOD9174907
_publ_section_title
;
Structure prediction by ZEFSAII (Michael W. Deem and Ramdas Pophale) SiO2 
 PCOD9174907
Probable space group: C 2/M
;
_chemical_formula_sum "Si O2"
_cell_formula_units_Z 56
_cell_length_a 14.611452
_cell_length_b 8.741465
_cell_length_c 19.572246
_cell_angle_alpha 90.000000
_cell_angle_beta 102.733265
_cell_angle_gamma 90.000000
_cell_volume 2438.394762
_symmetry_space_group_name_H-M "C 2/M"
_symmetry_group_IT_number 12
_symmetry_cell_setting 'monoclinic'
loop_
_space_group_symop_operation_xyz
x,y,z
-x,y,-z
-x,-y,-z
x,-y,z
1/2+x,1/2+y,z
1/2-x,1/2+y,-z
1/2-x,1/2-y,-z
1/2+x,1/2-y,z
loop_
_atom_site_type_symbol
_atom_site_label
_atom_site_fract_x
_atom_site_fract_y
_atom_site_fract_z
Si Si1 0.348398 0.179580 0.229140
Si Si2 0.624648 0.676604 0.331349
Si Si3 0.530590 0.182103 0.614036
Si Si4 0.361825 0.681332 0.094099
Si Si5 0.858011 0.678925 0.806500
Si Si6 0.848575 0.182850 0.942784
Si Si7 0.695640 0.178746 0.553840
O O1 0.411039 0.204045 0.306034
O O2 0.397355 0.227547 0.165940
O O3 0.252436 0.275646 0.217336
O O4 0.323518 0.000000 0.222132
O O5 0.603994 0.500000 0.313707
O O6 0.565529 0.733448 0.386428
O O7 0.602929 0.773479 0.260660
O O8 0.733199 0.689817 0.370364
O O9 0.595706 0.239550 0.563060
O O10 0.515030 0.000000 0.602912
O O11 0.371883 0.500000 0.107136
O O12 0.250834 0.727037 0.072933
O O13 0.397176 0.717952 0.023361
O O14 0.869001 0.500000 0.819886
O O15 0.894979 0.770033 0.878827
O O16 0.831252 0.000000 0.939538
O O17 0.750000 0.250000 0.500000
O O18 0.682485 0.000000 0.536717
#
# Coordination Sequence:
#
# PCOD9174907 Si02
#       7
#     8   8   8   8   8   8   8
#     4  10  18  32  54  78 114 156 196 245 301 351
#     4  11  23  41  63  90 123 159 199 244 295 351
#     4  10  22  41  62  89 124 160 199 244 293 350
#     4   9  16  25  41  71 107 145 196 247 295 352
#     4  11  20  31  53  82 113 152 201 248 295 354
#     4   9  16  26  42  68 107 150 192 245 301 350
#     4  10  23  44  67  92 126 159 194 238 290 349
#
# _framework density 22.965928000000002
#
# number of rings (size 3 to 8) (size 9 to 14) (size 15 to 20)
#    0.000    2.000    1.429    4.714    0.000    5.143 
#    0.000    2.857    0.000    0.857    0.000    6.000 
#    0.000    0.000    0.000    0.000    0.000    0.000 
#
# Total GULP energy -156511.691520 kJ/mol
# GULP energy per Si atom -5589.703269 kJ/mol
# Density = 2.291366 g / cm^3
# Si number density = 22.965928 Si / 1000 Ang^3
#
#
#
# Elastic Constant Matrix: (Units=GPa)
#
#
# Indices 1 2 3 4 5 6 
#
# 1 77.0353 8.2802 20.9507 0.0000 -15.6900 0.0000
# 2 8.2802 55.3550 20.5215 0.0000 -2.8580 0.0000
# 3 20.9507 20.5215 114.4406 0.0000 -23.3574 0.0000
# 4 0.0000 0.0000 0.0000 33.7105 0.0000 -8.8721
# 5 -15.6900 -2.8580 -23.3574 0.0000 41.7447 0.0000
# 6 0.0000 0.0000 0.0000 -8.8721 0.0000 17.0206
#
#
#
# Elastic Compliance Matrix: (Units=1/GPa)
#
#
# Indices 1 2 3 4 5 6 
#
# 1 0.014450 -0.001381 -0.001477 0.000000 0.004510 0.000000
# 2 -0.001381 0.019502 -0.003474 0.000000 -0.001128 0.000000
# 3 -0.001477 -0.003474 0.010691 0.000000 0.005189 0.000000
# 4 0.000000 0.000000 0.000000 0.034381 0.000000 0.017921
# 5 0.004510 -0.001128 0.005189 0.000000 0.028476 0.000000
# 6 0.000000 0.000000 0.000000 0.017921 0.000000 0.068094
#
#
# Mechanical properties :
#
#
# Convention : Reuss Voigt Hill
#
# Bulk Modulus (GPa) = 31.27263 38.48175 34.87719
# Shear Modulus (GPa) = 25.13610 31.63372 28.38491
#
# Velocity S-wave (km/s) = 3.31190 3.71539 3.51943
# Velocity P-wave (km/s) = 5.31709 5.93278 5.63335
#
# Compressibility (1/GPa) = 0.03197684
#
# Stress axis : x y z
#
# Youngs Moduli (GPa) = 69.20507 51.27788 93.53987
#
# Poissons Ratio (x) = 0.07081 0.13818
# Poissons Ratio (y) = 0.09557 0.32500
# Poissons Ratio (z) = 0.10223 0.17816
#
# Static dielectric constant tensor:
#      x y z
#    x 1.906810 0.000000 -0.007520 
#    y 0.000000 1.762360 0.000000 
#    z -0.007520 0.000000 1.915950 
# 
# From -- ./inp_files/308939.got.cif
#   From: 2010.05.17/outbox.cif.g08.bks.cpg/sg12_155_cif.got.tgz:308939.got - 2010.06.03 13:09:07.
