data_PCOD9174880
_publ_section_title
;
Structure prediction by ZEFSAII (Michael W. Deem and Ramdas Pophale) SiO2 
 PCOD9174880
Probable space group: C 2/M
;
_chemical_formula_sum "Si O2"
_cell_formula_units_Z 32
_cell_length_a 14.296652
_cell_length_b 12.921044
_cell_length_c 12.087158
_cell_angle_alpha 90.000000
_cell_angle_beta 142.122268
_cell_angle_gamma 90.000000
_cell_volume 1370.911114
_symmetry_space_group_name_H-M "C 2/M"
_symmetry_group_IT_number 12
_symmetry_cell_setting 'monoclinic'
loop_
_space_group_symop_operation_xyz
x,y,z
-x,y,-z
-x,-y,-z
x,-y,z
1/2+x,1/2+y,z
1/2-x,1/2+y,-z
1/2-x,1/2-y,-z
1/2+x,1/2-y,z
loop_
_atom_site_type_symbol
_atom_site_label
_atom_site_fract_x
_atom_site_fract_y
_atom_site_fract_z
Si Si1 0.385851 0.780560 0.707644
Si Si2 0.163358 0.000000 0.704643
Si Si3 0.390150 0.381870 0.008427
Si Si4 0.667418 0.725383 0.713702
Si Si5 0.935949 0.500000 0.813098
O O1 0.250000 0.750000 0.500000
O O2 0.512896 0.692804 0.821965
O O3 0.299783 0.780809 0.744533
O O4 0.461209 0.894069 0.771150
O O5 0.182601 0.889431 0.781625
O O6 0.259697 0.000000 0.680935
O O7 0.000000 0.000000 0.500000
O O8 0.371858 0.500000 0.027157
O O9 0.500000 0.385908 0.000000
O O10 0.229062 0.324371 0.837267
O O11 0.500000 0.737161 0.500000
O O12 0.000000 0.500000 0.000000
#
# Coordination Sequence:
#
# PCOD9174880 Si02
#       5
#     8   4   8   8   4
#     4  10  20  32  52  80 106 133 171 224 265 301
#     4   8  14  26  48  74  98 118 165 214 244 286
#     4   9  18  32  50  71 101 139 173 207 251 315
#     4   9  17  32  53  78 101 136 176 210 254 316
#     4  10  18  32  54  76 100 134 178 212 252 316
#
# _framework density 23.342141999999999
#
# number of rings (size 3 to 8) (size 9 to 14) (size 15 to 20)
#    0.000    2.750    0.000    3.750    1.750    0.500 
#    0.000    1.250    0.000    0.000    0.000    0.000 
#    0.000    0.000    0.000    0.000    0.000    0.000 
#
# Total GULP energy -89172.880536 kJ/mol
# GULP energy per Si atom -5573.305034 kJ/mol
# Density = 2.328901 g / cm^3
# Si number density = 23.342142 Si / 1000 Ang^3
#
#
#
# Elastic Constant Matrix: (Units=GPa)
#
#
# Indices 1 2 3 4 5 6 
#
# 1 61.7469 25.8840 -9.7322 0.0000 11.9023 0.0000
# 2 25.8840 314.4181 123.2440 0.0000 1.1652 0.0000
# 3 -9.7322 123.2440 145.0852 0.0000 14.8557 0.0000
# 4 0.0000 0.0000 0.0000 29.8118 0.0000 3.7796
# 5 11.9023 1.1652 14.8557 0.0000 27.8100 0.0000
# 6 0.0000 0.0000 0.0000 3.7796 0.0000 18.3330
#
#
#
# Elastic Compliance Matrix: (Units=1/GPa)
#
#
# Indices 1 2 3 4 5 6 
#
# 1 0.021259 -0.004130 0.006186 0.000000 -0.012230 0.000000
# 2 -0.004130 0.005687 -0.005569 0.000000 0.004504 0.000000
# 3 0.006186 -0.005569 0.012996 0.000000 -0.009356 0.000000
# 4 0.000000 0.000000 0.000000 0.034444 0.000000 -0.007101
# 5 -0.012230 0.004504 -0.009356 0.000000 0.046002 0.000000
# 6 0.000000 0.000000 0.000000 -0.007101 0.000000 0.056011
#
#
# Mechanical properties :
#
#
# Convention : Reuss Voigt Hill
#
# Bulk Modulus (GPa) = 30.37938 88.89355 59.63647
# Shear Modulus (GPa) = 25.72096 40.64793 33.18444
#
# Velocity S-wave (km/s) = 3.32311 4.17753 3.77457
# Velocity P-wave (km/s) = 5.26945 7.83802 6.67839
#
# Compressibility (1/GPa) = 0.03291706
#
# Stress axis : x y z
#
# Youngs Moduli (GPa) = 47.03941 175.85446 76.94771
#
# Poissons Ratio (x) = 0.72621 -0.47602
# Poissons Ratio (y) = 0.19425 0.42849
# Poissons Ratio (z) = -0.29100 0.97927
#
# Static dielectric constant tensor:
#      x y z
#    x 1.875970 0.000000 0.092090 
#    y 0.000000 2.046110 0.000000 
#    z 0.092090 0.000000 1.293610 
# 
# From -- ./inp_files/56934.got.cif
#   From: 2010.05.17/outbox.cif.g08.bks.cpg/sg12_29_cif.got.tgz:56934.got - 2010.06.03 13:09:07.
