data_PCOD9174159
_publ_section_title
;
Structure prediction by ZEFSAII (Michael W. Deem and Ramdas Pophale) SiO2 
 PCOD9174159
Probable space group: C 2/M
;
_chemical_formula_sum "Si O2"
_cell_formula_units_Z 64
_cell_length_a 20.587789
_cell_length_b 7.359935
_cell_length_c 22.155273
_cell_angle_alpha 90.000000
_cell_angle_beta 121.609410
_cell_angle_gamma 90.000000
_cell_volume 2859.020609
_symmetry_space_group_name_H-M "C 2/M"
_symmetry_group_IT_number 12
_symmetry_cell_setting 'monoclinic'
loop_
_space_group_symop_operation_xyz
x,y,z
-x,y,-z
-x,-y,-z
x,-y,z
1/2+x,1/2+y,z
1/2-x,1/2+y,-z
1/2-x,1/2-y,-z
1/2+x,1/2-y,z
loop_
_atom_site_type_symbol
_atom_site_label
_atom_site_fract_x
_atom_site_fract_y
_atom_site_fract_z
Si Si1 0.135360 0.287285 0.791142
Si Si2 0.557275 0.278057 0.975623
Si Si3 0.106928 0.279948 0.424725
Si Si4 0.343207 0.708508 0.686209
Si Si5 0.270849 0.282702 0.940443
Si Si6 0.433309 0.778130 0.365927
Si Si7 0.823159 0.277835 0.417616
Si Si8 0.498517 0.720035 0.815892
O O1 0.151833 0.500000 0.790056
O O2 0.205800 0.210242 0.863908
O O3 0.115520 0.214314 0.715510
O O4 0.059621 0.273471 0.795022
O O5 0.558121 0.500000 0.975502
O O6 0.528200 0.220682 0.895601
O O7 0.500000 0.220856 0.000000
O O8 0.643591 0.216071 0.028804
O O9 0.107914 0.500000 0.421762
O O10 0.131814 0.210797 0.371709
O O11 0.161260 0.222282 0.506065
O O12 0.020790 0.223225 0.399390
O O13 0.335876 0.500000 0.703328
O O14 0.258313 0.787059 0.646700
O O15 0.414162 0.787523 0.757825
O O16 0.272245 0.500000 0.933612
O O17 0.250000 0.250000 0.000000
O O18 0.392156 0.723293 0.407494
O O19 0.434174 0.000000 0.366126
O O20 0.821440 0.500000 0.417177
O O21 0.496449 0.500000 0.814654
#
# Coordination Sequence:
#
# PCOD9174159 Si02
#       8
#     8   8   8   8   8   8   8   8
#     4  10  19  31  51  77  99 125 164 207 243 282
#     4   9  18  32  50  74 101 129 162 198 239 288
#     4  10  18  31  53  74  95 130 168 202 243 292
#     4  10  20  32  49  74 101 130 163 201 247 295
#     4  10  19  31  51  76 100 128 161 199 240 284
#     4   9  17  30  49  74  99 126 164 207 247 285
#     4   9  18  31  48  73 102 128 162 207 248 289
#     4  10  19  32  51  72  98 132 162 197 246 295
#
# _framework density 22.385289
#
# number of rings (size 3 to 8) (size 9 to 14) (size 15 to 20)
#    0.000    2.375    2.500    0.750    0.000    2.500 
#    0.000    5.000    0.000    5.250    0.000    3.500 
#    0.000    0.000    0.000    0.000    0.000    0.000 
#
# Total GULP energy -178825.560498 kJ/mol
# GULP energy per Si atom -5588.298766 kJ/mol
# Density = 2.233434 g / cm^3
# Si number density = 22.385289 Si / 1000 Ang^3
#
#
#
# Elastic Constant Matrix: (Units=GPa)
#
#
# Indices 1 2 3 4 5 6 
#
# 1 70.1161 -10.1133 -17.5238 0.0000 18.5043 0.0000
# 2 -10.1133 83.8196 -1.2331 0.0000 5.5513 -0.0001
# 3 -17.5238 -1.2331 72.4748 0.0000 23.8822 0.0000
# 4 0.0000 0.0000 0.0000 6.1728 0.0000 -6.9521
# 5 18.5043 5.5513 23.8822 0.0000 42.1825 0.0000
# 6 0.0000 -0.0001 0.0000 -6.9521 0.0000 10.0202
#
#
#
# Elastic Compliance Matrix: (Units=1/GPa)
#
#
# Indices 1 2 3 4 5 6 
#
# 1 0.021685 0.003832 0.010584 0.000000 -0.016009 0.000000
# 2 0.003832 0.012760 0.002767 0.000000 -0.004927 0.000000
# 3 0.010584 0.002767 0.022195 0.000000 -0.017573 0.000000
# 4 0.000000 0.000000 0.000000 0.741069 0.000000 0.514158
# 5 -0.016009 -0.004927 -0.017573 0.000000 0.041327 0.000000
# 6 0.000000 0.000000 0.000000 0.514158 0.000000 0.456525
#
#
# Mechanical properties :
#
#
# Convention : Reuss Voigt Hill
#
# Bulk Modulus (GPa) = 10.98821 18.74113 14.86467
# Shear Modulus (GPa) = 3.87138 28.69380 16.28259
#
# Velocity S-wave (km/s) = 1.31651 3.58413 2.69992
# Velocity P-wave (km/s) = 2.68891 5.05156 4.04651
#
# Compressibility (1/GPa) = 0.09100667
#
# Stress axis : x y z
#
# Youngs Moduli (GPa) = 46.11494 78.37102 45.05567
#
# Poissons Ratio (x) = -0.30035 -0.47686
# Poissons Ratio (y) = -0.17673 -0.12468
# Poissons Ratio (z) = -0.48807 -0.21688
#
# Static dielectric constant tensor:
#      x y z
#    x 1.761030 0.000000 0.034780 
#    y 0.000000 1.861660 0.000000 
#    z 0.034780 0.000000 1.798560 
# 
# From -- ./inp_files/320177.got.cif
#   From: 2010.05.17/outbox.cif.g08.bks.cpg/sg12_161_cif.got.tgz:320177.got - 2010.06.03 13:09:07.
