data_PCOD9174833
_publ_section_title
;
Structure prediction by ZEFSAII (Michael W. Deem and Ramdas Pophale) SiO2 
 PCOD9174833
Probable space group: C 2/M
;
_chemical_formula_sum "Si O2"
_cell_formula_units_Z 64
_cell_length_a 29.565793
_cell_length_b 9.742132
_cell_length_c 15.455731
_cell_angle_alpha 90.000000
_cell_angle_beta 135.216709
_cell_angle_gamma 90.000000
_cell_volume 3135.950796
_symmetry_space_group_name_H-M "C 2/M"
_symmetry_group_IT_number 12
_symmetry_cell_setting 'monoclinic'
loop_
_space_group_symop_operation_xyz
x,y,z
-x,y,-z
-x,-y,-z
x,-y,z
1/2+x,1/2+y,z
1/2-x,1/2+y,-z
1/2-x,1/2-y,-z
1/2+x,1/2-y,z
loop_
_atom_site_type_symbol
_atom_site_label
_atom_site_fract_x
_atom_site_fract_y
_atom_site_fract_z
Si Si1 0.224349 0.665959 0.599893
Si Si2 0.498280 0.845107 0.296152
Si Si3 0.114418 0.336898 0.331106
Si Si4 0.105604 0.649784 0.997554
Si Si5 0.324534 0.844877 0.285220
Si Si6 0.203056 0.214830 0.015025
Si Si7 0.125195 0.164594 0.183840
Si Si8 0.094651 0.844921 0.734591
O O1 0.221536 0.500000 0.599227
O O2 0.184516 0.705976 0.461312
O O3 0.187209 0.713370 0.635371
O O4 0.298915 0.701155 0.706924
O O5 0.567480 0.819198 0.349295
O O6 0.469089 0.734947 0.321958
O O7 0.495969 0.000000 0.329843
O O8 0.451842 0.844725 0.149042
O O9 0.113709 0.500000 0.307902
O O10 0.094430 0.242998 0.223582
O O11 0.105465 0.500000 0.040373
O O12 0.169830 0.667006 0.026785
O O13 0.101829 0.769994 0.062307
O O14 0.252567 0.856051 0.147279
O O15 0.367817 0.746921 0.284847
O O16 0.351422 0.000000 0.324125
O O17 0.250000 0.250000 0.000000
O O18 0.142280 0.148705 0.883487
O O19 0.117329 0.000000 0.176040
O O20 0.083041 0.000000 0.689646
#
# Coordination Sequence:
#
# PCOD9174833 Si02
#       8
#     8   8   8   8   8   8   8   8
#     4   9  19  36  58  83 110 141 181 228 274 326
#     4   9  20  38  58  79 107 145 189 230 267 318
#     4  10  21  40  62  80 102 142 192 233 272 321
#     4  10  20  35  55  81 111 145 183 223 269 323
#     4  10  18  32  53  78 111 146 178 220 272 326
#     4   9  18  30  49  78 112 143 176 218 266 319
#     4  11  22  37  57  85 116 141 175 225 285 334
#     4  10  20  32  51  81 113 146 182 221 270 327
#
# _framework density 20.408483
#
# number of rings (size 3 to 8) (size 9 to 14) (size 15 to 20)
#    0.000    2.250    1.250    1.500    0.000    8.000 
#    0.000    4.375    0.000    3.750    0.000    0.000 
#    0.000    0.000    0.000    0.000    0.000    0.000 
#
# Total GULP energy -178371.188565 kJ/mol
# GULP energy per Si atom -5574.099643 kJ/mol
# Density = 2.036203 g / cm^3
# Si number density = 20.408483 Si / 1000 Ang^3
#
#
#
# Elastic Constant Matrix: (Units=GPa)
#
#
# Indices 1 2 3 4 5 6 
#
# 1 59.8614 35.7481 -0.3245 0.0000 -2.3619 0.0000
# 2 35.7481 97.8204 0.2683 0.0000 -5.1291 0.0000
# 3 -0.3245 0.2683 19.3102 0.0000 -6.8947 0.0000
# 4 0.0000 0.0000 0.0000 14.7202 0.0000 -3.9618
# 5 -2.3619 -5.1291 -6.8947 0.0000 29.6920 0.0000
# 6 0.0000 0.0000 0.0000 -3.9618 0.0000 25.5280
#
#
#
# Elastic Compliance Matrix: (Units=1/GPa)
#
#
# Indices 1 2 3 4 5 6 
#
# 1 0.021380 -0.007788 0.000648 0.000000 0.000506 0.000000
# 2 -0.007788 0.013159 0.000302 0.000000 0.001724 0.000000
# 3 0.000648 0.000302 0.056516 0.000000 0.013227 0.000000
# 4 0.000000 0.000000 0.000000 0.070895 0.000000 0.011003
# 5 0.000506 0.001724 0.013227 0.000000 0.037089 0.000000
# 6 0.000000 0.000000 0.000000 0.011003 0.000000 0.040880
#
#
# Mechanical properties :
#
#
# Convention : Reuss Voigt Hill
#
# Bulk Modulus (GPa) = 12.92379 27.59733 20.26056
# Shear Modulus (GPa) = 17.89628 23.40804 20.65216
#
# Velocity S-wave (km/s) = 2.96447 3.39038 3.18455
# Velocity P-wave (km/s) = 4.25015 5.37383 4.84468
#
# Compressibility (1/GPa) = 0.07737670
#
# Stress axis : x y z
#
# Youngs Moduli (GPa) = 46.77303 75.99581 17.69423
#
# Poissons Ratio (x) = 0.59189 -0.01147
# Poissons Ratio (y) = 0.36429 -0.00534
# Poissons Ratio (z) = -0.03031 -0.02292
#
# Static dielectric constant tensor:
#      x y z
#    x 1.742640 0.000000 -0.000930 
#    y 0.000000 1.575800 0.000000 
#    z -0.000930 0.000000 1.773920 
# 
# From -- ./inp_files/250049.got.cif
#   From: 2010.05.17/outbox.cif.g08.bks.cpg/sg12_126_cif.got.tgz:250049.got - 2010.06.03 13:09:07.
