data_PCOD9174033
_publ_section_title
;
Structure prediction by ZEFSAII (Michael W. Deem and Ramdas Pophale) SiO2 
 PCOD9174033
Probable space group: C 2/M
;
_chemical_formula_sum "Si O2"
_cell_formula_units_Z 64
_cell_length_a 20.204874
_cell_length_b 7.394776
_cell_length_c 25.007264
_cell_angle_alpha 90.000000
_cell_angle_beta 50.427916
_cell_angle_gamma 90.000000
_cell_volume 2880.065862
_symmetry_space_group_name_H-M "C 2/M"
_symmetry_group_IT_number 12
_symmetry_cell_setting 'monoclinic'
loop_
_space_group_symop_operation_xyz
x,y,z
-x,y,-z
-x,-y,-z
x,-y,z
1/2+x,1/2+y,z
1/2-x,1/2+y,-z
1/2-x,1/2-y,-z
1/2+x,1/2-y,z
loop_
_atom_site_type_symbol
_atom_site_label
_atom_site_fract_x
_atom_site_fract_y
_atom_site_fract_z
Si Si1 0.459684 0.285592 0.378547
Si Si2 0.758296 0.220879 0.675088
Si Si3 0.431489 0.221416 0.990453
Si Si4 0.426641 0.216331 0.872693
Si Si5 0.153704 0.778847 0.261399
Si Si6 0.736862 0.715248 0.108495
Si Si7 0.409971 0.279630 0.518852
Si Si8 0.420547 0.783154 0.279331
O O1 0.468078 0.500000 0.382449
O O2 0.556852 0.215542 0.322202
O O3 0.412890 0.217519 0.455843
O O4 0.415196 0.257662 0.344736
O O5 0.787447 0.274513 0.719140
O O6 0.829552 0.280579 0.595474
O O7 0.663890 0.282180 0.707558
O O8 0.758022 0.000000 0.674603
O O9 0.450849 0.279386 0.919641
O O10 0.432385 0.000000 0.990419
O O11 0.500000 0.279045 0.000000
O O12 0.333881 0.281875 0.052285
O O13 0.328730 0.254055 0.906423
O O14 0.492321 0.285666 0.793548
O O15 0.434303 0.000000 0.869682
O O16 0.190738 0.715403 0.185889
O O17 0.151536 0.000000 0.261052
O O18 0.744506 0.500000 0.110497
O O19 0.500000 0.228084 0.500000
O O20 0.407035 0.500000 0.521293
O O21 0.422231 0.000000 0.274120
#
# Coordination Sequence:
#
# PCOD9174033 Si02
#       8
#     8   8   8   8   8   8   8   8
#     4  10  18  31  52  75  98 125 163 208 246 286
#     4   9  17  29  46  72 101 127 162 206 249 290
#     4   9  19  33  51  78 105 127 160 206 248 284
#     4  10  20  34  51  72 101 135 165 197 241 294
#     4   9  16  27  48  76  97 120 163 210 242 276
#     4  10  19  32  54  78  99 129 165 203 244 286
#     4   9  15  26  47  74  98 122 160 210 251 282
#     4  10  21  33  48  72 103 134 160 197 249 297
#
# _framework density 22.221715
#
# number of rings (size 3 to 8) (size 9 to 14) (size 15 to 20)
#    0.000    2.500    2.500    0.375    1.750    0.500 
#    0.000    0.000    0.000    3.375    0.000    0.000 
#    0.000    0.000    0.000    0.000    0.000    0.000 
#
# Total GULP energy -178768.680163 kJ/mol
# GULP energy per Si atom -5586.521255 kJ/mol
# Density = 2.217114 g / cm^3
# Si number density = 22.221715 Si / 1000 Ang^3
#
#
#
# Elastic Constant Matrix: (Units=GPa)
#
#
# Indices 1 2 3 4 5 6 
#
# 1 130.7099 -10.0474 38.8999 -0.0028 20.1733 -0.0013
# 2 -10.0474 73.3410 2.9373 -0.0087 -1.1163 -0.0084
# 3 38.8999 2.9373 100.5080 -0.0010 17.4126 0.0000
# 4 -0.0028 -0.0087 -0.0010 -0.5223 0.0000 11.8470
# 5 20.1733 -1.1163 17.4126 0.0000 37.2775 0.0001
# 6 -0.0013 -0.0084 0.0000 11.8470 0.0001 11.4731
#
#
#
# Elastic Compliance Matrix: (Units=1/GPa)
#
#
# Indices 1 2 3 4 5 6 
#
# 1 0.009186 0.001324 -0.002981 -0.000001 -0.003539 0.000003
# 2 0.001324 0.013856 -0.000941 0.000000 0.000138 0.000010
# 3 -0.002981 -0.000941 0.011812 -0.000001 -0.003933 0.000000
# 4 -0.000001 0.000000 -0.000001 -0.078398 0.000000 0.080953
# 5 -0.003539 0.000138 -0.003933 0.000000 0.030582 -0.000001
# 6 0.000003 0.000010 0.000000 0.080953 -0.000001 0.003569
#
#
# Mechanical properties :
#
#
# Convention : Reuss Voigt Hill
#
# Bulk Modulus (GPa) = 33.71834 40.90427 37.31130
# Shear Modulus (GPa) = 878.85672 27.83027 453.34349
#
# Velocity S-wave (km/s) = 19.90862 3.54275 14.29868
# Velocity P-wave (km/s) = 23.31689 5.93145 17.01263
#
# Compressibility (1/GPa) = 0.02965745
#
# Stress axis : x y z
#
# Youngs Moduli (GPa) = 108.86666 72.17034 84.66048
#
# Poissons Ratio (x) = -0.09555 0.25235
# Poissons Ratio (y) = -0.14413 0.07969
# Poissons Ratio (z) = 0.32450 0.06793
#
# Static dielectric constant tensor:
#      x y z
#    x 1.768270 0.000000 0.005500 
#    y 0.000000 1.880160 0.000000 
#    z 0.005500 0.000000 1.817420 
# 
# From -- ./inp_files/276448.got.cif
#   From: 2010.05.17/outbox.cif.g08.bks.cpg/sg12_139_cif.got.tgz:276448.got - 2010.06.03 13:09:07.
