data_PCOD9174618
_publ_section_title
;
Structure prediction by ZEFSAII (Michael W. Deem and Ramdas Pophale) SiO2 
 PCOD9174618
Probable space group: C 2/M
;
_chemical_formula_sum "Si O2"
_cell_formula_units_Z 56
_cell_length_a 14.483757
_cell_length_b 29.990816
_cell_length_c 15.301172
_cell_angle_alpha 90.000000
_cell_angle_beta 152.067111
_cell_angle_gamma 90.000000
_cell_volume 3113.475374
_symmetry_space_group_name_H-M "C 2/M"
_symmetry_group_IT_number 12
_symmetry_cell_setting 'monoclinic'
loop_
_space_group_symop_operation_xyz
x,y,z
-x,y,-z
-x,-y,-z
x,-y,z
1/2+x,1/2+y,z
1/2-x,1/2+y,-z
1/2-x,1/2-y,-z
1/2+x,1/2-y,z
loop_
_atom_site_type_symbol
_atom_site_label
_atom_site_fract_x
_atom_site_fract_y
_atom_site_fract_z
Si Si1 0.767749 0.763635 0.783422
Si Si2 0.984530 0.287841 0.256757
Si Si3 0.151467 0.802997 0.323549
Si Si4 0.265908 0.836505 0.786184
Si Si5 0.140794 0.450577 0.985728
Si Si6 0.221426 0.067923 0.699359
Si Si7 0.702131 0.357147 0.928605
O O1 0.647497 0.775802 0.769241
O O2 0.739011 0.795093 0.676270
O O3 0.719923 0.712817 0.716091
O O4 0.000000 0.765302 0.000000
O O5 0.027238 0.242413 0.239398
O O6 0.190910 0.305878 0.466955
O O7 0.872547 0.324295 0.105776
O O8 0.998879 0.843446 0.191951
O O9 0.218770 0.878377 0.686761
O O10 0.168126 0.844950 0.798461
O O11 0.500000 0.839085 0.000000
O O12 0.200244 0.500000 0.006001
O O13 0.902449 0.448413 0.791625
O O14 0.214759 0.443509 0.147849
O O15 0.228683 0.408215 0.008485
O O16 0.000000 0.051410 0.500000
#
# Coordination Sequence:
#
# PCOD9174618 Si02
#       7
#     8   8   8   8   8   8   8
#     4  11  20  34  56  75 112 153 185 216 260 314
#     4  11  22  36  53  79 111 145 180 223 259 319
#     4  11  23  34  53  81 110 144 184 216 265 316
#     4  10  18  32  50  77 108 150 183 215 254 310
#     4  10  22  38  53  74 105 139 183 233 277 326
#     4  10  19  32  54  79 107 142 182 224 268 318
#     4  11  20  38  53  73 108 142 180 223 269 310
#
# _framework density 17.986332000000001
#
# number of rings (size 3 to 8) (size 9 to 14) (size 15 to 20)
#    0.000    1.429    5.714    3.429    0.000    4.571 
#    0.000    0.000    0.000    0.000    0.000    2.000 
#    0.000    2.286    0.000    0.000    0.000    0.000 
#
# Total GULP energy -156404.844437 kJ/mol
# GULP energy per Si atom -5585.887301 kJ/mol
# Density = 1.794539 g / cm^3
# Si number density = 17.986332 Si / 1000 Ang^3
#
#
#
# Elastic Constant Matrix: (Units=GPa)
#
#
# Indices 1 2 3 4 5 6 
#
# 1 70.3973 27.4304 3.4491 -0.0003 8.2133 -0.0002
# 2 27.4304 120.3517 28.4768 0.0000 14.5525 0.0000
# 3 3.4491 28.4768 83.5239 -0.0006 19.2730 -0.0002
# 4 -0.0003 0.0000 -0.0006 -6.9644 -0.0004 -1.9373
# 5 8.2133 14.5525 19.2730 -0.0004 22.4009 -0.0002
# 6 -0.0002 0.0000 -0.0002 -1.9373 -0.0002 14.8172
#
#
#
# Elastic Compliance Matrix: (Units=1/GPa)
#
#
# Indices 1 2 3 4 5 6 
#
# 1 0.016059 -0.003442 0.001688 -0.000001 -0.005104 0.000000
# 2 -0.003442 0.010075 -0.002588 0.000001 -0.003057 0.000000
# 3 0.001688 -0.002588 0.015646 -0.000001 -0.012400 0.000000
# 4 -0.000001 0.000001 -0.000001 -0.138549 -0.000003 -0.018115
# 5 -0.005104 -0.003057 -0.012400 -0.000003 0.059167 0.000000
# 6 0.000000 0.000000 0.000000 -0.018115 0.000000 0.065121
#
#
# Mechanical properties :
#
#
# Convention : Reuss Voigt Hill
#
# Bulk Modulus (GPa) = 30.21367 43.66505 36.93936
# Shear Modulus (GPa) = 105.85153 20.37850 63.11502
#
# Velocity S-wave (km/s) = 7.67977 3.36966 5.93015
# Velocity P-wave (km/s) = 9.77103 6.28243 8.21407
#
# Compressibility (1/GPa) = 0.03309760
#
# Stress axis : x y z
#
# Youngs Moduli (GPa) = 62.26932 99.25075 63.91274
#
# Poissons Ratio (x) = 0.34167 -0.10791
# Poissons Ratio (y) = 0.21436 0.16538
# Poissons Ratio (z) = -0.10513 0.25682
#
# Static dielectric constant tensor:
#      x y z
#    x 1.624290 0.000000 0.016520 
#    y 0.000000 1.625610 0.000000 
#    z 0.016520 0.000000 1.673640 
# 
# From -- ./inp_files/219363.got.cif
#   From: 2010.05.17/outbox.cif.g08.bks.cpg/sg12_110_cif.got.tgz:219363.got - 2010.06.03 13:09:07.
