data_PCOD9174121
_publ_section_title
;
Structure prediction by ZEFSAII (Michael W. Deem and Ramdas Pophale) SiO2 
 PCOD9174121
Probable space group: C 2/M
;
_chemical_formula_sum "Si O2"
_cell_formula_units_Z 56
_cell_length_a 24.503730
_cell_length_b 17.822753
_cell_length_c 14.818694
_cell_angle_alpha 90.000000
_cell_angle_beta 29.408606
_cell_angle_gamma 90.000000
_cell_volume 3177.817982
_symmetry_space_group_name_H-M "C 2/M"
_symmetry_group_IT_number 12
_symmetry_cell_setting 'monoclinic'
loop_
_space_group_symop_operation_xyz
x,y,z
-x,y,-z
-x,-y,-z
x,-y,z
1/2+x,1/2+y,z
1/2-x,1/2+y,-z
1/2-x,1/2-y,-z
1/2+x,1/2-y,z
loop_
_atom_site_type_symbol
_atom_site_label
_atom_site_fract_x
_atom_site_fract_y
_atom_site_fract_z
Si Si1 0.337218 0.415515 0.152817
Si Si2 0.080510 0.380638 0.298789
Si Si3 0.836422 0.085052 0.946423
Si Si4 0.639039 0.749237 0.558693
Si Si5 0.601703 0.917695 0.577126
Si Si6 0.391478 0.723212 0.198152
Si Si7 0.031660 0.790858 0.352098
O O1 0.375274 0.500000 0.117940
O O2 0.203335 0.415289 0.358973
O O3 0.381205 0.354350 0.158362
O O4 0.363870 0.397300 0.011265
O O5 0.089587 0.290521 0.276189
O O6 0.000000 0.395928 0.500000
O O7 0.014065 0.411310 0.308462
O O8 0.203043 0.412317 0.131342
O O9 0.892112 0.146108 0.802278
O O10 0.873938 0.000000 0.872863
O O11 0.618757 0.839008 0.604003
O O12 0.598391 0.711042 0.709350
O O13 0.771377 0.737760 0.357412
O O14 0.572379 0.723998 0.565919
O O15 0.609801 0.000000 0.610920
O O16 0.500000 0.762594 0.000000
O O17 0.000000 0.811746 0.500000
#
# Coordination Sequence:
#
# PCOD9174121 Si02
#       7
#     8   8   8   8   8   8   8
#     4   9  18  30  50  80 110 137 169 220 278 328
#     4  10  18  31  52  80 113 142 178 223 274 324
#     4  11  21  33  53  82 115 148 183 222 274 330
#     4   9  20  37  53  79 106 140 184 221 278 321
#     4   9  16  29  49  75 109 140 170 216 273 327
#     4  10  19  34  57  77 105 138 178 230 271 327
#     4  10  22  38  54  77 110 153 190 227 260 325
#
# _framework density 17.622154999999999
#
# number of rings (size 3 to 8) (size 9 to 14) (size 15 to 20)
#    0.000    2.286    1.429    1.714    2.000    1.143 
#    5.143    0.714    0.000    1.286    0.000    0.000 
#    0.000    0.000    0.000    0.000    0.000    0.000 
#
# Total GULP energy -156023.053663 kJ/mol
# GULP energy per Si atom -5572.251917 kJ/mol
# Density = 1.758205 g / cm^3
# Si number density = 17.622155 Si / 1000 Ang^3
#
#
#
# Elastic Constant Matrix: (Units=GPa)
#
#
# Indices 1 2 3 4 5 6 
#
# 1 82.3655 25.2695 39.9543 0.0000 3.6841 0.0000
# 2 25.2695 74.2458 39.8078 0.0000 10.1312 0.0000
# 3 39.9543 39.8078 87.5376 0.0000 1.1880 0.0000
# 4 0.0000 0.0000 0.0000 9.7738 0.0000 3.5786
# 5 3.6841 10.1312 1.1880 0.0000 26.1564 0.0000
# 6 0.0000 0.0000 0.0000 3.5786 0.0000 13.8900
#
#
#
# Elastic Compliance Matrix: (Units=1/GPa)
#
#
# Indices 1 2 3 4 5 6 
#
# 1 0.015853 -0.001792 -0.006404 0.000000 -0.001248 0.000000
# 2 -0.001792 0.019205 -0.007823 0.000000 -0.006831 0.000000
# 3 -0.006404 -0.007823 0.017862 0.000000 0.003121 0.000000
# 4 0.000000 0.000000 0.000000 0.112971 0.000000 -0.029105
# 5 -0.001248 -0.006831 0.003121 0.000000 0.040912 0.000000
# 6 0.000000 0.000000 0.000000 -0.029105 0.000000 0.079493
#
#
# Mechanical properties :
#
#
# Convention : Reuss Voigt Hill
#
# Bulk Modulus (GPa) = 47.88714 50.46800 49.17757
# Shear Modulus (GPa) = 15.37071 19.23852 17.30461
#
# Velocity S-wave (km/s) = 2.95657 3.30771 3.13706
# Velocity P-wave (km/s) = 6.23606 6.57944 6.41005
#
# Compressibility (1/GPa) = 0.02088243
#
# Stress axis : x y z
#
# Youngs Moduli (GPa) = 63.07962 52.06944 55.98539
#
# Poissons Ratio (x) = 0.09329 0.35853
# Poissons Ratio (y) = 0.11302 0.43798
# Poissons Ratio (z) = 0.40396 0.40734
#
# Static dielectric constant tensor:
#      x y z
#    x 1.608900 0.000000 -0.025460 
#    y 0.000000 1.628770 0.000000 
#    z -0.025460 0.000000 1.606580 
# 
# From -- ./inp_files/145509.got.cif
#   From: 2010.05.17/outbox.cif.g08.bks.cpg/sg12_73_cif.got.tgz:145509.got - 2010.06.03 13:09:07.
