data_PCOD9174785
_publ_section_title
;
Structure prediction by ZEFSAII (Michael W. Deem and Ramdas Pophale) SiO2 
 PCOD9174785
Probable space group: C 2/M
;
_chemical_formula_sum "Si O2"
_cell_formula_units_Z 64
_cell_length_a 23.313948
_cell_length_b 17.887547
_cell_length_c 12.747068
_cell_angle_alpha 90.000000
_cell_angle_beta 141.793757
_cell_angle_gamma 90.000000
_cell_volume 3287.853200
_symmetry_space_group_name_H-M "C 2/M"
_symmetry_group_IT_number 12
_symmetry_cell_setting 'monoclinic'
loop_
_space_group_symop_operation_xyz
x,y,z
-x,y,-z
-x,-y,-z
x,-y,z
1/2+x,1/2+y,z
1/2-x,1/2+y,-z
1/2-x,1/2-y,-z
1/2+x,1/2-y,z
loop_
_atom_site_type_symbol
_atom_site_label
_atom_site_fract_x
_atom_site_fract_y
_atom_site_fract_z
Si Si1 0.140260 0.723452 0.617451
Si Si2 0.359172 0.758004 0.148650
Si Si3 0.601968 0.633916 0.152456
Si Si4 0.877057 0.918293 0.605897
Si Si5 0.669613 0.915291 0.272452
Si Si6 0.145463 0.719741 0.090953
Si Si7 0.499862 0.640198 0.382266
Si Si8 0.688925 0.914801 0.550672
O O1 0.115388 0.705427 0.703162
O O2 0.244353 0.758471 0.756623
O O3 0.068839 0.787802 0.480739
O O4 0.139680 0.649654 0.546257
O O5 0.401675 0.674902 0.212641
O O6 0.250000 0.750000 0.000000
O O7 0.384915 0.792623 0.073325
O O8 0.615154 0.645969 0.296307
O O9 0.598854 0.707879 0.077245
O O10 0.699810 0.593857 0.267042
O O11 0.500000 0.596746 0.000000
O O12 0.780035 0.912894 0.406659
O O13 0.961204 0.914252 0.647976
O O14 0.874777 0.000000 0.656367
O O15 0.627446 0.851058 0.139727
O O16 0.668975 0.902315 0.397538
O O17 0.635871 0.000000 0.204017
O O18 0.500000 0.609578 0.500000
O O19 0.662120 0.000000 0.536593
#
# Coordination Sequence:
#
# PCOD9174785 Si02
#       8
#     8   8   8   8   8   8   8   8
#     4   9  18  32  55  76  98 134 177 219 255 300
#     4   9  19  34  51  75 103 131 176 219 255 294
#     4  10  20  31  49  78 105 139 170 209 261 311
#     4  10  20  32  49  77 110 135 168 210 255 314
#     4   9  18  32  51  77 106 137 168 211 262 308
#     4  10  18  32  53  74 104 139 173 215 252 312
#     4  10  19  33  54  76 101 136 176 219 259 301
#     4   9  19  33  52  78 107 135 171 216 263 313
#
# _framework density 19.465589000000001
#
# number of rings (size 3 to 8) (size 9 to 14) (size 15 to 20)
#    0.000    2.500    1.250    1.875    1.750    2.750 
#    0.000    0.625    0.000    4.500    0.000    0.000 
#    0.000    0.000    0.000    0.000    0.000    0.000 
#
# Total GULP energy -178182.973246 kJ/mol
# GULP energy per Si atom -5568.217914 kJ/mol
# Density = 1.942128 g / cm^3
# Si number density = 19.465589 Si / 1000 Ang^3
#
#
#
# Elastic Constant Matrix: (Units=GPa)
#
#
# Indices 1 2 3 4 5 6 
#
# 1 64.4543 29.2991 6.2046 0.0000 -18.8084 0.0000
# 2 29.2991 78.2536 24.2545 0.0000 -33.3953 0.0000
# 3 6.2046 24.2545 42.4901 0.0000 -13.3272 0.0000
# 4 0.0000 0.0000 0.0000 9.4601 0.0000 -9.3565
# 5 -18.8084 -33.3953 -13.3272 0.0000 31.0984 0.0000
# 6 0.0000 0.0000 0.0000 -9.3565 0.0000 27.8695
#
#
#
# Elastic Compliance Matrix: (Units=1/GPa)
#
#
# Indices 1 2 3 4 5 6 
#
# 1 0.019738 -0.004774 0.002287 0.000000 0.007791 0.000000
# 2 -0.004774 0.026341 -0.007362 0.000000 0.022244 0.000000
# 3 0.002287 -0.007362 0.029295 0.000000 0.006032 0.000000
# 4 0.000000 0.000000 0.000000 0.158255 0.000000 0.053130
# 5 0.007791 0.022244 0.006032 0.000000 0.063340 0.000000
# 6 0.000000 0.000000 0.000000 0.053130 0.000000 0.053719
#
#
# Mechanical properties :
#
#
# Convention : Reuss Voigt Hill
#
# Bulk Modulus (GPa) = 17.96119 33.85717 25.90918
# Shear Modulus (GPa) = 12.85522 22.04824 17.45173
#
# Velocity S-wave (km/s) = 2.57263 3.36918 2.99748
# Velocity P-wave (km/s) = 4.25109 5.70669 5.03180
#
# Compressibility (1/GPa) = 0.05567560
#
# Stress axis : x y z
#
# Youngs Moduli (GPa) = 50.66257 37.96317 34.13515
#
# Poissons Ratio (x) = 0.18124 -0.07805
# Poissons Ratio (y) = 0.24187 0.25131
# Poissons Ratio (z) = -0.11584 0.27949
#
# Static dielectric constant tensor:
#      x y z
#    x 1.724390 0.000000 0.011950 
#    y 0.000000 1.667100 0.000000 
#    z 0.011950 0.000000 1.728460 
# 
# From -- ./inp_files/177137.got.cif
#   From: 2010.05.17/outbox.cif.g08.bks.cpg/sg12_89_cif.got.tgz:177137.got - 2010.06.03 13:09:07.
