data_PCOD9174841
_publ_section_title
;
Structure prediction by ZEFSAII (Michael W. Deem and Ramdas Pophale) SiO2 
 PCOD9174841
Probable space group: C 2/M
;
_chemical_formula_sum "Si O2"
_cell_formula_units_Z 40
_cell_length_a 14.418128
_cell_length_b 18.302671
_cell_length_c 14.574486
_cell_angle_alpha 90.000000
_cell_angle_beta 32.062134
_cell_angle_gamma 90.000000
_cell_volume 2041.639701
_symmetry_space_group_name_H-M "C 2/M"
_symmetry_group_IT_number 12
_symmetry_cell_setting 'monoclinic'
loop_
_space_group_symop_operation_xyz
x,y,z
-x,y,-z
-x,-y,-z
x,-y,z
1/2+x,1/2+y,z
1/2-x,1/2+y,-z
1/2-x,1/2-y,-z
1/2+x,1/2-y,z
loop_
_atom_site_type_symbol
_atom_site_label
_atom_site_fract_x
_atom_site_fract_y
_atom_site_fract_z
Si Si1 0.256316 0.275154 0.353897
Si Si2 0.428843 0.174374 0.956351
Si Si3 0.105252 0.269352 0.274565
Si Si4 0.942616 0.917067 0.152244
Si Si5 0.833827 0.419284 0.878737
O O1 0.429628 0.226494 0.211358
O O2 0.177547 0.267573 0.317535
O O3 0.314293 0.359749 0.307075
O O4 0.099537 0.250222 0.551070
O O5 0.408751 0.101003 0.915251
O O6 0.500000 0.164088 0.000000
O O7 0.241895 0.215768 0.110486
O O8 0.116959 0.351811 0.227609
O O9 0.873665 0.000000 0.201820
O O10 0.000000 0.893074 0.000000
O O11 0.123500 0.918948 0.055731
O O12 0.889318 0.500000 0.801042
#
# Coordination Sequence:
#
# PCOD9174841 Si02
#       5
#     8   8   8   8   8
#     4  10  19  34  58  84 109 144 175 220 278 323
#     4  10  21  40  58  77 109 144 185 232 269 306
#     4  10  20  34  58  86 108 136 185 224 268 329
#     4  10  18  32  53  79 116 150 174 212 271 328
#     4  11  22  36  56  82 112 146 183 221 266 327
#
# _framework density 19.592096000000002
#
# number of rings (size 3 to 8) (size 9 to 14) (size 15 to 20)
#    0.000    1.800    4.000    1.200    0.000    2.000 
#    0.000    2.000    0.000    0.000    0.000    5.600 
#    0.000    0.000    0.000    0.000    0.000    0.000 
#
# Total GULP energy -111575.827179 kJ/mol
# GULP energy per Si atom -5578.791359 kJ/mol
# Density = 1.954750 g / cm^3
# Si number density = 19.592096 Si / 1000 Ang^3
#
#
#
# Elastic Constant Matrix: (Units=GPa)
#
#
# Indices 1 2 3 4 5 6 
#
# 1 72.6962 10.9083 16.0580 0.0005 -0.9754 -0.0024
# 2 10.9083 51.9417 9.8744 0.0018 -9.8524 -0.0027
# 3 16.0580 9.8744 87.7773 -0.0027 -23.1626 0.0000
# 4 0.0005 0.0018 -0.0027 8.8256 -0.0001 0.8303
# 5 -0.9754 -9.8524 -23.1626 -0.0001 23.3254 0.0027
# 6 -0.0024 -0.0027 0.0000 0.8303 0.0027 25.1758
#
#
#
# Elastic Compliance Matrix: (Units=1/GPa)
#
#
# Indices 1 2 3 4 5 6 
#
# 1 0.014960 -0.003280 -0.003480 -0.000001 -0.004216 0.000002
# 2 -0.003280 0.021648 0.000734 -0.000004 0.009735 0.000001
# 3 -0.003480 0.000734 0.016247 0.000005 0.016298 -0.000002
# 4 -0.000001 -0.000004 0.000005 0.113659 0.000004 -0.003748
# 5 -0.004216 0.009735 0.016298 0.000004 0.062992 -0.000006
# 6 0.000002 0.000001 -0.000002 -0.003748 -0.000006 0.039844
#
#
# Mechanical properties :
#
#
# Convention : Reuss Voigt Hill
#
# Bulk Modulus (GPa) = 24.50797 31.78852 28.14825
# Shear Modulus (GPa) = 16.94880 23.17032 20.05956
#
# Velocity S-wave (km/s) = 2.94442 3.44268 3.20325
# Velocity P-wave (km/s) = 4.90874 5.66243 5.29900
#
# Compressibility (1/GPa) = 0.04080305
#
# Stress axis : x y z
#
# Youngs Moduli (GPa) = 66.84386 46.19300 61.54809
#
# Poissons Ratio (x) = 0.15151 0.21421
# Poissons Ratio (y) = 0.21924 -0.04516
# Poissons Ratio (z) = 0.23264 -0.03389
#
# Static dielectric constant tensor:
#      x y z
#    x 1.722600 0.000000 0.009940 
#    y 0.000000 1.664230 0.000000 
#    z 0.009940 0.000000 1.723100 
# 
# From -- ./inp_files/60235.got.cif
#   From: 2010.05.17/outbox.cif.g08.bks.cpg/sg12_31_cif.got.tgz:60235.got - 2010.06.03 13:09:07.
