data_PCOD9174462
_publ_section_title
;
Structure prediction by ZEFSAII (Michael W. Deem and Ramdas Pophale) SiO2 
 PCOD9174462
Probable space group: C 2/M
;
_chemical_formula_sum "Si O2"
_cell_formula_units_Z 64
_cell_length_a 21.124566
_cell_length_b 8.686094
_cell_length_c 25.087267
_cell_angle_alpha 90.000000
_cell_angle_beta 127.748185
_cell_angle_gamma 90.000000
_cell_volume 3639.840358
_symmetry_space_group_name_H-M "C 2/M"
_symmetry_group_IT_number 12
_symmetry_cell_setting 'monoclinic'
loop_
_space_group_symop_operation_xyz
x,y,z
-x,y,-z
-x,-y,-z
x,-y,z
1/2+x,1/2+y,z
1/2-x,1/2+y,-z
1/2-x,1/2-y,-z
1/2+x,1/2-y,z
loop_
_atom_site_type_symbol
_atom_site_label
_atom_site_fract_x
_atom_site_fract_y
_atom_site_fract_z
Si Si1 0.117548 0.815361 0.676094
Si Si2 0.791913 0.815434 0.469305
Si Si3 0.237530 0.815281 0.828805
Si Si4 0.468124 0.183821 0.542090
Si Si5 0.265735 0.814911 0.675330
Si Si6 0.787453 0.185139 0.965473
Si Si7 0.128073 0.184514 0.181126
Si Si8 0.029813 0.187210 0.957054
O O1 0.158670 0.775085 0.753607
O O2 0.184542 0.775275 0.665999
O O3 0.035512 0.733444 0.619048
O O4 0.106128 0.000000 0.668384
O O5 0.750000 0.750000 0.500000
O O6 0.882935 0.758592 0.510651
O O7 0.745441 0.767068 0.391383
O O8 0.791414 0.000000 0.470771
O O9 0.241887 0.745001 0.889575
O O10 0.312597 0.753327 0.833094
O O11 0.242340 0.000000 0.833696
O O12 0.500000 0.233471 0.500000
O O13 0.459367 0.000000 0.537066
O O14 0.338461 0.740636 0.745122
O O15 0.273703 0.000000 0.682130
O O16 0.785864 0.000000 0.965246
O O17 0.750000 0.250000 0.000000
O O18 0.880142 0.237605 0.008129
O O19 0.037758 0.232547 0.120348
O O20 0.132934 0.000000 0.180537
O O21 0.031424 0.000000 0.958973
O O22 0.000000 0.238229 0.000000
#
# Coordination Sequence:
#
# PCOD9174462 Si02
#       8
#     8   8   8   8   8   8   8   8
#     4   9  18  34  56  81 111 147 184 225 281 338
#     4  11  23  40  60  81 114 155 191 231 286 343
#     4  10  20  35  54  82 115 146 184 229 281 333
#     4  11  22  35  56  88 117 143 188 241 280 329
#     4   9  19  35  54  80 114 148 180 225 282 333
#     4  11  22  38  58  80 112 150 188 229 280 337
#     4  10  18  31  56  84 109 143 185 229 275 325
#     4   9  17  33  55  81 110 142 182 226 272 326
#
# _framework density 17.583189000000001
#
# number of rings (size 3 to 8) (size 9 to 14) (size 15 to 20)
#    0.000    2.000    2.500    2.625    0.000    4.000 
#    0.000    4.375    0.000    4.500    0.000    0.000 
#    0.000    0.000    0.000    0.000    0.000    0.000 
#
# Total GULP energy -178611.343541 kJ/mol
# GULP energy per Si atom -5581.604486 kJ/mol
# Density = 1.754317 g / cm^3
# Si number density = 17.583189 Si / 1000 Ang^3
#
#
#
# Elastic Constant Matrix: (Units=GPa)
#
#
# Indices 1 2 3 4 5 6 
#
# 1 116.4128 35.2685 86.4663 0.0000 -9.1274 0.0000
# 2 35.2685 43.5181 49.5700 0.0000 -4.4917 0.0000
# 3 86.4663 49.5700 180.5469 0.0000 -9.7074 0.0000
# 4 0.0000 0.0000 0.0000 31.4817 0.0000 -3.2952
# 5 -9.1274 -4.4917 -9.7074 0.0000 26.7648 0.0000
# 6 0.0000 0.0000 0.0000 -3.2952 0.0000 22.0924
#
#
#
# Elastic Compliance Matrix: (Units=1/GPa)
#
#
# Indices 1 2 3 4 5 6 
#
# 1 0.014283 -0.005380 -0.005252 0.000000 0.002063 0.000000
# 2 -0.005380 0.035604 -0.007115 0.000000 0.001560 0.000000
# 3 -0.005252 -0.007115 0.010043 0.000000 0.000657 0.000000
# 4 0.000000 0.000000 0.000000 0.032268 0.000000 0.004813
# 5 0.002063 0.001560 0.000657 0.000000 0.038566 0.000000
# 6 0.000000 0.000000 0.000000 0.004813 0.000000 0.045982
#
#
# Mechanical properties :
#
#
# Convention : Reuss Voigt Hill
#
# Bulk Modulus (GPa) = 40.92308 75.89860 58.41084
# Shear Modulus (GPa) = 22.68741 27.34599 25.01670
#
# Velocity S-wave (km/s) = 3.59596 3.94792 3.77604
# Velocity P-wave (km/s) = 6.36912 8.00254 7.23209
#
# Compressibility (1/GPa) = 0.02443609
#
# Stress axis : x y z
#
# Youngs Moduli (GPa) = 70.01383 28.08644 99.57231
#
# Poissons Ratio (x) = 0.15110 0.52299
# Poissons Ratio (y) = 0.37665 0.70846
# Poissons Ratio (z) = 0.36774 0.19984
#
# Static dielectric constant tensor:
#      x y z
#    x 1.566220 0.000000 0.000150 
#    y 0.000000 1.595100 0.000000 
#    z 0.000150 0.000000 1.610280 
# 
# From -- ./inp_files/346222.got.cif
#   From: 2010.05.17/outbox.cif.g08.bks.cpg/sg12_174_cif.got.tgz:346222.got - 2010.06.03 13:09:07.
