data_PCOD9174392
_publ_section_title
;
Structure prediction by ZEFSAII (Michael W. Deem and Ramdas Pophale) SiO2 
 PCOD9174392
Probable space group: C 2/M
;
_chemical_formula_sum "Si O2"
_cell_formula_units_Z 60
_cell_length_a 22.565796
_cell_length_b 18.217293
_cell_length_c 8.724730
_cell_angle_alpha 90.000000
_cell_angle_beta 63.725415
_cell_angle_gamma 90.000000
_cell_volume 3216.069119
_symmetry_space_group_name_H-M "C 2/M"
_symmetry_group_IT_number 12
_symmetry_cell_setting 'monoclinic'
loop_
_space_group_symop_operation_xyz
x,y,z
-x,y,-z
-x,-y,-z
x,-y,z
1/2+x,1/2+y,z
1/2-x,1/2+y,-z
1/2-x,1/2-y,-z
1/2+x,1/2-y,z
loop_
_atom_site_type_symbol
_atom_site_label
_atom_site_fract_x
_atom_site_fract_y
_atom_site_fract_z
Si Si1 0.276030 0.914983 0.531949
Si Si2 0.361311 0.636575 0.454172
Si Si3 0.500000 0.759425 0.000000
Si Si4 0.867651 0.868730 0.811381
Si Si5 0.639208 0.209764 0.722975
Si Si6 0.180906 0.724123 0.010046
Si Si7 0.497536 0.387172 0.830685
Si Si8 0.774208 0.584041 0.898492
O O1 0.203022 0.899938 0.547697
O O2 0.327102 0.859332 0.394954
O O3 0.275825 0.901905 0.714768
O O4 0.293086 0.000000 0.484895
O O5 0.359613 0.630495 0.638657
O O6 0.361456 0.720472 0.390234
O O7 0.430894 0.601310 0.323611
O O8 0.434217 0.802284 0.122629
O O9 0.509460 0.700530 0.126362
O O10 0.868303 0.783325 0.862501
O O11 0.934095 0.906088 0.801205
O O12 0.801415 0.903174 0.960165
O O13 0.680787 0.230178 0.827348
O O14 0.177708 0.640298 0.068363
O O15 0.250000 0.750000 0.000000
O O16 0.500000 0.418809 0.000000
O O17 0.792262 0.500000 0.907284
#
# Coordination Sequence:
#
# PCOD9174392 Si02
#       8
#     8   8   4   8   8   8   8   8
#     4  11  23  38  55  79 113 149 187 232 283 333
#     4  11  21  33  57  86 113 144 182 232 278 333
#     4   8  18  34  57  82 111 142 184 222 278 328
#     4  11  19  33  54  83 112 143 186 226 278 330
#     4  11  20  37  58  84 113 147 184 231 280 330
#     4  10  18  31  55  80 106 138 180 228 274 329
#     4   9  17  34  54  79 113 144 181 227 274 328
#     4  10  22  37  53  76 110 148 187 232 279 329
#
# _framework density 18.656316
#
# number of rings (size 3 to 8) (size 9 to 14) (size 15 to 20)
#    0.400    1.333    1.333    5.600    0.000    2.133 
#    0.000    1.000    0.000    4.000    0.000    1.867 
#    0.000    0.000    0.000    0.000    0.000    0.000 
#
# Total GULP energy -167256.111318 kJ/mol
# GULP energy per Si atom -5575.203711 kJ/mol
# Density = 1.861385 g / cm^3
# Si number density = 18.656316 Si / 1000 Ang^3
#
#
#
# Elastic Constant Matrix: (Units=GPa)
#
#
# Indices 1 2 3 4 5 6 
#
# 1 68.9460 9.8019 17.1579 0.0000 0.8171 0.0000
# 2 9.8019 60.8813 24.8840 0.0000 -1.0678 0.0000
# 3 17.1579 24.8840 101.3912 0.0000 2.2038 0.0000
# 4 0.0000 0.0000 0.0000 15.4778 0.0000 6.7945
# 5 0.8171 -1.0678 2.2038 0.0000 37.0413 0.0000
# 6 0.0000 0.0000 0.0000 6.7945 0.0000 0.6531
#
#
#
# Elastic Compliance Matrix: (Units=1/GPa)
#
#
# Indices 1 2 3 4 5 6 
#
# 1 0.015276 -0.001567 -0.002195 0.000000 -0.000252 0.000000
# 2 -0.001567 0.018441 -0.004279 0.000000 0.000821 0.000000
# 3 -0.002195 -0.004279 0.011301 0.000000 -0.000747 0.000000
# 4 0.000000 0.000000 0.000000 -0.018114 0.000000 0.188443
# 5 -0.000252 0.000821 -0.000747 0.000000 0.027071 0.000000
# 6 0.000000 0.000000 0.000000 0.188443 0.000000 -0.429274
#
#
# Mechanical properties :
#
#
# Convention : Reuss Voigt Hill
#
# Bulk Modulus (GPa) = 34.55808 37.21178 35.88493
# Shear Modulus (GPa) = -14.30316 22.59275 4.14480
#
# Velocity S-wave (km/s) = -2.77188 3.48371 1.49214
# Velocity P-wave (km/s) = 2.88433 6.01423 4.71647
#
# Compressibility (1/GPa) = 0.02893680
#
# Stress axis : x y z
#
# Youngs Moduli (GPa) = 65.46171 54.22756 88.49112
#
# Poissons Ratio (x) = 0.08495 0.19425
# Poissons Ratio (y) = 0.10255 0.37861
# Poissons Ratio (z) = 0.14370 0.23202
#
# Static dielectric constant tensor:
#      x y z
#    x 1.661820 0.000000 -0.003730 
#    y 0.000000 1.690250 0.000000 
#    z -0.003730 0.000000 1.639740 
# 
# From -- ./inp_files/98129.got.cif
#   From: 2010.05.17/outbox.cif.g08.bks.cpg/sg12_50_cif.got.tgz:98129.got - 2010.06.03 13:09:07.
