data_PCOD9174152
_publ_section_title
;
Structure prediction by ZEFSAII (Michael W. Deem and Ramdas Pophale) SiO2 
 PCOD9174152
Probable space group: C 2/M
;
_chemical_formula_sum "Si O2"
_cell_formula_units_Z 64
_cell_length_a 21.156306
_cell_length_b 7.671068
_cell_length_c 22.597385
_cell_angle_alpha 90.000000
_cell_angle_beta 61.720354
_cell_angle_gamma 90.000000
_cell_volume 3229.647202
_symmetry_space_group_name_H-M "C 2/M"
_symmetry_group_IT_number 12
_symmetry_cell_setting 'monoclinic'
loop_
_space_group_symop_operation_xyz
x,y,z
-x,y,-z
-x,-y,-z
x,-y,z
1/2+x,1/2+y,z
1/2-x,1/2+y,-z
1/2-x,1/2-y,-z
1/2+x,1/2-y,z
loop_
_atom_site_type_symbol
_atom_site_label
_atom_site_fract_x
_atom_site_fract_y
_atom_site_fract_z
Si Si1 0.419215 0.286554 0.657074
Si Si2 0.079070 0.785650 0.945484
Si Si3 0.670648 0.708025 0.656530
Si Si4 0.780335 0.202211 0.050397
Si Si5 0.153600 0.208897 0.794486
Si Si6 0.700454 0.292347 0.202841
Si Si7 0.915640 0.213795 0.419444
Si Si8 0.661706 0.710527 0.426030
O O1 0.418791 0.500000 0.657394
O O2 0.372372 0.228197 0.734187
O O3 0.501626 0.231741 0.620470
O O4 0.379157 0.229837 0.614917
O O5 0.143977 0.721099 0.959232
O O6 0.100172 0.728891 0.869629
O O7 0.079372 0.000000 0.945369
O O8 0.000000 0.730298 0.000000
O O9 0.658805 0.500000 0.663042
O O10 0.646321 0.778762 0.731331
O O11 0.627955 0.775033 0.618645
O O12 0.755350 0.737771 0.612001
O O13 0.722176 0.229720 0.128154
O O14 0.795437 0.000000 0.039986
O O15 0.750000 0.250000 0.000000
O O16 0.233513 0.245335 0.783256
O O17 0.145688 0.000000 0.795312
O O18 0.696490 0.500000 0.201259
O O19 0.877629 0.270888 0.496905
O O20 0.914652 0.000000 0.420398
O O21 0.659051 0.500000 0.426900
#
# Coordination Sequence:
#
# PCOD9174152 Si02
#       8
#     8   8   8   8   8   8   8   8
#     4   9  17  30  49  75  99 126 170 215 252 293
#     4   8  15  30  51  75  98 124 165 209 244 283
#     4  10  19  31  48  72 100 130 164 205 256 306
#     4  10  20  35  55  80 108 136 167 204 249 295
#     4   9  17  30  49  72  98 131 164 202 250 300
#     4  10  18  31  53  78 100 130 171 209 246 293
#     4   9  18  31  47  72 102 129 165 215 261 298
#     4  10  18  31  53  73  94 130 171 212 255 301
#
# _framework density 19.816405
#
# number of rings (size 3 to 8) (size 9 to 14) (size 15 to 20)
#    0.000    2.625    1.250    2.250    0.000    1.500 
#    2.250    0.000    0.000   14.625    0.000    0.000 
#    0.000    0.000    0.000    0.000    0.000    0.000 
#
# Total GULP energy -178515.814415 kJ/mol
# GULP energy per Si atom -5578.619200 kJ/mol
# Density = 1.977130 g / cm^3
# Si number density = 19.816405 Si / 1000 Ang^3
#
#
#
# Elastic Constant Matrix: (Units=GPa)
#
#
# Indices 1 2 3 4 5 6 
#
# 1 156.3109 3.9858 124.0437 0.0013 5.0542 0.0003
# 2 3.9858 29.2820 5.0727 0.0017 1.7477 0.0010
# 3 124.0437 5.0727 215.2217 0.0002 -0.1116 0.0012
# 4 0.0013 0.0017 0.0002 7.1028 0.0005 -11.7817
# 5 5.0542 1.7477 -0.1116 0.0005 35.5130 -0.0002
# 6 0.0003 0.0010 0.0012 -11.7817 -0.0002 8.2949
#
#
#
# Elastic Compliance Matrix: (Units=1/GPa)
#
#
# Indices 1 2 3 4 5 6 
#
# 1 0.011897 -0.000331 -0.006850 0.000001 -0.001698 0.000001
# 2 -0.000331 0.034402 -0.000621 0.000011 -0.001648 0.000011
# 3 -0.006850 -0.000621 0.008609 0.000000 0.001032 0.000000
# 4 0.000001 0.000011 0.000000 -0.103829 0.000000 -0.147473
# 5 -0.001698 -0.001648 0.001032 0.000000 0.028485 0.000001
# 6 0.000001 0.000011 0.000000 -0.147473 0.000001 -0.088907
#
#
# Mechanical properties :
#
#
# Convention : Reuss Voigt Hill
#
# Bulk Modulus (GPa) = 25.44263 74.11321 49.77792
# Shear Modulus (GPa) = -62.00509 28.02965 -16.98772
#
# Velocity S-wave (km/s) = -5.59979 3.76502 -2.93107
# Velocity P-wave (km/s) = 5.37989 7.50877 3.70394
#
# Compressibility (1/GPa) = 0.03930411
#
# Stress axis : x y z
#
# Youngs Moduli (GPa) = 84.05766 29.06836 116.15226
#
# Poissons Ratio (x) = 0.00963 0.79561
# Poissons Ratio (y) = 0.02785 0.07210
# Poissons Ratio (z) = 0.57577 0.01804
#
# Static dielectric constant tensor:
#      x y z
#    x 1.682870 0.000000 0.014320 
#    y 0.000000 1.747990 0.000000 
#    z 0.014320 0.000000 1.694140 
# 
# From -- ./inp_files/345524.got.cif
#   From: 2010.05.17/outbox.cif.g08.bks.cpg/sg12_173_cif.got.tgz:345524.got - 2010.06.03 13:09:07.
