data_PCOD9174362
_publ_section_title
;
Structure prediction by ZEFSAII (Michael W. Deem and Ramdas Pophale) SiO2 
 PCOD9174362
Probable space group: C 2/M
;
_chemical_formula_sum "Si O2"
_cell_formula_units_Z 36
_cell_length_a 17.641574
_cell_length_b 16.929280
_cell_length_c 7.287547
_cell_angle_alpha 90.000000
_cell_angle_beta 132.110840
_cell_angle_gamma 90.000000
_cell_volume 1614.628803
_symmetry_space_group_name_H-M "C 2/M"
_symmetry_group_IT_number 12
_symmetry_cell_setting 'monoclinic'
loop_
_space_group_symop_operation_xyz
x,y,z
-x,y,-z
-x,-y,-z
x,-y,z
1/2+x,1/2+y,z
1/2-x,1/2+y,-z
1/2-x,1/2-y,-z
1/2+x,1/2-y,z
loop_
_atom_site_type_symbol
_atom_site_label
_atom_site_fract_x
_atom_site_fract_y
_atom_site_fract_z
Si Si1 0.408285 0.688799 0.216316
Si Si2 0.342609 0.000000 0.610939
Si Si3 0.066760 0.500000 0.824031
Si Si4 0.199549 0.665725 0.380167
Si Si5 0.192247 0.353804 0.934719
Si Si6 0.000000 0.256950 0.000000
O O1 0.500000 0.662794 0.500000
O O2 0.305477 0.636803 0.036579
O O3 0.363013 0.772952 0.216367
O O4 0.451241 0.705729 0.082882
O O5 0.446140 0.000000 0.661101
O O6 0.280285 0.082044 0.490366
O O7 0.383204 0.000000 0.889182
O O8 0.112813 0.424425 0.795868
O O9 0.250000 0.750000 0.500000
O O10 0.214224 0.654796 0.187578
O O11 0.081107 0.684563 0.222806
#
# Coordination Sequence:
#
# PCOD9174362 Si02
#       6
#     8   4   4   8   8   4
#     4  10  19  34  54  79 108 143 185 230 277 335
#     4   9  16  28  52  83 112 144 187 233 280 334
#     4   9  16  32  52  77 110 141 179 237 288 327
#     4  10  18  31  54  84 114 148 189 232 281 336
#     4   9  19  32  52  78 109 144 183 233 284 335
#     4  10  20  33  56  81 108 148 190 233 282 335
#
# _framework density 22.296147000000001
#
# number of rings (size 3 to 8) (size 9 to 14) (size 15 to 20)
#    0.000    2.444    0.000    5.333    0.000    0.000 
#    0.000    1.111    0.000   22.667    0.000    0.000 
#    0.000    0.000    0.000    0.000    0.000    0.000 
#
# Total GULP energy -100471.128780 kJ/mol
# GULP energy per Si atom -5581.729377 kJ/mol
# Density = 2.224540 g / cm^3
# Si number density = 22.296147 Si / 1000 Ang^3
#
#
#
# Elastic Constant Matrix: (Units=GPa)
#
#
# Indices 1 2 3 4 5 6 
#
# 1 127.1234 30.1815 23.5168 0.0000 3.4805 0.0000
# 2 30.1815 136.1705 29.2761 0.0000 8.1947 0.0000
# 3 23.5168 29.2761 68.5081 0.0000 -7.0263 0.0000
# 4 0.0000 0.0000 0.0000 22.2667 0.0000 4.8195
# 5 3.4805 8.1947 -7.0263 0.0000 25.1327 0.0000
# 6 0.0000 0.0000 0.0000 4.8195 0.0000 28.2954
#
#
#
# Elastic Compliance Matrix: (Units=1/GPa)
#
#
# Indices 1 2 3 4 5 6 
#
# 1 0.008691 -0.001278 -0.002592 0.000000 -0.001512 0.000000
# 2 -0.001278 0.008625 -0.003621 0.000000 -0.003648 0.000000
# 3 -0.002592 -0.003621 0.017700 0.000000 0.006488 0.000000
# 4 0.000000 0.000000 0.000000 0.046629 0.000000 -0.007942
# 5 -0.001512 -0.003648 0.006488 0.000000 0.043001 0.000000
# 6 0.000000 0.000000 0.000000 -0.007942 0.000000 0.036694
#
#
# Mechanical properties :
#
#
# Convention : Reuss Voigt Hill
#
# Bulk Modulus (GPa) = 49.91879 55.30567 52.61223
# Shear Modulus (GPa) = 27.32234 31.72745 29.52490
#
# Velocity S-wave (km/s) = 3.50441 3.77636 3.64292
# Velocity P-wave (km/s) = 6.22994 6.62370 6.42983
#
# Compressibility (1/GPa) = 0.02003254
#
# Stress axis : x y z
#
# Youngs Moduli (GPa) = 115.06552 115.94116 56.49873
#
# Poissons Ratio (x) = 0.14817 0.14645
# Poissons Ratio (y) = 0.14705 0.20459
# Poissons Ratio (z) = 0.29827 0.41985
#
# Static dielectric constant tensor:
#      x y z
#    x 1.846600 0.000000 -0.004800 
#    y 0.000000 1.883700 0.000000 
#    z -0.004800 0.000000 1.920390 
# 
# From -- ./inp_files/60475.got.cif
#   From: 2010.05.17/outbox.cif.g08.bks.cpg/sg12_31_cif.got.tgz:60475.got - 2010.06.03 13:09:07.
