data_PCOD9174996
_publ_section_title
;
Structure prediction by ZEFSAII (Michael W. Deem and Ramdas Pophale) SiO2 
 PCOD9174996
Probable space group: C 2/M
;
_chemical_formula_sum "Si O2"
_cell_formula_units_Z 60
_cell_length_a 22.456662
_cell_length_b 26.733659
_cell_length_c 12.453457
_cell_angle_alpha 90.000000
_cell_angle_beta 24.530335
_cell_angle_gamma 90.000000
_cell_volume 3104.021238
_symmetry_space_group_name_H-M "C 2/M"
_symmetry_group_IT_number 12
_symmetry_cell_setting 'monoclinic'
loop_
_space_group_symop_operation_xyz
x,y,z
-x,y,-z
-x,-y,-z
x,-y,z
1/2+x,1/2+y,z
1/2-x,1/2+y,-z
1/2-x,1/2-y,-z
1/2+x,1/2-y,z
loop_
_atom_site_type_symbol
_atom_site_label
_atom_site_fract_x
_atom_site_fract_y
_atom_site_fract_z
Si Si1 0.264926 0.689852 0.478880
Si Si2 0.255712 0.790758 0.719246
Si Si3 0.656254 0.553798 0.190077
Si Si4 0.659720 0.334031 0.100829
Si Si5 0.847440 0.815976 0.568281
Si Si6 0.546474 0.828718 0.299995
Si Si7 0.858701 0.404119 0.020782
Si Si8 0.500000 0.122893 0.000000
O O1 0.250000 0.750000 0.500000
O O2 0.298008 0.681681 0.299621
O O3 0.374713 0.678790 0.395101
O O4 0.122966 0.659365 0.748440
O O5 0.237680 0.730941 0.755382
O O6 0.430246 0.792951 0.437146
O O7 0.200133 0.818211 0.914765
O O8 0.500000 0.555805 0.500000
O O9 0.669373 0.500000 0.110541
O O10 0.670516 0.605916 0.101559
O O11 0.773080 0.555005 0.094190
O O12 0.498445 0.314953 0.381749
O O13 0.787846 0.311498 0.963743
O O14 0.764021 0.864236 0.745567
O O15 0.500000 0.837928 0.500000
O O16 0.543076 0.877165 0.229828
O O17 0.941451 0.410293 0.996953
#
# Coordination Sequence:
#
# PCOD9174996 Si02
#       8
#     8   8   8   8   8   8   8   4
#     4   9  19  31  49  75 106 154 197 216 258 316
#     4  10  20  34  50  76 113 157 185 219 264 321
#     4  10  20  39  62  82 105 137 180 240 290 338
#     4  10  21  36  51  80 112 139 191 224 268 336
#     4  10  21  31  50  80 112 146 189 221 266 311
#     4   9  19  34  48  71 105 148 186 211 265 317
#     4  10  19  35  55  79 110 140 182 226 275 329
#     4  10  18  32  55  76 110 146 176 246 269 308
#
# _framework density 19.329764999999998
#
# number of rings (size 3 to 8) (size 9 to 14) (size 15 to 20)
#    0.000    2.267    2.667    0.000    1.867    4.267 
#   12.000    0.333    0.000   25.600    0.000    2.800 
#    0.000    0.000    0.000    0.000    0.000    0.000 
#
# Total GULP energy -167006.686587 kJ/mol
# GULP energy per Si atom -5566.889553 kJ/mol
# Density = 1.928577 g / cm^3
# Si number density = 19.329765 Si / 1000 Ang^3
#
#
#
# Elastic Constant Matrix: (Units=GPa)
#
#
# Indices 1 2 3 4 5 6 
#
# 1 120.9878 5.5062 18.2618 -0.0906 12.5049 -0.0098
# 2 5.5062 74.9009 3.2151 -0.0442 5.8095 -0.0059
# 3 18.2618 3.2151 24.6578 -0.1539 -7.1577 -0.0205
# 4 -0.0906 -0.0442 -0.1539 79.9237 0.0784 16.1392
# 5 12.5049 5.8095 -7.1577 0.0784 34.3433 0.0066
# 6 -0.0098 -0.0059 -0.0205 16.1392 0.0066 13.1954
#
#
#
# Elastic Compliance Matrix: (Units=1/GPa)
#
#
# Indices 1 2 3 4 5 6 
#
# 1 0.010243 0.000084 -0.009242 0.000000 -0.005670 -0.000004
# 2 0.000084 0.013686 -0.002690 0.000006 -0.002906 -0.000004
# 3 -0.009242 -0.002690 0.052007 0.000081 0.014659 -0.000033
# 4 0.000000 0.000006 0.000081 0.016616 -0.000018 -0.020323
# 5 -0.005670 -0.002906 0.014659 -0.000018 0.034729 0.000022
# 6 -0.000004 -0.000004 -0.000033 -0.020323 0.000022 0.100640
#
#
# Mechanical properties :
#
#
# Convention : Reuss Voigt Hill
#
# Bulk Modulus (GPa) = 19.14343 30.50140 24.82241
# Shear Modulus (GPa) = 18.58531 38.39673 28.49102
#
# Velocity S-wave (km/s) = 3.10415 4.46174 3.84336
# Velocity P-wave (km/s) = 4.77208 6.50820 5.70655
#
# Compressibility (1/GPa) = 0.05223726
#
# Stress axis : x y z
#
# Youngs Moduli (GPa) = 97.63187 73.06896 19.22834
#
# Poissons Ratio (x) = -0.00610 0.17772
# Poissons Ratio (y) = -0.00816 0.05172
# Poissons Ratio (z) = 0.90236 0.19655
#
# Static dielectric constant tensor:
#      x y z
#    x 1.784050 0.000000 0.008680 
#    y 0.000000 1.658700 0.000000 
#    z 0.008680 0.000000 1.754630 
# 
# From -- ./inp_files/170766.got.cif
#   From: 2010.05.17/outbox.cif.g08.bks.cpg/sg12_86_cif.got.tgz:170766.got - 2010.06.03 13:09:07.
