data_PCOD9174783
_publ_section_title
;
Structure prediction by ZEFSAII (Michael W. Deem and Ramdas Pophale) SiO2 
 PCOD9174783
Probable space group: C 2/M
;
_chemical_formula_sum "Si O2"
_cell_formula_units_Z 64
_cell_length_a 20.772374
_cell_length_b 7.629649
_cell_length_c 21.073303
_cell_angle_alpha 90.000000
_cell_angle_beta 103.080384
_cell_angle_gamma 90.000000
_cell_volume 3253.165203
_symmetry_space_group_name_H-M "C 2/M"
_symmetry_group_IT_number 12
_symmetry_cell_setting 'monoclinic'
loop_
_space_group_symop_operation_xyz
x,y,z
-x,y,-z
-x,-y,-z
x,-y,z
1/2+x,1/2+y,z
1/2-x,1/2+y,-z
1/2-x,1/2-y,-z
1/2+x,1/2-y,z
loop_
_atom_site_type_symbol
_atom_site_label
_atom_site_fract_x
_atom_site_fract_y
_atom_site_fract_z
Si Si1 0.246474 0.211042 0.925256
Si Si2 0.503239 0.284750 0.573679
Si Si3 0.469754 0.208013 0.797219
Si Si4 0.902264 0.202936 0.653351
Si Si5 0.382070 0.711385 0.178375
Si Si6 0.652107 0.202909 0.152184
Si Si7 0.719922 0.291766 0.296100
Si Si8 0.868357 0.211036 0.320432
O O1 0.178651 0.275211 0.877830
O O2 0.308869 0.280418 0.898671
O O3 0.246732 0.000000 0.917878
O O4 0.250000 0.250000 0.000000
O O5 0.500000 0.230938 0.500000
O O6 0.502591 0.500000 0.574981
O O7 0.441324 0.222032 0.602212
O O8 0.570855 0.227971 0.623034
O O9 0.451615 0.288878 0.724837
O O10 0.545602 0.239349 0.830263
O O11 0.416686 0.278014 0.836494
O O12 0.458491 0.000000 0.787941
O O13 0.833314 0.277510 0.664604
O O14 0.889034 0.000000 0.635039
O O15 0.379189 0.500000 0.179425
O O16 0.375211 0.775270 0.249430
O O17 0.701517 0.210863 0.223678
O O18 0.638343 0.000000 0.133760
O O19 0.708981 0.500000 0.287030
O O20 0.795830 0.259455 0.328888
O O21 0.871700 0.000000 0.319217
#
# Coordination Sequence:
#
# PCOD9174783 Si02
#       8
#     8   8   8   8   8   8   8   8
#     4  10  21  37  55  74 101 136 170 206 251 303
#     4   9  17  31  53  76  97 132 179 212 241 298
#     4  10  19  30  52  81 104 129 168 214 251 295
#     4   9  17  32  50  72 104 136 167 208 257 299
#     4  10  19  34  54  75 102 136 169 208 255 297
#     4   9  18  35  53  73 104 138 168 203 252 303
#     4  10  19  29  49  78 104 130 166 215 256 295
#     4  10  18  32  53  74 101 134 170 212 252 296
#
# _framework density 19.673147
#
# number of rings (size 3 to 8) (size 9 to 14) (size 15 to 20)
#    0.000    2.375    2.500    0.750    0.000    2.500 
#    0.000    1.250    0.000    5.250    0.000    0.000 
#    0.000    0.000    0.000    0.000    0.000    0.000 
#
# Total GULP energy -178522.916140 kJ/mol
# GULP energy per Si atom -5578.841129 kJ/mol
# Density = 1.962837 g / cm^3
# Si number density = 19.673147 Si / 1000 Ang^3
#
#
#
# Elastic Constant Matrix: (Units=GPa)
#
#
# Indices 1 2 3 4 5 6 
#
# 1 160.2362 -2.1419 92.7916 0.0000 -22.7532 0.0000
# 2 -2.1419 41.1914 -0.3690 0.0000 -0.8450 0.0000
# 3 92.7916 -0.3690 138.1968 0.0000 -20.5951 0.0000
# 4 0.0000 0.0000 0.0000 10.0835 0.0000 2.8640
# 5 -22.7532 -0.8450 -20.5951 0.0000 33.6882 0.0000
# 6 0.0000 0.0000 0.0000 2.8640 0.0000 18.6061
#
#
#
# Elastic Compliance Matrix: (Units=1/GPa)
#
#
# Indices 1 2 3 4 5 6 
#
# 1 0.010502 0.000550 -0.006592 0.000000 0.003077 0.000000
# 2 0.000550 0.024322 -0.000174 0.000000 0.000875 0.000000
# 3 -0.006592 -0.000174 0.012100 0.000000 0.002941 0.000000
# 4 0.000000 0.000000 0.000000 0.103706 0.000000 -0.015963
# 5 0.003077 0.000875 0.002941 0.000000 0.033582 0.000000
# 6 0.000000 0.000000 0.000000 -0.015963 0.000000 0.056203
#
#
# Mechanical properties :
#
#
# Convention : Reuss Voigt Hill
#
# Bulk Modulus (GPa) = 28.99139 57.79842 43.39491
# Shear Modulus (GPa) = 18.91477 29.09848 24.00662
#
# Velocity S-wave (km/s) = 3.10409 3.85007 3.49703
# Velocity P-wave (km/s) = 5.25506 7.01479 6.19770
#
# Compressibility (1/GPa) = 0.03449299
#
# Stress axis : x y z
#
# Youngs Moduli (GPa) = 95.21747 41.11520 82.64628
#
# Poissons Ratio (x) = -0.02262 0.54477
# Poissons Ratio (y) = -0.05239 0.01438
# Poissons Ratio (z) = 0.62764 0.00716
#
# Static dielectric constant tensor:
#      x y z
#    x 1.713630 0.000000 -0.029970 
#    y 0.000000 1.752590 0.000000 
#    z -0.029970 0.000000 1.652040 
# 
# From -- ./inp_files/319121.got.cif
#   From: 2010.05.17/outbox.cif.g08.bks.cpg/sg12_160_cif.got.tgz:319121.got - 2010.06.03 13:09:07.
