data_PCOD9174476
_publ_section_title
;
Structure prediction by ZEFSAII (Michael W. Deem and Ramdas Pophale) SiO2 
 PCOD9174476
Probable space group: C 2/M
;
_chemical_formula_sum "Si O2"
_cell_formula_units_Z 64
_cell_length_a 12.304137
_cell_length_b 21.934550
_cell_length_c 11.462124
_cell_angle_alpha 90.000000
_cell_angle_beta 81.426898
_cell_angle_gamma 90.000000
_cell_volume 3058.898555
_symmetry_space_group_name_H-M "C 2/M"
_symmetry_group_IT_number 12
_symmetry_cell_setting 'monoclinic'
loop_
_space_group_symop_operation_xyz
x,y,z
-x,y,-z
-x,-y,-z
x,-y,z
1/2+x,1/2+y,z
1/2-x,1/2+y,-z
1/2-x,1/2-y,-z
1/2+x,1/2-y,z
loop_
_atom_site_type_symbol
_atom_site_label
_atom_site_fract_x
_atom_site_fract_y
_atom_site_fract_z
Si Si1 0.111643 0.778769 0.772741
Si Si2 0.069573 0.218847 0.378292
Si Si3 0.735822 0.665847 0.183481
Si Si4 0.117309 0.875599 0.973221
Si Si5 0.835633 0.427889 0.827086
Si Si6 0.610046 0.932987 0.557818
Si Si7 0.926836 0.569017 0.161035
Si Si8 0.202719 0.659200 0.388195
O O1 0.190206 0.726219 0.810573
O O2 0.091179 0.824091 0.881732
O O3 0.178369 0.817247 0.665645
O O4 0.005052 0.758246 0.719164
O O5 0.153678 0.170281 0.307760
O O6 0.131326 0.279840 0.410283
O O7 0.000000 0.196266 0.500000
O O8 0.825773 0.612945 0.152406
O O9 0.658797 0.658164 0.083210
O O10 0.221410 0.914452 0.911198
O O11 0.000000 0.909927 0.000000
O O12 0.843656 0.500000 0.796770
O O13 0.833773 0.384631 0.713330
O O14 0.946222 0.412818 0.883902
O O15 0.500000 0.924504 0.500000
O O16 0.576941 0.932069 0.696969
O O17 0.690997 0.879979 0.506156
O O18 0.656037 0.000000 0.523112
O O19 0.907622 0.500000 0.121078
#
# Coordination Sequence:
#
# PCOD9174476 Si02
#       8
#     8   8   8   8   8   8   8   8
#     4  10  23  40  61  91 123 165 212 261 313 376
#     4  11  24  38  60  96 133 169 208 258 317 384
#     4  11  24  42  66  90 125 173 213 265 324 374
#     4  11  23  45  66  88 126 169 219 265 316 384
#     4  10  21  39  64  96 125 159 210 269 324 375
#     4  10  18  31  56  87 124 165 199 246 309 377
#     4  10  22  39  61  93 130 164 210 264 321 381
#     4  10  20  33  59  89 125 161 205 254 306 376
#
# _framework density 20.922563
#
# number of rings (size 3 to 8) (size 9 to 14) (size 15 to 20)
#    0.000    1.625    2.500    1.875    3.500    2.250 
#    2.250    1.250    0.000    0.375    0.000    0.000 
#    0.000    0.000    0.000    0.000    0.000    0.000 
#
# Total GULP energy -178620.683401 kJ/mol
# GULP energy per Si atom -5581.896356 kJ/mol
# Density = 2.087494 g / cm^3
# Si number density = 20.922563 Si / 1000 Ang^3
#
#
#
# Elastic Constant Matrix: (Units=GPa)
#
#
# Indices 1 2 3 4 5 6 
#
# 1 122.4241 32.3249 44.3312 0.0000 -11.0793 0.0000
# 2 32.3249 50.9548 29.7440 0.0000 -14.8780 0.0000
# 3 44.3312 29.7440 68.3709 0.0000 -14.1240 0.0000
# 4 0.0000 0.0000 0.0000 13.2588 0.0000 -7.6226
# 5 -11.0793 -14.8780 -14.1240 0.0000 41.4341 0.0000
# 6 0.0000 0.0000 0.0000 -7.6226 0.0000 23.0687
#
#
#
# Elastic Compliance Matrix: (Units=1/GPa)
#
#
# Indices 1 2 3 4 5 6 
#
# 1 0.011214 -0.003922 -0.005633 0.000000 -0.000330 0.000000
# 2 -0.003922 0.029123 -0.008803 0.000000 0.006408 0.000000
# 3 -0.005633 -0.008803 0.022746 0.000000 0.003086 0.000000
# 4 0.000000 0.000000 0.000000 0.093110 0.000000 0.030766
# 5 -0.000330 0.006408 0.003086 0.000000 0.027400 0.000000
# 6 0.000000 0.000000 0.000000 0.030766 0.000000 0.053515
#
#
# Mechanical properties :
#
#
# Convention : Reuss Voigt Hill
#
# Bulk Modulus (GPa) = 37.92653 50.50556 44.21604
# Shear Modulus (GPa) = 17.69218 24.57562 21.13390
#
# Velocity S-wave (km/s) = 2.91108 3.43096 3.18166
# Velocity P-wave (km/s) = 5.42823 6.31562 5.88866
#
# Compressibility (1/GPa) = 0.02636677
#
# Stress axis : x y z
#
# Youngs Moduli (GPa) = 89.17605 34.33727 43.96467
#
# Poissons Ratio (x) = 0.13467 0.24765
# Poissons Ratio (y) = 0.34976 0.38701
# Poissons Ratio (z) = 0.50231 0.30226
#
# Static dielectric constant tensor:
#      x y z
#    x 1.784680 0.000000 -0.017640 
#    y 0.000000 1.717680 0.000000 
#    z -0.017640 0.000000 1.797450 
# 
# From -- ./inp_files/135365.got.cif
#   From: 2010.05.17/outbox.cif.g08.bks.cpg/sg12_68_cif.got.tgz:135365.got - 2010.06.03 13:09:07.
