data_PCOD9174827
_publ_section_title
;
Structure prediction by ZEFSAII (Michael W. Deem and Ramdas Pophale) SiO2 
 PCOD9174827
Probable space group: C 2/M
;
_chemical_formula_sum "Si O2"
_cell_formula_units_Z 56
_cell_length_a 18.241350
_cell_length_b 14.418170
_cell_length_c 24.402874
_cell_angle_alpha 90.000000
_cell_angle_beta 149.322556
_cell_angle_gamma 90.000000
_cell_volume 3274.554883
_symmetry_space_group_name_H-M "C 2/M"
_symmetry_group_IT_number 12
_symmetry_cell_setting 'monoclinic'
loop_
_space_group_symop_operation_xyz
x,y,z
-x,y,-z
-x,-y,-z
x,-y,z
1/2+x,1/2+y,z
1/2-x,1/2+y,-z
1/2-x,1/2-y,-z
1/2+x,1/2-y,z
loop_
_atom_site_type_symbol
_atom_site_label
_atom_site_fract_x
_atom_site_fract_y
_atom_site_fract_z
Si Si1 0.858108 0.106330 0.447717
Si Si2 0.555168 0.109720 0.974383
Si Si3 0.357289 0.604511 0.721431
Si Si4 0.558847 0.892160 0.476885
Si Si5 0.535356 0.716662 0.645586
Si Si6 0.183128 0.709221 0.246100
Si Si7 0.392030 0.391875 0.201249
O O1 0.735401 0.159509 0.335448
O O2 0.000000 0.107454 0.500000
O O3 0.909672 0.158486 0.535031
O O4 0.819178 0.000000 0.432918
O O5 0.460767 0.165850 0.870582
O O6 0.528905 0.000000 0.949126
O O7 0.500000 0.132897 0.000000
O O8 0.725320 0.125967 0.081206
O O9 0.342860 0.500000 0.734292
O O10 0.230202 0.614727 0.594758
O O11 0.335475 0.682882 0.752365
O O12 0.508021 0.614506 0.787650
O O13 0.500000 0.863989 0.500000
O O14 0.500400 0.822820 0.393420
O O15 0.520149 0.000000 0.443387
O O16 0.687287 0.694732 0.713568
O O17 0.552475 0.680627 0.717947
O O18 0.402193 0.500000 0.228135
#
# Coordination Sequence:
#
# PCOD9174827 Si02
#       7
#     8   8   8   8   8   8   8
#     4   9  17  27  44  76 109 135 165 215 270 312
#     4  10  20  35  56  81 107 139 179 222 267 321
#     4  10  21  37  55  79 110 144 182 221 265 316
#     4  10  18  32  53  78 106 139 183 223 259 312
#     4  11  18  31  54  80 105 139 179 224 264 314
#     4  11  19  32  55  80 105 138 184 223 261 312
#     4  10  22  37  54  80 112 144 177 218 270 324
#
# _framework density 17.101562000000001
#
# number of rings (size 3 to 8) (size 9 to 14) (size 15 to 20)
#    0.000    1.857    4.286    1.286    0.000    2.286 
#    0.000    0.000    0.000    2.143    0.000    0.000 
#    0.000    0.000    0.000    0.000    0.000    0.000 
#
# Total GULP energy -156186.081969 kJ/mol
# GULP energy per Si atom -5578.074356 kJ/mol
# Density = 1.706264 g / cm^3
# Si number density = 17.101562 Si / 1000 Ang^3
#
#
#
# Elastic Constant Matrix: (Units=GPa)
#
#
# Indices 1 2 3 4 5 6 
#
# 1 26.1211 6.0639 13.0018 0.0000 12.7607 -0.0001
# 2 6.0639 92.6060 41.4887 0.0002 -10.7538 0.0001
# 3 13.0018 41.4887 90.7551 0.0007 2.4419 0.0003
# 4 0.0000 0.0002 0.0007 23.9885 0.0003 0.1072
# 5 12.7607 -10.7538 2.4419 0.0003 23.3770 0.0001
# 6 -0.0001 0.0001 0.0003 0.1072 0.0001 15.8826
#
#
#
# Elastic Compliance Matrix: (Units=1/GPa)
#
#
# Indices 1 2 3 4 5 6 
#
# 1 0.058694 -0.005592 -0.004935 0.000001 -0.034096 0.000001
# 2 -0.005592 0.015327 -0.006496 0.000000 0.010781 0.000000
# 3 -0.004935 -0.006496 0.014744 0.000000 -0.001834 0.000000
# 4 0.000001 0.000000 0.000000 0.041688 -0.000001 -0.000281
# 5 -0.034096 0.010781 -0.001834 -0.000001 0.066540 -0.000001
# 6 0.000001 0.000000 0.000000 -0.000281 -0.000001 0.062964
#
#
# Mechanical properties :
#
#
# Convention : Reuss Voigt Hill
#
# Bulk Modulus (GPa) = 18.27459 36.73235 27.50347
# Shear Modulus (GPa) = 16.01317 22.57813 19.29565
#
# Velocity S-wave (km/s) = 3.06332 3.63745 3.36266
# Velocity P-wave (km/s) = 4.81882 6.25835 5.58516
#
# Compressibility (1/GPa) = 0.05472079
#
# Stress axis : x y z
#
# Youngs Moduli (GPa) = 17.03739 65.24568 67.82202
#
# Poissons Ratio (x) = 0.36484 0.33470
# Poissons Ratio (y) = 0.09527 0.44054
# Poissons Ratio (z) = 0.08408 0.42381
#
# Static dielectric constant tensor:
#      x y z
#    x 1.583600 0.000000 0.018910 
#    y 0.000000 1.596290 0.000000 
#    z 0.018910 0.000000 1.560340 
# 
# From -- ./inp_files/316788.got.cif
#   From: 2010.05.17/outbox.cif.g08.bks.cpg/sg12_159_cif.got.tgz:316788.got - 2010.06.03 13:09:07.
