data_PCOD9174489
_publ_section_title
;
Structure prediction by ZEFSAII (Michael W. Deem and Ramdas Pophale) SiO2 
 PCOD9174489
Probable space group: C 2/M
;
_chemical_formula_sum "Si O2"
_cell_formula_units_Z 40
_cell_length_a 23.642470
_cell_length_b 13.273032
_cell_length_c 9.030464
_cell_angle_alpha 90.000000
_cell_angle_beta 47.250252
_cell_angle_gamma 90.000000
_cell_volume 2080.950072
_symmetry_space_group_name_H-M "C 2/M"
_symmetry_group_IT_number 12
_symmetry_cell_setting 'monoclinic'
loop_
_space_group_symop_operation_xyz
x,y,z
-x,y,-z
-x,-y,-z
x,-y,z
1/2+x,1/2+y,z
1/2-x,1/2+y,-z
1/2-x,1/2-y,-z
1/2+x,1/2-y,z
loop_
_atom_site_type_symbol
_atom_site_label
_atom_site_fract_x
_atom_site_fract_y
_atom_site_fract_z
Si Si1 0.416109 0.682860 0.156789
Si Si2 0.825596 0.384621 0.792741
Si Si3 0.182636 0.768445 0.947022
Si Si4 0.121724 0.613009 0.634234
Si Si5 0.232521 0.887745 0.412556
O O1 0.378935 0.692065 0.060437
O O2 0.423590 0.795079 0.213460
O O3 0.352043 0.630384 0.373009
O O4 0.500000 0.635243 0.000000
O O5 0.832884 0.500000 0.830375
O O6 0.736265 0.354931 0.920679
O O7 0.868226 0.375999 0.559276
O O8 0.852877 0.302751 0.863393
O O9 0.240586 0.695212 0.752134
O O10 0.092233 0.500000 0.718487
O O11 0.206584 0.619501 0.559788
O O12 0.239111 0.000000 0.338141
#
# Coordination Sequence:
#
# PCOD9174489 Si02
#       5
#     8   8   8   8   8
#     4  11  21  34  50  76 110 142 168 205 255 310
#     4  10  18  31  57  82 100 126 172 224 259 294
#     4  10  19  34  54  80 104 133 171 214 258 302
#     4   9  17  33  55  75  99 132 174 216 254 296
#     4  10  18  33  54  77 102 133 177 216 250 295
#
# _framework density 19.221990999999999
#
# number of rings (size 3 to 8) (size 9 to 14) (size 15 to 20)
#    0.000    2.000    4.000    1.800    0.000    1.600 
#    0.000    1.000    0.000    2.400    0.000    4.200 
#    0.000    0.000    0.000    0.000    0.000    0.000 
#
# Total GULP energy -111612.250471 kJ/mol
# GULP energy per Si atom -5580.612524 kJ/mol
# Density = 1.917824 g / cm^3
# Si number density = 19.221991 Si / 1000 Ang^3
#
#
#
# Elastic Constant Matrix: (Units=GPa)
#
#
# Indices 1 2 3 4 5 6 
#
# 1 38.2755 -11.9239 14.5091 0.0000 0.1326 0.0000
# 2 -11.9239 33.7377 -11.6452 0.0000 -3.2882 0.0000
# 3 14.5091 -11.6452 47.2457 0.0000 -11.2097 0.0000
# 4 0.0000 0.0000 0.0000 14.5052 0.0000 9.6953
# 5 0.1326 -3.2882 -11.2097 0.0000 25.9885 0.0000
# 6 0.0000 0.0000 0.0000 9.6953 0.0000 14.9058
#
#
#
# Elastic Compliance Matrix: (Units=1/GPa)
#
#
# Indices 1 2 3 4 5 6 
#
# 1 0.031855 0.008068 -0.008456 0.000000 -0.002789 0.000000
# 2 0.008068 0.036176 0.008372 0.000000 0.008147 0.000000
# 3 -0.008456 0.008372 0.029062 0.000000 0.013638 0.000000
# 4 0.000000 0.000000 0.000000 0.121967 0.000000 -0.079332
# 5 -0.002789 0.008147 0.013638 0.000000 0.045406 0.000000
# 6 0.000000 0.000000 0.000000 -0.079332 0.000000 0.118688
#
#
# Mechanical properties :
#
#
# Convention : Reuss Voigt Hill
#
# Bulk Modulus (GPa) = 8.84478 11.23764 10.04121
# Shear Modulus (GPa) = 12.34959 19.63449 15.99204
#
# Velocity S-wave (km/s) = 2.53745 3.19950 2.88751
# Velocity P-wave (km/s) = 3.63267 4.41678 4.04377
#
# Compressibility (1/GPa) = 0.11306109
#
# Stress axis : x y z
#
# Youngs Moduli (GPa) = 31.39259 27.64282 34.40926
#
# Poissons Ratio (x) = -0.22302 0.29095
# Poissons Ratio (y) = -0.25327 -0.28808
# Poissons Ratio (z) = 0.26544 -0.23143
#
# Static dielectric constant tensor:
#      x y z
#    x 1.661250 0.000000 0.016470 
#    y 0.000000 1.696600 0.000000 
#    z 0.016470 0.000000 1.666630 
# 
# From -- ./inp_files/58943.got.cif
#   From: 2010.05.17/outbox.cif.g08.bks.cpg/sg12_30_cif.got.tgz:58943.got - 2010.06.03 13:09:07.
