data_PCOD9174637
_publ_section_title
;
Structure prediction by ZEFSAII (Michael W. Deem and Ramdas Pophale) SiO2 
 PCOD9174637
Probable space group: C 2/M
;
_chemical_formula_sum "Si O2"
_cell_formula_units_Z 36
_cell_length_a 5.605018
_cell_length_b 28.586712
_cell_length_c 9.302390
_cell_angle_alpha 90.000000
_cell_angle_beta 97.681858
_cell_angle_gamma 90.000000
_cell_volume 1477.136479
_symmetry_space_group_name_H-M "C 2/M"
_symmetry_group_IT_number 12
_symmetry_cell_setting 'monoclinic'
loop_
_space_group_symop_operation_xyz
x,y,z
-x,y,-z
-x,-y,-z
x,-y,z
1/2+x,1/2+y,z
1/2-x,1/2+y,-z
1/2-x,1/2-y,-z
1/2+x,1/2-y,z
loop_
_atom_site_type_symbol
_atom_site_label
_atom_site_fract_x
_atom_site_fract_y
_atom_site_fract_z
Si Si1 0.271175 0.500000 0.089889
Si Si2 0.932044 0.734078 0.335944
Si Si3 0.171010 0.625340 0.697876
Si Si4 0.747204 0.665525 0.988593
Si Si5 0.179015 0.094297 0.724718
O O1 0.299808 0.545949 0.189358
O O2 0.500000 0.500000 0.000000
O O3 0.000000 0.500000 0.000000
O O4 0.683325 0.759035 0.271648
O O5 0.862680 0.679744 0.342933
O O6 0.000000 0.753159 0.500000
O O7 0.218971 0.628305 0.876174
O O8 0.407528 0.602288 0.648968
O O9 0.918525 0.600051 0.649631
O O10 0.500000 0.691763 0.000000
O O11 0.709664 0.636869 0.840663
O O12 0.000000 0.691268 0.000000
#
# Coordination Sequence:
#
# PCOD9174637 Si02
#       5
#     4   8   8   8   8
#     4  12  20  30  48  78 113 144 181 216 248 278
#     4  10  21  37  57  80 100 121 163 224 275 314
#     4  10  18  32  51  71 100 136 167 204 259 309
#     4   8  14  25  41  62  90 126 157 185 225 277
#     4  10  19  30  48  74 105 141 172 205 243 294
#
# _framework density 24.371478
#
# number of rings (size 3 to 8) (size 9 to 14) (size 15 to 20)
#    0.000    2.222    0.000    6.667    0.000    0.000 
#    0.000    0.000    0.000   36.000    0.000    4.667 
#    0.000    0.000    0.000    0.000    0.000    0.000 
#
# Total GULP energy -100519.499749 kJ/mol
# GULP energy per Si atom -5584.416653 kJ/mol
# Density = 2.431601 g / cm^3
# Si number density = 24.371478 Si / 1000 Ang^3
#
#
#
# Elastic Constant Matrix: (Units=GPa)
#
#
# Indices 1 2 3 4 5 6 
#
# 1 358.1998 84.1337 45.6305 0.0000 46.7996 0.0000
# 2 84.1337 138.4564 10.3397 0.0000 15.5073 0.0000
# 3 45.6305 10.3397 72.7010 0.0000 10.8227 0.0000
# 4 0.0000 0.0000 0.0000 -8.9584 0.0000 13.8325
# 5 46.7996 15.5073 10.8227 0.0000 38.4903 0.0000
# 6 0.0000 0.0000 0.0000 13.8325 0.0000 38.2021
#
#
#
# Elastic Compliance Matrix: (Units=1/GPa)
#
#
# Indices 1 2 3 4 5 6 
#
# 1 0.003899 -0.001850 -0.001659 0.000000 -0.003528 0.000000
# 2 -0.001850 0.008471 0.000135 0.000000 -0.001202 0.000000
# 3 -0.001659 0.000135 0.015117 0.000000 -0.002289 0.000000
# 4 0.000000 0.000000 0.000000 -0.071597 0.000000 0.025925
# 5 -0.003528 -0.001202 -0.002289 0.000000 0.031398 0.000000
# 6 0.000000 0.000000 0.000000 0.025925 0.000000 0.016790
#
#
# Mechanical properties :
#
#
# Convention : Reuss Voigt Hill
#
# Bulk Modulus (GPa) = 48.21472 94.39612 71.30542
# Shear Modulus (GPa) = 281.88431 42.16367 162.02399
#
# Velocity S-wave (km/s) = 10.76627 4.16389 8.16243
# Velocity P-wave (km/s) = 13.20517 7.86979 10.86991
#
# Compressibility (1/GPa) = 0.02074056
#
# Stress axis : x y z
#
# Youngs Moduli (GPa) = 256.50731 118.04857 66.14893
#
# Poissons Ratio (x) = 0.21838 0.10971
# Poissons Ratio (y) = 0.47451 -0.00894
# Poissons Ratio (z) = 0.42542 -0.01596
#
# Static dielectric constant tensor:
#      x y z
#    x 2.006710 0.000000 -0.019480 
#    y 0.000000 1.831510 0.000000 
#    z -0.019480 0.000000 2.004820 
# 
# From -- ./inp_files/114967.got.cif
#   From: 2010.05.17/outbox.cif.g08.bks.cpg/sg12_58_cif.got.tgz:114967.got - 2010.06.03 13:09:07.
