data_PCOD9174244
_publ_section_title
;
Structure prediction by ZEFSAII (Michael W. Deem and Ramdas Pophale) SiO2 
 PCOD9174244
Probable space group: C 2/M
;
_chemical_formula_sum "Si O2"
_cell_formula_units_Z 56
_cell_length_a 17.093508
_cell_length_b 17.479232
_cell_length_c 28.438402
_cell_angle_alpha 90.000000
_cell_angle_beta 23.804901
_cell_angle_gamma 90.000000
_cell_volume 3429.535029
_symmetry_space_group_name_H-M "C 2/M"
_symmetry_group_IT_number 12
_symmetry_cell_setting 'monoclinic'
loop_
_space_group_symop_operation_xyz
x,y,z
-x,y,-z
-x,-y,-z
x,-y,z
1/2+x,1/2+y,z
1/2-x,1/2+y,-z
1/2-x,1/2-y,-z
1/2+x,1/2-y,z
loop_
_atom_site_type_symbol
_atom_site_label
_atom_site_fract_x
_atom_site_fract_y
_atom_site_fract_z
Si Si1 0.030226 0.409156 0.104483
Si Si2 0.636913 0.587826 0.488381
Si Si3 0.115148 0.091001 0.148821
Si Si4 0.716555 0.167868 0.392381
Si Si5 0.242513 0.340440 0.669410
Si Si6 0.798935 0.910505 0.791826
Si Si7 0.313488 0.332990 0.447771
O O1 0.033920 0.500000 0.115448
O O2 0.931534 0.359782 0.199702
O O3 0.892125 0.404334 0.134366
O O4 0.242001 0.382505 0.971106
O O5 0.576037 0.500000 0.523053
O O6 0.764964 0.605179 0.372239
O O7 0.442887 0.637972 0.586059
O O8 0.740806 0.610761 0.479544
O O9 0.214456 0.105458 0.145259
O O10 0.899235 0.123902 0.269765
O O11 0.102782 0.000000 0.150993
O O12 0.500000 0.141222 0.500000
O O13 0.741221 0.254872 0.359904
O O14 0.732722 0.159190 0.439771
O O15 0.959496 0.852586 0.683786
O O16 0.866077 0.000000 0.750474
O O17 0.250000 0.250000 0.500000
#
# Coordination Sequence:
#
# PCOD9174244 Si02
#       7
#     8   8   8   8   8   8   8
#     4  10  18  31  53  81 109 137 173 225 281 325
#     4  11  20  33  54  83 110 140 179 223 271 325
#     4   9  20  35  52  75 105 143 187 227 263 316
#     4  11  22  37  53  76 111 150 184 219 269 315
#     4  11  19  32  52  82 114 141 168 218 279 333
#     4   9  17  30  51  77 105 134 174 222 273 320
#     4  11  19  32  50  75 109 146 175 215 262 323
#
# _framework density 16.328744
#
# number of rings (size 3 to 8) (size 9 to 14) (size 15 to 20)
#    0.000    1.714    4.286    2.571    0.000    3.143 
#    0.000    0.000    0.000    0.000    0.000    1.000 
#    0.000    3.429    0.000    0.000    0.000    0.000 
#
# Total GULP energy -155951.092554 kJ/mol
# GULP energy per Si atom -5569.681877 kJ/mol
# Density = 1.629158 g / cm^3
# Si number density = 16.328744 Si / 1000 Ang^3
#
#
#
# Elastic Constant Matrix: (Units=GPa)
#
#
# Indices 1 2 3 4 5 6 
#
# 1 86.6958 23.2703 55.8754 -0.0068 11.9409 0.0013
# 2 23.2703 30.1846 20.1523 0.0068 8.8773 0.0030
# 3 55.8754 20.1523 119.8951 0.0331 19.3861 0.0180
# 4 -0.0068 0.0068 0.0331 22.2282 -0.0059 3.1203
# 5 11.9409 8.8773 19.3861 -0.0059 24.0380 -0.0056
# 6 0.0013 0.0030 0.0180 3.1203 -0.0056 12.1641
#
#
#
# Elastic Compliance Matrix: (Units=1/GPa)
#
#
# Indices 1 2 3 4 5 6 
#
# 1 0.018703 -0.009687 -0.007089 0.000018 0.000004 0.000006
# 2 -0.009687 0.044563 -0.001257 -0.000016 -0.010632 -0.000009
# 3 -0.007089 -0.001257 0.012892 -0.000020 -0.006412 -0.000016
# 4 0.000018 -0.000016 -0.000020 0.046668 0.000022 -0.011971
# 5 0.000004 -0.010632 -0.006412 0.000022 0.050697 0.000030
# 6 0.000006 -0.000009 -0.000016 -0.011971 0.000030 0.085280
#
#
# Mechanical properties :
#
#
# Convention : Reuss Voigt Hill
#
# Bulk Modulus (GPa) = 24.94160 48.37459 36.65810
# Shear Modulus (GPa) = 16.22151 20.85120 18.53635
#
# Velocity S-wave (km/s) = 3.15530 3.57734 3.37292
# Velocity P-wave (km/s) = 5.34625 6.83761 6.13739
#
# Compressibility (1/GPa) = 0.04009366
#
# Stress axis : x y z
#
# Youngs Moduli (GPa) = 53.46800 22.43993 77.56675
#
# Poissons Ratio (x) = 0.21738 0.54983
# Poissons Ratio (y) = 0.51795 0.09748
# Poissons Ratio (z) = 0.37901 0.02820
#
# Static dielectric constant tensor:
#      x y z
#    x 1.572790 0.000000 0.021620 
#    y 0.000000 1.548060 0.000020 
#    z 0.021620 0.000020 1.569170 
# 
# From -- ./inp_files/379643.got.cif
#   From: 2010.05.17/outbox.cif.g08.bks.cpg/sg12_190_cif.got.tgz:379643.got - 2010.06.03 13:09:07.
