data_PCOD9174657
_publ_section_title
;
Structure prediction by ZEFSAII (Michael W. Deem and Ramdas Pophale) SiO2 
 PCOD9174657
Probable space group: C 2/M
;
_chemical_formula_sum "Si O2"
_cell_formula_units_Z 64
_cell_length_a 21.318506
_cell_length_b 13.645610
_cell_length_c 27.616895
_cell_angle_alpha 90.000000
_cell_angle_beta 27.396686
_cell_angle_gamma 90.000000
_cell_volume 3696.770727
_symmetry_space_group_name_H-M "C 2/M"
_symmetry_group_IT_number 12
_symmetry_cell_setting 'monoclinic'
loop_
_space_group_symop_operation_xyz
x,y,z
-x,y,-z
-x,-y,-z
x,-y,z
1/2+x,1/2+y,z
1/2-x,1/2+y,-z
1/2-x,1/2-y,-z
1/2+x,1/2-y,z
loop_
_atom_site_type_symbol
_atom_site_label
_atom_site_fract_x
_atom_site_fract_y
_atom_site_fract_z
Si Si1 0.502745 0.259156 0.649998
Si Si2 0.552931 0.731969 0.416295
Si Si3 0.981213 0.384730 0.271028
Si Si4 0.674846 0.113737 0.779946
Si Si5 0.618800 0.803121 0.026393
Si Si6 0.321120 0.385658 0.530175
Si Si7 0.756904 0.885911 0.021976
Si Si8 0.261782 0.886324 0.150771
O O1 0.456330 0.214944 0.629507
O O2 0.512673 0.181347 0.685427
O O3 0.639633 0.319014 0.543045
O O4 0.387852 0.339341 0.741809
O O5 0.500000 0.787292 0.500000
O O6 0.699813 0.682582 0.320978
O O7 0.560688 0.646169 0.513754
O O8 0.984246 0.500000 0.281368
O O9 0.833667 0.366270 0.347754
O O10 0.112675 0.365855 0.147917
O O11 0.675129 0.116322 0.838648
O O12 0.694595 0.000000 0.751653
O O13 0.530182 0.153728 0.861737
O O14 0.635441 0.689431 0.029063
O O15 0.657127 0.825189 0.944795
O O16 0.727262 0.858557 0.986623
O O17 0.334485 0.500000 0.510079
O O18 0.790940 0.000000 0.004014
O O19 0.257289 0.000000 0.138831
#
# Coordination Sequence:
#
# PCOD9174657 Si02
#       8
#     8   8   8   8   8   8   8   8
#     4   9  18  32  49  72 104 134 167 205 250 301
#     4   9  20  32  49  76 109 136 159 201 256 308
#     4  10  19  34  54  74  98 134 174 213 252 297
#     4  10  20  32  51  79 106 135 171 206 251 313
#     4  11  21  34  54  75 103 138 169 210 257 301
#     4   9  18  30  50  77 106 133 162 202 253 309
#     4  10  22  37  52  76 104 134 173 215 253 297
#     4  10  18  32  51  74 106 136 167 208 257 308
#
# _framework density 17.312407
#
# number of rings (size 3 to 8) (size 9 to 14) (size 15 to 20)
#    0.750    1.500    1.250    2.625    1.750    2.000 
#    0.000    0.000    0.000    4.875    0.000    0.000 
#    0.000    0.000    0.000    0.000    0.000    0.000 
#
# Total GULP energy -178218.508188 kJ/mol
# GULP energy per Si atom -5569.328381 kJ/mol
# Density = 1.727300 g / cm^3
# Si number density = 17.312407 Si / 1000 Ang^3
#
#
#
# Elastic Constant Matrix: (Units=GPa)
#
#
# Indices 1 2 3 4 5 6 
#
# 1 36.5508 12.4801 9.2385 0.0004 -1.6459 -0.0001
# 2 12.4801 37.2017 0.9670 0.0004 -2.3537 -0.0004
# 3 9.2385 0.9670 28.5708 0.0010 0.1226 -0.0009
# 4 0.0004 0.0004 0.0010 14.8785 -0.0001 -3.2247
# 5 -1.6459 -2.3537 0.1226 -0.0001 28.9332 0.0002
# 6 -0.0001 -0.0004 -0.0009 -3.2247 0.0002 21.5759
#
#
#
# Elastic Compliance Matrix: (Units=1/GPa)
#
#
# Indices 1 2 3 4 5 6 
#
# 1 0.033839 -0.011009 -0.010574 0.000000 0.001074 0.000000
# 2 -0.011009 0.030626 0.002515 -0.000001 0.001854 0.000000
# 3 -0.010574 0.002515 0.038337 -0.000002 -0.000559 0.000001
# 4 0.000000 -0.000001 -0.000002 0.069461 0.000000 0.010382
# 5 0.001074 0.001854 -0.000559 0.000000 0.034777 0.000000
# 6 0.000000 0.000000 0.000001 0.010382 0.000000 0.047900
#
#
# Mechanical properties :
#
#
# Convention : Reuss Voigt Hill
#
# Bulk Modulus (GPa) = 15.46403 16.41053 15.93728
# Shear Modulus (GPa) = 15.89162 18.38670 17.13916
#
# Velocity S-wave (km/s) = 3.03303 3.26245 3.14983
# Velocity P-wave (km/s) = 4.60623 4.86735 4.73859
#
# Compressibility (1/GPa) = 0.06466620
#
# Stress axis : x y z
#
# Youngs Moduli (GPa) = 29.55143 32.65229 26.08427
#
# Poissons Ratio (x) = 0.35948 0.27582
# Poissons Ratio (y) = 0.32534 -0.06561
# Poissons Ratio (z) = 0.31248 -0.08213
#
# Static dielectric constant tensor:
#      x y z
#    x 1.622490 0.000000 0.025390 
#    y 0.000000 1.552790 0.000000 
#    z 0.025390 0.000000 1.613460 
# 
# From -- ./inp_files/366037.got.cif
#   From: 2010.05.17/outbox.cif.g08.bks.cpg/sg12_184_cif.got.tgz:366037.got - 2010.06.03 13:09:07.
