data_PCOD9174100
_publ_section_title
;
Structure prediction by ZEFSAII (Michael W. Deem and Ramdas Pophale) SiO2 
 PCOD9174100
Probable space group: C 2/M
;
_chemical_formula_sum "Si O2"
_cell_formula_units_Z 64
_cell_length_a 20.818336
_cell_length_b 9.032430
_cell_length_c 24.576913
_cell_angle_alpha 90.000000
_cell_angle_beta 53.379010
_cell_angle_gamma 90.000000
_cell_volume 3709.168503
_symmetry_space_group_name_H-M "C 2/M"
_symmetry_group_IT_number 12
_symmetry_cell_setting 'monoclinic'
loop_
_space_group_symop_operation_xyz
x,y,z
-x,y,-z
-x,-y,-z
x,-y,z
1/2+x,1/2+y,z
1/2-x,1/2+y,-z
1/2-x,1/2-y,-z
1/2+x,1/2-y,z
loop_
_atom_site_type_symbol
_atom_site_label
_atom_site_fract_x
_atom_site_fract_y
_atom_site_fract_z
Si Si1 0.549021 0.323544 0.852555
Si Si2 0.671986 0.822833 0.265512
Si Si3 0.431568 0.829436 0.987472
Si Si4 0.182038 0.322087 0.862935
Si Si5 0.401438 0.677158 0.293661
Si Si6 0.784820 0.677291 0.631608
Si Si7 0.984368 0.323088 0.354740
Si Si8 0.927740 0.823168 0.494795
O O1 0.557571 0.500000 0.854149
O O2 0.621109 0.246615 0.849368
O O3 0.557590 0.286330 0.784810
O O4 0.466823 0.268772 0.921467
O O5 0.730879 0.738856 0.195001
O O6 0.696730 0.783997 0.314923
O O7 0.578928 0.787136 0.304664
O O8 0.682942 0.000000 0.253876
O O9 0.352509 0.780822 0.059994
O O10 0.423202 0.000000 0.973919
O O11 0.500000 0.827227 0.000000
O O12 0.178704 0.500000 0.860949
O O13 0.408985 0.500000 0.298278
O O14 0.307134 0.710936 0.335537
O O15 0.440775 0.762462 0.323479
O O16 0.796516 0.500000 0.620441
O O17 0.846625 0.760074 0.561546
O O18 0.976773 0.500000 0.362477
O O19 0.947357 0.249563 0.427165
O O20 0.000000 0.787188 0.500000
O O21 0.923262 0.000000 0.491608
#
# Coordination Sequence:
#
# PCOD9174100 Si02
#       8
#     8   8   8   8   8   8   8   8
#     4  10  18  31  52  78 109 148 186 225 274 323
#     4  10  20  36  57  82 110 141 185 230 273 325
#     4   8  16  29  44  73 112 145 179 224 276 324
#     4  10  19  30  50  80 113 145 181 228 277 323
#     4  10  22  39  57  81 114 147 182 227 275 326
#     4  10  20  38  61  82 110 146 182 228 276 323
#     4  11  24  40  60  83 110 147 183 224 277 331
#     4  11  23  38  59  87 114 142 181 228 274 326
#
# _framework density 17.254542000000001
#
# number of rings (size 3 to 8) (size 9 to 14) (size 15 to 20)
#    0.000    2.000    2.500    2.250    0.000    6.750 
#    0.000    0.000    0.000    0.750    0.000    0.000 
#    0.000    0.000    0.000    0.000    0.000    0.000 
#
# Total GULP energy -178606.429901 kJ/mol
# GULP energy per Si atom -5581.450934 kJ/mol
# Density = 1.721527 g / cm^3
# Si number density = 17.254542 Si / 1000 Ang^3
#
#
#
# Elastic Constant Matrix: (Units=GPa)
#
#
# Indices 1 2 3 4 5 6 
#
# 1 98.1495 47.4837 68.1517 -0.0001 1.0394 0.0000
# 2 47.4837 52.8730 73.7390 -0.0002 0.1263 -0.0002
# 3 68.1517 73.7390 183.5391 0.0000 -9.0025 0.0000
# 4 -0.0001 -0.0002 0.0000 30.5152 0.0000 -3.1733
# 5 1.0394 0.1263 -9.0025 0.0000 19.4746 0.0000
# 6 0.0000 -0.0002 0.0000 -3.1733 0.0000 21.3071
#
#
#
# Elastic Compliance Matrix: (Units=1/GPa)
#
#
# Indices 1 2 3 4 5 6 
#
# 1 0.018054 -0.015432 -0.000559 0.000000 -0.001122 0.000000
# 2 -0.015432 0.057612 -0.017798 0.000000 -0.007777 0.000001
# 3 -0.000559 -0.017798 0.013111 0.000000 0.006206 0.000000
# 4 0.000000 0.000000 0.000000 0.033286 0.000000 0.004957
# 5 -0.001122 -0.007777 0.006206 0.000000 0.054328 0.000000
# 6 0.000000 0.000001 0.000000 0.004957 0.000000 0.047671
#
#
# Mechanical properties :
#
#
# Convention : Reuss Voigt Hill
#
# Bulk Modulus (GPa) = 47.16920 79.25670 63.21295
# Shear Modulus (GPa) = 16.73890 23.93853 20.33871
#
# Velocity S-wave (km/s) = 3.11805 3.72879 3.43701
# Velocity P-wave (km/s) = 6.35292 8.03567 7.24333
#
# Compressibility (1/GPa) = 0.02120028
#
# Stress axis : x y z
#
# Youngs Moduli (GPa) = 55.38850 17.35758 76.27259
#
# Poissons Ratio (x) = 0.26785 0.04265
# Poissons Ratio (y) = 0.85473 1.35747
# Poissons Ratio (z) = 0.03097 0.30892
#
# Static dielectric constant tensor:
#      x y z
#    x 1.559830 0.000000 -0.012790 
#    y 0.000000 1.574850 0.000000 
#    z -0.012790 0.000000 1.586970 
# 
# From -- ./inp_files/346091.got.cif
#   From: 2010.05.17/outbox.cif.g08.bks.cpg/sg12_174_cif.got.tgz:346091.got - 2010.06.03 13:09:07.
