data_PCOD9174999
_publ_section_title
;
Structure prediction by ZEFSAII (Michael W. Deem and Ramdas Pophale) SiO2 
 PCOD9174999
Probable space group: C 2/M
;
_chemical_formula_sum "Si O2"
_cell_formula_units_Z 32
_cell_length_a 26.004221
_cell_length_b 15.237299
_cell_length_c 12.851931
_cell_angle_alpha 90.000000
_cell_angle_beta 15.715097
_cell_angle_gamma 90.000000
_cell_volume 1379.290150
_symmetry_space_group_name_H-M "C 2/M"
_symmetry_group_IT_number 12
_symmetry_cell_setting 'monoclinic'
loop_
_space_group_symop_operation_xyz
x,y,z
-x,y,-z
-x,-y,-z
x,-y,z
1/2+x,1/2+y,z
1/2-x,1/2+y,-z
1/2-x,1/2-y,-z
1/2+x,1/2-y,z
loop_
_atom_site_type_symbol
_atom_site_label
_atom_site_fract_x
_atom_site_fract_y
_atom_site_fract_z
Si Si1 0.182909 0.825524 0.705831
Si Si2 0.376052 0.500000 0.417630
Si Si3 0.158855 0.683366 0.260467
Si Si4 0.278607 0.000000 0.509127
Si Si5 0.003558 0.831378 0.271177
O O1 0.250000 0.750000 0.500000
O O2 0.341870 0.900951 0.409341
O O3 0.100275 0.796911 0.976707
O O4 0.000000 0.864405 0.000000
O O5 0.243557 0.500000 0.573723
O O6 0.365071 0.410529 0.506228
O O7 0.591248 0.500000 0.950818
O O8 0.000000 0.635732 0.500000
O O9 0.077316 0.748965 0.507920
O O10 0.250000 0.750000 0.000000
O O11 0.327097 0.630007 0.986717
#
# Coordination Sequence:
#
# PCOD9174999 Si02
#       5
#     8   4   8   4   8
#     4  11  19  31  53  83 109 141 175 204 255 322
#     4   9  16  30  52  76 104 137 171 203 256 312
#     4   9  19  35  52  73 101 131 175 226 258 294
#     4   9  16  34  47  74 120 140 164 218 241 304
#     4  10  18  32  55  77 100 138 172 210 263 309
#
# _framework density 23.200340000000001
#
# number of rings (size 3 to 8) (size 9 to 14) (size 15 to 20)
#    0.000    2.250    5.000    1.500    0.000    0.000 
#    0.000    6.875    0.000    6.000    0.000    0.000 
#    0.000    0.000    0.000    0.000    0.000    0.000 
#
# Total GULP energy -89075.962486 kJ/mol
# GULP energy per Si atom -5567.247655 kJ/mol
# Density = 2.314754 g / cm^3
# Si number density = 23.200340 Si / 1000 Ang^3
#
#
#
# Elastic Constant Matrix: (Units=GPa)
#
#
# Indices 1 2 3 4 5 6 
#
# 1 118.9398 6.9330 19.0946 -0.0013 17.4575 0.0006
# 2 6.9330 95.8395 10.3205 -0.0009 29.0449 0.0008
# 3 19.0946 10.3205 33.7002 -0.0031 22.0985 0.0011
# 4 -0.0013 -0.0009 -0.0031 10.2174 0.0013 -6.0389
# 5 17.4575 29.0449 22.0985 0.0013 48.4357 -0.0006
# 6 0.0006 0.0008 0.0011 -6.0389 -0.0006 17.5134
#
#
#
# Elastic Compliance Matrix: (Units=1/GPa)
#
#
# Indices 1 2 3 4 5 6 
#
# 1 0.009316 0.000257 -0.004358 0.000000 -0.001523 0.000000
# 2 0.000257 0.012818 0.001470 0.000003 -0.008450 0.000000
# 3 -0.004358 0.001470 0.044577 0.000017 -0.019648 0.000002
# 4 0.000000 0.000003 0.000017 0.122924 -0.000012 0.042387
# 5 -0.001523 -0.008450 -0.019648 -0.000012 0.035226 -0.000001
# 6 0.000000 0.000000 0.000002 0.042387 -0.000001 0.071715
#
#
# Mechanical properties :
#
#
# Convention : Reuss Voigt Hill
#
# Bulk Modulus (GPa) = 16.27396 35.68619 25.98008
# Shear Modulus (GPa) = 15.51246 29.37540 22.44393
#
# Velocity S-wave (km/s) = 2.58859 3.56218 3.11367
# Velocity P-wave (km/s) = 3.99552 5.68630 4.91417
#
# Compressibility (1/GPa) = 0.06144785
#
# Stress axis : x y z
#
# Youngs Moduli (GPa) = 107.34348 78.01551 22.43318
#
# Poissons Ratio (x) = -0.02006 0.09777
# Poissons Ratio (y) = -0.02760 -0.03297
# Poissons Ratio (z) = 0.46782 -0.11465
#
# Static dielectric constant tensor:
#      x y z
#    x 1.924250 0.000000 -0.132400 
#    y 0.000000 1.947150 0.000000 
#    z -0.132400 0.000000 2.106860 
# 
# From -- ./inp_files/117777.got.cif
#   From: 2010.05.17/outbox.cif.g08.bks.cpg/sg12_59_cif.got.tgz:117777.got - 2010.06.03 13:09:07.
