data_PCOD9174998
_publ_section_title
;
Structure prediction by ZEFSAII (Michael W. Deem and Ramdas Pophale) SiO2 
 PCOD9174998
Probable space group: C 2/M
;
_chemical_formula_sum "Si O2"
_cell_formula_units_Z 56
_cell_length_a 20.677138
_cell_length_b 7.424372
_cell_length_c 20.029052
_cell_angle_alpha 90.000000
_cell_angle_beta 57.877097
_cell_angle_gamma 90.000000
_cell_volume 2604.039192
_symmetry_space_group_name_H-M "C 2/M"
_symmetry_group_IT_number 12
_symmetry_cell_setting 'monoclinic'
loop_
_space_group_symop_operation_xyz
x,y,z
-x,y,-z
-x,-y,-z
x,-y,z
1/2+x,1/2+y,z
1/2-x,1/2+y,-z
1/2-x,1/2-y,-z
1/2+x,1/2-y,z
loop_
_atom_site_type_symbol
_atom_site_label
_atom_site_fract_x
_atom_site_fract_y
_atom_site_fract_z
Si Si1 0.834450 0.715739 0.982676
Si Si2 0.862121 0.720681 0.256287
Si Si3 0.201629 0.280130 0.852464
Si Si4 0.466912 0.787492 0.812871
Si Si5 0.414568 0.279682 0.563500
Si Si6 0.266108 0.715145 0.568523
Si Si7 0.126403 0.783446 0.264936
O O1 0.842481 0.500000 0.980156
O O2 0.901349 0.787165 0.898117
O O3 0.750000 0.750000 0.000000
O O4 0.837200 0.780722 0.057591
O O5 0.861403 0.500000 0.258021
O O6 0.836450 0.774947 0.196112
O O7 0.800812 0.781248 0.345343
O O8 0.947812 0.783692 0.224376
O O9 0.201143 0.500000 0.853179
O O10 0.289970 0.221276 0.803831
O O11 0.436570 0.766821 0.754550
O O12 0.472038 0.000000 0.824248
O O13 0.500000 0.220265 0.500000
O O14 0.415359 0.500000 0.562314
O O15 0.348760 0.219735 0.548518
O O16 0.391638 0.222235 0.650545
O O17 0.267442 0.500000 0.576082
O O18 0.250000 0.750000 0.500000
O O19 0.129425 0.000000 0.265411
#
# Coordination Sequence:
#
# PCOD9174998 Si02
#       7
#     8   8   8   8   8   8   8
#     4  10  19  31  50  77 103 129 166 210 253 295
#     4   9  18  34  52  72 103 137 168 203 249 302
#     4   9  16  30  53  74  94 130 174 207 240 291
#     4  10  21  33  49  77 108 134 162 206 259 303
#     4   9  18  32  52  78 101 127 171 216 247 286
#     4  10  20  35  54  75 102 134 166 206 254 300
#     4  10  18  32  55  76  98 134 174 208 243 294
#
# _framework density 21.505051000000002
#
# number of rings (size 3 to 8) (size 9 to 14) (size 15 to 20)
#    0.000    2.429    2.857    0.000    2.000    0.571 
#    0.000    3.571    0.000    3.429    0.000    2.000 
#    0.000    0.000    0.000    0.000    0.000    0.000 
#
# Total GULP energy -156408.200029 kJ/mol
# GULP energy per Si atom -5586.007144 kJ/mol
# Density = 2.145610 g / cm^3
# Si number density = 21.505051 Si / 1000 Ang^3
#
#
#
# Elastic Constant Matrix: (Units=GPa)
#
#
# Indices 1 2 3 4 5 6 
#
# 1 211.8247 0.1944 104.3896 0.0000 3.4523 -0.0005
# 2 0.1944 68.2952 4.5744 0.0012 -5.8660 -0.0005
# 3 104.3896 4.5744 158.8428 0.0001 12.6058 -0.0005
# 4 0.0000 0.0012 0.0001 -0.5943 -0.0004 3.7961
# 5 3.4523 -5.8660 12.6058 -0.0004 38.9418 0.0002
# 6 -0.0005 -0.0005 -0.0005 3.7961 0.0002 12.5486
#
#
#
# Elastic Compliance Matrix: (Units=1/GPa)
#
#
# Indices 1 2 3 4 5 6 
#
# 1 0.007022 0.000377 -0.004701 0.000000 0.000956 0.000000
# 2 0.000377 0.014914 -0.000875 0.000011 0.002497 -0.000003
# 3 -0.004701 -0.000875 0.009635 0.000001 -0.002834 0.000000
# 4 0.000000 0.000011 0.000001 -0.573832 -0.000005 0.173589
# 5 0.000956 0.002497 -0.002834 -0.000005 0.026888 0.000001
# 6 0.000000 -0.000003 0.000000 0.173589 0.000001 0.027178
#
#
# Mechanical properties :
#
#
# Convention : Reuss Voigt Hill
#
# Bulk Modulus (GPa) = 47.23231 73.03105 60.13168
# Shear Modulus (GPa) = -10.62162 32.16617 10.77228
#
# Velocity S-wave (km/s) = -2.22483 3.87169 2.24055
# Velocity P-wave (km/s) = 3.92571 7.34985 5.89201
#
# Compressibility (1/GPa) = 0.02117195
#
# Stress axis : x y z
#
# Youngs Moduli (GPa) = 142.41221 67.04967 103.78418
#
# Poissons Ratio (x) = -0.02528 0.48793
# Poissons Ratio (y) = -0.05370 0.09085
# Poissons Ratio (z) = 0.66954 0.05870
#
# Static dielectric constant tensor:
#      x y z
#    x 1.735630 0.000000 -0.009550 
#    y 0.000000 1.839900 0.000000 
#    z -0.009550 0.000000 1.755150 
# 
# From -- ./inp_files/276386.got.cif
#   From: 2010.05.17/outbox.cif.g08.bks.cpg/sg12_139_cif.got.tgz:276386.got - 2010.06.03 13:09:07.
