data_PCOD9174605
_publ_section_title
;
Structure prediction by ZEFSAII (Michael W. Deem and Ramdas Pophale) SiO2 
 PCOD9174605
Probable space group: C 2/M
;
_chemical_formula_sum "Si O2"
_cell_formula_units_Z 60
_cell_length_a 13.908702
_cell_length_b 12.482233
_cell_length_c 28.174689
_cell_angle_alpha 90.000000
_cell_angle_beta 48.748237
_cell_angle_gamma 90.000000
_cell_volume 3677.490970
_symmetry_space_group_name_H-M "C 2/M"
_symmetry_group_IT_number 12
_symmetry_cell_setting 'monoclinic'
loop_
_space_group_symop_operation_xyz
x,y,z
-x,y,-z
-x,-y,-z
x,-y,z
1/2+x,1/2+y,z
1/2-x,1/2+y,-z
1/2-x,1/2-y,-z
1/2+x,1/2-y,z
loop_
_atom_site_type_symbol
_atom_site_label
_atom_site_fract_x
_atom_site_fract_y
_atom_site_fract_z
Si Si1 0.500000 0.294405 0.000000
Si Si2 0.845288 0.371205 0.645272
Si Si3 0.878912 0.757358 0.889820
Si Si4 0.358814 0.624393 0.207612
Si Si5 0.647673 0.237756 0.458486
Si Si6 0.632173 0.873808 0.563839
Si Si7 0.736599 0.380057 0.866953
Si Si8 0.342352 0.876952 0.991120
O O1 0.399210 0.364049 0.062086
O O2 0.571491 0.212837 0.011792
O O3 0.849852 0.500000 0.637009
O O4 0.733964 0.347014 0.718864
O O5 0.823043 0.316409 0.601602
O O6 0.984797 0.339059 0.620807
O O7 0.821342 0.716671 0.859216
O O8 0.854468 0.655714 0.932351
O O9 0.021316 0.797509 0.836787
O O10 0.797180 0.851504 0.941796
O O11 0.400917 0.500000 0.200269
O O12 0.283912 0.628714 0.182332
O O13 0.500000 0.279119 0.500000
O O14 0.647939 0.154948 0.502761
O O15 0.758223 0.319170 0.439785
O O16 0.641151 0.000000 0.567613
O O17 0.785593 0.500000 0.861256
O O18 0.377603 0.000000 0.987865
#
# Coordination Sequence:
#
# PCOD9174605 Si02
#       8
#     4   8   8   8   8   8   8   8
#     4  10  18  32  50  72  94 126 156 200 256 306
#     4   9  18  32  51  72  97 134 172 205 241 288
#     4  10  20  33  49  72  97 126 160 206 256 305
#     4  10  20  35  52  71  97 130 169 208 249 298
#     4   9  17  30  50  78 106 136 166 202 247 284
#     4   9  17  30  50  78 107 133 168 207 242 286
#     4  10  20  33  51  73  96 124 160 204 252 304
#     4  10  19  31  48  72  97 123 159 203 257 312
#
# _framework density 16.315470999999999
#
# number of rings (size 3 to 8) (size 9 to 14) (size 15 to 20)
#    0.000    2.400    1.333    1.600    0.000    2.933 
#    0.000    0.000    0.000    0.800    0.000    0.000 
#    0.000    0.000    0.000    0.000    0.000    0.000 
#
# Total GULP energy -167044.125743 kJ/mol
# GULP energy per Si atom -5568.137525 kJ/mol
# Density = 1.627834 g / cm^3
# Si number density = 16.315471 Si / 1000 Ang^3
#
#
#
# Elastic Constant Matrix: (Units=GPa)
#
#
# Indices 1 2 3 4 5 6 
#
# 1 96.6933 29.8730 47.3228 0.0000 0.2284 0.0000
# 2 29.8730 57.2575 34.4314 0.0000 -3.7683 0.0000
# 3 47.3228 34.4314 89.8524 0.0000 -1.6108 0.0000
# 4 0.0000 0.0000 0.0000 11.2077 0.0000 1.0583
# 5 0.2284 -3.7683 -1.6108 0.0000 17.0444 0.0000
# 6 0.0000 0.0000 0.0000 1.0583 0.0000 17.9773
#
#
#
# Elastic Compliance Matrix: (Units=1/GPa)
#
#
# Indices 1 2 3 4 5 6 
#
# 1 0.014615 -0.004013 -0.006189 0.000000 -0.001668 0.000000
# 2 -0.004013 0.024101 -0.007037 0.000000 0.004717 0.000000
# 3 -0.006189 -0.007037 0.017088 0.000000 0.000142 0.000000
# 4 0.000000 0.000000 0.000000 0.089723 0.000000 -0.005282
# 5 -0.001668 0.004717 0.000142 0.000000 0.059749 0.000000
# 6 0.000000 0.000000 0.000000 -0.005282 0.000000 0.055937
#
#
# Mechanical properties :
#
#
# Convention : Reuss Voigt Hill
#
# Bulk Modulus (GPa) = 46.89371 51.89528 49.39450
# Shear Modulus (GPa) = 16.51252 18.05761 17.28507
#
# Velocity S-wave (km/s) = 3.18477 3.33044 3.25842
# Velocity P-wave (km/s) = 6.50599 6.83122 6.67059
#
# Compressibility (1/GPa) = 0.02132482
#
# Stress axis : x y z
#
# Youngs Moduli (GPa) = 68.42361 41.49220 58.51909
#
# Poissons Ratio (x) = 0.16650 0.36220
# Poissons Ratio (y) = 0.27457 0.41182
# Poissons Ratio (z) = 0.42350 0.29200
#
# Static dielectric constant tensor:
#      x y z
#    x 1.598760 0.000000 0.013050 
#    y 0.000000 1.522520 0.000000 
#    z 0.013050 0.000000 1.558690 
# 
# From -- ./inp_files/309486.got.cif
#   From: 2010.05.17/outbox.cif.g08.bks.cpg/sg12_155_cif.got.tgz:309486.got - 2010.06.03 13:09:07.
