data_PCOD9174970
_publ_section_title
;
Structure prediction by ZEFSAII (Michael W. Deem and Ramdas Pophale) SiO2 
 PCOD9174970
Probable space group: C 2/M
;
_chemical_formula_sum "Si O2"
_cell_formula_units_Z 48
_cell_length_a 21.023093
_cell_length_b 7.562689
_cell_length_c 13.559008
_cell_angle_alpha 90.000000
_cell_angle_beta 122.004506
_cell_angle_gamma 90.000000
_cell_volume 1828.099833
_symmetry_space_group_name_H-M "C 2/M"
_symmetry_group_IT_number 12
_symmetry_cell_setting 'monoclinic'
loop_
_space_group_symop_operation_xyz
x,y,z
-x,y,-z
-x,-y,-z
x,-y,z
1/2+x,1/2+y,z
1/2-x,1/2+y,-z
1/2-x,1/2-y,-z
1/2+x,1/2-y,z
loop_
_atom_site_type_symbol
_atom_site_label
_atom_site_fract_x
_atom_site_fract_y
_atom_site_fract_z
Si Si1 0.753024 0.789421 0.887277
Si Si2 0.776796 0.787059 0.411873
Si Si3 0.109187 0.801736 0.640640
Si Si4 0.005381 0.288791 0.731791
Si Si5 0.882116 0.284259 0.768946
Si Si6 0.076394 0.294251 0.992517
O O1 0.681401 0.708604 0.772932
O O2 0.833354 0.711103 0.926716
O O3 0.750881 0.000000 0.870111
O O4 0.750000 0.750000 0.000000
O O5 0.750000 0.750000 0.500000
O O6 0.853586 0.714061 0.426681
O O7 0.702600 0.718213 0.294257
O O8 0.779955 0.000000 0.403798
O O9 0.039763 0.747824 0.652918
O O10 0.090869 0.000000 0.596913
O O11 0.005768 0.500000 0.736311
O O12 0.922933 0.229420 0.700459
O O13 0.055827 0.221223 0.866666
O O14 0.879613 0.500000 0.767933
O O15 0.935941 0.227354 0.903880
O O16 0.054109 0.500000 0.970541
#
# Coordination Sequence:
#
# PCOD9174970 Si02
#       6
#     8   8   8   8   8   8
#     4  12  22  32  51  81 117 155 194 234 274 329
#     4  10  22  41  64  85 108 143 190 243 293 342
#     4  11  22  38  58  82 115 150 187 237 291 338
#     4  10  20  33  57  88 118 155 192 225 274 339
#     4   9  18  36  58  84 117 153 191 233 280 335
#     4  10  18  32  54  83 118 154 192 228 272 332
#
# _framework density 26.256771000000001
#
# number of rings (size 3 to 8) (size 9 to 14) (size 15 to 20)
#    0.000    1.667    3.333    2.500    0.000    3.333 
#    0.000    2.500    0.000    7.000    0.000    0.000 
#    0.000    0.000    0.000    0.000    0.000    0.000 
#
# Total GULP energy -133895.431341 kJ/mol
# GULP energy per Si atom -5578.976306 kJ/mol
# Density = 2.619701 g / cm^3
# Si number density = 26.256771 Si / 1000 Ang^3
#
#
#
# Elastic Constant Matrix: (Units=GPa)
#
#
# Indices 1 2 3 4 5 6 
#
# 1 178.7827 22.7594 23.2154 0.0000 -53.3873 0.0000
# 2 22.7594 86.3878 -6.2619 0.0000 -0.8526 0.0000
# 3 23.2154 -6.2619 74.9026 0.0000 -35.5881 0.0000
# 4 0.0000 0.0000 0.0000 13.0242 0.0000 -9.1320
# 5 -53.3873 -0.8526 -35.5881 0.0000 57.0321 0.0000
# 6 0.0000 0.0000 0.0000 -9.1320 0.0000 18.9307
#
#
#
# Elastic Compliance Matrix: (Units=1/GPa)
#
#
# Indices 1 2 3 4 5 6 
#
# 1 0.008205 -0.001983 0.001317 0.000000 0.008472 0.000000
# 2 -0.001983 0.012175 0.001190 0.000000 -0.000931 0.000000
# 3 0.001317 0.001190 0.019383 0.000000 0.013345 0.000000
# 4 0.000000 0.000000 0.000000 0.116023 0.000000 0.055969
# 5 0.008472 -0.000931 0.013345 0.000000 0.033778 0.000000
# 6 0.000000 0.000000 0.000000 0.055969 0.000000 0.079823
#
#
# Mechanical properties :
#
#
# Convention : Reuss Voigt Hill
#
# Bulk Modulus (GPa) = 24.50355 46.61100 35.55727
# Shear Modulus (GPa) = 17.73408 37.82141 27.77775
#
# Velocity S-wave (km/s) = 2.60168 3.79944 3.25611
# Velocity P-wave (km/s) = 4.28690 6.08590 5.26382
#
# Compressibility (1/GPa) = 0.04081041
#
# Stress axis : x y z
#
# Youngs Moduli (GPa) = 121.88004 82.13504 51.59253
#
# Poissons Ratio (x) = 0.16284 -0.06793
# Poissons Ratio (y) = 0.24163 -0.06138
# Poissons Ratio (z) = -0.16048 -0.09772
#
# Static dielectric constant tensor:
#      x y z
#    x 2.334770 0.000000 -0.171780 
#    y 0.000000 1.958350 0.000000 
#    z -0.171780 0.000000 2.274940 
# 
# From -- ./inp_files/230384.got.cif
#   From: 2010.05.17/outbox.cif.g08.bks.cpg/sg12_116_cif.got.tgz:230384.got - 2010.06.03 13:09:07.
