data_PCOD9174002
_publ_section_title
;
Structure prediction by ZEFSAII (Michael W. Deem and Ramdas Pophale) SiO2 
 PCOD9174002
Probable space group: C 2/M
;
_chemical_formula_sum "Si O2"
_cell_formula_units_Z 64
_cell_length_a 25.921373
_cell_length_b 8.312666
_cell_length_c 20.094883
_cell_angle_alpha 90.000000
_cell_angle_beta 62.865433
_cell_angle_gamma 90.000000
_cell_volume 3853.394494
_symmetry_space_group_name_H-M "C 2/M"
_symmetry_group_IT_number 12
_symmetry_cell_setting 'monoclinic'
loop_
_space_group_symop_operation_xyz
x,y,z
-x,y,-z
-x,-y,-z
x,-y,z
1/2+x,1/2+y,z
1/2-x,1/2+y,-z
1/2-x,1/2-y,-z
1/2+x,1/2-y,z
loop_
_atom_site_type_symbol
_atom_site_label
_atom_site_fract_x
_atom_site_fract_y
_atom_site_fract_z
Si Si1 0.200817 0.694782 0.080427
Si Si2 0.751899 0.806179 0.189169
Si Si3 0.688249 0.807711 0.507180
Si Si4 0.044328 0.192583 0.826549
Si Si5 0.416147 0.194449 0.922110
Si Si6 0.383049 0.192621 0.090513
Si Si7 0.861547 0.193427 0.333895
Si Si8 0.737627 0.196350 0.344767
O O1 0.200874 0.500000 0.080834
O O2 0.217725 0.752690 0.144249
O O3 0.138178 0.748067 0.090687
O O4 0.250000 0.750000 0.000000
O O5 0.819402 0.761841 0.142319
O O6 0.729476 0.747583 0.274128
O O7 0.747944 0.000000 0.191834
O O8 0.750000 0.750000 0.500000
O O9 0.641544 0.745981 0.587515
O O10 0.691256 0.753792 0.428344
O O11 0.686821 0.000000 0.508937
O O12 0.073081 0.256919 0.877426
O O13 0.084059 0.249958 0.741472
O O14 0.978030 0.245095 0.861361
O O15 0.047522 0.000000 0.826444
O O16 0.417155 0.000000 0.921391
O O17 0.404599 0.247043 0.005101
O O18 0.378782 0.000000 0.091811
O O19 0.801784 0.246537 0.332569
O O20 0.860852 0.000000 0.333385
O O21 0.737857 0.000000 0.343927
#
# Coordination Sequence:
#
# PCOD9174002 Si02
#       8
#     8   8   8   8   8   8   8   8
#     4  10  20  34  53  72  95 127 164 204 245 287
#     4  10  18  31  52  73  95 130 167 197 236 287
#     4   9  16  26  42  65  95 127 155 188 232 285
#     4  11  22  35  51  71  95 128 170 205 236 291
#     4  10  22  37  48  68 100 129 161 206 251 284
#     4  11  21  33  49  70 101 131 157 201 249 288
#     4   9  17  30  45  65  95 124 155 197 237 280
#     4   8  14  27  44  66  96 122 151 195 233 272
#
# _framework density 16.608733000000001
#
# number of rings (size 3 to 8) (size 9 to 14) (size 15 to 20)
#    0.000    2.250    2.500    2.250    0.000    4.000 
#    0.000    0.625    0.000    0.000    0.000    0.875 
#    0.000    7.000    0.000    0.000    0.000    0.000 
#
# Total GULP energy -178399.999083 kJ/mol
# GULP energy per Si atom -5574.999971 kJ/mol
# Density = 1.657093 g / cm^3
# Si number density = 16.608733 Si / 1000 Ang^3
#
#
#
# Elastic Constant Matrix: (Units=GPa)
#
#
# Indices 1 2 3 4 5 6 
#
# 1 97.7779 8.0094 74.3518 0.0000 9.0082 0.0004
# 2 8.0094 7.6027 12.1266 0.0001 5.2065 0.0008
# 3 74.3518 12.1266 159.8040 0.0000 24.8330 0.0000
# 4 0.0000 0.0001 0.0000 24.0996 -0.0001 -3.9522
# 5 9.0082 5.2065 24.8330 -0.0001 14.0894 0.0000
# 6 0.0004 0.0008 0.0000 -3.9522 0.0000 15.9146
#
#
#
# Elastic Compliance Matrix: (Units=1/GPa)
#
#
# Indices 1 2 3 4 5 6 
#
# 1 0.016466 -0.009385 -0.008059 0.000000 0.007145 0.000000
# 2 -0.009385 0.183803 0.000057 -0.000002 -0.062020 -0.000009
# 3 -0.008059 0.000057 0.012678 0.000000 -0.017214 0.000000
# 4 0.000000 -0.000002 0.000000 0.043256 0.000001 0.010742
# 5 0.007145 -0.062020 -0.017214 0.000001 0.119665 0.000003
# 6 0.000000 -0.000009 0.000000 0.010742 0.000003 0.065503
#
#
# Mechanical properties :
#
#
# Convention : Reuss Voigt Hill
#
# Bulk Modulus (GPa) = 5.61259 50.46225 28.03742
# Shear Modulus (GPa) = 9.33642 22.20051 15.76846
#
# Velocity S-wave (km/s) = 2.37352 3.66003 3.08459
# Velocity P-wave (km/s) = 3.30123 6.95054 5.44096
#
# Compressibility (1/GPa) = 0.17817098
#
# Stress axis : x y z
#
# Youngs Moduli (GPa) = 60.73026 5.44062 78.87643
#
# Poissons Ratio (x) = 0.05106 0.63569
# Poissons Ratio (y) = 0.56998 -0.00448
# Poissons Ratio (z) = 0.48945 -0.00031
#
# Static dielectric constant tensor:
#      x y z
#    x 1.531920 0.000000 0.020940 
#    y 0.000000 1.579690 0.000000 
#    z 0.020940 0.000000 1.593440 
# 
# From -- ./inp_files/320129.got.cif
#   From: 2010.05.17/outbox.cif.g08.bks.cpg/sg12_161_cif.got.tgz:320129.got - 2010.06.03 13:09:07.
