data_PCOD9174178
_publ_section_title
;
Structure prediction by ZEFSAII (Michael W. Deem and Ramdas Pophale) SiO2 
 PCOD9174178
Probable space group: C 2/M
;
_chemical_formula_sum "Si O2"
_cell_formula_units_Z 56
_cell_length_a 16.621379
_cell_length_b 8.574018
_cell_length_c 24.335537
_cell_angle_alpha 90.000000
_cell_angle_beta 122.821127
_cell_angle_gamma 90.000000
_cell_volume 2914.481235
_symmetry_space_group_name_H-M "C 2/M"
_symmetry_group_IT_number 12
_symmetry_cell_setting 'monoclinic'
loop_
_space_group_symop_operation_xyz
x,y,z
-x,y,-z
-x,-y,-z
x,-y,z
1/2+x,1/2+y,z
1/2-x,1/2+y,-z
1/2-x,1/2-y,-z
1/2+x,1/2-y,z
loop_
_atom_site_type_symbol
_atom_site_label
_atom_site_fract_x
_atom_site_fract_y
_atom_site_fract_z
Si Si1 0.225116 0.811164 0.857759
Si Si2 0.595382 0.189824 0.001900
Si Si3 0.448613 0.188728 0.137850
Si Si4 0.672615 0.190062 0.217700
Si Si5 0.095451 0.326728 0.502167
Si Si6 0.740564 0.184529 0.361717
Si Si7 0.839481 0.181840 0.569859
O O1 0.122599 0.750339 0.841219
O O2 0.266912 0.760640 0.813567
O O3 0.220941 0.000000 0.855658
O O4 0.307842 0.761619 0.931590
O O5 0.590848 0.238223 0.936759
O O6 0.593624 0.000000 0.002001
O O7 0.500000 0.239897 0.000000
O O8 0.560696 0.238298 0.179220
O O9 0.447859 0.000000 0.140239
O O10 0.721811 0.237185 0.293088
O O11 0.670832 0.000000 0.215384
O O12 0.119705 0.500000 0.490194
O O13 0.174044 0.269816 0.574976
O O14 0.079422 0.214976 0.444367
O O15 0.000000 0.335076 0.500000
O O16 0.653542 0.225960 0.370860
O O17 0.757046 0.000000 0.368464
O O18 0.750000 0.250000 0.500000
O O19 0.830265 0.000000 0.577120
#
# Coordination Sequence:
#
# PCOD9174178 Si02
#       7
#     8   8   8   8   8   8   8
#     4  10  19  34  55  80 108 141 183 230 274 319
#     4   9  15  28  55  80 101 139 186 226 268 324
#     4  10  19  34  55  80 106 140 185 227 273 325
#     4   9  19  36  56  75 107 150 186 218 263 331
#     4  10  20  35  55  80 108 135 169 216 264 311
#     4  10  19  34  55  76 103 140 177 214 260 316
#     4  10  18  31  53  77 101 130 166 208 253 305
#
# _framework density 19.214399
#
# number of rings (size 3 to 8) (size 9 to 14) (size 15 to 20)
#    0.000    2.286    1.429    4.286    0.000    1.143 
#    2.571    3.571    0.000    0.857    0.000    0.000 
#    0.000    0.000    0.000    0.000    0.000    0.000 
#
# Total GULP energy -155934.143025 kJ/mol
# GULP energy per Si atom -5569.076537 kJ/mol
# Density = 1.917067 g / cm^3
# Si number density = 19.214399 Si / 1000 Ang^3
#
#
#
# Elastic Constant Matrix: (Units=GPa)
#
#
# Indices 1 2 3 4 5 6 
#
# 1 140.0930 8.7114 48.0671 0.0000 -20.9422 0.0000
# 2 8.7114 27.2441 14.7947 0.0000 -2.2056 0.0000
# 3 48.0671 14.7947 101.3038 0.0000 -29.1756 0.0000
# 4 0.0000 0.0000 0.0000 9.3560 0.0000 -2.8339
# 5 -20.9422 -2.2056 -29.1756 0.0000 23.6006 0.0000
# 6 0.0000 0.0000 0.0000 -2.8339 0.0000 27.7268
#
#
#
# Elastic Compliance Matrix: (Units=1/GPa)
#
#
# Indices 1 2 3 4 5 6 
#
# 1 0.008796 -0.000940 -0.002816 0.000000 0.004236 0.000000
# 2 -0.000940 0.040414 -0.007157 0.000000 -0.005905 0.000000
# 3 -0.002816 -0.007157 0.017610 0.000000 0.018602 0.000000
# 4 0.000000 0.000000 0.000000 0.110298 0.000000 0.011273
# 5 0.004236 -0.005905 0.018602 0.000000 0.068575 0.000000
# 6 0.000000 0.000000 0.000000 0.011273 0.000000 0.037218
#
#
# Mechanical properties :
#
#
# Convention : Reuss Voigt Hill
#
# Bulk Modulus (GPa) = 22.22514 45.75415 33.98965
# Shear Modulus (GPa) = 15.63786 25.27453 20.45620
#
# Velocity S-wave (km/s) = 2.85592 3.63077 3.26640
# Velocity P-wave (km/s) = 4.73994 6.43745 5.65278
#
# Compressibility (1/GPa) = 0.04499409
#
# Stress axis : x y z
#
# Youngs Moduli (GPa) = 113.68669 24.74379 56.78490
#
# Poissons Ratio (x) = 0.02327 0.15993
# Poissons Ratio (y) = 0.10689 0.40639
# Poissons Ratio (z) = 0.32019 0.17708
#
# Static dielectric constant tensor:
#      x y z
#    x 1.824470 0.000000 0.002700 
#    y 0.000000 1.693070 0.000000 
#    z 0.002700 0.000000 1.655660 
# 
# From -- ./inp_files/342528.got.cif
#   From: 2010.05.17/outbox.cif.g08.bks.cpg/sg12_172_cif.got.tgz:342528.got - 2010.06.03 13:09:07.
