data_PCOD9174564
_publ_section_title
;
Structure prediction by ZEFSAII (Michael W. Deem and Ramdas Pophale) SiO2 
 PCOD9174564
Probable space group: C 2/M
;
_chemical_formula_sum "Si O2"
_cell_formula_units_Z 36
_cell_length_a 23.344105
_cell_length_b 9.954043
_cell_length_c 14.284252
_cell_angle_alpha 90.000000
_cell_angle_beta 144.764557
_cell_angle_gamma 90.000000
_cell_volume 1914.975203
_symmetry_space_group_name_H-M "C 2/M"
_symmetry_group_IT_number 12
_symmetry_cell_setting 'monoclinic'
loop_
_space_group_symop_operation_xyz
x,y,z
-x,y,-z
-x,-y,-z
x,-y,z
1/2+x,1/2+y,z
1/2-x,1/2+y,-z
1/2-x,1/2-y,-z
1/2+x,1/2-y,z
loop_
_atom_site_type_symbol
_atom_site_label
_atom_site_fract_x
_atom_site_fract_y
_atom_site_fract_z
Si Si1 0.105677 0.500000 0.907863
Si Si2 0.447296 0.000000 0.531302
Si Si3 0.307612 0.742556 0.899263
Si Si4 0.922673 0.000000 0.980156
Si Si5 0.095419 0.209140 0.555730
Si Si6 0.010010 0.000000 0.307448
Si Si7 0.792438 0.000000 0.024490
O O1 0.112258 0.359125 0.971765
O O2 0.205174 0.500000 0.979656
O O3 0.019990 0.500000 0.716176
O O4 0.500000 0.000000 0.500000
O O5 0.389197 0.136973 0.452603
O O6 0.355329 0.635227 0.890505
O O7 0.204508 0.820620 0.741312
O O8 0.285628 0.637518 0.954867
O O9 0.981440 0.000000 0.159759
O O10 0.000000 0.000000 0.000000
O O11 0.000000 0.198075 0.500000
O O12 0.067619 0.125980 0.426719
O O13 0.902031 0.000000 0.212641
#
# Coordination Sequence:
#
# PCOD9174564 Si02
#       7
#     4   4   8   4   8   4   4
#     4  12  19  31  52  83 115 141 181 225 255 317
#     4  10  19  28  43  69 108 148 173 203 244 294
#     4  10  21  34  55  81 107 147 182 216 268 322
#     4  10  23  46  61  69  96 145 196 237 275 325
#     4  11  19  32  51  85 122 143 163 206 261 330
#     4  10  20  33  55  80 106 146 182 211 263 320
#     4  10  18  32  48  77 118 162 180 190 247 338
#
# _framework density 18.799199999999999
#
# number of rings (size 3 to 8) (size 9 to 14) (size 15 to 20)
#    0.000    1.778    0.000    9.667    0.000    0.000 
#    0.000    1.667    0.000    0.000    0.000    0.000 
#    0.000    0.000    0.000    0.000    0.000    0.000 
#
# Total GULP energy -100244.872861 kJ/mol
# GULP energy per Si atom -5569.159603 kJ/mol
# Density = 1.875641 g / cm^3
# Si number density = 18.799200 Si / 1000 Ang^3
#
#
#
# Elastic Constant Matrix: (Units=GPa)
#
#
# Indices 1 2 3 4 5 6 
#
# 1 67.1741 14.5529 1.0288 0.0000 7.7355 0.0000
# 2 14.5529 54.2610 -3.5433 0.0000 -8.0208 0.0000
# 3 1.0288 -3.5433 90.4609 0.0000 -1.2255 0.0000
# 4 0.0000 0.0000 0.0000 41.7263 0.0000 1.2945
# 5 7.7355 -8.0208 -1.2255 0.0000 12.5705 0.0000
# 6 0.0000 0.0000 0.0000 1.2945 0.0000 -82.7296
#
#
#
# Elastic Compliance Matrix: (Units=1/GPa)
#
#
# Indices 1 2 3 4 5 6 
#
# 1 0.018332 -0.007333 -0.000713 0.000000 -0.016029 0.000000
# 2 -0.007333 0.023368 0.001263 0.000000 0.019546 0.000000
# 3 -0.000713 0.001263 0.011144 0.000000 0.002331 0.000000
# 4 0.000000 0.000000 0.000000 0.023954 0.000000 0.000375
# 5 -0.016029 0.019546 0.002331 0.000000 0.102114 0.000000
# 6 0.000000 0.000000 0.000000 0.000375 0.000000 -0.012082
#
#
# Mechanical properties :
#
#
# Convention : Reuss Voigt Hill
#
# Bulk Modulus (GPa) = 25.45860 26.21922 25.83891
# Shear Modulus (GPa) = 25.84158 7.63727 16.73943
#
# Velocity S-wave (km/s) = 3.71160 2.01776 2.98725
# Velocity P-wave (km/s) = 5.65152 4.40520 5.06683
#
# Compressibility (1/GPa) = 0.03927945
#
# Stress axis : x y z
#
# Youngs Moduli (GPa) = 54.54939 42.79396 89.73696
#
# Poissons Ratio (x) = 0.31379 0.06397
# Poissons Ratio (y) = 0.39999 -0.11338
# Poissons Ratio (z) = 0.03889 -0.05407
#
# Static dielectric constant tensor:
#      x y z
#    x 1.998210 0.000000 -1.233320 
#    y 0.000000 1.703200 0.000000 
#    z -1.233320 0.000000 5.707340 
# 
# From -- ./inp_files/245000.got.cif
#   From: 2010.05.17/outbox.cif.g08.bks.cpg/sg12_123_cif.got.tgz:245000.got - 2010.06.03 13:09:07.
