data_PCOD9174081
_publ_section_title
;
Structure prediction by ZEFSAII (Michael W. Deem and Ramdas Pophale) SiO2 
 PCOD9174081
Probable space group: C 2/M
;
_chemical_formula_sum "Si O2"
_cell_formula_units_Z 64
_cell_length_a 24.424597
_cell_length_b 7.460527
_cell_length_c 20.179598
_cell_angle_alpha 90.000000
_cell_angle_beta 52.088446
_cell_angle_gamma 90.000000
_cell_volume 2901.112137
_symmetry_space_group_name_H-M "C 2/M"
_symmetry_group_IT_number 12
_symmetry_cell_setting 'monoclinic'
loop_
_space_group_symop_operation_xyz
x,y,z
-x,y,-z
-x,-y,-z
x,-y,z
1/2+x,1/2+y,z
1/2-x,1/2+y,-z
1/2-x,1/2-y,-z
1/2+x,1/2-y,z
loop_
_atom_site_type_symbol
_atom_site_label
_atom_site_fract_x
_atom_site_fract_y
_atom_site_fract_z
Si Si1 0.570728 0.717373 0.851568
Si Si2 0.918314 0.706561 0.925297
Si Si3 0.947748 0.719989 0.755494
Si Si4 0.592736 0.209282 0.589048
Si Si5 0.172119 0.784022 0.658694
Si Si6 0.326576 0.293587 0.111892
Si Si7 0.176487 0.719414 0.403474
Si Si8 0.327046 0.218926 0.745317
O O1 0.566882 0.500000 0.856410
O O2 0.492099 0.781454 0.907664
O O3 0.611638 0.772109 0.754577
O O4 0.617005 0.782686 0.878720
O O5 0.898519 0.500000 0.932608
O O6 0.931215 0.781728 0.842301
O O7 0.859344 0.789982 0.014921
O O8 0.950124 0.500000 0.756469
O O9 0.887576 0.775093 0.749781
O O10 0.022331 0.783723 0.673287
O O11 0.652636 0.222840 0.599837
O O12 0.621083 0.283290 0.498868
O O13 0.578616 0.000000 0.587358
O O14 0.246603 0.724363 0.630423
O O15 0.172730 0.000000 0.657904
O O16 0.319043 0.500000 0.139079
O O17 0.249331 0.218518 0.175215
O O18 0.176717 0.500000 0.404169
O O19 0.162299 0.773716 0.338772
O O20 0.328157 0.000000 0.745953
#
# Coordination Sequence:
#
# PCOD9174081 Si02
#       8
#     8   8   8   8   8   8   8   8
#     4  10  19  33  54  77 101 132 173 214 250 298
#     4  11  22  35  51  76 110 138 163 203 259 315
#     4   9  19  33  49  73 106 138 168 208 257 301
#     4  10  19  32  51  79 110 137 166 204 253 310
#     4  10  18  31  52  78 104 134 171 210 252 300
#     4  10  20  35  56  78  99 130 175 217 253 297
#     4   9  17  30  52  79 104 132 172 214 251 296
#     4   9  17  33  54  75 101 134 172 218 258 288
#
# _framework density 22.060507000000001
#
# number of rings (size 3 to 8) (size 9 to 14) (size 15 to 20)
#    0.000    2.250    2.500    1.125    0.000    3.000 
#    0.000    2.500    0.000    2.250    0.000    0.875 
#    0.000    0.000    0.000    0.000    0.000    0.000 
#
# Total GULP energy -178802.402894 kJ/mol
# GULP energy per Si atom -5587.575090 kJ/mol
# Density = 2.201030 g / cm^3
# Si number density = 22.060507 Si / 1000 Ang^3
#
#
#
# Elastic Constant Matrix: (Units=GPa)
#
#
# Indices 1 2 3 4 5 6 
#
# 1 128.5638 -7.9491 42.5790 0.0041 6.6314 0.0009
# 2 -7.9491 59.6499 -4.3643 -0.0281 0.1219 0.0027
# 3 42.5790 -4.3643 115.1228 0.0031 10.2905 0.0027
# 4 0.0041 -0.0281 0.0031 -10.5415 -0.0139 12.6574
# 5 6.6314 0.1219 10.2905 -0.0139 6.7588 -0.0056
# 6 0.0009 0.0027 0.0027 12.6574 -0.0056 6.6580
#
#
#
# Elastic Compliance Matrix: (Units=1/GPa)
#
#
# Indices 1 2 3 4 5 6 
#
# 1 0.009032 0.001000 -0.002904 0.000000 -0.004458 -0.000005
# 2 0.001000 0.016935 0.000448 -0.000016 -0.001969 0.000022
# 3 -0.002904 0.000448 0.011024 0.000000 -0.013943 -0.000016
# 4 0.000000 -0.000016 0.000000 -0.028898 -0.000014 0.054938
# 5 -0.004458 -0.001969 -0.013943 -0.000014 0.173593 0.000179
# 6 -0.000005 0.000022 -0.000016 0.054938 0.000179 0.045754
#
#
# Mechanical properties :
#
#
# Convention : Reuss Voigt Hill
#
# Bulk Modulus (GPa) = 29.34395 40.42977 34.88686
# Shear Modulus (GPa) = 20.68594 18.77979 19.73286
#
# Velocity S-wave (km/s) = 3.06550 2.92085 2.99404
# Velocity P-wave (km/s) = 5.08529 5.45359 5.27266
#
# Compressibility (1/GPa) = 0.03407858
#
# Stress axis : x y z
#
# Youngs Moduli (GPa) = 110.71941 59.05077 90.71321
#
# Poissons Ratio (x) = -0.05906 0.26344
# Poissons Ratio (y) = -0.11075 -0.04064
# Poissons Ratio (z) = 0.32154 -0.02646
#
# Static dielectric constant tensor:
#      x y z
#    x 1.757340 0.000000 0.004720 
#    y 0.000000 1.859800 0.000010 
#    z 0.004720 0.000010 1.789240 
# 
# From -- ./inp_files/324193.got.cif
#   From: 2010.05.17/outbox.cif.g08.bks.cpg/sg12_163_cif.got.tgz:324193.got - 2010.06.03 13:09:07.
