data_PCOD9174186
_publ_section_title
;
Structure prediction by ZEFSAII (Michael W. Deem and Ramdas Pophale) SiO2 
 PCOD9174186
Probable space group: C 2/M
;
_chemical_formula_sum "Si O2"
_cell_formula_units_Z 48
_cell_length_a 27.711377
_cell_length_b 8.208877
_cell_length_c 18.989738
_cell_angle_alpha 90.000000
_cell_angle_beta 28.702130
_cell_angle_gamma 90.000000
_cell_volume 2074.596891
_symmetry_space_group_name_H-M "C 2/M"
_symmetry_group_IT_number 12
_symmetry_cell_setting 'monoclinic'
loop_
_space_group_symop_operation_xyz
x,y,z
-x,y,-z
-x,-y,-z
x,-y,z
1/2+x,1/2+y,z
1/2-x,1/2+y,-z
1/2-x,1/2-y,-z
1/2+x,1/2-y,z
loop_
_atom_site_type_symbol
_atom_site_label
_atom_site_fract_x
_atom_site_fract_y
_atom_site_fract_z
Si Si1 0.111760 0.808020 0.375244
Si Si2 0.206367 0.315741 0.629175
Si Si3 0.052183 0.305608 0.592775
Si Si4 0.056599 0.000000 0.042892
Si Si5 0.341346 0.500000 0.234681
Si Si6 0.503563 0.182560 0.811611
Si Si7 0.328070 0.807323 0.842034
O O1 0.122965 0.772144 0.443219
O O2 0.186851 0.740209 0.220420
O O3 0.000000 0.738071 0.500000
O O4 0.109736 0.000000 0.367578
O O5 0.242818 0.500000 0.599363
O O6 0.250000 0.250000 0.500000
O O7 0.087423 0.331725 0.764747
O O8 0.215785 0.164874 0.670350
O O9 0.057025 0.500000 0.576145
O O10 0.060606 0.276619 0.665297
O O11 0.938823 0.243816 0.721506
O O12 0.945253 0.000000 0.147930
O O13 0.063376 0.836096 0.080686
O O14 0.132228 0.000000 0.880970
O O15 0.457436 0.000000 0.861564
O O16 0.331772 0.000000 0.840934
O O17 0.250000 0.750000 0.000000
#
# Coordination Sequence:
#
# PCOD9174186 Si02
#       7
#     8   8   8   4   4   8   8
#     4   9  17  29  48  75  99 123 166 208 245 295
#     4  10  18  31  53  77 104 134 168 209 251 299
#     4   9  18  33  52  73  98 131 166 208 252 297
#     4   9  18  32  52  76 103 132 169 205 254 303
#     4   9  18  32  50  78 104 131 167 211 249 300
#     4   9  19  33  52  77 102 133 169 209 251 303
#     4  10  19  32  51  72  99 132 165 207 253 299
#
# _framework density 23.137024
#
# number of rings (size 3 to 8) (size 9 to 14) (size 15 to 20)
#    0.000    2.667    0.833    1.000    1.167    3.333 
#    0.000    3.333    3.667    0.000    0.000    0.000 
#    0.000    0.000    0.000    0.000    0.000    0.000 
#
# Total GULP energy -133938.870894 kJ/mol
# GULP energy per Si atom -5580.786287 kJ/mol
# Density = 2.308436 g / cm^3
# Si number density = 23.137024 Si / 1000 Ang^3
#
#
#
# Elastic Constant Matrix: (Units=GPa)
#
#
# Indices 1 2 3 4 5 6 
#
# 1 68.0799 30.4320 38.2446 -0.0003 17.9484 0.0003
# 2 30.4320 165.1082 78.8588 -0.0016 36.9269 0.0005
# 3 38.2446 78.8588 144.9202 -0.0027 49.3138 0.0009
# 4 -0.0003 -0.0016 -0.0027 38.1235 0.0002 16.8034
# 5 17.9484 36.9269 49.3138 0.0002 39.5257 -0.0001
# 6 0.0003 0.0005 0.0009 16.8034 -0.0001 20.2690
#
#
#
# Elastic Compliance Matrix: (Units=1/GPa)
#
#
# Indices 1 2 3 4 5 6 
#
# 1 0.017716 -0.001118 -0.002928 0.000000 -0.003347 0.000000
# 2 -0.001118 0.008565 -0.003155 0.000000 -0.003558 0.000000
# 3 -0.002928 -0.003155 0.013788 0.000002 -0.012926 -0.000002
# 4 0.000000 0.000000 0.000002 0.041334 -0.000003 -0.034267
# 5 -0.003347 -0.003558 -0.012926 -0.000003 0.046271 0.000003
# 6 0.000000 0.000000 -0.000002 -0.034267 0.000003 0.077744
#
#
# Mechanical properties :
#
#
# Convention : Reuss Voigt Hill
#
# Bulk Modulus (GPa) = 38.96040 74.79769 56.87905
# Shear Modulus (GPa) = 21.89374 34.95516 28.42445
#
# Velocity S-wave (km/s) = 3.07948 3.89110 3.50884
# Velocity P-wave (km/s) = 5.43321 7.25161 6.40725
#
# Compressibility (1/GPa) = 0.02566709
#
# Stress axis : x y z
#
# Youngs Moduli (GPa) = 56.44742 116.74818 72.52614
#
# Poissons Ratio (x) = 0.13057 0.21233
# Poissons Ratio (y) = 0.06313 0.22882
# Poissons Ratio (z) = 0.16526 0.36834
#
# Static dielectric constant tensor:
#      x y z
#    x 1.986080 0.000000 -0.082430 
#    y 0.000000 1.842230 0.000000 
#    z -0.082430 0.000000 1.884310 
# 
# From -- ./inp_files/295400.got.cif
#   From: 2010.05.17/outbox.cif.g08.bks.cpg/sg12_148_cif.got.tgz:295400.got - 2010.06.03 13:09:07.
