data_PCOD9174229
_publ_section_title
;
Structure prediction by ZEFSAII (Michael W. Deem and Ramdas Pophale) SiO2 
 PCOD9174229
Probable space group: C 2/M
;
_chemical_formula_sum "Si O2"
_cell_formula_units_Z 44
_cell_length_a 22.539163
_cell_length_b 15.302918
_cell_length_c 8.282291
_cell_angle_alpha 90.000000
_cell_angle_beta 54.815433
_cell_angle_gamma 90.000000
_cell_volume 2334.769930
_symmetry_space_group_name_H-M "C 2/M"
_symmetry_group_IT_number 12
_symmetry_cell_setting 'monoclinic'
loop_
_space_group_symop_operation_xyz
x,y,z
-x,y,-z
-x,-y,-z
x,-y,z
1/2+x,1/2+y,z
1/2-x,1/2+y,-z
1/2-x,1/2-y,-z
1/2+x,1/2-y,z
loop_
_atom_site_type_symbol
_atom_site_label
_atom_site_fract_x
_atom_site_fract_y
_atom_site_fract_z
Si Si1 0.856255 0.399403 0.265097
Si Si2 0.729744 0.184649 0.173006
Si Si3 0.890867 0.763496 0.409394
Si Si4 0.000000 0.269457 0.500000
Si Si5 0.306927 0.397768 0.334310
Si Si6 0.111920 0.597992 0.162010
O O1 0.877350 0.500000 0.271702
O O2 0.901648 0.325692 0.288736
O O3 0.771691 0.389564 0.450872
O O4 0.865687 0.386740 0.058865
O O5 0.678672 0.239121 0.373024
O O6 0.793553 0.144513 0.179750
O O7 0.681866 0.108586 0.167276
O O8 0.750000 0.250000 0.000000
O O9 0.955528 0.781362 0.432579
O O10 0.867202 0.842329 0.332803
O O11 0.055906 0.331460 0.316579
O O12 0.323577 0.500000 0.298823
O O13 0.082240 0.500000 0.220692
#
# Coordination Sequence:
#
# PCOD9174229 Si02
#       6
#     8   8   8   4   8   8
#     4   9  18  32  54  81 106 132 166 209 263 316
#     4  10  18  31  53  80 105 130 162 210 267 317
#     4  10  20  35  50  71 103 138 174 214 253 302
#     4  10  23  34  47  70 102 144 182 212 250 298
#     4  10  19  33  54  79 104 133 169 214 262 306
#     4  10  19  32  50  76 108 139 169 208 256 314
#
# _framework density 18.845541000000001
#
# number of rings (size 3 to 8) (size 9 to 14) (size 15 to 20)
#    0.000    2.182    0.000    5.182    0.000    5.818 
#    0.000    3.182    0.000    0.000    0.000   12.727 
#    0.000    0.000    0.000    0.000    0.000    0.000 
#
# Total GULP energy -122765.711659 kJ/mol
# GULP energy per Si atom -5580.259621 kJ/mol
# Density = 1.880265 g / cm^3
# Si number density = 18.845541 Si / 1000 Ang^3
#
#
#
# Elastic Constant Matrix: (Units=GPa)
#
#
# Indices 1 2 3 4 5 6 
#
# 1 143.9410 70.9084 19.4709 0.0000 37.2760 0.0000
# 2 70.9084 90.8819 35.0558 0.0000 21.4615 0.0000
# 3 19.4709 35.0558 62.9003 0.0000 25.3551 0.0000
# 4 0.0000 0.0000 0.0000 19.4262 0.0000 8.0629
# 5 37.2760 21.4615 25.3551 0.0000 24.6090 0.0000
# 6 0.0000 0.0000 0.0000 8.0629 0.0000 14.7070
#
#
#
# Elastic Compliance Matrix: (Units=1/GPa)
#
#
# Indices 1 2 3 4 5 6 
#
# 1 0.020968 -0.013976 0.015715 0.000000 -0.035764 0.000000
# 2 -0.013976 0.024106 -0.015680 0.000000 0.016302 0.000000
# 3 0.015715 -0.015680 0.040801 0.000000 -0.052167 0.000000
# 4 0.000000 0.000000 0.000000 0.066641 0.000000 -0.036535
# 5 -0.035764 0.016302 -0.052167 0.000000 0.134340 0.000000
# 6 0.000000 0.000000 0.000000 -0.036535 0.000000 0.088024
#
#
# Mechanical properties :
#
#
# Convention : Reuss Voigt Hill
#
# Bulk Modulus (GPa) = 17.24351 60.95481 39.09916
# Shear Modulus (GPa) = 11.84572 23.23432 17.54002
#
# Velocity S-wave (km/s) = 2.50985 3.51505 3.05409
# Velocity P-wave (km/s) = 4.19153 6.99205 5.76444
#
# Compressibility (1/GPa) = 0.05799285
#
# Stress axis : x y z
#
# Youngs Moduli (GPa) = 47.69171 41.48310 24.50914
#
# Poissons Ratio (x) = 0.57976 -0.38516
# Poissons Ratio (y) = 0.66654 0.38431
# Poissons Ratio (z) = -0.74946 0.65046
#
# Static dielectric constant tensor:
#      x y z
#    x 1.675130 0.000000 0.005050 
#    y 0.000000 1.668900 0.000000 
#    z 0.005050 0.000000 1.661230 
# 
# From -- ./inp_files/85254.got.cif
#   From: 2010.05.17/outbox.cif.g08.bks.cpg/sg12_43_cif.got.tgz:85254.got - 2010.06.03 13:09:07.
