data_PCOD9174478
_publ_section_title
;
Structure prediction by ZEFSAII (Michael W. Deem and Ramdas Pophale) SiO2 
 PCOD9174478
Probable space group: C 2/M
;
_chemical_formula_sum "Si O2"
_cell_formula_units_Z 64
_cell_length_a 13.380214
_cell_length_b 15.834567
_cell_length_c 16.944126
_cell_angle_alpha 90.000000
_cell_angle_beta 116.375769
_cell_angle_gamma 90.000000
_cell_volume 3216.235381
_symmetry_space_group_name_H-M "C 2/M"
_symmetry_group_IT_number 12
_symmetry_cell_setting 'monoclinic'
loop_
_space_group_symop_operation_xyz
x,y,z
-x,y,-z
-x,-y,-z
x,-y,z
1/2+x,1/2+y,z
1/2-x,1/2+y,-z
1/2-x,1/2-y,-z
1/2+x,1/2-y,z
loop_
_atom_site_type_symbol
_atom_site_label
_atom_site_fract_x
_atom_site_fract_y
_atom_site_fract_z
Si Si1 0.686960 0.092826 0.017660
Si Si2 0.199428 0.661522 0.455489
Si Si3 0.243389 0.242089 0.850910
Si Si4 0.544934 0.840921 0.832318
Si Si5 0.867565 0.094545 0.943523
Si Si6 0.194980 0.723151 0.289293
Si Si7 0.034732 0.595358 0.652543
Si Si8 0.765257 0.906736 0.637903
O O1 0.693708 0.167515 0.082426
O O2 0.681804 0.000000 0.052205
O O3 0.584992 0.105615 0.920930
O O4 0.797714 0.097285 0.000838
O O5 0.250000 0.750000 0.500000
O O6 0.226194 0.660864 0.371837
O O7 0.246834 0.598047 0.537136
O O8 0.064810 0.656161 0.409839
O O9 0.131283 0.263225 0.858933
O O10 0.316779 0.327825 0.877282
O O11 0.217564 0.222746 0.751091
O O12 0.419465 0.809714 0.788787
O O13 0.561890 0.887539 0.753992
O O14 0.846650 0.000000 0.902570
O O15 0.000000 0.104253 0.000000
O O16 0.177110 0.819049 0.314876
O O17 0.989894 0.500000 0.630237
O O18 0.144179 0.600373 0.637550
O O19 0.811644 0.000000 0.675131
#
# Coordination Sequence:
#
# PCOD9174478 Si02
#       8
#     8   8   8   8   8   8   8   8
#     4  10  22  39  56  80 112 155 199 236 278 333
#     4   9  19  34  51  77 116 147 179 211 264 340
#     4  11  22  36  58  80 116 154 190 237 284 338
#     4  10  20  37  56  79 116 149 185 233 288 331
#     4   9  19  34  57  84 108 140 187 239 292 340
#     4  10  22  36  55  83 113 148 189 225 279 341
#     4  10  18  31  56  88 114 139 175 233 293 336
#     4  10  19  35  58  87 115 139 176 234 295 346
#
# _framework density 19.899039999999999
#
# number of rings (size 3 to 8) (size 9 to 14) (size 15 to 20)
#    0.000    2.125    1.250    2.625    3.500    2.000 
#    0.000    5.000    0.000    0.000    0.000    0.875 
#    0.000    0.000    0.000    0.000    0.000    0.000 
#
# Total GULP energy -178403.568835 kJ/mol
# GULP energy per Si atom -5575.111526 kJ/mol
# Density = 1.985375 g / cm^3
# Si number density = 19.899040 Si / 1000 Ang^3
#
#
#
# Elastic Constant Matrix: (Units=GPa)
#
#
# Indices 1 2 3 4 5 6 
#
# 1 20.1417 24.1168 7.0476 0.0000 0.4604 0.0000
# 2 24.1168 85.6238 31.8030 0.0000 -3.7923 0.0000
# 3 7.0476 31.8030 69.3781 0.0000 -6.3834 0.0000
# 4 0.0000 0.0000 0.0000 16.5992 0.0000 0.7260
# 5 0.4604 -3.7923 -6.3834 0.0000 28.1823 0.0000
# 6 0.0000 0.0000 0.0000 0.7260 0.0000 16.8310
#
#
#
# Elastic Compliance Matrix: (Units=1/GPa)
#
#
# Indices 1 2 3 4 5 6 
#
# 1 0.075653 -0.022287 0.002187 0.000000 -0.003739 0.000000
# 2 -0.022287 0.020646 -0.007058 0.000000 0.001544 0.000000
# 3 0.002187 -0.007058 0.017705 0.000000 0.003025 0.000000
# 4 0.000000 0.000000 0.000000 0.060358 0.000000 -0.002603
# 5 -0.003739 0.001544 0.003025 0.000000 0.036437 0.000000
# 6 0.000000 0.000000 0.000000 -0.002603 0.000000 0.059527
#
#
# Mechanical properties :
#
#
# Convention : Reuss Voigt Hill
#
# Bulk Modulus (GPa) = 16.75334 33.45316 25.10325
# Shear Modulus (GPa) = 14.51216 19.80091 17.15653
#
# Velocity S-wave (km/s) = 2.70347 3.15789 2.93947
# Velocity P-wave (km/s) = 4.26408 5.49038 4.91562
#
# Compressibility (1/GPa) = 0.05968959
#
# Stress axis : x y z
#
# Youngs Moduli (GPa) = 13.21817 48.43500 56.47981
#
# Poissons Ratio (x) = 1.07945 -0.12353
# Poissons Ratio (y) = 0.29459 0.39865
# Poissons Ratio (z) = -0.02891 0.34187
#
# Static dielectric constant tensor:
#      x y z
#    x 1.702950 0.000000 -0.017750 
#    y 0.000000 1.724770 0.000000 
#    z -0.017750 0.000000 1.727790 
# 
# From -- ./inp_files/270328.got.cif
#   From: 2010.05.17/outbox.cif.g08.bks.cpg/sg12_136_cif.got.tgz:270328.got - 2010.06.03 13:09:07.
