data_PCOD9174170
_publ_section_title
;
Structure prediction by ZEFSAII (Michael W. Deem and Ramdas Pophale) SiO2 
 PCOD9174170
Probable space group: C 2/M
;
_chemical_formula_sum "Si O2"
_cell_formula_units_Z 56
_cell_length_a 21.116236
_cell_length_b 16.611854
_cell_length_c 9.530371
_cell_angle_alpha 90.000000
_cell_angle_beta 92.907545
_cell_angle_gamma 90.000000
_cell_volume 3338.758344
_symmetry_space_group_name_H-M "C 2/M"
_symmetry_group_IT_number 12
_symmetry_cell_setting 'monoclinic'
loop_
_space_group_symop_operation_xyz
x,y,z
-x,y,-z
-x,-y,-z
x,-y,z
1/2+x,1/2+y,z
1/2-x,1/2+y,-z
1/2-x,1/2-y,-z
1/2+x,1/2-y,z
loop_
_atom_site_type_symbol
_atom_site_label
_atom_site_fract_x
_atom_site_fract_y
_atom_site_fract_z
Si Si1 0.361602 0.685695 0.233302
Si Si2 0.748185 0.906318 0.142771
Si Si3 0.844182 0.275835 0.764682
Si Si4 0.424580 0.232729 0.492764
Si Si5 0.233773 0.335625 0.826476
Si Si6 0.614098 0.907590 0.714660
Si Si7 0.570089 0.790028 0.951914
O O1 0.320726 0.606973 0.201454
O O2 0.386771 0.703026 0.391533
O O3 0.310871 0.755959 0.184323
O O4 0.419510 0.708843 0.138163
O O5 0.702400 0.853638 0.238371
O O6 0.731115 0.000000 0.138335
O O7 0.742474 0.869107 0.984639
O O8 0.891727 0.270949 0.640080
O O9 0.799506 0.196759 0.771454
O O10 0.883620 0.284710 0.911345
O O11 0.500000 0.248131 0.500000
O O12 0.411911 0.147590 0.413388
O O13 0.190554 0.397593 0.734599
O O14 0.587238 0.865165 0.852912
O O15 0.596238 0.000000 0.702054
O O16 0.500000 0.797933 0.000000
#
# Coordination Sequence:
#
# PCOD9174170 Si02
#       7
#     8   8   8   8   8   8   8
#     4   9  18  35  52  77 104 136 174 224 257 298
#     4  11  19  31  55  84 110 131 164 221 280 313
#     4  11  18  33  55  80 101 136 183 221 249 309
#     4  10  22  37  54  74 104 145 184 212 252 299
#     4   9  17  32  54  77 105 133 171 220 265 300
#     4  10  21  35  49  74 115 143 163 211 268 314
#     4  10  18  31  53  75  98 137 189 215 244 301
#
# _framework density 16.772701999999999
#
# number of rings (size 3 to 8) (size 9 to 14) (size 15 to 20)
#    0.000    2.286    4.286    3.000    0.000    6.286 
#    0.000    1.429    0.000    1.714    0.000    0.000 
#    0.000    0.000    0.000    0.000    0.000    0.000 
#
# Total GULP energy -155883.870830 kJ/mol
# GULP energy per Si atom -5567.281101 kJ/mol
# Density = 1.673453 g / cm^3
# Si number density = 16.772702 Si / 1000 Ang^3
#
#
#
# Elastic Constant Matrix: (Units=GPa)
#
#
# Indices 1 2 3 4 5 6 
#
# 1 88.8180 22.7780 28.8195 0.0000 -15.9296 0.0000
# 2 22.7780 30.9474 10.6670 0.0000 -6.8269 0.0000
# 3 28.8195 10.6670 86.8841 0.0000 -15.5029 0.0000
# 4 0.0000 0.0000 0.0000 5.4118 0.0000 -0.4604
# 5 -15.9296 -6.8269 -15.5029 0.0000 29.1854 0.0000
# 6 0.0000 0.0000 0.0000 -0.4604 0.0000 9.3517
#
#
#
# Elastic Compliance Matrix: (Units=1/GPa)
#
#
# Indices 1 2 3 4 5 6 
#
# 1 0.015500 -0.009298 -0.003180 0.000000 0.004596 0.000000
# 2 -0.009298 0.040397 -0.001209 0.000000 0.003732 0.000000
# 3 -0.003180 -0.001209 0.013646 0.000000 0.005230 0.000000
# 4 0.000000 0.000000 0.000000 0.185558 0.000000 0.009135
# 5 0.004596 0.003732 0.005230 0.000000 0.040423 0.000000
# 6 0.000000 0.000000 0.000000 0.009135 0.000000 0.107382
#
#
# Mechanical properties :
#
#
# Convention : Reuss Voigt Hill
#
# Bulk Modulus (GPa) = 23.71486 36.79762 30.25624
# Shear Modulus (GPa) = 11.25274 18.41545 14.83410
#
# Velocity S-wave (km/s) = 2.59298 3.31712 2.97714
# Velocity P-wave (km/s) = 4.80982 6.05455 5.46772
#
# Compressibility (1/GPa) = 0.04216765
#
# Stress axis : x y z
#
# Youngs Moduli (GPa) = 64.51795 24.75442 73.28159
#
# Poissons Ratio (x) = 0.23017 0.23301
# Poissons Ratio (y) = 0.59991 0.08863
# Poissons Ratio (z) = 0.20514 0.02994
#
# Static dielectric constant tensor:
#      x y z
#    x 1.611370 0.000000 0.010420 
#    y 0.000000 1.578740 0.000000 
#    z 0.010420 0.000000 1.575350 
# 
# From -- ./inp_files/87340.got.cif
#   From: 2010.05.17/outbox.cif.g08.bks.cpg/sg12_44_cif.got.tgz:87340.got - 2010.06.03 13:09:07.
