data_PCOD9174769
_publ_section_title
;
Structure prediction by ZEFSAII (Michael W. Deem and Ramdas Pophale) SiO2 
 PCOD9174769
Probable space group: C 2/M
;
_chemical_formula_sum "Si O2"
_cell_formula_units_Z 64
_cell_length_a 12.856297
_cell_length_b 20.277791
_cell_length_c 28.941649
_cell_angle_alpha 90.000000
_cell_angle_beta 151.272328
_cell_angle_gamma 90.000000
_cell_volume 3626.486915
_symmetry_space_group_name_H-M "C 2/M"
_symmetry_group_IT_number 12
_symmetry_cell_setting 'monoclinic'
loop_
_space_group_symop_operation_xyz
x,y,z
-x,y,-z
-x,-y,-z
x,-y,z
1/2+x,1/2+y,z
1/2-x,1/2+y,-z
1/2-x,1/2-y,-z
1/2+x,1/2-y,z
loop_
_atom_site_type_symbol
_atom_site_label
_atom_site_fract_x
_atom_site_fract_y
_atom_site_fract_z
Si Si1 0.498959 0.800648 0.873827
Si Si2 0.741636 0.275546 0.297263
Si Si3 0.078202 0.649742 0.368022
Si Si4 0.501369 0.692896 0.055243
Si Si5 0.953758 0.148630 0.586613
Si Si6 0.647888 0.925762 0.228645
Si Si7 0.740745 0.290684 0.397480
Si Si8 0.659296 0.923665 0.803032
O O1 0.441650 0.758321 0.805437
O O2 0.417698 0.756337 0.884573
O O3 0.381313 0.869973 0.821226
O O4 0.753721 0.814730 0.975359
O O5 0.668764 0.305728 0.317263
O O6 0.870630 0.328611 0.317273
O O7 0.913747 0.215812 0.374699
O O8 0.270158 0.632589 0.478061
O O9 0.159080 0.716470 0.374792
O O10 0.007058 0.597167 0.302207
O O11 0.646168 0.628899 0.122075
O O12 0.500000 0.703930 0.000000
O O13 0.851547 0.165575 0.596752
O O14 0.126885 0.090930 0.658781
O O15 0.461620 0.916814 0.194776
O O16 0.640347 0.000000 0.208443
O O17 0.000000 0.294561 0.500000
O O18 0.726145 0.000000 0.824074
#
# Coordination Sequence:
#
# PCOD9174769 Si02
#       8
#     8   8   8   8   8   8   8   8
#     4  10  21  36  60  89 112 145 183 238 299 337
#     4  10  18  32  52  83 116 143 185 236 288 341
#     4  11  19  32  51  80 121 148 187 240 278 337
#     4  11  22  38  60  89 116 139 186 242 291 348
#     4  10  20  31  51  83 115 152 196 234 281 329
#     4  10  22  39  57  83 118 155 195 233 282 346
#     4  11  18  29  53  84 110 151 193 237 289 333
#     4  11  24  39  58  84 117 158 192 231 293 353
#
# _framework density 17.647932999999998
#
# number of rings (size 3 to 8) (size 9 to 14) (size 15 to 20)
#    0.000    1.500    5.000    2.250    0.000    1.250 
#    0.000    1.250    0.000    1.500    0.000    0.000 
#    0.000    0.000    0.000    0.000    0.000    0.000 
#
# Total GULP energy -178603.240648 kJ/mol
# GULP energy per Si atom -5581.351270 kJ/mol
# Density = 1.760777 g / cm^3
# Si number density = 17.647933 Si / 1000 Ang^3
#
#
#
# Elastic Constant Matrix: (Units=GPa)
#
#
# Indices 1 2 3 4 5 6 
#
# 1 60.8655 29.5927 22.3897 0.0003 -6.4960 0.0001
# 2 29.5927 105.9301 47.4933 0.0002 -7.5372 -0.0002
# 3 22.3897 47.4933 83.5390 0.0011 -5.6743 -0.0003
# 4 0.0003 0.0002 0.0011 13.1598 -0.0001 3.1278
# 5 -6.4960 -7.5372 -5.6743 -0.0001 32.1689 -0.0002
# 6 0.0001 -0.0002 -0.0003 3.1278 -0.0002 19.8491
#
#
#
# Elastic Compliance Matrix: (Units=1/GPa)
#
#
# Indices 1 2 3 4 5 6 
#
# 1 0.019708 -0.004072 -0.002795 0.000000 0.002533 0.000000
# 2 -0.004072 0.013606 -0.006562 0.000000 0.001208 0.000000
# 3 -0.002795 -0.006562 0.016505 -0.000001 0.000810 0.000000
# 4 0.000000 0.000000 -0.000001 0.078946 0.000000 -0.012440
# 5 0.002533 0.001208 0.000810 0.000000 0.032023 0.000000
# 6 0.000000 0.000000 0.000000 -0.012440 0.000000 0.052340
#
#
# Mechanical properties :
#
#
# Convention : Reuss Voigt Hill
#
# Bulk Modulus (GPa) = 43.55199 49.92067 46.73633
# Shear Modulus (GPa) = 20.19067 23.09281 21.64174
#
# Velocity S-wave (km/s) = 3.38610 3.62128 3.50566
# Velocity P-wave (km/s) = 6.32608 6.77003 6.55182
#
# Compressibility (1/GPa) = 0.02296107
#
# Stress axis : x y z
#
# Youngs Moduli (GPa) = 50.74073 73.49888 60.58837
#
# Poissons Ratio (x) = 0.29932 0.16933
# Poissons Ratio (y) = 0.20664 0.39755
# Poissons Ratio (z) = 0.14181 0.48226
#
# Static dielectric constant tensor:
#      x y z
#    x 1.622240 0.000000 -0.009670 
#    y 0.000000 1.584250 0.000000 
#    z -0.009670 0.000000 1.647140 
# 
# From -- ./inp_files/359013.got.cif
#   From: 2010.05.17/outbox.cif.g08.bks.cpg/sg12_180_cif.got.tgz:359013.got - 2010.06.03 13:09:07.
