data_PCOD9174556
_publ_section_title
;
Structure prediction by ZEFSAII (Michael W. Deem and Ramdas Pophale) SiO2 
 PCOD9174556
Probable space group: C 2/M
;
_chemical_formula_sum "Si O2"
_cell_formula_units_Z 56
_cell_length_a 18.652338
_cell_length_b 29.546609
_cell_length_c 8.692220
_cell_angle_alpha 90.000000
_cell_angle_beta 43.343804
_cell_angle_gamma 90.000000
_cell_volume 3288.007541
_symmetry_space_group_name_H-M "C 2/M"
_symmetry_group_IT_number 12
_symmetry_cell_setting 'monoclinic'
loop_
_space_group_symop_operation_xyz
x,y,z
-x,y,-z
-x,-y,-z
x,-y,z
1/2+x,1/2+y,z
1/2-x,1/2+y,-z
1/2-x,1/2-y,-z
1/2+x,1/2-y,z
loop_
_atom_site_type_symbol
_atom_site_label
_atom_site_fract_x
_atom_site_fract_y
_atom_site_fract_z
Si Si1 0.617021 0.593942 0.249291
Si Si2 0.223303 0.187061 0.067058
Si Si3 0.427171 0.235081 0.738779
Si Si4 0.581798 0.235093 0.757782
Si Si5 0.881980 0.093811 0.122382
Si Si6 0.222588 0.188105 0.695803
Si Si7 0.618439 0.500000 0.379963
Si Si8 0.118100 0.000000 0.748342
O O1 0.500000 0.600192 0.500000
O O2 0.686250 0.637998 0.176131
O O3 0.662287 0.547288 0.247611
O O4 0.611599 0.590648 0.072673
O O5 0.135687 0.224149 0.244259
O O6 0.336354 0.203226 0.947856
O O7 0.228743 0.190373 0.871852
O O8 0.500000 0.210867 0.500000
O O9 0.506076 0.253663 0.742623
O O10 0.667692 0.202244 0.550441
O O11 0.640926 0.275500 0.754129
O O12 0.500000 0.211655 0.000000
O O13 0.816550 0.137491 0.275271
O O14 0.836449 0.046964 0.259754
O O15 0.000000 0.099296 0.000000
O O16 0.500000 0.500000 0.500000
O O17 0.616074 0.500000 0.567550
O O18 0.000000 0.000000 0.000000
#
# Coordination Sequence:
#
# PCOD9174556 Si02
#       8
#     8   8   8   8   8   8   4   4
#     4  10  19  33  51  75 104 132 169 208 251 301
#     4  10  21  34  51  80  99 138 176 210 253 303
#     4  11  21  36  53  72 107 137 172 213 255 292
#     4  11  21  37  52  73 104 140 170 214 255 297
#     4  10  19  32  52  74 103 135 167 205 253 305
#     4  10  21  34  53  76 103 134 179 208 252 306
#     4  10  18  32  48  72 104 132 162 206 254 304
#     4  10  18  32  48  74 102 134 164 199 258 308
#
# _framework density 17.031590999999999
#
# number of rings (size 3 to 8) (size 9 to 14) (size 15 to 20)
#    0.000    1.714    2.857    4.714    2.000    0.000 
#    7.714    0.000    0.000    0.000    0.000    2.000 
#    0.000    0.000    0.000    0.000    0.000    0.000 
#
# Total GULP energy -156147.135782 kJ/mol
# GULP energy per Si atom -5576.683421 kJ/mol
# Density = 1.699283 g / cm^3
# Si number density = 17.031591 Si / 1000 Ang^3
#
#
#
# Elastic Constant Matrix: (Units=GPa)
#
#
# Indices 1 2 3 4 5 6 
#
# 1 53.3735 24.8141 32.2905 0.0000 -4.8908 0.0000
# 2 24.8141 149.2752 56.7799 0.0000 -5.3987 0.0000
# 3 32.2905 56.7799 102.4510 0.0000 -3.3652 0.0000
# 4 0.0000 0.0000 0.0000 26.8360 0.0000 3.0721
# 5 -4.8908 -5.3987 -3.3652 0.0000 24.9651 0.0000
# 6 0.0000 0.0000 0.0000 3.0721 0.0000 20.3717
#
#
#
# Elastic Compliance Matrix: (Units=1/GPa)
#
#
# Indices 1 2 3 4 5 6 
#
# 1 0.023663 -0.001286 -0.006632 0.000000 0.003464 0.000000
# 2 -0.001286 0.008595 -0.004324 0.000000 0.001024 0.000000
# 3 -0.006632 -0.004324 0.014237 0.000000 -0.000315 0.000000
# 4 0.000000 0.000000 0.000000 0.037918 0.000000 -0.005718
# 5 0.003464 0.001024 -0.000315 0.000000 0.040913 0.000000
# 6 0.000000 0.000000 0.000000 -0.005718 0.000000 0.049950
#
#
# Mechanical properties :
#
#
# Convention : Reuss Voigt Hill
#
# Bulk Modulus (GPa) = 45.43136 59.20763 52.31950
# Shear Modulus (GPa) = 24.14321 27.18224 25.66273
#
# Velocity S-wave (km/s) = 3.76913 3.99932 3.88593
# Velocity P-wave (km/s) = 6.75829 7.49433 7.13580
#
# Compressibility (1/GPa) = 0.02201123
#
# Stress axis : x y z
#
# Youngs Moduli (GPa) = 42.25964 116.35096 70.23802
#
# Poissons Ratio (x) = 0.14960 0.46581
# Poissons Ratio (y) = 0.05433 0.30374
# Poissons Ratio (z) = 0.28026 0.50315
#
# Static dielectric constant tensor:
#      x y z
#    x 1.601220 0.000000 0.028800 
#    y 0.000000 1.598860 0.000000 
#    z 0.028800 0.000000 1.600640 
# 
# From -- ./inp_files/80444.got.cif
#   From: 2010.05.17/outbox.cif.g08.bks.cpg/sg12_41_cif.got.tgz:80444.got - 2010.06.03 13:09:07.
