data_PCOD9174702
_publ_section_title
;
Structure prediction by ZEFSAII (Michael W. Deem and Ramdas Pophale) SiO2 
 PCOD9174702
Probable space group: C 2/M
;
_chemical_formula_sum "Si O2"
_cell_formula_units_Z 48
_cell_length_a 23.145577
_cell_length_b 13.327617
_cell_length_c 23.442844
_cell_angle_alpha 90.000000
_cell_angle_beta 25.080721
_cell_angle_gamma 90.000000
_cell_volume 3065.411559
_symmetry_space_group_name_H-M "C 2/M"
_symmetry_group_IT_number 12
_symmetry_cell_setting 'monoclinic'
loop_
_space_group_symop_operation_xyz
x,y,z
-x,y,-z
-x,-y,-z
x,-y,z
1/2+x,1/2+y,z
1/2-x,1/2+y,-z
1/2-x,1/2-y,-z
1/2+x,1/2-y,z
loop_
_atom_site_type_symbol
_atom_site_label
_atom_site_fract_x
_atom_site_fract_y
_atom_site_fract_z
Si Si1 0.937480 0.308801 0.378370
Si Si2 0.362293 0.885878 0.896970
Si Si3 0.084072 0.184633 0.092588
Si Si4 0.634191 0.615907 0.627031
Si Si5 0.127323 0.879072 0.924648
Si Si6 0.063031 0.620795 0.381668
O O1 0.792833 0.360838 0.495332
O O2 0.921795 0.194481 0.369990
O O3 0.050299 0.361706 0.237758
O O4 0.983134 0.323466 0.402427
O O5 0.407071 0.803052 0.902640
O O6 0.382542 0.000000 0.896606
O O7 0.205958 0.865774 0.019952
O O8 0.945950 0.141459 0.242910
O O9 0.107892 0.161166 0.005714
O O10 0.613918 0.500000 0.629966
O O11 0.276462 0.853033 0.766615
O O12 0.122984 0.000000 0.931683
O O13 0.000000 0.845752 0.000000
O O14 0.050547 0.500000 0.383330
O O15 0.000000 0.642539 0.500000
#
# Coordination Sequence:
#
# PCOD9174702 Si02
#       6
#     8   8   8   8   8   8
#     4  10  20  33  51  74 101 134 164 199 245 291
#     4  10  18  32  52  73  98 129 163 200 245 296
#     4  10  20  31  49  76 101 127 160 201 250 293
#     4  10  20  32  50  77 104 129 161 202 246 293
#     4  10  20  33  49  70  98 130 162 202 248 290
#     4  10  20  33  50  70  95 131 168 200 240 292
#
# _framework density 15.658583
#
# number of rings (size 3 to 8) (size 9 to 14) (size 15 to 20)
#    0.000    2.000    1.667    3.000    2.333    0.000 
#    0.000    0.000    0.000    1.000    0.000    0.000 
#    0.000    0.000    0.000    0.000    0.000    0.000 
#
# Total GULP energy -133883.573273 kJ/mol
# GULP energy per Si atom -5578.482220 kJ/mol
# Density = 1.562294 g / cm^3
# Si number density = 15.658583 Si / 1000 Ang^3
#
#
#
# Elastic Constant Matrix: (Units=GPa)
#
#
# Indices 1 2 3 4 5 6 
#
# 1 78.4897 25.0471 27.5255 0.0000 11.5499 -0.0001
# 2 25.0471 96.4846 27.2820 -0.0004 -0.6120 0.0002
# 3 27.5255 27.2820 75.8745 -0.0005 14.1810 0.0001
# 4 0.0000 -0.0004 -0.0005 9.8704 0.0001 -0.7740
# 5 11.5499 -0.6120 14.1810 0.0001 20.2785 0.0001
# 6 -0.0001 0.0002 0.0001 -0.7740 0.0001 11.0043
#
#
#
# Elastic Compliance Matrix: (Units=1/GPa)
#
#
# Indices 1 2 3 4 5 6 
#
# 1 0.015954 -0.003240 -0.003343 0.000000 -0.006847 0.000000
# 2 -0.003240 0.012447 -0.004274 0.000000 0.005210 0.000000
# 3 -0.003343 -0.004274 0.017943 0.000001 -0.010772 0.000000
# 4 0.000000 0.000000 0.000001 0.101875 -0.000001 0.007165
# 5 -0.006847 0.005210 -0.010772 -0.000001 0.060903 0.000000
# 6 0.000000 0.000000 0.000000 0.007165 0.000000 0.091377
#
#
# Mechanical properties :
#
#
# Convention : Reuss Voigt Hill
#
# Bulk Modulus (GPa) = 40.60090 45.61755 43.10922
# Shear Modulus (GPa) = 15.13210 19.63026 17.38118
#
# Velocity S-wave (km/s) = 3.11203 3.54452 3.33530
# Velocity P-wave (km/s) = 6.23684 6.77845 6.51328
#
# Compressibility (1/GPa) = 0.02463000
#
# Stress axis : x y z
#
# Youngs Moduli (GPa) = 62.67887 80.34125 55.73331
#
# Poissons Ratio (x) = 0.26029 0.18633
# Poissons Ratio (y) = 0.20307 0.23820
# Poissons Ratio (z) = 0.20955 0.34337
#
# Static dielectric constant tensor:
#      x y z
#    x 1.497490 0.000000 -0.012070 
#    y 0.000000 1.518040 0.000000 
#    z -0.012070 0.000000 1.531710 
# 
# From -- ./inp_files/94301.got.cif
#   From: 2010.05.17/outbox.cif.g08.bks.cpg/sg12_48_cif.got.tgz:94301.got - 2010.06.03 13:09:07.
