data_PCOD9174778
_publ_section_title
;
Structure prediction by ZEFSAII (Michael W. Deem and Ramdas Pophale) SiO2 
 PCOD9174778
Probable space group: C 2/M
;
_chemical_formula_sum "Si O2"
_cell_formula_units_Z 56
_cell_length_a 31.077759
_cell_length_b 7.735365
_cell_length_c 17.422541
_cell_angle_alpha 90.000000
_cell_angle_beta 46.104343
_cell_angle_gamma 90.000000
_cell_volume 3018.133668
_symmetry_space_group_name_H-M "C 2/M"
_symmetry_group_IT_number 12
_symmetry_cell_setting 'monoclinic'
loop_
_space_group_symop_operation_xyz
x,y,z
-x,y,-z
-x,-y,-z
x,-y,z
1/2+x,1/2+y,z
1/2-x,1/2+y,-z
1/2-x,1/2-y,-z
1/2+x,1/2-y,z
loop_
_atom_site_type_symbol
_atom_site_label
_atom_site_fract_x
_atom_site_fract_y
_atom_site_fract_z
Si Si1 0.307352 0.291999 0.480891
Si Si2 0.552370 0.790219 0.107868
Si Si3 0.918506 0.796412 0.245339
Si Si4 0.276516 0.707392 0.849497
Si Si5 0.342439 0.792652 0.915931
Si Si6 0.120838 0.702896 0.872356
Si Si7 0.257632 0.287787 0.702602
O O1 0.312386 0.500000 0.479257
O O2 0.250000 0.250000 0.500000
O O3 0.366631 0.225810 0.365133
O O4 0.294173 0.228059 0.583187
O O5 0.484413 0.731722 0.196055
O O6 0.596043 0.732246 0.122402
O O7 0.551137 0.000000 0.108558
O O8 0.582619 0.727409 0.990768
O O9 0.911813 0.720507 0.168385
O O10 0.908097 0.000000 0.249192
O O11 0.271854 0.500000 0.852357
O O12 0.328547 0.750209 0.845067
O O13 0.282164 0.767660 0.755149
O O14 0.214365 0.772969 0.964088
O O15 0.342018 0.000000 0.923356
O O16 0.128096 0.500000 0.880367
O O17 0.188485 0.771042 0.782446
O O18 0.257752 0.500000 0.700442
#
# Coordination Sequence:
#
# PCOD9174778 Si02
#       7
#     8   8   8   8   8   8   8
#     4  10  20  34  52  72  96 129 167 207 245 284
#     4  10  20  34  52  72  97 135 174 199 231 294
#     4  11  23  34  46  72 105 132 163 205 251 290
#     4   9  16  29  50  75  98 123 156 197 247 292
#     4   9  17  30  48  73 101 124 155 198 242 292
#     4  10  18  32  53  73  95 132 173 199 232 291
#     4   9  16  30  53  74  96 126 163 203 238 284
#
# _framework density 18.554511999999999
#
# number of rings (size 3 to 8) (size 9 to 14) (size 15 to 20)
#    0.000    2.286    2.857    0.857    0.000    3.429 
#    0.000    1.429    0.000    0.857    0.000    6.000 
#    0.000    0.000    0.000    0.000    0.000    0.000 
#
# Total GULP energy -156216.021114 kJ/mol
# GULP energy per Si atom -5579.143611 kJ/mol
# Density = 1.851228 g / cm^3
# Si number density = 18.554512 Si / 1000 Ang^3
#
#
#
# Elastic Constant Matrix: (Units=GPa)
#
#
# Indices 1 2 3 4 5 6 
#
# 1 149.4438 -15.1978 79.6011 0.0000 7.2964 -0.0003
# 2 -15.1978 21.0855 -0.5107 0.0044 0.7748 -0.0022
# 3 79.6011 -0.5107 106.4759 0.0001 -2.3211 -0.0002
# 4 0.0000 0.0044 0.0001 10.5756 0.0000 -0.8013
# 5 7.2964 0.7748 -2.3211 0.0000 31.1622 0.0000
# 6 -0.0003 -0.0022 -0.0002 -0.8013 0.0000 22.4562
#
#
#
# Elastic Compliance Matrix: (Units=1/GPa)
#
#
# Indices 1 2 3 4 5 6 
#
# 1 0.013059 0.009323 -0.009806 -0.000004 -0.004020 0.000001
# 2 0.009323 0.054129 -0.006798 -0.000022 -0.004035 0.000005
# 3 -0.009806 -0.006798 0.016771 0.000003 0.003714 -0.000001
# 4 -0.000004 -0.000022 0.000003 0.094814 0.000002 0.003383
# 5 -0.004020 -0.004035 0.003714 0.000002 0.033408 0.000000
# 6 0.000001 0.000005 -0.000001 0.003383 0.000000 0.044652
#
#
# Mechanical properties :
#
#
# Convention : Reuss Voigt Hill
#
# Bulk Modulus (GPa) = 14.40990 44.97673 29.69331
# Shear Modulus (GPa) = 16.97640 27.04630 22.01135
#
# Velocity S-wave (km/s) = 3.02809 3.82208 3.44802
# Velocity P-wave (km/s) = 4.47313 6.61594 5.64711
#
# Compressibility (1/GPa) = 0.06939673
#
# Stress axis : x y z
#
# Youngs Moduli (GPa) = 76.57709 18.47439 59.62746
#
# Poissons Ratio (x) = -0.17223 0.58468
# Poissons Ratio (y) = -0.71389 0.40534
# Poissons Ratio (z) = 0.75088 0.12559
#
# Static dielectric constant tensor:
#      x y z
#    x 1.627960 0.000000 0.010990 
#    y 0.000000 1.701160 0.000000 
#    z 0.010990 0.000000 1.639300 
# 
# From -- ./inp_files/287349.got.cif
#   From: 2010.05.17/outbox.cif.g08.bks.cpg/sg12_144_cif.got.tgz:287349.got - 2010.06.03 13:09:07.
