data_PCOD9174635
_publ_section_title
;
Structure prediction by ZEFSAII (Michael W. Deem and Ramdas Pophale) SiO2 
 PCOD9174635
Probable space group: C 2/M
;
_chemical_formula_sum "Si O2"
_cell_formula_units_Z 56
_cell_length_a 23.603717
_cell_length_b 18.900886
_cell_length_c 23.441398
_cell_angle_alpha 90.000000
_cell_angle_beta 18.376420
_cell_angle_gamma 90.000000
_cell_volume 3296.953920
_symmetry_space_group_name_H-M "C 2/M"
_symmetry_group_IT_number 12
_symmetry_cell_setting 'monoclinic'
loop_
_space_group_symop_operation_xyz
x,y,z
-x,y,-z
-x,-y,-z
x,-y,z
1/2+x,1/2+y,z
1/2-x,1/2+y,-z
1/2-x,1/2-y,-z
1/2+x,1/2-y,z
loop_
_atom_site_type_symbol
_atom_site_label
_atom_site_fract_x
_atom_site_fract_y
_atom_site_fract_z
Si Si1 0.673376 0.709787 0.865639
Si Si2 0.025201 0.717220 0.343052
Si Si3 0.361059 0.823358 0.891010
Si Si4 0.242086 0.186282 0.462362
Si Si5 0.017573 0.078534 0.086873
Si Si6 0.022611 0.916059 0.217200
Si Si7 0.642275 0.118701 0.403667
O O1 0.801070 0.747822 0.789403
O O2 0.792079 0.682583 0.699793
O O3 0.500000 0.743033 0.000000
O O4 0.611107 0.639484 0.960326
O O5 0.079979 0.679123 0.231661
O O6 0.878988 0.778615 0.471400
O O7 0.944297 0.655055 0.458882
O O8 0.546517 0.828537 0.749652
O O9 0.250000 0.750000 0.000000
O O10 0.218254 0.883348 0.043644
O O11 0.250000 0.250000 0.500000
O O12 0.130085 0.123931 0.600206
O O13 0.816378 0.076458 0.255164
O O14 0.003383 0.097772 0.167352
O O15 0.100928 0.000000 0.002130
O O16 0.014216 0.000000 0.233901
O O17 0.500000 0.079389 0.500000
#
# Coordination Sequence:
#
# PCOD9174635 Si02
#       7
#     8   8   8   8   8   8   8
#     4   9  18  30  47  68  99 132 173 227 269 294
#     4  10  18  32  51  71 100 133 176 216 277 315
#     4  11  20  33  56  80 100 141 185 223 268 329
#     4  10  20  34  56  80 104 139 183 221 268 332
#     4  10  19  31  46  63  95 142 182 215 259 310
#     4  11  22  36  53  81 114 142 180 227 268 320
#     4   9  19  31  44  66  95 130 170 231 265 295
#
# _framework density 16.985375999999999
#
# number of rings (size 3 to 8) (size 9 to 14) (size 15 to 20)
#    0.000    2.000    4.286    1.714    0.000    3.429 
#    0.000    2.857    0.000    0.000    0.000    0.000 
#    0.000    5.714    0.000    0.000    0.000    0.000 
#
# Total GULP energy -155871.622266 kJ/mol
# GULP energy per Si atom -5566.843652 kJ/mol
# Density = 1.694672 g / cm^3
# Si number density = 16.985376 Si / 1000 Ang^3
#
#
#
# Elastic Constant Matrix: (Units=GPa)
#
#
# Indices 1 2 3 4 5 6 
#
# 1 74.6562 22.4240 35.4825 0.0040 -26.7121 -0.0042
# 2 22.4240 67.4952 37.6784 -0.0376 -0.3961 0.0016
# 3 35.4825 37.6784 103.8245 -0.0502 -21.4453 0.0030
# 4 0.0040 -0.0376 -0.0502 13.7330 0.0121 -10.5986
# 5 -26.7121 -0.3961 -21.4453 0.0121 45.1426 0.0010
# 6 -0.0042 0.0016 0.0030 -10.5986 0.0010 2.3071
#
#
#
# Elastic Compliance Matrix: (Units=1/GPa)
#
#
# Indices 1 2 3 4 5 6 
#
# 1 0.019980 -0.004973 -0.002872 0.000003 0.010415 0.000055
# 2 -0.004973 0.020292 -0.006914 -0.000011 -0.006049 -0.000063
# 3 -0.002872 -0.006914 0.014147 -0.000005 0.004960 -0.000044
# 4 0.000003 -0.000011 -0.000005 -0.028608 0.000010 -0.131420
# 5 0.010415 -0.006049 0.004960 0.000010 0.030618 0.000050
# 6 0.000055 -0.000063 -0.000044 -0.131420 0.000050 -0.170286
#
#
# Mechanical properties :
#
#
# Convention : Reuss Voigt Hill
#
# Bulk Modulus (GPa) = 40.16069 48.57173 44.36621
# Shear Modulus (GPa) = -65.75769 22.26262 -21.74753
#
# Velocity S-wave (km/s) = -6.22883 3.62428 -3.58210
# Velocity P-wave (km/s) = 5.29486 6.79501 3.01136
#
# Compressibility (1/GPa) = 0.02489997
#
# Stress axis : x y z
#
# Youngs Moduli (GPa) = 50.04987 49.27959 70.68663
#
# Poissons Ratio (x) = 0.24509 0.20302
# Poissons Ratio (y) = 0.24892 0.48873
# Poissons Ratio (z) = 0.14375 0.34072
#
# Static dielectric constant tensor:
#      x y z
#    x 1.624020 -0.000010 -0.056300 
#    y -0.000010 1.561970 0.000020 
#    z -0.056300 0.000020 1.663640 
# 
# From -- ./inp_files/349934.got.cif
#   From: 2010.05.17/outbox.cif.g08.bks.cpg/sg12_175_cif.got.tgz:349934.got - 2010.06.03 13:09:07.
