data_PCOD9174083
_publ_section_title
;
Structure prediction by ZEFSAII (Michael W. Deem and Ramdas Pophale) SiO2 
 PCOD9174083
Probable space group: C 2/M
;
_chemical_formula_sum "Si O2"
_cell_formula_units_Z 64
_cell_length_a 26.696765
_cell_length_b 7.488787
_cell_length_c 14.772962
_cell_angle_alpha 90.000000
_cell_angle_beta 85.230592
_cell_angle_gamma 90.000000
_cell_volume 2943.278093
_symmetry_space_group_name_H-M "C 2/M"
_symmetry_group_IT_number 12
_symmetry_cell_setting 'monoclinic'
loop_
_space_group_symop_operation_xyz
x,y,z
-x,y,-z
-x,-y,-z
x,-y,z
1/2+x,1/2+y,z
1/2-x,1/2+y,-z
1/2-x,1/2-y,-z
1/2+x,1/2-y,z
loop_
_atom_site_type_symbol
_atom_site_label
_atom_site_fract_x
_atom_site_fract_y
_atom_site_fract_z
Si Si1 0.269988 0.792490 0.897813
Si Si2 0.442700 0.718305 0.715195
Si Si3 0.253454 0.286234 0.291780
Si Si4 0.551352 0.717821 0.941281
Si Si5 0.146578 0.214552 0.400687
Si Si6 0.113808 0.214335 0.097075
Si Si7 0.946351 0.218096 0.267403
Si Si8 0.151829 0.218867 0.606783
O O1 0.245689 0.711179 0.810816
O O2 0.329381 0.759143 0.887948
O O3 0.260927 0.000000 0.889434
O O4 0.250000 0.750000 0.000000
O O5 0.442170 0.500000 0.714496
O O6 0.402233 0.779255 0.647184
O O7 0.422596 0.775446 0.816962
O O8 0.500499 0.773254 0.696976
O O9 0.260487 0.500000 0.287552
O O10 0.198211 0.255090 0.340856
O O11 0.297825 0.219136 0.349727
O O12 0.551316 0.500000 0.938006
O O13 0.554934 0.777225 0.837268
O O14 0.500000 0.769482 0.000000
O O15 0.596016 0.776875 0.001186
O O16 0.149619 0.279210 0.503252
O O17 0.142364 0.000000 0.404433
O O18 0.110008 0.000000 0.095985
O O19 0.897591 0.274181 0.330442
O O20 0.946052 0.000000 0.266440
O O21 0.152286 0.000000 0.605351
#
# Coordination Sequence:
#
# PCOD9174083 Si02
#       8
#     8   8   8   8   8   8   8   8
#     4  11  24  38  54  78 107 138 173 214 264 315
#     4   9  16  27  47  77 109 135 167 213 262 309
#     4  10  21  37  55  77 103 136 179 217 253 311
#     4   9  15  24  44  74 103 135 173 211 252 303
#     4  10  19  33  54  79 105 135 172 218 269 313
#     4  10  18  31  52  78 106 135 174 218 259 311
#     4   9  16  27  44  73 110 139 168 214 265 310
#     4   9  19  32  48  74 107 139 173 217 267 311
#
# _framework density 21.744461999999999
#
# number of rings (size 3 to 8) (size 9 to 14) (size 15 to 20)
#    0.000    2.375    2.500    0.750    1.750    1.000 
#    0.000    2.500    0.000    0.375    0.000    4.375 
#    0.000    0.000    0.000    0.000    0.000    0.000 
#
# Total GULP energy -178706.992521 kJ/mol
# GULP energy per Si atom -5584.593516 kJ/mol
# Density = 2.169497 g / cm^3
# Si number density = 21.744462 Si / 1000 Ang^3
#
#
#
# Elastic Constant Matrix: (Units=GPa)
#
#
# Indices 1 2 3 4 5 6 
#
# 1 140.2992 -2.6148 87.1948 0.0000 34.4801 0.0000
# 2 -2.6148 57.9020 10.6795 0.0000 4.1701 0.0000
# 3 87.1948 10.6795 199.6840 0.0000 21.4065 0.0000
# 4 0.0000 0.0000 0.0000 -7.3217 0.0000 6.8175
# 5 34.4801 4.1701 21.4065 0.0000 39.2778 0.0000
# 6 0.0000 0.0000 0.0000 6.8175 0.0000 5.1441
#
#
#
# Elastic Compliance Matrix: (Units=1/GPa)
#
#
# Indices 1 2 3 4 5 6 
#
# 1 0.011959 0.001955 -0.004438 0.000000 -0.008287 0.000000
# 2 0.001955 0.017838 -0.001509 0.000000 -0.002788 0.000000
# 3 -0.004438 -0.001509 0.007001 0.000000 0.000241 0.000000
# 4 0.000000 0.000000 0.000000 -0.061136 0.000000 0.081024
# 5 -0.008287 -0.002788 0.000241 0.000000 0.032899 0.000000
# 6 0.000000 0.000000 0.000000 0.081024 0.000000 0.087016
#
#
# Mechanical properties :
#
#
# Convention : Reuss Voigt Hill
#
# Bulk Modulus (GPa) = 34.70510 65.37824 50.04167
# Shear Modulus (GPa) = 44.18310 27.59509 35.88910
#
# Velocity S-wave (km/s) = 4.51258 3.56626 4.06703
# Velocity P-wave (km/s) = 6.56858 6.86218 6.71698
#
# Compressibility (1/GPa) = 0.02881421
#
# Stress axis : x y z
#
# Youngs Moduli (GPa) = 83.61874 56.06018 142.84024
#
# Poissons Ratio (x) = -0.10962 0.63396
# Poissons Ratio (y) = -0.16351 0.21555
# Poissons Ratio (z) = 0.37112 0.08460
#
# Static dielectric constant tensor:
#      x y z
#    x 1.750790 0.000000 0.032640 
#    y 0.000000 1.842090 0.000000 
#    z 0.032640 0.000000 1.789900 
# 
# From -- ./inp_files/238712.got.cif
#   From: 2010.05.17/outbox.cif.g08.bks.cpg/sg12_120_cif.got.tgz:238712.got - 2010.06.03 13:09:07.
