data_PCOD9174040
_publ_section_title
;
Structure prediction by ZEFSAII (Michael W. Deem and Ramdas Pophale) SiO2 
 PCOD9174040
Probable space group: C 2/M
;
_chemical_formula_sum "Si O2"
_cell_formula_units_Z 56
_cell_length_a 20.601952
_cell_length_b 14.536825
_cell_length_c 11.494596
_cell_angle_alpha 90.000000
_cell_angle_beta 131.722542
_cell_angle_gamma 90.000000
_cell_volume 2569.387132
_symmetry_space_group_name_H-M "C 2/M"
_symmetry_group_IT_number 12
_symmetry_cell_setting 'monoclinic'
loop_
_space_group_symop_operation_xyz
x,y,z
-x,y,-z
-x,-y,-z
x,-y,z
1/2+x,1/2+y,z
1/2-x,1/2+y,-z
1/2-x,1/2-y,-z
1/2+x,1/2-y,z
loop_
_atom_site_type_symbol
_atom_site_label
_atom_site_fract_x
_atom_site_fract_y
_atom_site_fract_z
Si Si1 0.017581 0.224518 0.718000
Si Si2 0.743751 0.395007 0.477551
Si Si3 0.374764 0.244428 0.730061
Si Si4 0.368882 0.605144 0.423019
Si Si5 0.596524 0.097276 0.062010
Si Si6 0.185378 0.110013 0.901394
Si Si7 0.379792 0.104085 0.185512
O O1 0.101708 0.163202 0.847448
O O2 0.054255 0.316164 0.699282
O O3 0.967210 0.243777 0.778767
O O4 0.948715 0.169977 0.555534
O O5 0.762846 0.500000 0.467541
O O6 0.673161 0.341520 0.316141
O O7 0.824835 0.326024 0.582545
O O8 0.697734 0.393136 0.549068
O O9 0.369083 0.190187 0.842783
O O10 0.401294 0.500000 0.450335
O O11 0.320493 0.628601 0.245089
O O12 0.640035 0.000000 0.152630
O O13 0.500000 0.092827 0.000000
O O14 0.600897 0.097350 0.929704
O O15 0.176801 0.000000 0.905105
O O16 0.278499 0.134130 0.068608
O O17 0.389891 0.000000 0.245713
#
# Coordination Sequence:
#
# PCOD9174040 Si02
#       7
#     8   8   8   8   8   8   8
#     4  11  20  31  50  79 110 137 168 212 261 310
#     4   9  18  32  51  76 107 136 164 209 262 311
#     4  10  19  30  49  77 106 135 169 208 257 315
#     4   9  18  34  57  82 104 131 173 218 262 308
#     4  10  18  31  52  76 103 129 162 212 259 300
#     4  10  20  35  55  78 105 136 175 219 261 305
#     4  10  21  35  53  79 107 139 174 213 262 311
#
# _framework density 21.795082000000001
#
# number of rings (size 3 to 8) (size 9 to 14) (size 15 to 20)
#    0.000    2.143    1.429    2.571    0.000    4.571 
#    0.000    0.000    0.000    3.857    0.000   10.000 
#    0.000    0.000    0.000    0.000    0.000    0.000 
#
# Total GULP energy -156266.308515 kJ/mol
# GULP energy per Si atom -5580.939590 kJ/mol
# Density = 2.174547 g / cm^3
# Si number density = 21.795082 Si / 1000 Ang^3
#
#
#
# Elastic Constant Matrix: (Units=GPa)
#
#
# Indices 1 2 3 4 5 6 
#
# 1 55.4835 6.8685 2.0039 0.0000 16.4913 0.0000
# 2 6.8685 94.3160 32.5001 0.0000 5.2118 0.0000
# 3 2.0039 32.5001 44.8199 0.0000 14.6618 0.0000
# 4 0.0000 0.0000 0.0000 -43.3083 0.0000 -45.3124
# 5 16.4913 5.2118 14.6618 0.0000 26.4318 0.0000
# 6 0.0000 0.0000 0.0000 -45.3124 0.0000 -10.9710
#
#
#
# Elastic Compliance Matrix: (Units=1/GPa)
#
#
# Indices 1 2 3 4 5 6 
#
# 1 0.023510 -0.003179 0.007144 0.000000 -0.018004 0.000000
# 2 -0.003179 0.014841 -0.012597 0.000000 0.006044 0.000000
# 3 0.007144 -0.012597 0.038815 0.000000 -0.023504 0.000000
# 4 0.000000 0.000000 0.000000 0.006952 0.000000 -0.028714
# 5 -0.018004 0.006044 -0.023504 0.000000 0.060912 0.000000
# 6 0.000000 0.000000 0.000000 -0.028714 0.000000 0.027444
#
#
# Mechanical properties :
#
#
# Convention : Reuss Voigt Hill
#
# Bulk Modulus (GPa) = 16.69383 30.81827 23.75605
# Shear Modulus (GPa) = 23.84297 4.64695 14.24496
#
# Velocity S-wave (km/s) = 3.31110 1.46176 2.55931
# Velocity P-wave (km/s) = 4.72164 4.12549 4.43360
#
# Compressibility (1/GPa) = 0.05990236
#
# Stress axis : x y z
#
# Youngs Moduli (GPa) = 42.53461 67.38189 25.76322
#
# Poissons Ratio (x) = 0.21419 -0.18404
# Poissons Ratio (y) = 0.13521 0.32453
# Poissons Ratio (z) = -0.30385 0.84878
#
# Static dielectric constant tensor:
#      x y z
#    x 1.778150 0.000000 0.019700 
#    y 0.000000 1.841060 0.000000 
#    z 0.019700 0.000000 1.841460 
# 
# From -- ./inp_files/240456.got.cif
#   From: 2010.05.17/outbox.cif.g08.bks.cpg/sg12_121_cif.got.tgz:240456.got - 2010.06.03 13:09:07.
