data_PCOD9174168
_publ_section_title
;
Structure prediction by ZEFSAII (Michael W. Deem and Ramdas Pophale) SiO2 
 PCOD9174168
Probable space group: C 2/M
;
_chemical_formula_sum "Si O2"
_cell_formula_units_Z 56
_cell_length_a 19.514012
_cell_length_b 7.411431
_cell_length_c 18.669670
_cell_angle_alpha 90.000000
_cell_angle_beta 96.616474
_cell_angle_gamma 90.000000
_cell_volume 2682.149998
_symmetry_space_group_name_H-M "C 2/M"
_symmetry_group_IT_number 12
_symmetry_cell_setting 'monoclinic'
loop_
_space_group_symop_operation_xyz
x,y,z
-x,y,-z
-x,-y,-z
x,-y,z
1/2+x,1/2+y,z
1/2-x,1/2+y,-z
1/2-x,1/2-y,-z
1/2+x,1/2-y,z
loop_
_atom_site_type_symbol
_atom_site_label
_atom_site_fract_x
_atom_site_fract_y
_atom_site_fract_z
Si Si1 0.863707 0.294608 0.823491
Si Si2 0.755091 0.284023 0.916765
Si Si3 0.135022 0.219156 0.795889
Si Si4 0.482657 0.789774 0.735089
Si Si5 0.306974 0.784856 0.565581
Si Si6 0.037030 0.720264 0.430707
Si Si7 0.738371 0.294415 0.696621
O O1 0.886369 0.500000 0.844585
O O2 0.826398 0.213366 0.889267
O O3 0.924653 0.211970 0.782295
O O4 0.797904 0.304316 0.763058
O O5 0.757442 0.500000 0.906276
O O6 0.686072 0.221355 0.866170
O O7 0.750000 0.250000 0.000000
O O8 0.172070 0.284790 0.727344
O O9 0.056199 0.276709 0.782783
O O10 0.135666 0.000000 0.796068
O O11 0.486837 0.721385 0.652871
O O12 0.462398 0.000000 0.724081
O O13 0.250000 0.750000 0.500000
O O14 0.383087 0.721399 0.555882
O O15 0.274263 0.706370 0.633610
O O16 0.315678 0.000000 0.577322
O O17 0.031809 0.500000 0.430934
O O18 0.000000 0.780638 0.500000
O O19 0.718994 0.500000 0.673897
#
# Coordination Sequence:
#
# PCOD9174168 Si02
#       7
#     8   8   8   8   8   8   8
#     4   8  14  29  52  73  91 124 168 200 229 279
#     4   9  18  34  56  77 100 128 161 199 241 290
#     4   9  19  33  50  73 101 130 159 196 247 295
#     4  10  18  31  53  75  97 129 171 208 238 284
#     4  10  19  31  48  68  94 126 163 206 248 291
#     4   9  18  31  47  70 100 132 165 206 253 289
#     4   8  14  29  49  65  87 127 169 197 231 287
#
# _framework density 20.878772999999999
#
# number of rings (size 3 to 8) (size 9 to 14) (size 15 to 20)
#    0.000    3.000    1.429    1.714    2.000    0.571 
#    0.000    2.143    0.000    6.857    0.000    0.000 
#    0.000    0.000    0.000    0.000    0.000    0.000 
#
# Total GULP energy -155888.330222 kJ/mol
# GULP energy per Si atom -5567.440365 kJ/mol
# Density = 2.083125 g / cm^3
# Si number density = 20.878773 Si / 1000 Ang^3
#
#
#
# Elastic Constant Matrix: (Units=GPa)
#
#
# Indices 1 2 3 4 5 6 
#
# 1 147.3608 -0.5330 79.4916 0.0000 -22.4813 0.0000
# 2 -0.5330 69.0383 2.1301 0.0000 -5.2497 0.0000
# 3 79.4916 2.1301 154.4164 0.0000 -36.2985 0.0000
# 4 0.0000 0.0000 0.0000 3.2512 0.0000 13.7652
# 5 -22.4813 -5.2497 -36.2985 0.0000 35.4287 0.0000
# 6 0.0000 0.0000 0.0000 13.7652 0.0000 5.2353
#
#
#
# Elastic Compliance Matrix: (Units=1/GPa)
#
#
# Indices 1 2 3 4 5 6 
#
# 1 0.009449 0.000319 -0.004542 0.000000 0.001390 0.000000
# 2 0.000319 0.014680 0.000253 0.000000 0.002637 0.000000
# 3 -0.004542 0.000253 0.010725 0.000000 0.008144 0.000000
# 4 0.000000 0.000000 0.000000 -0.030357 0.000000 0.079817
# 5 0.001390 0.002637 0.008144 0.000000 0.037842 0.000000
# 6 0.000000 0.000000 0.000000 0.079817 0.000000 -0.018852
#
#
# Mechanical properties :
#
#
# Convention : Reuss Voigt Hill
#
# Bulk Modulus (GPa) = 37.15518 59.22143 48.18831
# Shear Modulus (GPa) = 123.76453 28.09815 75.93134
#
# Velocity S-wave (km/s) = 7.70755 3.67246 6.03711
# Velocity P-wave (km/s) = 9.85103 6.81239 8.46910
#
# Compressibility (1/GPa) = 0.02691415
#
# Stress axis : x y z
#
# Youngs Moduli (GPa) = 105.82637 68.12041 93.23930
#
# Poissons Ratio (x) = -0.02172 0.42351
# Poissons Ratio (y) = -0.03373 -0.02361
# Poissons Ratio (z) = 0.48068 -0.01725
#
# Static dielectric constant tensor:
#      x y z
#    x 1.742060 0.000000 -0.046490 
#    y 0.000000 1.765620 0.000000 
#    z -0.046490 0.000000 1.792000 
# 
# From -- ./inp_files/280421.got.cif
#   From: 2010.05.17/outbox.cif.g08.bks.cpg/sg12_141_cif.got.tgz:280421.got - 2010.06.03 13:09:07.
