data_PCOD9174111
_publ_section_title
;
Structure prediction by ZEFSAII (Michael W. Deem and Ramdas Pophale) SiO2 
 PCOD9174111
Probable space group: C 2/M
;
_chemical_formula_sum "Si O2"
_cell_formula_units_Z 48
_cell_length_a 25.277321
_cell_length_b 7.568699
_cell_length_c 11.862794
_cell_angle_alpha 90.000000
_cell_angle_beta 110.677769
_cell_angle_gamma 90.000000
_cell_volume 2123.345720
_symmetry_space_group_name_H-M "C 2/M"
_symmetry_group_IT_number 12
_symmetry_cell_setting 'monoclinic'
loop_
_space_group_symop_operation_xyz
x,y,z
-x,y,-z
-x,-y,-z
x,-y,z
1/2+x,1/2+y,z
1/2-x,1/2+y,-z
1/2-x,1/2-y,-z
1/2+x,1/2-y,z
loop_
_atom_site_type_symbol
_atom_site_label
_atom_site_fract_x
_atom_site_fract_y
_atom_site_fract_z
Si Si1 0.862354 0.207674 0.391414
Si Si2 0.371743 0.787529 0.647998
Si Si3 0.733600 0.783813 0.301732
Si Si4 0.306314 0.788325 0.972088
Si Si5 0.980014 0.283805 0.860790
Si Si6 0.912659 0.291677 0.192155
O O1 0.888165 0.239907 0.533461
O O2 0.798080 0.281131 0.348105
O O3 0.897746 0.274345 0.312007
O O4 0.857256 0.000000 0.368962
O O5 0.308539 0.723880 0.631155
O O6 0.418469 0.725071 0.772547
O O7 0.370385 0.000000 0.653477
O O8 0.735766 0.000000 0.306357
O O9 0.703813 0.728218 0.162716
O O10 0.360737 0.716984 0.079040
O O11 0.312234 0.000000 0.970239
O O12 0.250000 0.750000 0.000000
O O13 0.977688 0.500000 0.861286
O O14 0.027314 0.224494 0.806493
O O15 0.000000 0.228328 0.000000
O O16 0.914261 0.500000 0.169184
#
# Coordination Sequence:
#
# PCOD9174111 Si02
#       6
#     8   8   8   8   8   8
#     4  11  22  36  53  77 113 148 180 219 267 322
#     4  10  20  36  58  80 105 140 183 226 267 316
#     4   9  18  33  54  79 108 142 177 220 270 317
#     4  10  18  31  52  79 109 137 171 214 264 318
#     4   9  18  35  60  86 107 133 176 228 274 315
#     4  10  20  34  56  84 110 139 179 224 266 317
#
# _framework density 22.605833000000001
#
# number of rings (size 3 to 8) (size 9 to 14) (size 15 to 20)
#    0.000    2.167    1.667    2.000    0.000    4.667 
#    0.000    5.833    0.000    4.000    0.000    0.000 
#    0.000    0.000    0.000    0.000    0.000    0.000 
#
# Total GULP energy -134084.576330 kJ/mol
# GULP energy per Si atom -5586.857347 kJ/mol
# Density = 2.255438 g / cm^3
# Si number density = 22.605833 Si / 1000 Ang^3
#
#
#
# Elastic Constant Matrix: (Units=GPa)
#
#
# Indices 1 2 3 4 5 6 
#
# 1 124.9071 -1.2371 30.1968 0.0000 -8.6497 0.0000
# 2 -1.2371 48.8250 -13.3322 0.0000 5.5259 0.0000
# 3 30.1968 -13.3322 97.6109 0.0000 -11.6890 0.0000
# 4 0.0000 0.0000 0.0000 3.7912 0.0000 -0.1158
# 5 -8.6497 5.5259 -11.6890 0.0000 30.8627 0.0000
# 6 0.0000 0.0000 0.0000 -0.1158 0.0000 11.7861
#
#
#
# Elastic Compliance Matrix: (Units=1/GPa)
#
#
# Indices 1 2 3 4 5 6 
#
# 1 0.008739 -0.000669 -0.002605 0.000000 0.001582 0.000000
# 2 -0.000669 0.021566 0.002794 0.000000 -0.002990 0.000000
# 3 -0.002605 0.002794 0.011821 0.000000 0.003247 0.000000
# 4 0.000000 0.000000 0.000000 0.263851 0.000000 0.002592
# 5 0.001582 -0.002990 0.003247 0.000000 0.034610 0.000000
# 6 0.000000 0.000000 0.000000 0.002592 0.000000 0.084871
#
#
# Mechanical properties :
#
#
# Convention : Reuss Voigt Hill
#
# Bulk Modulus (GPa) = 24.29194 33.62201 28.95697
# Shear Modulus (GPa) = 11.36003 26.33569 18.84786
#
# Velocity S-wave (km/s) = 2.24414 3.41691 2.89062
# Velocity P-wave (km/s) = 4.18140 5.52018 4.89676
#
# Compressibility (1/GPa) = 0.04116592
#
# Stress axis : x y z
#
# Youngs Moduli (GPa) = 114.43306 46.36957 84.59367
#
# Poissons Ratio (x) = 0.03102 0.22039
# Poissons Ratio (y) = 0.07656 -0.23639
# Poissons Ratio (z) = 0.29813 -0.12958
#
# Static dielectric constant tensor:
#      x y z
#    x 1.836240 0.000000 0.007600 
#    y 0.000000 1.861920 0.000000 
#    z 0.007600 0.000000 1.818270 
# 
# From -- ./inp_files/173033.got.cif
#   From: 2010.05.17/outbox.cif.g08.bks.cpg/sg12_87_cif.got.tgz:173033.got - 2010.06.03 13:09:07.
