data_PCOD9174407
_publ_section_title
;
Structure prediction by ZEFSAII (Michael W. Deem and Ramdas Pophale) SiO2 
 PCOD9174407
Probable space group: C 2/M
;
_chemical_formula_sum "Si O2"
_cell_formula_units_Z 56
_cell_length_a 19.729120
_cell_length_b 8.494378
_cell_length_c 27.894859
_cell_angle_alpha 90.000000
_cell_angle_beta 139.234347
_cell_angle_gamma 90.000000
_cell_volume 3052.491734
_symmetry_space_group_name_H-M "C 2/M"
_symmetry_group_IT_number 12
_symmetry_cell_setting 'monoclinic'
loop_
_space_group_symop_operation_xyz
x,y,z
-x,y,-z
-x,-y,-z
x,-y,z
1/2+x,1/2+y,z
1/2-x,1/2+y,-z
1/2-x,1/2-y,-z
1/2+x,1/2-y,z
loop_
_atom_site_type_symbol
_atom_site_label
_atom_site_fract_x
_atom_site_fract_y
_atom_site_fract_z
Si Si1 0.480063 0.821878 0.211415
Si Si2 0.438580 0.812231 0.293011
Si Si3 0.530238 0.312372 0.069284
Si Si4 0.677771 0.812297 0.419176
Si Si5 0.803890 0.180867 0.674185
Si Si6 0.638972 0.820870 0.951710
Si Si7 0.765071 0.806354 0.761233
O O1 0.413686 0.791093 0.223346
O O2 0.571716 0.697800 0.256836
O O3 0.417791 0.822711 0.129697
O O4 0.525509 0.000000 0.242545
O O5 0.557769 0.754218 0.361870
O O6 0.343390 0.751757 0.273548
O O7 0.442525 0.000000 0.304526
O O8 0.544724 0.500000 0.072312
O O9 0.432176 0.276508 0.050332
O O10 0.634827 0.254598 0.153216
O O11 0.500000 0.250476 0.000000
O O12 0.750000 0.750000 0.500000
O O13 0.720195 0.762734 0.389417
O O14 0.675161 0.000000 0.419752
O O15 0.769212 0.244642 0.707644
O O16 0.770759 0.000000 0.653122
O O17 0.647709 0.000000 0.974206
O O18 0.750000 0.750000 0.000000
O O19 0.768003 0.000000 0.762425
#
# Coordination Sequence:
#
# PCOD9174407 Si02
#       7
#     8   8   8   8   8   8   8
#     4   9  18  33  53  74 100 139 182 227 270 321
#     4   8  16  31  53  79 103 133 178 221 261 315
#     4  10  21  36  56  80 109 148 191 235 285 336
#     4  10  20  36  58  82 110 142 179 220 266 319
#     4  10  18  31  55  82 108 137 173 217 267 324
#     4  11  23  36  53  76 108 144 188 239 288 336
#     4   9  17  31  53  80 108 139 179 226 268 322
#
# _framework density 18.345669000000001
#
# number of rings (size 3 to 8) (size 9 to 14) (size 15 to 20)
#    0.000    2.429    1.429    2.143    2.000    0.857 
#    0.000    0.714    0.000   14.571    0.000    0.000 
#    0.000    0.000    0.000    0.000    0.000    0.000 
#
# Total GULP energy -155898.422673 kJ/mol
# GULP energy per Si atom -5567.800810 kJ/mol
# Density = 1.830391 g / cm^3
# Si number density = 18.345669 Si / 1000 Ang^3
#
#
#
# Elastic Constant Matrix: (Units=GPa)
#
#
# Indices 1 2 3 4 5 6 
#
# 1 164.6843 5.9248 68.9522 0.0000 -15.4741 0.0000
# 2 5.9248 8.4882 13.7810 0.0000 -8.9438 0.0000
# 3 68.9522 13.7810 98.7563 0.0000 -23.3003 0.0000
# 4 0.0000 0.0000 0.0000 17.6349 0.0000 -0.5235
# 5 -15.4741 -8.9438 -23.3003 0.0000 26.4651 0.0000
# 6 0.0000 0.0000 0.0000 -0.5235 0.0000 21.8122
#
#
#
# Elastic Compliance Matrix: (Units=1/GPa)
#
#
# Indices 1 2 3 4 5 6 
#
# 1 0.008765 0.006079 -0.006657 0.000000 0.001318 0.000000
# 2 0.006079 0.203431 -0.019656 0.000000 0.054998 0.000000
# 3 -0.006657 -0.019656 0.018972 0.000000 0.006168 0.000000
# 4 0.000000 0.000000 0.000000 0.056746 0.000000 0.001362
# 5 0.001318 0.054998 0.006168 0.000000 0.062574 0.000000
# 6 0.000000 0.000000 0.000000 0.001362 0.000000 0.045879
#
#
# Mechanical properties :
#
#
# Convention : Reuss Voigt Hill
#
# Bulk Modulus (GPa) = 5.24386 49.91607 27.57997
# Shear Modulus (GPa) = 9.99201 25.40049 17.69625
#
# Velocity S-wave (km/s) = 2.33631 3.72499 3.10917
# Velocity P-wave (km/s) = 3.18471 6.76524 5.28729
#
# Compressibility (1/GPa) = 0.19069918
#
# Stress axis : x y z
#
# Youngs Moduli (GPa) = 114.09662 4.91568 52.70939
#
# Poissons Ratio (x) = -0.02988 0.35087
# Poissons Ratio (y) = -0.69358 1.03607
# Poissons Ratio (z) = 0.75950 0.09662
#
# Static dielectric constant tensor:
#      x y z
#    x 1.639090 0.000000 -0.012670 
#    y 0.000000 1.667640 0.000000 
#    z -0.012670 0.000000 1.643290 
# 
# From -- ./inp_files/363198.got.cif
#   From: 2010.05.17/outbox.cif.g08.bks.cpg/sg12_182_cif.got.tgz:363198.got - 2010.06.03 13:09:07.
