data_PCOD9174324
_publ_section_title
;
Structure prediction by ZEFSAII (Michael W. Deem and Ramdas Pophale) SiO2 
 PCOD9174324
Probable space group: C 2/M
;
_chemical_formula_sum "Si O2"
_cell_formula_units_Z 56
_cell_length_a 23.874603
_cell_length_b 7.384749
_cell_length_c 16.323046
_cell_angle_alpha 90.000000
_cell_angle_beta 126.464416
_cell_angle_gamma 90.000000
_cell_volume 2314.468523
_symmetry_space_group_name_H-M "C 2/M"
_symmetry_group_IT_number 12
_symmetry_cell_setting 'monoclinic'
loop_
_space_group_symop_operation_xyz
x,y,z
-x,y,-z
-x,-y,-z
x,-y,z
1/2+x,1/2+y,z
1/2-x,1/2+y,-z
1/2-x,1/2-y,-z
1/2+x,1/2-y,z
loop_
_atom_site_type_symbol
_atom_site_label
_atom_site_fract_x
_atom_site_fract_y
_atom_site_fract_z
Si Si1 0.821575 0.303046 0.513259
Si Si2 0.426978 0.219000 0.227535
Si Si3 0.840433 0.221311 0.861751
Si Si4 0.043850 0.278420 0.456015
Si Si5 0.963866 0.208944 0.078566
Si Si6 0.887486 0.219706 0.735716
Si Si7 0.274943 0.216347 0.114553
O O1 0.803956 0.500000 0.463537
O O2 0.750000 0.250000 0.500000
O O3 0.875725 0.217656 0.492979
O O4 0.871998 0.305161 0.635872
O O5 0.493251 0.279614 0.337327
O O6 0.426259 0.282575 0.133354
O O7 0.353137 0.279845 0.198945
O O8 0.428807 0.000000 0.228137
O O9 0.833424 0.267354 0.760508
O O10 0.779650 0.287211 0.867268
O O11 0.842647 0.000000 0.866862
O O12 0.913057 0.284128 0.965625
O O13 0.047332 0.500000 0.459773
O O14 0.000000 0.227894 0.500000
O O15 0.039132 0.284746 0.164670
O O16 0.976471 0.000000 0.067828
O O17 0.888583 0.000000 0.725993
O O18 0.276060 0.000000 0.124820
O O19 0.250000 0.250000 0.000000
#
# Coordination Sequence:
#
# PCOD9174324 Si02
#       7
#     8   8   8   8   8   8   8
#     4  11  23  40  63  88 116 149 189 240 296 351
#     4  10  19  32  53  80 106 137 180 227 274 326
#     4   9  18  32  51  80 114 150 189 226 266 324
#     4   9  19  37  61  86 110 142 189 238 285 344
#     4  10  18  31  54  80 109 145 184 223 265 320
#     4  10  20  35  57  83 111 147 191 232 275 330
#     4  10  19  31  50  75 107 145 184 228 272 323
#
# _framework density 24.195618
#
# number of rings (size 3 to 8) (size 9 to 14) (size 15 to 20)
#    0.000    2.143    2.857    0.857    0.000    2.857 
#    0.000    5.714    0.000    7.286    0.000    0.000 
#    0.000    0.000    0.000    0.000    0.000    0.000 
#
# Total GULP energy -156175.764888 kJ/mol
# GULP energy per Si atom -5577.705889 kJ/mol
# Density = 2.414055 g / cm^3
# Si number density = 24.195618 Si / 1000 Ang^3
#
#
#
# Elastic Constant Matrix: (Units=GPa)
#
#
# Indices 1 2 3 4 5 6 
#
# 1 157.7725 1.3191 26.6609 0.0000 14.5253 0.0000
# 2 1.3191 84.6905 -5.3242 0.0000 5.8650 0.0000
# 3 26.6609 -5.3242 36.2808 0.0000 2.9727 0.0000
# 4 0.0000 0.0000 0.0000 10.1616 0.0000 -0.1439
# 5 14.5253 5.8650 2.9727 0.0000 46.7474 0.0000
# 6 0.0000 0.0000 0.0000 -0.1439 0.0000 10.2776
#
#
#
# Elastic Compliance Matrix: (Units=1/GPa)
#
#
# Indices 1 2 3 4 5 6 
#
# 1 0.007421 -0.000318 -0.005342 0.000000 -0.001926 0.000000
# 2 -0.000318 0.012054 0.002130 0.000000 -0.001549 0.000000
# 3 -0.005342 0.002130 0.031853 0.000000 -0.000633 0.000000
# 4 0.000000 0.000000 0.000000 0.098430 0.000000 0.001378
# 5 -0.001926 -0.001549 -0.000633 0.000000 0.022225 0.000000
# 6 0.000000 0.000000 0.000000 0.001378 0.000000 0.097319
#
#
# Mechanical properties :
#
#
# Convention : Reuss Voigt Hill
#
# Bulk Modulus (GPa) = 22.59057 36.00615 29.29836
# Shear Modulus (GPa) = 17.17523 30.50985 23.84254
#
# Velocity S-wave (km/s) = 2.66719 3.55486 3.14253
# Velocity P-wave (km/s) = 4.34075 5.63586 5.03016
#
# Compressibility (1/GPa) = 0.04426625
#
# Stress axis : x y z
#
# Youngs Moduli (GPa) = 134.75339 82.96147 31.39445
#
# Poissons Ratio (x) = 0.02638 0.16771
# Poissons Ratio (y) = 0.04286 -0.06686
# Poissons Ratio (z) = 0.71987 -0.17667
#
# Static dielectric constant tensor:
#      x y z
#    x 2.014690 0.000000 0.032520 
#    y 0.000000 1.950320 0.000000 
#    z 0.032520 0.000000 1.871790 
# 
# From -- ./inp_files/288396.got.cif
#   From: 2010.05.17/outbox.cif.g08.bks.cpg/sg12_145_cif.got.tgz:288396.got - 2010.06.03 13:09:07.
