data_PCOD9174204
_publ_section_title
;
Structure prediction by ZEFSAII (Michael W. Deem and Ramdas Pophale) SiO2 
 PCOD9174204
Probable space group: C 2/M
;
_chemical_formula_sum "Si O2"
_cell_formula_units_Z 52
_cell_length_a 20.998091
_cell_length_b 9.973804
_cell_length_c 19.777295
_cell_angle_alpha 90.000000
_cell_angle_beta 43.825984
_cell_angle_gamma 90.000000
_cell_volume 2868.195595
_symmetry_space_group_name_H-M "C 2/M"
_symmetry_group_IT_number 12
_symmetry_cell_setting 'monoclinic'
loop_
_space_group_symop_operation_xyz
x,y,z
-x,y,-z
-x,-y,-z
x,-y,z
1/2+x,1/2+y,z
1/2-x,1/2+y,-z
1/2-x,1/2-y,-z
1/2+x,1/2-y,z
loop_
_atom_site_type_symbol
_atom_site_label
_atom_site_fract_x
_atom_site_fract_y
_atom_site_fract_z
Si Si1 0.145173 0.339449 0.387384
Si Si2 0.988523 0.337522 0.394870
Si Si3 0.746318 0.648535 0.102911
Si Si4 0.302668 0.343471 0.177416
Si Si5 0.059105 0.352323 0.099605
Si Si6 0.467499 0.655350 0.767116
Si Si7 0.000000 0.737682 0.000000
O O1 0.145874 0.500000 0.393735
O O2 0.075490 0.311777 0.378338
O O3 0.246651 0.296195 0.286704
O O4 0.099172 0.293864 0.492394
O O5 0.986518 0.500000 0.383313
O O6 0.997219 0.247144 0.321757
O O7 0.758873 0.500000 0.124910
O O8 0.761432 0.762100 0.146436
O O9 0.643545 0.652774 0.154345
O O10 0.829605 0.660635 0.985883
O O11 0.283413 0.500000 0.183235
O O12 0.411329 0.320517 0.092122
O O13 0.035401 0.500000 0.144585
O O14 0.014323 0.234217 0.177207
O O15 0.031409 0.342843 0.042176
O O16 0.499010 0.500000 0.741648
#
# Coordination Sequence:
#
# PCOD9174204 Si02
#       7
#     8   8   8   8   8   8   4
#     4   8  15  28  50  77 103 136 175 211 244 297
#     4   9  16  30  51  75 104 138 175 206 246 309
#     4   9  19  33  48  73 106 138 170 206 253 308
#     4  10  18  31  53  78 105 137 172 212 255 299
#     4  10  21  37  55  71  97 139 178 211 252 308
#     4  11  21  32  49  78 111 135 164 213 265 308
#     4  10  22  36  54  80 102 126 174 224 260 298
#
# _framework density 18.129864999999999
#
# number of rings (size 3 to 8) (size 9 to 14) (size 15 to 20)
#    0.000    2.462    1.538    2.308    0.000    4.308 
#    0.000    2.308    0.000    0.923    0.000    0.000 
#    0.000    0.000    0.000    0.000    0.000    0.000 
#
# Total GULP energy -144758.351969 kJ/mol
# GULP energy per Si atom -5567.628922 kJ/mol
# Density = 1.808860 g / cm^3
# Si number density = 18.129865 Si / 1000 Ang^3
#
#
#
# Elastic Constant Matrix: (Units=GPa)
#
#
# Indices 1 2 3 4 5 6 
#
# 1 34.1279 22.6675 28.1584 0.0000 7.6499 0.0000
# 2 22.6675 105.6779 57.3202 0.0000 14.0991 -0.0002
# 3 28.1584 57.3202 119.6766 0.0000 7.6531 0.0000
# 4 0.0000 0.0000 0.0000 21.9367 0.0000 5.4319
# 5 7.6499 14.0991 7.6531 0.0000 24.1921 0.0000
# 6 0.0000 -0.0002 0.0000 5.4319 0.0000 9.0836
#
#
#
# Elastic Compliance Matrix: (Units=1/GPa)
#
#
# Indices 1 2 3 4 5 6 
#
# 1 0.039267 -0.003523 -0.007031 0.000000 -0.008139 0.000000
# 2 -0.003523 0.013897 -0.005492 0.000000 -0.005248 0.000000
# 3 -0.007031 -0.005492 0.012548 0.000000 0.001455 0.000000
# 4 0.000000 0.000000 0.000000 0.053509 0.000000 -0.031998
# 5 -0.008139 -0.005248 0.001455 0.000000 0.046508 0.000000
# 6 0.000000 0.000000 0.000000 -0.031998 0.000000 0.129223
#
#
# Mechanical properties :
#
#
# Convention : Reuss Voigt Hill
#
# Bulk Modulus (GPa) = 29.74407 52.86387 41.30397
# Shear Modulus (GPa) = 14.78193 21.13155 17.95674
#
# Velocity S-wave (km/s) = 2.85851 3.41774 3.15056
# Velocity P-wave (km/s) = 5.22843 6.69301 6.00553
#
# Compressibility (1/GPa) = 0.03362014
#
# Stress axis : x y z
#
# Youngs Moduli (GPa) = 25.46651 71.95649 79.69703
#
# Poissons Ratio (x) = 0.25350 0.56037
# Poissons Ratio (y) = 0.08972 0.43767
# Poissons Ratio (z) = 0.17906 0.39517
#
# Static dielectric constant tensor:
#      x y z
#    x 1.619390 0.000000 -0.021830 
#    y 0.000000 1.628710 0.000000 
#    z -0.021830 0.000000 1.661590 
# 
# From -- ./inp_files/324033.got.cif
#   From: 2010.05.17/outbox.cif.g08.bks.cpg/sg12_163_cif.got.tgz:324033.got - 2010.06.03 13:09:07.
