data_PCOD9174894
_publ_section_title
;
Structure prediction by ZEFSAII (Michael W. Deem and Ramdas Pophale) SiO2 
 PCOD9174894
Probable space group: C 2/M
;
_chemical_formula_sum "Si O2"
_cell_formula_units_Z 56
_cell_length_a 29.143415
_cell_length_b 7.536472
_cell_length_c 22.691436
_cell_angle_alpha 90.000000
_cell_angle_beta 28.936130
_cell_angle_gamma 90.000000
_cell_volume 2411.388603
_symmetry_space_group_name_H-M "C 2/M"
_symmetry_group_IT_number 12
_symmetry_cell_setting 'monoclinic'
loop_
_space_group_symop_operation_xyz
x,y,z
-x,y,-z
-x,-y,-z
x,-y,z
1/2+x,1/2+y,z
1/2-x,1/2+y,-z
1/2-x,1/2-y,-z
1/2+x,1/2-y,z
loop_
_atom_site_type_symbol
_atom_site_label
_atom_site_fract_x
_atom_site_fract_y
_atom_site_fract_z
Si Si1 0.384653 0.796605 0.384302
Si Si2 0.401552 0.295702 0.858511
Si Si3 0.946808 0.787037 0.001429
Si Si4 0.729429 0.782456 0.240615
Si Si5 0.626502 0.210718 0.730747
Si Si6 0.807661 0.296674 0.591388
Si Si7 0.208578 0.284423 0.134368
O O1 0.498250 0.798370 0.252374
O O2 0.350745 0.718827 0.360162
O O3 0.354348 0.712971 0.480588
O O4 0.350855 0.000000 0.423825
O O5 0.418745 0.500000 0.855616
O O6 0.360584 0.285328 0.838219
O O7 0.315514 0.228320 0.996033
O O8 0.017273 0.743524 0.869051
O O9 0.941858 0.000000 0.010984
O O10 0.000000 0.718714 0.000000
O O11 0.839441 0.724027 0.116690
O O12 0.682224 0.720006 0.354582
O O13 0.686248 0.731465 0.226252
O O14 0.729157 0.000000 0.242811
O O15 0.695648 0.295193 0.701354
O O16 0.642574 0.000000 0.713886
O O17 0.842403 0.500000 0.555625
O O18 0.207049 0.500000 0.132463
#
# Coordination Sequence:
#
# PCOD9174894 Si02
#       7
#     8   8   8   8   8   8   8
#     4  10  22  37  54  76 105 142 181 220 262 311
#     4  10  20  35  57  82 106 133 170 216 267 319
#     4  10  18  32  54  77 104 139 177 217 256 305
#     4   9  17  32  55  80 102 134 179 219 257 304
#     4  11  22  34  50  78 111 141 175 219 271 315
#     4  10  20  37  56  74 102 143 187 221 252 306
#     4   9  18  34  57  82 107 132 166 215 267 318
#
# _framework density 23.223134999999999
#
# number of rings (size 3 to 8) (size 9 to 14) (size 15 to 20)
#    0.000    2.143    1.429    2.143    0.000    3.714 
#    0.000    2.143    0.000    4.286    0.000    0.000 
#    0.000    0.000    0.000    0.000    0.000    0.000 
#
# Total GULP energy -156447.450605 kJ/mol
# GULP energy per Si atom -5587.408950 kJ/mol
# Density = 2.317028 g / cm^3
# Si number density = 23.223135 Si / 1000 Ang^3
#
#
#
# Elastic Constant Matrix: (Units=GPa)
#
#
# Indices 1 2 3 4 5 6 
#
# 1 84.2624 -1.2854 24.7777 -0.0043 44.0698 0.0008
# 2 -1.2854 67.0563 -2.0836 -0.0062 0.2172 0.0185
# 3 24.7777 -2.0836 66.9743 -0.0100 37.8198 0.0054
# 4 -0.0043 -0.0062 -0.0100 13.9939 0.0041 -5.5789
# 5 44.0698 0.2172 37.8198 0.0041 53.2344 -0.0058
# 6 0.0008 0.0185 0.0054 -5.5789 -0.0058 5.1757
#
#
#
# Elastic Compliance Matrix: (Units=1/GPa)
#
#
# Indices 1 2 3 4 5 6 
#
# 1 0.021429 0.000586 0.003522 0.000005 -0.020245 -0.000027
# 2 0.000586 0.014957 0.000930 -0.000025 -0.001207 -0.000083
# 3 0.003522 0.000930 0.025560 0.000008 -0.021078 -0.000046
# 4 0.000005 -0.000025 0.000008 0.125307 -0.000004 0.135069
# 5 -0.020245 -0.001207 -0.021078 -0.000004 0.050524 0.000081
# 6 -0.000027 -0.000083 -0.000046 0.135069 0.000081 0.338802
#
#
# Mechanical properties :
#
#
# Convention : Reuss Voigt Hill
#
# Bulk Modulus (GPa) = 13.88466 29.01226 21.44846
# Shear Modulus (GPa) = 8.46726 27.60642 18.03684
#
# Velocity S-wave (km/s) = 1.91153 3.45156 2.78991
# Velocity P-wave (km/s) = 3.29602 5.32957 4.43103
#
# Compressibility (1/GPa) = 0.07202194
#
# Stress axis : x y z
#
# Youngs Moduli (GPa) = 46.66592 66.85878 39.12409
#
# Poissons Ratio (x) = -0.03917 -0.13781
# Poissons Ratio (y) = -0.02734 -0.03639
# Poissons Ratio (z) = -0.16438 -0.06218
#
# Static dielectric constant tensor:
#      x y z
#    x 1.868050 0.000000 0.044560 
#    y 0.000000 1.890620 0.000010 
#    z 0.044560 0.000010 1.889690 
# 
# From -- ./inp_files/329442.got.cif
#   From: 2010.05.17/outbox.cif.g08.bks.cpg/sg12_165_cif.got.tgz:329442.got - 2010.06.03 13:09:07.
