data_PCOD9174726
_publ_section_title
;
Structure prediction by ZEFSAII (Michael W. Deem and Ramdas Pophale) SiO2 
 PCOD9174726
Probable space group: C 2/M
;
_chemical_formula_sum "Si O2"
_cell_formula_units_Z 56
_cell_length_a 19.768616
_cell_length_b 27.726161
_cell_length_c 5.158162
_cell_angle_alpha 90.000000
_cell_angle_beta 88.759354
_cell_angle_gamma 90.000000
_cell_volume 2826.566208
_symmetry_space_group_name_H-M "C 2/M"
_symmetry_group_IT_number 12
_symmetry_cell_setting 'monoclinic'
loop_
_space_group_symop_operation_xyz
x,y,z
-x,y,-z
-x,-y,-z
x,-y,z
1/2+x,1/2+y,z
1/2-x,1/2+y,-z
1/2-x,1/2-y,-z
1/2+x,1/2-y,z
loop_
_atom_site_type_symbol
_atom_site_label
_atom_site_fract_x
_atom_site_fract_y
_atom_site_fract_z
Si Si1 0.096969 0.151760 0.081783
Si Si2 0.689336 0.586884 0.382441
Si Si3 0.378957 0.552688 0.097809
Si Si4 0.680757 0.280354 0.688846
Si Si5 0.695620 0.152270 0.444568
Si Si6 0.638222 0.811163 0.942563
Si Si7 0.060137 0.245236 0.308448
O O1 0.145195 0.134333 0.312948
O O2 0.046752 0.191553 0.198606
O O3 0.076101 0.100252 0.963105
O O4 0.142927 0.179299 0.867410
O O5 0.652843 0.559182 0.617186
O O6 0.748925 0.695773 0.578193
O O7 0.761505 0.605979 0.469514
O O8 0.410762 0.500000 0.068417
O O9 0.319509 0.558135 0.885668
O O10 0.628430 0.262124 0.472220
O O11 0.687351 0.234230 0.877743
O O12 0.665951 0.152830 0.158696
O O13 0.638665 0.162516 0.665935
O O14 0.575599 0.783062 0.078785
O O15 0.000000 0.260233 0.500000
#
# Coordination Sequence:
#
# PCOD9174726 Si02
#       7
#     8   8   8   8   8   8   8
#     4   9  19  33  52  73  97 132 172 213 265 297
#     4  10  19  32  50  77 104 129 164 205 258 314
#     4  10  18  32  52  76 103 130 167 208 255 328
#     4  11  19  35  49  76 100 130 175 218 262 299
#     4  12  19  34  51  75 107 124 167 220 251 315
#     4  11  24  30  52  74  98 138 167 213 268 281
#     4  11  23  38  52  70 103 140 186 223 258 300
#
# _framework density 19.812024999999998
#
# number of rings (size 3 to 8) (size 9 to 14) (size 15 to 20)
#    0.857    0.571    4.286    3.000    2.000    2.286 
#    0.000    0.000    0.000    0.429    0.000    2.000 
#    0.000    0.000    0.000    0.000    0.000   50.000 
#
# Total GULP energy -156044.085285 kJ/mol
# GULP energy per Si atom -5573.003046 kJ/mol
# Density = 1.976693 g / cm^3
# Si number density = 19.812025 Si / 1000 Ang^3
#
#
#
# Elastic Constant Matrix: (Units=GPa)
#
#
# Indices 1 2 3 4 5 6 
#
# 1 32.0679 6.8798 19.7777 0.0000 -10.1479 0.0000
# 2 6.8798 43.3648 12.7101 0.0000 -1.6541 0.0000
# 3 19.7777 12.7101 130.5172 0.0000 -4.0609 0.0000
# 4 0.0000 0.0000 0.0000 12.1067 0.0000 -0.1453
# 5 -10.1479 -1.6541 -4.0609 0.0000 37.5347 0.0000
# 6 0.0000 0.0000 0.0000 -0.1453 0.0000 -2.3394
#
#
#
# Elastic Compliance Matrix: (Units=1/GPa)
#
#
# Indices 1 2 3 4 5 6 
#
# 1 0.038268 -0.004213 -0.005090 0.000000 0.009610 0.000000
# 2 -0.004213 0.024225 -0.001729 0.000000 -0.000258 0.000000
# 3 -0.005090 -0.001729 0.008585 0.000000 -0.000523 0.000000
# 4 0.000000 0.000000 0.000000 0.082537 0.000000 -0.005127
# 5 0.009610 -0.000258 -0.000523 0.000000 0.029172 0.000000
# 6 0.000000 0.000000 0.000000 -0.005127 0.000000 -0.427134
#
#
# Mechanical properties :
#
#
# Convention : Reuss Voigt Hill
#
# Bulk Modulus (GPa) = 20.40161 31.63168 26.01665
# Shear Modulus (GPa) = -24.27827 20.56588 -1.85620
#
# Velocity S-wave (km/s) = -3.50441 3.22537 -0.96899
# Velocity P-wave (km/s) = 2.46061 5.46546 3.45085
#
# Compressibility (1/GPa) = 0.04901574
#
# Stress axis : x y z
#
# Youngs Moduli (GPa) = 26.13174 41.27902 116.48047
#
# Poissons Ratio (x) = 0.17390 0.59283
# Poissons Ratio (y) = 0.11009 0.20137
# Poissons Ratio (z) = 0.13300 0.07136
#
# Static dielectric constant tensor:
#      x y z
#    x 1.735530 0.000000 0.040990 
#    y 0.000000 1.747920 0.000000 
#    z 0.040990 0.000000 1.760190 
# 
# From -- ./inp_files/29423.got.cif
#   From: 2010.05.17/outbox.cif.g08.bks.cpg/sg12_15_cif.got.tgz:29423.got - 2010.06.03 13:09:07.
