data_PCOD9174720
_publ_section_title
;
Structure prediction by ZEFSAII (Michael W. Deem and Ramdas Pophale) SiO2 
 PCOD9174720
Probable space group: C 2/M
;
_chemical_formula_sum "Si O2"
_cell_formula_units_Z 56
_cell_length_a 24.082672
_cell_length_b 7.476449
_cell_length_c 15.514936
_cell_angle_alpha 90.000000
_cell_angle_beta 54.308140
_cell_angle_gamma 90.000000
_cell_volume 2268.793998
_symmetry_space_group_name_H-M "C 2/M"
_symmetry_group_IT_number 12
_symmetry_cell_setting 'monoclinic'
loop_
_space_group_symop_operation_xyz
x,y,z
-x,y,-z
-x,-y,-z
x,-y,z
1/2+x,1/2+y,z
1/2-x,1/2+y,-z
1/2-x,1/2-y,-z
1/2+x,1/2-y,z
loop_
_atom_site_type_symbol
_atom_site_label
_atom_site_fract_x
_atom_site_fract_y
_atom_site_fract_z
Si Si1 0.507915 0.792133 0.391243
Si Si2 0.051313 0.213561 0.786899
Si Si3 0.366480 0.213672 0.445345
Si Si4 0.235200 0.706414 0.320500
Si Si5 0.875733 0.219464 0.115907
Si Si6 0.342177 0.300910 0.780859
Si Si7 0.898159 0.219210 0.899903
O O1 0.500000 0.792474 0.500000
O O2 0.437617 0.715081 0.419159
O O3 0.576404 0.690915 0.307006
O O4 0.515849 0.000000 0.357511
O O5 0.118599 0.256092 0.668708
O O6 0.064335 0.273286 0.872875
O O7 0.978030 0.276982 0.816717
O O8 0.046051 0.000000 0.793214
O O9 0.304038 0.283716 0.560156
O O10 0.366168 0.000000 0.459318
O O11 0.249767 0.500000 0.329172
O O12 0.306150 0.784283 0.223558
O O13 0.187812 0.709438 0.277311
O O14 0.875603 0.000000 0.113592
O O15 0.879760 0.274926 0.013371
O O16 0.312255 0.500000 0.810279
O O17 0.344514 0.218980 0.875100
O O18 0.896274 0.000000 0.897772
#
# Coordination Sequence:
#
# PCOD9174720 Si02
#       7
#     8   8   8   8   8   8   8
#     4  10  18  32  52  75 106 144 181 214 259 318
#     4  10  19  34  58  85 106 133 178 227 270 310
#     4  10  20  33  52  78 110 142 174 215 264 317
#     4  10  21  38  55  76 107 148 186 211 252 324
#     4   9  19  36  58  77 102 144 187 220 257 314
#     4  11  21  32  52  83 113 137 170 221 276 315
#     4   9  18  33  54  83 110 132 172 228 273 310
#
# _framework density 24.682715000000002
#
# number of rings (size 3 to 8) (size 9 to 14) (size 15 to 20)
#    0.000    2.143    2.857    0.857    0.000    3.714 
#    0.000    0.714    0.000    5.143    0.000    0.000 
#    0.000    0.000    0.000    0.000    0.000    0.000 
#
# Total GULP energy -156262.932632 kJ/mol
# GULP energy per Si atom -5580.819023 kJ/mol
# Density = 2.462654 g / cm^3
# Si number density = 24.682715 Si / 1000 Ang^3
#
#
#
# Elastic Constant Matrix: (Units=GPa)
#
#
# Indices 1 2 3 4 5 6 
#
# 1 22.3973 -2.0847 33.3366 -0.0005 3.0212 0.0006
# 2 -2.0847 67.8290 -3.5358 0.0011 0.4579 -0.0007
# 3 33.3366 -3.5358 139.2980 0.0002 17.2851 -0.0004
# 4 -0.0005 0.0011 0.0002 89.8570 -0.0002 -81.2450
# 5 3.0212 0.4579 17.2851 -0.0002 35.6995 0.0003
# 6 0.0006 -0.0007 -0.0004 -81.2450 0.0003 88.9546
#
#
#
# Elastic Compliance Matrix: (Units=1/GPa)
#
#
# Indices 1 2 3 4 5 6 
#
# 1 0.069635 0.001243 -0.016917 -0.000001 0.002282 -0.000001
# 2 0.001243 0.014790 0.000122 0.000000 -0.000354 0.000000
# 3 -0.016917 0.000122 0.011759 0.000000 -0.004264 0.000000
# 4 -0.000001 0.000000 0.000000 0.063884 0.000000 0.058347
# 5 0.002282 -0.000354 -0.004264 0.000000 0.029887 0.000000
# 6 -0.000001 0.000000 0.000000 0.058347 0.000000 0.064532
#
#
# Mechanical properties :
#
#
# Convention : Reuss Voigt Hill
#
# Bulk Modulus (GPa) = 15.36546 31.66181 23.51364
# Shear Modulus (GPa) = 16.27154 56.35609 36.31381
#
# Velocity S-wave (km/s) = 2.57033 4.78349 3.83982
# Velocity P-wave (km/s) = 3.87911 6.58517 5.40425
#
# Compressibility (1/GPa) = 0.06508103
#
# Stress axis : x y z
#
# Youngs Moduli (GPa) = 14.36060 67.61366 85.03798
#
# Poissons Ratio (x) = -0.08404 1.43855
# Poissons Ratio (y) = -0.01785 -0.01036
# Poissons Ratio (z) = 0.24293 -0.00824
#
# Static dielectric constant tensor:
#      x y z
#    x 1.960620 0.000000 0.040970 
#    y 0.000000 1.951520 0.000000 
#    z 0.040970 0.000000 2.034080 
# 
# From -- ./inp_files/238408.got.cif
#   From: 2010.05.17/outbox.cif.g08.bks.cpg/sg12_120_cif.got.tgz:238408.got - 2010.06.03 13:09:07.
