data_PCOD9174743
_publ_section_title
;
Structure prediction by ZEFSAII (Michael W. Deem and Ramdas Pophale) SiO2 
 PCOD9174743
Probable space group: C 2/M
;
_chemical_formula_sum "Si O2"
_cell_formula_units_Z 64
_cell_length_a 22.666730
_cell_length_b 19.269211
_cell_length_c 8.390282
_cell_angle_alpha 90.000000
_cell_angle_beta 70.568327
_cell_angle_gamma 90.000000
_cell_volume 3455.882494
_symmetry_space_group_name_H-M "C 2/M"
_symmetry_group_IT_number 12
_symmetry_cell_setting 'monoclinic'
loop_
_space_group_symop_operation_xyz
x,y,z
-x,y,-z
-x,-y,-z
x,-y,z
1/2+x,1/2+y,z
1/2-x,1/2+y,-z
1/2-x,1/2-y,-z
1/2+x,1/2-y,z
loop_
_atom_site_type_symbol
_atom_site_label
_atom_site_fract_x
_atom_site_fract_y
_atom_site_fract_z
Si Si1 0.225730 0.607839 0.623891
Si Si2 0.153153 0.819585 0.081600
Si Si3 0.642319 0.366189 0.593537
Si Si4 0.729863 0.078856 0.971823
Si Si5 0.571266 0.420789 0.938767
Si Si6 0.074891 0.753933 0.432593
Si Si7 0.782571 0.238728 0.252137
Si Si8 0.169834 0.361278 0.343555
O O1 0.300630 0.594199 0.545137
O O2 0.218651 0.690234 0.655033
O O3 0.192200 0.595648 0.482109
O O4 0.202264 0.579150 0.815682
O O5 0.105798 0.784636 0.245275
O O6 0.212818 0.865442 0.085395
O O7 0.112800 0.872949 0.013558
O O8 0.182754 0.758814 0.946968
O O9 0.599128 0.415773 0.736173
O O10 0.601057 0.310977 0.534178
O O11 0.680218 0.318438 0.682931
O O12 0.685286 0.099585 0.162629
O O13 0.752286 0.000000 0.983216
O O14 0.572485 0.500000 0.993978
O O15 0.500000 0.396062 0.000000
O O16 0.102997 0.675929 0.428520
O O17 0.000000 0.753129 0.500000
O O18 0.714488 0.206772 0.293024
#
# Coordination Sequence:
#
# PCOD9174743 Si02
#       8
#     8   8   8   8   8   8   8   8
#     4  11  18  34  59  81 111 142 176 232 294 336
#     4  10  20  34  53  78 112 144 181 231 279 326
#     4  10  18  32  52  78 103 135 183 230 276 330
#     4  11  23  36  57  86 113 144 188 235 282 336
#     4  10  21  36  49  65 102 159 204 224 253 312
#     4  12  21  33  54  84 116 144 181 227 279 336
#     4   9  16  32  59  77 102 139 172 228 293 333
#     4  10  20  36  57  83 115 145 181 230 291 339
#
# _framework density 18.519148999999999
#
# number of rings (size 3 to 8) (size 9 to 14) (size 15 to 20)
#    0.000    1.625    3.750    3.375    0.000    3.000 
#    0.000    0.000    0.000    3.000    0.000    0.875 
#    0.000    0.000    0.000    0.000    0.000    0.000 
#
# Total GULP energy -178267.255235 kJ/mol
# GULP energy per Si atom -5570.851726 kJ/mol
# Density = 1.847700 g / cm^3
# Si number density = 18.519149 Si / 1000 Ang^3
#
#
#
# Elastic Constant Matrix: (Units=GPa)
#
#
# Indices 1 2 3 4 5 6 
#
# 1 91.0287 9.8657 47.7788 0.0000 -7.1905 0.0000
# 2 9.8657 38.7716 19.2751 0.0000 -1.2703 0.0000
# 3 47.7788 19.2751 111.4329 0.0000 12.3804 0.0000
# 4 0.0000 0.0000 0.0000 10.5598 0.0000 0.8711
# 5 -7.1905 -1.2703 12.3804 0.0000 23.3755 0.0000
# 6 0.0000 0.0000 0.0000 0.8711 0.0000 14.1329
#
#
#
# Elastic Compliance Matrix: (Units=1/GPa)
#
#
# Indices 1 2 3 4 5 6 
#
# 1 0.015763 0.000152 -0.007783 0.000000 0.008979 0.000000
# 2 0.000152 0.028648 -0.005524 0.000000 0.004529 0.000000
# 3 -0.007783 -0.005524 0.014414 0.000000 -0.010328 0.000000
# 4 0.000000 0.000000 0.000000 0.095183 0.000000 -0.005866
# 5 0.008979 0.004529 -0.010328 0.000000 0.051258 0.000000
# 6 0.000000 0.000000 0.000000 -0.005866 0.000000 0.071118
#
#
# Mechanical properties :
#
#
# Convention : Reuss Voigt Hill
#
# Bulk Modulus (GPa) = 30.75363 43.89693 37.32528
# Shear Modulus (GPa) = 15.94734 20.56790 18.25762
#
# Velocity S-wave (km/s) = 2.93768 3.33623 3.14328
# Velocity P-wave (km/s) = 5.30557 6.21253 5.77688
#
# Compressibility (1/GPa) = 0.03251648
#
# Stress axis : x y z
#
# Youngs Moduli (GPa) = 63.43852 34.90659 69.37708
#
# Poissons Ratio (x) = -0.00531 0.53994
# Poissons Ratio (y) = -0.00966 0.38323
# Poissons Ratio (z) = 0.49372 0.19282
#
# Static dielectric constant tensor:
#      x y z
#    x 1.663330 0.000000 0.055420 
#    y 0.000000 1.632100 0.000000 
#    z 0.055420 0.000000 1.764720 
# 
# From -- ./inp_files/98861.got.cif
#   From: 2010.05.17/outbox.cif.g08.bks.cpg/sg12_50_cif.got.tgz:98861.got - 2010.06.03 13:09:07.
