data_PCOD9174854
_publ_section_title
;
Structure prediction by ZEFSAII (Michael W. Deem and Ramdas Pophale) SiO2 
 PCOD9174854
Probable space group: C 2/M
;
_chemical_formula_sum "Si O2"
_cell_formula_units_Z 48
_cell_length_a 27.874249
_cell_length_b 21.962249
_cell_length_c 12.437269
_cell_angle_alpha 90.000000
_cell_angle_beta 160.448432
_cell_angle_gamma 90.000000
_cell_volume 2548.018060
_symmetry_space_group_name_H-M "C 2/M"
_symmetry_group_IT_number 12
_symmetry_cell_setting 'monoclinic'
loop_
_space_group_symop_operation_xyz
x,y,z
-x,y,-z
-x,-y,-z
x,-y,z
1/2+x,1/2+y,z
1/2-x,1/2+y,-z
1/2-x,1/2-y,-z
1/2+x,1/2-y,z
loop_
_atom_site_type_symbol
_atom_site_label
_atom_site_fract_x
_atom_site_fract_y
_atom_site_fract_z
Si Si1 0.950573 0.571017 0.018656
Si Si2 0.990668 0.138209 0.607437
Si Si3 0.236125 0.846856 0.700645
Si Si4 0.858471 0.738461 0.635921
Si Si5 0.995417 0.714847 0.614462
Si Si6 0.797478 0.636081 0.339521
O O1 0.913127 0.500000 0.943275
O O2 0.086838 0.585259 0.383587
O O3 0.819043 0.610555 0.789489
O O4 0.000000 0.584610 0.000000
O O5 0.985363 0.212321 0.600561
O O6 0.000000 0.121629 0.500000
O O7 0.855581 0.120678 0.398321
O O8 0.138475 0.116418 0.973908
O O9 0.134989 0.798524 0.424728
O O10 0.363745 0.807939 0.025563
O O11 0.750000 0.750000 0.500000
O O12 0.801877 0.682534 0.447746
O O13 0.000000 0.723937 0.000000
O O14 0.000000 0.698614 0.500000
O O15 0.861604 0.678478 0.380570
#
# Coordination Sequence:
#
# PCOD9174854 Si02
#       6
#     8   8   8   8   8   8
#     4  10  23  44  64  80 105 153 207 243 279 336
#     4  11  20  33  55  88 124 152 185 230 288 350
#     4  11  21  35  56  86 117 151 190 239 285 345
#     4  12  21  31  49  80 119 147 179 227 293 345
#     4  10  18  32  53  81 120 158 190 222 274 348
#     4  11  20  35  55  84 119 153 189 231 286 343
#
# _framework density 18.838170999999999
#
# number of rings (size 3 to 8) (size 9 to 14) (size 15 to 20)
#    0.000    1.167    3.333    5.500    0.000    2.667 
#    0.000    0.833    0.000   21.500    0.000    0.000 
#    0.000    0.000    0.000    0.000    0.000    0.000 
#
# Total GULP energy -133928.246532 kJ/mol
# GULP energy per Si atom -5580.343606 kJ/mol
# Density = 1.879529 g / cm^3
# Si number density = 18.838171 Si / 1000 Ang^3
#
#
#
# Elastic Constant Matrix: (Units=GPa)
#
#
# Indices 1 2 3 4 5 6 
#
# 1 122.5098 3.8941 27.8270 0.0000 -8.1710 0.0000
# 2 3.8941 35.5841 17.1243 0.0000 -17.2975 0.0000
# 3 27.8270 17.1243 69.9293 0.0000 4.5561 0.0000
# 4 0.0000 0.0000 0.0000 10.4337 0.0000 -0.6550
# 5 -8.1710 -17.2975 4.5561 0.0000 27.8111 0.0000
# 6 0.0000 0.0000 0.0000 -0.6550 0.0000 19.0793
#
#
#
# Elastic Compliance Matrix: (Units=1/GPa)
#
#
# Indices 1 2 3 4 5 6 
#
# 1 0.009711 0.004890 -0.005504 0.000000 0.006796 0.000000
# 2 0.004890 0.054906 -0.017901 0.000000 0.038519 0.000000
# 3 -0.005504 -0.017901 0.021939 0.000000 -0.016345 0.000000
# 4 0.000000 0.000000 0.000000 0.096050 0.000000 0.003297
# 5 0.006796 0.038519 -0.016345 0.000000 0.064589 0.000000
# 6 0.000000 0.000000 0.000000 0.003297 0.000000 0.052526
#
#
# Mechanical properties :
#
#
# Convention : Reuss Voigt Hill
#
# Bulk Modulus (GPa) = 20.19183 36.19045 28.19114
# Shear Modulus (GPa) = 14.15388 23.41001 18.78194
#
# Velocity S-wave (km/s) = 2.74403 3.52901 3.16098
# Velocity P-wave (km/s) = 4.55867 5.98816 5.32163
#
# Compressibility (1/GPa) = 0.04952498
#
# Stress axis : x y z
#
# Youngs Moduli (GPa) = 102.97875 18.21292 45.58082
#
# Poissons Ratio (x) = -0.08906 0.25090
# Poissons Ratio (y) = -0.50355 0.81594
# Poissons Ratio (z) = 0.56684 0.32603
#
# Static dielectric constant tensor:
#      x y z
#    x 1.689100 0.000000 0.000690 
#    y 0.000000 1.660880 0.000000 
#    z 0.000690 0.000000 1.648020 
# 
# From -- ./inp_files/121829.got.cif
#   From: 2010.05.17/outbox.cif.g08.bks.cpg/sg12_61_cif.got.tgz:121829.got - 2010.06.03 13:09:07.
