data_PCOD9174764
_publ_section_title
;
Structure prediction by ZEFSAII (Michael W. Deem and Ramdas Pophale) SiO2 
 PCOD9174764
Probable space group: C 2/M
;
_chemical_formula_sum "Si O2"
_cell_formula_units_Z 48
_cell_length_a 10.971253
_cell_length_b 25.427819
_cell_length_c 9.445817
_cell_angle_alpha 90.000000
_cell_angle_beta 89.604863
_cell_angle_gamma 90.000000
_cell_volume 2635.084468
_symmetry_space_group_name_H-M "C 2/M"
_symmetry_group_IT_number 12
_symmetry_cell_setting 'monoclinic'
loop_
_space_group_symop_operation_xyz
x,y,z
-x,y,-z
-x,-y,-z
x,-y,z
1/2+x,1/2+y,z
1/2-x,1/2+y,-z
1/2-x,1/2-y,-z
1/2+x,1/2-y,z
loop_
_atom_site_type_symbol
_atom_site_label
_atom_site_fract_x
_atom_site_fract_y
_atom_site_fract_z
Si Si1 0.471424 0.639662 0.839340
Si Si2 0.883093 0.061761 0.604010
Si Si3 0.669191 0.250745 0.139766
Si Si4 0.493597 0.812190 0.693878
Si Si5 0.300068 0.855007 0.468982
Si Si6 0.634173 0.709120 0.647868
O O1 0.410551 0.594358 0.746481
O O2 0.389116 0.691886 0.852339
O O3 0.585884 0.661784 0.747247
O O4 0.500000 0.623283 0.000000
O O5 0.763914 0.088777 0.536376
O O6 0.000000 0.068760 0.500000
O O7 0.867000 0.000000 0.628742
O O8 0.566463 0.204957 0.157282
O O9 0.757876 0.237580 0.268582
O O10 0.750000 0.250000 0.000000
O O11 0.394149 0.842003 0.596644
O O12 0.618869 0.844219 0.671273
O O13 0.532851 0.754175 0.637375
O O14 0.188104 0.815220 0.503909
#
# Coordination Sequence:
#
# PCOD9174764 Si02
#       6
#     8   8   8   8   8   8
#     4  11  21  35  56  82 114 153 193 229 284 348
#     4  11  24  41  61  82 107 147 204 264 306 334
#     4  10  19  32  52  84 125 162 186 216 271 357
#     4   9  20  30  54  86 116 151 186 221 281 359
#     4  10  19  37  54  80 115 148 188 237 293 340
#     4  10  18  32  52  81 121 153 181 226 278 351
#
# _framework density 18.215734999999999
#
# number of rings (size 3 to 8) (size 9 to 14) (size 15 to 20)
#    0.000    1.833    3.333    1.500    0.000    5.667 
#    0.000    1.667    0.000    0.000    0.000    2.333 
#    0.000    0.000    0.000    0.000    0.000    0.000 
#
# Total GULP energy -133746.474287 kJ/mol
# GULP energy per Si atom -5572.769762 kJ/mol
# Density = 1.817428 g / cm^3
# Si number density = 18.215735 Si / 1000 Ang^3
#
#
#
# Elastic Constant Matrix: (Units=GPa)
#
#
# Indices 1 2 3 4 5 6 
#
# 1 87.1382 49.3074 36.9980 0.0000 -22.1558 0.0000
# 2 49.3074 110.7538 44.0642 0.0000 -5.2923 0.0000
# 3 36.9980 44.0642 89.5172 0.0000 -15.8932 0.0000
# 4 0.0000 0.0000 0.0000 16.3215 0.0000 -0.1825
# 5 -22.1558 -5.2923 -15.8932 0.0000 37.8504 0.0000
# 6 0.0000 0.0000 0.0000 -0.1825 0.0000 27.8311
#
#
#
# Elastic Compliance Matrix: (Units=1/GPa)
#
#
# Indices 1 2 3 4 5 6 
#
# 1 0.018787 -0.006811 -0.002841 0.000000 0.008852 0.000000
# 2 -0.006811 0.013720 -0.004653 0.000000 -0.004022 0.000000
# 3 -0.002841 -0.004653 0.015371 0.000000 0.004141 0.000000
# 4 0.000000 0.000000 0.000000 0.061273 0.000000 0.000402
# 5 0.008852 -0.004022 0.004141 0.000000 0.032777 0.000000
# 6 0.000000 0.000000 0.000000 0.000402 0.000000 0.035934
#
#
# Mechanical properties :
#
#
# Convention : Reuss Voigt Hill
#
# Bulk Modulus (GPa) = 51.89630 60.90536 56.40083
# Shear Modulus (GPa) = 23.48601 26.86990 25.17796
#
# Velocity S-wave (km/s) = 3.59461 3.84486 3.72184
# Velocity P-wave (km/s) = 6.76609 7.29512 7.03558
#
# Compressibility (1/GPa) = 0.01926920
#
# Stress axis : x y z
#
# Youngs Moduli (GPa) = 53.22958 72.88583 65.05953
#
# Poissons Ratio (x) = 0.49640 0.18480
# Poissons Ratio (y) = 0.36253 0.30271
# Poissons Ratio (z) = 0.15120 0.33912
#
# Static dielectric constant tensor:
#      x y z
#    x 1.721880 0.000000 -0.020330 
#    y 0.000000 1.595800 0.000000 
#    z -0.020330 0.000000 1.681040 
# 
# From -- ./inp_files/50699.got.cif
#   From: 2010.05.17/outbox.cif.g08.bks.cpg/sg12_26_cif.got.tgz:50699.got - 2010.06.03 13:09:07.
