data_PCOD9174443
_publ_section_title
;
Structure prediction by ZEFSAII (Michael W. Deem and Ramdas Pophale) SiO2 
 PCOD9174443
Probable space group: C 2/M
;
_chemical_formula_sum "Si O2"
_cell_formula_units_Z 64
_cell_length_a 12.703150
_cell_length_b 24.161735
_cell_length_c 12.016330
_cell_angle_alpha 90.000000
_cell_angle_beta 71.363013
_cell_angle_gamma 90.000000
_cell_volume 3494.774577
_symmetry_space_group_name_H-M "C 2/M"
_symmetry_group_IT_number 12
_symmetry_cell_setting 'monoclinic'
loop_
_space_group_symop_operation_xyz
x,y,z
-x,y,-z
-x,-y,-z
x,-y,z
1/2+x,1/2+y,z
1/2-x,1/2+y,-z
1/2-x,1/2-y,-z
1/2+x,1/2-y,z
loop_
_atom_site_type_symbol
_atom_site_label
_atom_site_fract_x
_atom_site_fract_y
_atom_site_fract_z
Si Si1 0.535694 0.938874 0.168073
Si Si2 0.891606 0.436495 0.600856
Si Si3 0.788710 0.937147 0.034225
Si Si4 0.661956 0.394476 0.738138
Si Si5 0.336638 0.644574 0.828227
Si Si6 0.415866 0.832688 0.131696
Si Si7 0.967873 0.064506 0.639960
Si Si8 0.528494 0.711429 0.857210
O O1 0.570279 0.940550 0.284658
O O2 0.654964 0.929184 0.068141
O O3 0.450916 0.889195 0.180286
O O4 0.493499 0.000000 0.149114
O O5 0.865984 0.500000 0.571348
O O6 0.780951 0.399761 0.637102
O O7 0.000000 0.415858 0.500000
O O8 0.823252 0.927175 0.150272
O O9 0.814664 0.000000 0.994892
O O10 0.847585 0.894964 0.932356
O O11 0.570438 0.421115 0.687792
O O12 0.620686 0.333750 0.789871
O O13 0.211400 0.664285 0.860375
O O14 0.373293 0.607090 0.711661
O O15 0.419842 0.694557 0.824208
O O16 0.435948 0.773781 0.182930
O O17 0.500000 0.831472 0.000000
O O18 0.000000 0.072657 0.500000
O O19 0.936632 0.000000 0.664743
O O20 0.500000 0.707536 0.000000
#
# Coordination Sequence:
#
# PCOD9174443 Si02
#       8
#     8   8   8   8   8   8   8   8
#     4   9  19  34  53  82 119 148 179 226 289 353
#     4   9  18  33  57  87 114 149 195 238 284 340
#     4  10  18  31  55  87 116 145 181 234 291 342
#     4  10  19  36  59  83 117 151 192 247 287 332
#     4  11  22  37  57  86 116 147 194 240 280 350
#     4  11  23  37  57  84 117 155 181 233 293 353
#     4  10  22  38  57  83 117 158 197 234 284 343
#     4  10  22  38  57  82 111 150 194 236 285 343
#
# _framework density 18.313054000000001
#
# number of rings (size 3 to 8) (size 9 to 14) (size 15 to 20)
#    0.000    2.000    2.500    2.250    0.000    6.250 
#    0.000    4.375    0.000   10.500    0.000    0.000 
#    0.000    0.000    0.000    0.000    0.000    0.000 
#
# Total GULP energy -178456.733000 kJ/mol
# GULP energy per Si atom -5576.772906 kJ/mol
# Density = 1.827137 g / cm^3
# Si number density = 18.313054 Si / 1000 Ang^3
#
#
#
# Elastic Constant Matrix: (Units=GPa)
#
#
# Indices 1 2 3 4 5 6 
#
# 1 100.9092 60.8786 20.2610 0.0000 -15.0727 0.0000
# 2 60.8786 124.1925 23.1503 0.0000 -1.5647 0.0000
# 3 20.2610 23.1503 60.7000 0.0000 -11.8826 0.0000
# 4 0.0000 0.0000 0.0000 -3.5424 0.0000 4.6772
# 5 -15.0727 -1.5647 -11.8826 0.0000 25.9478 0.0000
# 6 0.0000 0.0000 0.0000 4.6772 0.0000 13.9506
#
#
#
# Elastic Compliance Matrix: (Units=1/GPa)
#
#
# Indices 1 2 3 4 5 6 
#
# 1 0.015860 -0.007523 -0.000780 0.000000 0.008402 0.000000
# 2 -0.007523 0.012265 -0.003161 0.000000 -0.005078 0.000000
# 3 -0.000780 -0.003161 0.019568 0.000000 0.008318 0.000000
# 4 0.000000 0.000000 0.000000 -0.195678 0.000000 0.065604
# 5 0.008402 -0.005078 0.008318 0.000000 0.046923 0.000000
# 6 0.000000 0.000000 0.000000 0.065604 0.000000 0.049687
#
#
# Mechanical properties :
#
#
# Convention : Reuss Voigt Hill
#
# Bulk Modulus (GPa) = 40.37765 54.93127 47.65446
# Shear Modulus (GPa) = -247.63507 19.37200 -114.13153
#
# Velocity S-wave (km/s) = -11.64117 3.25595 -7.90302
# Velocity P-wave (km/s) = 12.59336 6.64799 7.56297
#
# Compressibility (1/GPa) = 0.02476617
#
# Stress axis : x y z
#
# Youngs Moduli (GPa) = 63.04989 81.53160 51.10271
#
# Poissons Ratio (x) = 0.61340 0.03985
# Poissons Ratio (y) = 0.47436 0.16152
# Poissons Ratio (z) = 0.04917 0.25769
#
# Static dielectric constant tensor:
#      x y z
#    x 1.635100 0.000000 -0.018090 
#    y 0.000000 1.647210 0.000000 
#    z -0.018090 0.000000 1.646870 
# 
# From -- ./inp_files/135914.got.cif
#   From: 2010.05.17/outbox.cif.g08.bks.cpg/sg12_68_cif.got.tgz:135914.got - 2010.06.03 13:09:07.
