data_PCOD9174927
_publ_section_title
;
Structure prediction by ZEFSAII (Michael W. Deem and Ramdas Pophale) SiO2 
 PCOD9174927
Probable space group: C 2/M
;
_chemical_formula_sum "Si O2"
_cell_formula_units_Z 56
_cell_length_a 21.135300
_cell_length_b 8.720011
_cell_length_c 19.671155
_cell_angle_alpha 90.000000
_cell_angle_beta 56.935463
_cell_angle_gamma 90.000000
_cell_volume 3038.285926
_symmetry_space_group_name_H-M "C 2/M"
_symmetry_group_IT_number 12
_symmetry_cell_setting 'monoclinic'
loop_
_space_group_symop_operation_xyz
x,y,z
-x,y,-z
-x,-y,-z
x,-y,z
1/2+x,1/2+y,z
1/2-x,1/2+y,-z
1/2-x,1/2-y,-z
1/2+x,1/2-y,z
loop_
_atom_site_type_symbol
_atom_site_label
_atom_site_fract_x
_atom_site_fract_y
_atom_site_fract_z
Si Si1 0.260370 0.676832 0.920110
Si Si2 0.459951 0.324722 0.132197
Si Si3 0.721736 0.819054 0.445786
Si Si4 0.681767 0.180363 0.727063
Si Si5 0.889006 0.176651 0.023364
Si Si6 0.413308 0.685798 0.563653
Si Si7 0.816408 0.185665 0.748735
O O1 0.280028 0.500000 0.917957
O O2 0.177057 0.701535 0.938664
O O3 0.314030 0.742371 0.828252
O O4 0.250000 0.750000 0.000000
O O5 0.454684 0.500000 0.160450
O O6 0.404816 0.217481 0.206634
O O7 0.427062 0.323327 0.074876
O O8 0.547711 0.286272 0.070313
O O9 0.750000 0.750000 0.500000
O O10 0.786513 0.777919 0.353517
O O11 0.645115 0.747193 0.458775
O O12 0.711586 0.000000 0.458077
O O13 0.736958 0.222049 0.757864
O O14 0.692783 0.000000 0.707184
O O15 0.862539 0.000000 0.027273
O O16 0.500000 0.732432 0.500000
O O17 0.410181 0.500000 0.563696
O O18 0.380555 0.734779 0.657133
O O19 0.820523 0.000000 0.750497
#
# Coordination Sequence:
#
# PCOD9174927 Si02
#       7
#     8   8   8   8   8   8   8
#     4  11  21  34  50  71 101 141 184 227 271 318
#     4   9  17  30  50  76 104 133 168 214 262 309
#     4  11  22  37  57  83 115 150 187 232 283 337
#     4  10  18  32  54  80 107 137 178 226 271 328
#     4   9  18  32  49  72 103 135 171 214 259 311
#     4   9  18  36  62  88 113 144 184 231 286 348
#     4   8  16  31  51  76 103 133 175 222 269 321
#
# _framework density 18.431445
#
# number of rings (size 3 to 8) (size 9 to 14) (size 15 to 20)
#    0.000    2.429    1.429    3.857    0.000    0.857 
#    0.000    3.571    0.000    6.857    0.000    0.000 
#    0.000    0.000    0.000    0.000    0.000    0.000 
#
# Total GULP energy -155923.144831 kJ/mol
# GULP energy per Si atom -5568.683744 kJ/mol
# Density = 1.838949 g / cm^3
# Si number density = 18.431445 Si / 1000 Ang^3
#
#
#
# Elastic Constant Matrix: (Units=GPa)
#
#
# Indices 1 2 3 4 5 6 
#
# 1 38.2853 13.3920 53.7513 0.0000 3.6835 0.0000
# 2 13.3920 32.6971 29.1420 0.0001 3.9210 0.0005
# 3 53.7513 29.1420 139.2116 0.0000 6.4247 0.0000
# 4 0.0000 0.0001 0.0000 23.7979 0.0000 0.0504
# 5 3.6835 3.9210 6.4247 0.0000 33.0266 0.0000
# 6 0.0000 0.0005 0.0000 0.0504 0.0000 24.5016
#
#
#
# Elastic Compliance Matrix: (Units=1/GPa)
#
#
# Indices 1 2 3 4 5 6 
#
# 1 0.057708 -0.004472 -0.021264 0.000000 -0.001769 0.000000
# 2 -0.004472 0.038234 -0.006146 0.000000 -0.002845 -0.000001
# 3 -0.021264 -0.006146 0.016687 0.000000 -0.000145 0.000000
# 4 0.000000 0.000000 0.000000 0.042021 0.000000 -0.000087
# 5 -0.001769 -0.002845 -0.000145 0.000000 0.030842 0.000000
# 6 0.000000 -0.000001 0.000000 -0.000087 0.000000 0.040814
#
#
# Mechanical properties :
#
#
# Convention : Reuss Voigt Hill
#
# Bulk Modulus (GPa) = 20.46428 44.75163 32.60795
# Shear Modulus (GPa) = 16.32081 23.85912 20.08997
#
# Velocity S-wave (km/s) = 2.97894 3.60179 3.30507
# Velocity P-wave (km/s) = 4.79157 6.45213 5.68283
#
# Compressibility (1/GPa) = 0.04886564
#
# Stress axis : x y z
#
# Youngs Moduli (GPa) = 17.32861 26.15470 59.92742
#
# Poissons Ratio (x) = 0.11696 1.27430
# Poissons Ratio (y) = 0.07749 0.36831
# Poissons Ratio (z) = 0.36848 0.16074
#
# Static dielectric constant tensor:
#      x y z
#    x 1.654870 0.000000 0.010430 
#    y 0.000000 1.638360 0.000000 
#    z 0.010430 0.000000 1.688630 
# 
# From -- ./inp_files/319036.got.cif
#   From: 2010.05.17/outbox.cif.g08.bks.cpg/sg12_160_cif.got.tgz:319036.got - 2010.06.03 13:09:07.
