data_PCOD9174390
_publ_section_title
;
Structure prediction by ZEFSAII (Michael W. Deem and Ramdas Pophale) SiO2 
 PCOD9174390
Probable space group: C 2/M
;
_chemical_formula_sum "Si O2"
_cell_formula_units_Z 52
_cell_length_a 20.295771
_cell_length_b 14.022256
_cell_length_c 9.747650
_cell_angle_alpha 90.000000
_cell_angle_beta 60.919068
_cell_angle_gamma 90.000000
_cell_volume 2424.387419
_symmetry_space_group_name_H-M "C 2/M"
_symmetry_group_IT_number 12
_symmetry_cell_setting 'monoclinic'
loop_
_space_group_symop_operation_xyz
x,y,z
-x,y,-z
-x,-y,-z
x,-y,z
1/2+x,1/2+y,z
1/2-x,1/2+y,-z
1/2-x,1/2-y,-z
1/2+x,1/2-y,z
loop_
_atom_site_type_symbol
_atom_site_label
_atom_site_fract_x
_atom_site_fract_y
_atom_site_fract_z
Si Si1 0.317411 0.691709 0.171035
Si Si2 0.039143 0.185460 0.109301
Si Si3 0.000000 0.351885 0.500000
Si Si4 0.981834 0.401742 0.823648
Si Si5 0.153774 0.391051 0.714032
Si Si6 0.339878 0.213992 0.586903
Si Si7 0.886739 0.888686 0.380737
O O1 0.325447 0.804517 0.204637
O O2 0.228084 0.681687 0.247414
O O3 0.346760 0.636025 0.276635
O O4 0.373951 0.654343 0.995797
O O5 0.049334 0.297561 0.122339
O O6 0.974993 0.145129 0.276309
O O7 0.000000 0.170686 0.000000
O O8 0.002130 0.405458 0.354611
O O9 0.078986 0.297567 0.427282
O O10 0.940669 0.500000 0.902622
O O11 0.063019 0.398623 0.814200
O O12 0.183735 0.500000 0.697996
O O13 0.167431 0.348918 0.546014
O O14 0.341608 0.323150 0.533437
O O15 0.884445 0.000000 0.411631
#
# Coordination Sequence:
#
# PCOD9174390 Si02
#       7
#     8   8   4   8   8   8   8
#     4  10  20  31  50  83 111 136 172 223 275 322
#     4  10  18  34  51  82 115 139 173 211 272 333
#     4  10  19  38  55  74 102 142 187 222 253 316
#     4  10  18  31  55  80 105 138 171 210 261 324
#     4   9  16  29  51  78 107 133 166 215 269 323
#     4  10  20  35  53  76 105 140 187 225 264 307
#     4  10  19  35  57  78 108 146 183 221 263 318
#
# _framework density 21.448716999999998
#
# number of rings (size 3 to 8) (size 9 to 14) (size 15 to 20)
#    0.000    2.154    6.154    2.077    0.000    6.769 
#    0.000    1.154    0.000    0.000    0.000    0.000 
#    0.000    0.000    0.000    0.000    0.000    0.000 
#
# Total GULP energy -144765.021956 kJ/mol
# GULP energy per Si atom -5567.885460 kJ/mol
# Density = 2.139990 g / cm^3
# Si number density = 21.448717 Si / 1000 Ang^3
#
#
#
# Elastic Constant Matrix: (Units=GPa)
#
#
# Indices 1 2 3 4 5 6 
#
# 1 60.3320 5.3141 22.8901 0.0000 -28.5638 0.0000
# 2 5.3141 93.3575 4.0929 0.0000 -7.3488 0.0000
# 3 22.8901 4.0929 76.6552 0.0000 -36.1472 0.0000
# 4 0.0000 0.0000 0.0000 10.6075 0.0000 5.2745
# 5 -28.5638 -7.3488 -36.1472 0.0000 36.3985 0.0000
# 6 0.0000 0.0000 0.0000 5.2745 0.0000 11.2700
#
#
#
# Elastic Compliance Matrix: (Units=1/GPa)
#
#
# Indices 1 2 3 4 5 6 
#
# 1 0.026902 0.000259 0.003635 0.000000 0.024774 0.000000
# 2 0.000259 0.010917 0.000893 0.000000 0.003295 0.000000
# 3 0.003635 0.000893 0.025094 0.000000 0.027954 0.000000
# 4 0.000000 0.000000 0.000000 0.122866 0.000000 -0.057503
# 5 0.024774 0.003295 0.027954 0.000000 0.075341 0.000000
# 6 0.000000 0.000000 0.000000 -0.057503 0.000000 0.115643
#
#
# Mechanical properties :
#
#
# Convention : Reuss Voigt Hill
#
# Bulk Modulus (GPa) = 13.79527 32.77100 23.28314
# Shear Modulus (GPa) = 12.77630 24.85840 18.81735
#
# Velocity S-wave (km/s) = 2.44328 3.40806 2.96517
# Velocity P-wave (km/s) = 3.79542 5.54963 4.75413
#
# Compressibility (1/GPa) = 0.07248859
#
# Stress axis : x y z
#
# Youngs Moduli (GPa) = 37.17210 91.60079 39.85025
#
# Poissons Ratio (x) = -0.02377 -0.14486
# Poissons Ratio (y) = -0.00964 -0.03560
# Poissons Ratio (z) = -0.13512 -0.08183
#
# Static dielectric constant tensor:
#      x y z
#    x 1.809740 0.000000 -0.032260 
#    y 0.000000 1.822590 0.000000 
#    z -0.032260 0.000000 1.867390 
# 
# From -- ./inp_files/176024.got.cif
#   From: 2010.05.17/outbox.cif.g08.bks.cpg/sg12_89_cif.got.tgz:176024.got - 2010.06.03 13:09:07.
