data_PCOD9174920
_publ_section_title
;
Structure prediction by ZEFSAII (Michael W. Deem and Ramdas Pophale) SiO2 
 PCOD9174920
Probable space group: C 2/M
;
_chemical_formula_sum "Si O2"
_cell_formula_units_Z 40
_cell_length_a 19.669097
_cell_length_b 12.985351
_cell_length_c 27.525758
_cell_angle_alpha 90.000000
_cell_angle_beta 19.027984
_cell_angle_gamma 90.000000
_cell_volume 2292.106850
_symmetry_space_group_name_H-M "C 2/M"
_symmetry_group_IT_number 12
_symmetry_cell_setting 'monoclinic'
loop_
_space_group_symop_operation_xyz
x,y,z
-x,y,-z
-x,-y,-z
x,-y,z
1/2+x,1/2+y,z
1/2-x,1/2+y,-z
1/2-x,1/2-y,-z
1/2+x,1/2-y,z
loop_
_atom_site_type_symbol
_atom_site_label
_atom_site_fract_x
_atom_site_fract_y
_atom_site_fract_z
Si Si1 0.060728 0.122976 0.669879
Si Si2 0.688869 0.382790 0.411022
Si Si3 0.524457 0.290571 0.166709
Si Si4 0.320044 0.881368 0.662566
Si Si5 0.014592 0.747474 0.612645
O O1 0.945335 0.195976 0.708496
O O2 0.300782 0.163718 0.503652
O O3 0.983749 0.152773 0.775697
O O4 0.045837 0.000000 0.671966
O O5 0.500000 0.378024 0.500000
O O6 0.757355 0.500000 0.368886
O O7 0.610145 0.338720 0.515284
O O8 0.873974 0.308564 0.270421
O O9 0.404271 0.363826 0.210001
O O10 0.750000 0.250000 0.000000
O O11 0.500000 0.857876 0.500000
O O12 0.351742 0.809146 0.687625
O O13 0.351641 0.000000 0.654639
#
# Coordination Sequence:
#
# PCOD9174920 Si02
#       5
#     8   8   8   8   8
#     4  10  20  34  56  85 116 147 181 230 288 337
#     4  10  18  32  54  79 107 142 184 229 277 324
#     4  11  22  37  55  81 117 149 188 231 276 334
#     4  11  19  35  63  86 107 144 194 237 276 326
#     4  10  18  33  56  87 112 139 184 240 281 327
#
# _framework density 17.451193
#
# number of rings (size 3 to 8) (size 9 to 14) (size 15 to 20)
#    0.000    1.600    6.000    1.800    0.000    1.600 
#    0.000    2.000    0.000    2.400    0.000    0.000 
#    0.000    0.000    0.000    0.000    0.000    0.000 
#
# Total GULP energy -111509.648440 kJ/mol
# GULP energy per Si atom -5575.482422 kJ/mol
# Density = 1.741147 g / cm^3
# Si number density = 17.451193 Si / 1000 Ang^3
#
#
#
# Elastic Constant Matrix: (Units=GPa)
#
#
# Indices 1 2 3 4 5 6 
#
# 1 118.7174 43.2483 22.8762 0.0030 -4.9657 -0.0065
# 2 43.2483 129.5582 12.3008 -0.0237 6.0936 -0.0080
# 3 22.8762 12.3008 55.3684 0.0276 -4.3980 0.0103
# 4 0.0030 -0.0237 0.0276 10.7851 0.0070 -4.0884
# 5 -4.9657 6.0936 -4.3980 0.0070 9.7967 0.0127
# 6 -0.0065 -0.0080 0.0103 -4.0884 0.0127 23.0844
#
#
#
# Elastic Compliance Matrix: (Units=1/GPa)
#
#
# Indices 1 2 3 4 5 6 
#
# 1 0.010559 -0.003521 -0.003092 -0.000007 0.006154 -0.000002
# 2 -0.003521 0.009402 -0.001286 0.000035 -0.008210 0.000014
# 3 -0.003092 -0.001286 0.020286 -0.000070 0.008340 -0.000027
# 4 -0.000007 0.000035 -0.000070 0.099394 -0.000151 0.017603
# 5 0.006154 -0.008210 0.008340 -0.000151 0.114046 -0.000094
# 6 -0.000002 0.000014 -0.000027 0.017603 -0.000094 0.046437
#
#
# Mechanical properties :
#
#
# Convention : Reuss Voigt Hill
#
# Bulk Modulus (GPa) = 40.89923 51.16606 46.03265
# Shear Modulus (GPa) = 15.42864 23.74782 19.58823
#
# Velocity S-wave (km/s) = 2.97661 3.69292 3.35394
# Velocity P-wave (km/s) = 5.94145 6.89686 6.43691
#
# Compressibility (1/GPa) = 0.02445034
#
# Stress axis : x y z
#
# Youngs Moduli (GPa) = 94.70512 106.35931 49.29389
#
# Poissons Ratio (x) = 0.37446 0.15240
# Poissons Ratio (y) = 0.33343 0.06341
# Poissons Ratio (z) = 0.29279 0.13681
#
# Static dielectric constant tensor:
#      x y z
#    x 1.642910 -0.000010 -0.019880 
#    y -0.000010 1.596900 0.000010 
#    z -0.019880 0.000010 1.568320 
# 
# From -- ./inp_files/223555.got.cif
#   From: 2010.05.17/outbox.cif.g08.bks.cpg/sg12_112_cif.got.tgz:223555.got - 2010.06.03 13:09:07.
