data_PCOD9174631
_publ_section_title
;
Structure prediction by ZEFSAII (Michael W. Deem and Ramdas Pophale) SiO2 
 PCOD9174631
Probable space group: C 2/M
;
_chemical_formula_sum "Si O2"
_cell_formula_units_Z 48
_cell_length_a 21.969592
_cell_length_b 9.133511
_cell_length_c 12.100075
_cell_angle_alpha 90.000000
_cell_angle_beta 119.568119
_cell_angle_gamma 90.000000
_cell_volume 2111.796440
_symmetry_space_group_name_H-M "C 2/M"
_symmetry_group_IT_number 12
_symmetry_cell_setting 'monoclinic'
loop_
_space_group_symop_operation_xyz
x,y,z
-x,y,-z
-x,-y,-z
x,-y,z
1/2+x,1/2+y,z
1/2-x,1/2+y,-z
1/2-x,1/2-y,-z
1/2+x,1/2-y,z
loop_
_atom_site_type_symbol
_atom_site_label
_atom_site_fract_x
_atom_site_fract_y
_atom_site_fract_z
Si Si1 0.893203 0.838200 0.493287
Si Si2 0.958884 0.332403 0.117276
Si Si3 0.910949 0.334931 0.310260
Si Si4 0.098737 0.169932 0.231953
Si Si5 0.233773 0.667941 0.371451
Si Si6 0.325304 0.672848 0.064589
O O1 0.927240 0.715050 0.447995
O O2 0.898225 0.824141 0.630284
O O3 0.810621 0.833688 0.389060
O O4 0.921315 0.000000 0.491412
O O5 0.951920 0.500000 0.073633
O O6 0.966469 0.336898 0.259407
O O7 0.885323 0.245198 0.039098
O O8 0.028321 0.254177 0.136460
O O9 0.881107 0.500000 0.285299
O O10 0.858798 0.213853 0.212951
O O11 0.170390 0.246679 0.257899
O O12 0.096215 0.000000 0.197658
O O13 0.211913 0.500000 0.371190
O O14 0.250000 0.750000 0.500000
O O15 0.319750 0.500000 0.041387
O O16 0.250000 0.750000 0.000000
#
# Coordination Sequence:
#
# PCOD9174631 Si02
#       6
#     8   8   8   8   8   8
#     4   9  18  30  44  64  92 125 158 191 229 267
#     4   9  19  32  45  68  94 119 154 188 226 273
#     4   9  19  31  45  68  93 119 154 187 226 273
#     4  10  19  30  45  66  92 126 160 192 230 268
#     4   9  17  29  44  63  87 120 160 196 228 265
#     4  10  18  32  51  69  92 117 146 185 227 274
#
# _framework density 22.729464
#
# number of rings (size 3 to 8) (size 9 to 14) (size 15 to 20)
#    1.000    1.667    0.000    4.000    0.000    4.667 
#    0.000    3.333    0.000    0.000    0.000    1.167 
#    0.000    9.333    0.000    0.000    0.000    0.000 
#
# Total GULP energy -133702.502668 kJ/mol
# GULP energy per Si atom -5570.937611 kJ/mol
# Density = 2.267773 g / cm^3
# Si number density = 22.729464 Si / 1000 Ang^3
#
#
#
# Elastic Constant Matrix: (Units=GPa)
#
#
# Indices 1 2 3 4 5 6 
#
# 1 63.7018 48.6974 36.1808 0.0000 42.8104 0.0000
# 2 48.6974 176.2546 37.1366 0.0000 42.8488 0.0000
# 3 36.1808 37.1366 67.3046 0.0000 15.2658 0.0000
# 4 0.0000 0.0000 0.0000 15.5353 0.0000 7.1443
# 5 42.8104 42.8488 15.2658 0.0000 52.7286 0.0000
# 6 0.0000 0.0000 0.0000 7.1443 0.0000 23.4079
#
#
#
# Elastic Compliance Matrix: (Units=1/GPa)
#
#
# Indices 1 2 3 4 5 6 
#
# 1 0.050533 -0.001747 -0.018427 0.000000 -0.034273 0.000000
# 2 -0.001747 0.007653 -0.002349 0.000000 -0.004120 0.000000
# 3 -0.018427 -0.002349 0.023796 0.000000 0.009980 0.000000
# 4 0.000000 0.000000 0.000000 0.074879 0.000000 -0.022854
# 5 -0.034273 -0.004120 0.009980 0.000000 0.047250 0.000000
# 6 0.000000 0.000000 0.000000 -0.022854 0.000000 0.049696
#
#
# Mechanical properties :
#
#
# Convention : Reuss Voigt Hill
#
# Bulk Modulus (GPa) = 27.07434 61.25450 44.16442
# Shear Modulus (GPa) = 16.06866 30.68411 23.37638
#
# Velocity S-wave (km/s) = 2.66174 3.67818 3.21044
# Velocity P-wave (km/s) = 4.62427 6.71167 5.76327
#
# Compressibility (1/GPa) = 0.03693535
#
# Stress axis : x y z
#
# Youngs Moduli (GPa) = 19.78921 130.66857 42.02393
#
# Poissons Ratio (x) = 0.22829 0.77438
# Poissons Ratio (y) = 0.03457 0.09871
# Poissons Ratio (z) = 0.36466 0.30692
#
# Static dielectric constant tensor:
#      x y z
#    x 1.880400 0.000000 -0.021040 
#    y 0.000000 1.794670 0.000000 
#    z -0.021040 0.000000 1.917500 
# 
# From -- ./inp_files/291696.got.cif
#   From: 2010.05.17/outbox.cif.g08.bks.cpg/sg12_146_cif.got.tgz:291696.got - 2010.06.03 13:09:07.
