data_PCOD9174711
_publ_section_title
;
Structure prediction by ZEFSAII (Michael W. Deem and Ramdas Pophale) SiO2 
 PCOD9174711
Probable space group: C 2/M
;
_chemical_formula_sum "Si O2"
_cell_formula_units_Z 56
_cell_length_a 24.596184
_cell_length_b 7.463522
_cell_length_c 16.235001
_cell_angle_alpha 90.000000
_cell_angle_beta 55.343953
_cell_angle_gamma 90.000000
_cell_volume 2451.558631
_symmetry_space_group_name_H-M "C 2/M"
_symmetry_group_IT_number 12
_symmetry_cell_setting 'monoclinic'
loop_
_space_group_symop_operation_xyz
x,y,z
-x,y,-z
-x,-y,-z
x,-y,z
1/2+x,1/2+y,z
1/2-x,1/2+y,-z
1/2-x,1/2-y,-z
1/2+x,1/2-y,z
loop_
_atom_site_type_symbol
_atom_site_label
_atom_site_fract_x
_atom_site_fract_y
_atom_site_fract_z
Si Si1 0.577010 0.216476 0.446061
Si Si2 0.067569 0.280914 0.985686
Si Si3 0.798630 0.286208 0.382610
Si Si4 0.331010 0.296330 0.785748
Si Si5 0.208251 0.719678 0.794051
Si Si6 0.074951 0.719256 0.632065
Si Si7 0.561813 0.208272 0.176706
O O1 0.500000 0.261931 0.500000
O O2 0.622290 0.292069 0.335234
O O3 0.595243 0.274990 0.522579
O O4 0.582072 0.000000 0.435802
O O5 0.067909 0.500000 0.984439
O O6 0.134160 0.227364 0.881482
O O7 0.069690 0.217699 0.078387
O O8 0.000000 0.224183 0.000000
O O9 0.803610 0.500000 0.370220
O O10 0.750000 0.250000 0.500000
O O11 0.776487 0.219286 0.312263
O O12 0.871131 0.222365 0.347871
O O13 0.318341 0.500000 0.821683
O O14 0.262096 0.216063 0.813751
O O15 0.373088 0.215905 0.823688
O O16 0.211851 0.500000 0.792334
O O17 0.074666 0.500000 0.629532
O O18 0.001588 0.781658 0.719323
O O19 0.545666 0.000000 0.178237
#
# Coordination Sequence:
#
# PCOD9174711 Si02
#       7
#     8   8   8   8   8   8   8
#     4  10  18  32  52  74 106 138 174 220 261 303
#     4   9  17  32  58  85 103 129 176 225 266 311
#     4  10  19  33  53  75 104 136 170 210 260 313
#     4  11  22  34  49  74 112 147 175 207 260 324
#     4   9  19  34  50  75 110 141 168 216 269 308
#     4   9  17  30  51  77 101 130 167 218 268 301
#     4  10  19  34  56  80 103 131 177 224 260 304
#
# _framework density 22.842608999999999
#
# number of rings (size 3 to 8) (size 9 to 14) (size 15 to 20)
#    0.000    2.286    1.429    2.143    0.000    4.286 
#    0.000    1.429    0.000    2.143    0.000    0.000 
#    0.000    0.000    0.000    0.000    0.000    0.000 
#
# Total GULP energy -156460.990330 kJ/mol
# GULP energy per Si atom -5587.892512 kJ/mol
# Density = 2.279062 g / cm^3
# Si number density = 22.842609 Si / 1000 Ang^3
#
#
#
# Elastic Constant Matrix: (Units=GPa)
#
#
# Indices 1 2 3 4 5 6 
#
# 1 160.7490 -5.5993 62.7170 0.0001 3.8524 0.0001
# 2 -5.5993 59.7164 -6.9953 -0.0003 1.1130 -0.0003
# 3 62.7170 -6.9953 118.2512 -0.0002 14.9499 0.0001
# 4 0.0001 -0.0003 -0.0002 -4.0329 0.0001 0.9807
# 5 3.8524 1.1130 14.9499 0.0001 40.7510 0.0000
# 6 0.0001 -0.0003 0.0001 0.9807 0.0000 7.9208
#
#
#
# Elastic Compliance Matrix: (Units=1/GPa)
#
#
# Indices 1 2 3 4 5 6 
#
# 1 0.007873 0.000223 -0.004266 0.000000 0.000814 0.000000
# 2 0.000223 0.016898 0.000988 -0.000001 -0.000845 0.000001
# 3 -0.004266 0.000988 0.011252 -0.000001 -0.003752 0.000000
# 4 0.000000 -0.000001 -0.000001 -0.240714 0.000001 0.029802
# 5 0.000814 -0.000845 -0.003752 0.000001 0.025862 0.000000
# 6 0.000000 0.000001 0.000000 0.029802 0.000000 0.122560
#
#
# Mechanical properties :
#
#
# Convention : Reuss Voigt Hill
#
# Bulk Modulus (GPa) = 33.42815 48.77351 41.10083
# Shear Modulus (GPa) = -124.41284 28.16739 -48.12272
#
# Velocity S-wave (km/s) = -7.38806 3.51537 -4.59487
# Velocity P-wave (km/s) = 7.62313 6.15430 3.18093
#
# Compressibility (1/GPa) = 0.02991491
#
# Stress axis : x y z
#
# Youngs Moduli (GPa) = 127.01042 59.17770 88.87590
#
# Poissons Ratio (x) = -0.01322 0.37911
# Poissons Ratio (y) = -0.02837 -0.08781
# Poissons Ratio (z) = 0.54177 -0.05847
#
# Static dielectric constant tensor:
#      x y z
#    x 1.832100 0.000000 0.008210 
#    y 0.000000 1.859270 0.000000 
#    z 0.008210 0.000000 1.818920 
# 
# From -- ./inp_files/238260.got.cif
#   From: 2010.05.17/outbox.cif.g08.bks.cpg/sg12_120_cif.got.tgz:238260.got - 2010.06.03 13:09:07.
