data_PCOD9174426
_publ_section_title
;
Structure prediction by ZEFSAII (Michael W. Deem and Ramdas Pophale) SiO2 
 PCOD9174426
Probable space group: C 2/M
;
_chemical_formula_sum "Si O2"
_cell_formula_units_Z 64
_cell_length_a 19.628764
_cell_length_b 12.238458
_cell_length_c 20.268605
_cell_angle_alpha 90.000000
_cell_angle_beta 137.076536
_cell_angle_gamma 90.000000
_cell_volume 3315.918857
_symmetry_space_group_name_H-M "C 2/M"
_symmetry_group_IT_number 12
_symmetry_cell_setting 'monoclinic'
loop_
_space_group_symop_operation_xyz
x,y,z
-x,y,-z
-x,-y,-z
x,-y,z
1/2+x,1/2+y,z
1/2-x,1/2+y,-z
1/2-x,1/2-y,-z
1/2+x,1/2-y,z
loop_
_atom_site_type_symbol
_atom_site_label
_atom_site_fract_x
_atom_site_fract_y
_atom_site_fract_z
Si Si1 0.379900 0.129469 0.583153
Si Si2 0.584482 0.374694 0.195390
Si Si3 0.296486 0.620793 0.928289
Si Si4 0.894825 0.294796 0.908918
Si Si5 0.743003 0.763061 0.387108
Si Si6 0.105210 0.284614 0.743738
Si Si7 0.804794 0.874988 0.296084
Si Si8 0.128159 0.121767 0.881076
O O1 0.321816 0.162263 0.609133
O O2 0.326797 0.200215 0.488431
O O3 0.495522 0.165104 0.668819
O O4 0.371601 0.000000 0.565756
O O5 0.605470 0.500000 0.192070
O O6 0.585181 0.295714 0.133263
O O7 0.668602 0.327088 0.303562
O O8 0.477836 0.371040 0.156136
O O9 0.342861 0.500000 0.950473
O O10 0.358112 0.722935 0.944619
O O11 0.192654 0.626715 0.815093
O O12 0.290162 0.632971 0.002924
O O13 0.803063 0.366368 0.817505
O O14 0.000000 0.351035 0.000000
O O15 0.787276 0.832909 0.358053
O O16 0.125245 0.210432 0.693568
O O17 0.125681 0.206954 0.820981
O O18 0.840175 0.000000 0.319439
O O19 0.138394 0.000000 0.859803
#
# Coordination Sequence:
#
# PCOD9174426 Si02
#       8
#     8   8   8   8   8   8   8   8
#     4  11  23  41  66  91 117 148 191 244 296 349
#     4  10  18  31  55  84 116 150 190 240 292 340
#     4  10  20  33  52  80 117 158 197 237 289 343
#     4  10  19  32  55  84 117 152 195 245 288 342
#     4  10  22  42  62  89 118 149 194 243 295 348
#     4  11  22  39  57  85 119 156 198 240 289 346
#     4  10  23  42  61  84 120 158 194 238 290 353
#     4  10  19  32  53  80 113 154 196 237 281 336
#
# _framework density 19.300833999999998
#
# number of rings (size 3 to 8) (size 9 to 14) (size 15 to 20)
#    0.000    1.750    2.500    2.250    0.000    1.250 
#    0.000    5.000    0.000    0.750    0.000    0.000 
#    0.000    0.000    0.000    0.000    0.000    0.000 
#
# Total GULP energy -178615.147100 kJ/mol
# GULP energy per Si atom -5581.723347 kJ/mol
# Density = 1.925690 g / cm^3
# Si number density = 19.300834 Si / 1000 Ang^3
#
#
#
# Elastic Constant Matrix: (Units=GPa)
#
#
# Indices 1 2 3 4 5 6 
#
# 1 61.5829 22.9443 18.2763 0.0000 -3.9384 0.0000
# 2 22.9443 82.1722 8.9467 0.0000 -1.9003 0.0000
# 3 18.2763 8.9467 72.7987 0.0000 3.9110 0.0000
# 4 0.0000 0.0000 0.0000 16.6126 0.0000 0.5437
# 5 -3.9384 -1.9003 3.9110 0.0000 30.8551 0.0000
# 6 0.0000 0.0000 0.0000 0.5437 0.0000 7.6655
#
#
#
# Elastic Compliance Matrix: (Units=1/GPa)
#
#
# Indices 1 2 3 4 5 6 
#
# 1 0.019569 -0.004915 -0.004457 0.000000 0.002760 0.000000
# 2 -0.004915 0.013597 -0.000452 0.000000 0.000267 0.000000
# 3 -0.004457 -0.000452 0.015045 0.000000 -0.002504 0.000000
# 4 0.000000 0.000000 0.000000 0.060335 0.000000 -0.004280
# 5 0.002760 0.000267 -0.002504 0.000000 0.033096 0.000000
# 6 0.000000 0.000000 0.000000 -0.004280 0.000000 0.130759
#
#
# Mechanical properties :
#
#
# Convention : Reuss Voigt Hill
#
# Bulk Modulus (GPa) = 35.00848 35.20982 35.10915
# Shear Modulus (GPa) = 16.57993 22.11909 19.34951
#
# Velocity S-wave (km/s) = 2.93410 3.38896 3.16970
# Velocity P-wave (km/s) = 5.44576 5.79618 5.62370
#
# Compressibility (1/GPa) = 0.02856451
#
# Stress axis : x y z
#
# Youngs Moduli (GPa) = 51.10208 73.54428 66.46527
#
# Poissons Ratio (x) = 0.36146 0.29624
# Poissons Ratio (y) = 0.25116 0.03001
# Poissons Ratio (z) = 0.22776 0.03321
#
# Static dielectric constant tensor:
#      x y z
#    x 1.679550 0.000000 0.009970 
#    y 0.000000 1.643580 0.000000 
#    z 0.009970 0.000000 1.681050 
# 
# From -- ./inp_files/321299.got.cif
#   From: 2010.05.17/outbox.cif.g08.bks.cpg/sg12_161_cif.got.tgz:321299.got - 2010.06.03 13:09:07.
