data_PCOD9174852
_publ_section_title
;
Structure prediction by ZEFSAII (Michael W. Deem and Ramdas Pophale) SiO2 
 PCOD9174852
Probable space group: C 2/M
;
_chemical_formula_sum "Si O2"
_cell_formula_units_Z 64
_cell_length_a 28.631631
_cell_length_b 9.655997
_cell_length_c 22.970477
_cell_angle_alpha 90.000000
_cell_angle_beta 150.447080
_cell_angle_gamma 90.000000
_cell_volume 3132.277809
_symmetry_space_group_name_H-M "C 2/M"
_symmetry_group_IT_number 12
_symmetry_cell_setting 'monoclinic'
loop_
_space_group_symop_operation_xyz
x,y,z
-x,y,-z
-x,-y,-z
x,-y,z
1/2+x,1/2+y,z
1/2-x,1/2+y,-z
1/2-x,1/2-y,-z
1/2+x,1/2-y,z
loop_
_atom_site_type_symbol
_atom_site_label
_atom_site_fract_x
_atom_site_fract_y
_atom_site_fract_z
Si Si1 0.764235 0.336593 0.784441
Si Si2 0.768614 0.661805 0.462424
Si Si3 0.966848 0.333457 0.626851
Si Si4 0.879718 0.339937 0.295362
Si Si5 0.774456 0.846479 0.973277
Si Si6 0.144685 0.840067 0.216083
Si Si7 0.478066 0.153779 0.063091
Si Si8 0.061383 0.656695 0.854178
O O1 0.744411 0.500000 0.754758
O O2 0.676717 0.259176 0.721585
O O3 0.788479 0.252901 0.752267
O O4 0.865287 0.330044 0.929220
O O5 0.786471 0.500000 0.497967
O O6 0.750000 0.750000 0.500000
O O7 0.860663 0.712776 0.525856
O O8 0.683920 0.664135 0.324392
O O9 0.965103 0.500000 0.617695
O O10 0.023722 0.285124 0.630971
O O11 0.020455 0.308616 0.746532
O O12 0.892005 0.500000 0.330578
O O13 0.808563 0.349217 0.163264
O O14 0.866977 0.775263 0.049318
O O15 0.794382 0.000000 0.015233
O O16 0.750000 0.750000 0.000000
O O17 0.041393 0.771857 0.103862
O O18 0.145097 0.000000 0.197066
O O19 0.503770 0.151120 0.159815
O O20 0.504017 0.000000 0.069091
O O21 0.103134 0.500000 0.894654
#
# Coordination Sequence:
#
# PCOD9174852 Si02
#       8
#     8   8   8   8   8   8   8   8
#     4  11  23  39  60  85 116 155 197 238 290 350
#     4  10  22  42  67  91 117 150 191 239 289 342
#     4   9  18  35  59  84 114 154 195 235 283 342
#     4  10  20  35  56  82 115 155 196 238 287 340
#     4  11  20  30  48  76 114 155 192 230 279 339
#     4  11  24  40  60  87 117 150 194 244 294 343
#     4  10  21  36  58  86 117 156 198 237 287 351
#     4  10  18  32  53  81 115 151 190 231 282 340
#
# _framework density 20.432414999999999
#
# number of rings (size 3 to 8) (size 9 to 14) (size 15 to 20)
#    0.000    1.750    2.500    2.250    0.000    5.500 
#    0.000    1.875    0.000    3.750    0.000    0.000 
#    0.000    0.000    0.000    0.000    0.000    0.000 
#
# Total GULP energy -178359.550822 kJ/mol
# GULP energy per Si atom -5573.735963 kJ/mol
# Density = 2.038591 g / cm^3
# Si number density = 20.432415 Si / 1000 Ang^3
#
#
#
# Elastic Constant Matrix: (Units=GPa)
#
#
# Indices 1 2 3 4 5 6 
#
# 1 125.5084 68.6260 13.4733 0.0000 11.2242 0.0000
# 2 68.6260 131.1346 24.2303 0.0000 5.7182 0.0000
# 3 13.4733 24.2303 31.6711 0.0000 14.8012 0.0000
# 4 0.0000 0.0000 0.0000 16.0476 0.0000 1.2094
# 5 11.2242 5.7182 14.8012 0.0000 31.8650 0.0000
# 6 0.0000 0.0000 0.0000 1.2094 0.0000 32.3625
#
#
#
# Elastic Compliance Matrix: (Units=1/GPa)
#
#
# Indices 1 2 3 4 5 6 
#
# 1 0.011483 -0.006129 0.001508 0.000000 -0.003645 0.000000
# 2 -0.006129 0.012253 -0.008619 0.000000 0.003964 0.000000
# 3 0.001508 -0.008619 0.047326 0.000000 -0.020967 0.000000
# 4 0.000000 0.000000 0.000000 0.062491 0.000000 -0.002335
# 5 -0.003645 0.003964 -0.020967 0.000000 0.041694 0.000000
# 6 0.000000 0.000000 0.000000 -0.002335 0.000000 0.030987
#
#
# Mechanical properties :
#
#
# Convention : Reuss Voigt Hill
#
# Bulk Modulus (GPa) = 22.43117 55.66370 39.04743
# Shear Modulus (GPa) = 20.19579 28.18731 24.19155
#
# Velocity S-wave (km/s) = 3.14732 3.71824 3.44463
# Velocity P-wave (km/s) = 4.92032 6.76282 5.91377
#
# Compressibility (1/GPa) = 0.04458083
#
# Stress axis : x y z
#
# Youngs Moduli (GPa) = 87.08566 81.61294 21.12986
#
# Poissons Ratio (x) = 0.50020 -0.03185
# Poissons Ratio (y) = 0.53374 0.18213
# Poissons Ratio (z) = -0.13128 0.70345
#
# Static dielectric constant tensor:
#      x y z
#    x 1.843640 0.000000 0.060400 
#    y 0.000000 1.707020 0.000000 
#    z 0.060400 0.000000 1.820680 
# 
# From -- ./inp_files/353518.got.cif
#   From: 2010.05.17/outbox.cif.g08.bks.cpg/sg12_177_cif.got.tgz:353518.got - 2010.06.03 13:09:07.
