data_PCOD9174059
_publ_section_title
;
Structure prediction by ZEFSAII (Michael W. Deem and Ramdas Pophale) SiO2 
 PCOD9174059
Probable space group: C 2/M
;
_chemical_formula_sum "Si O2"
_cell_formula_units_Z 64
_cell_length_a 14.586817
_cell_length_b 8.441317
_cell_length_c 27.142860
_cell_angle_alpha 90.000000
_cell_angle_beta 89.030857
_cell_angle_gamma 90.000000
_cell_volume 3341.675083
_symmetry_space_group_name_H-M "C 2/M"
_symmetry_group_IT_number 12
_symmetry_cell_setting 'monoclinic'
loop_
_space_group_symop_operation_xyz
x,y,z
-x,y,-z
-x,-y,-z
x,-y,z
1/2+x,1/2+y,z
1/2-x,1/2+y,-z
1/2-x,1/2-y,-z
1/2+x,1/2-y,z
loop_
_atom_site_type_symbol
_atom_site_label
_atom_site_fract_x
_atom_site_fract_y
_atom_site_fract_z
Si Si1 0.496289 0.191545 0.943846
Si Si2 0.647158 0.811936 0.488692
Si Si3 0.000754 0.689455 0.786862
Si Si4 0.892278 0.811734 0.408774
Si Si5 0.140805 0.810167 0.863754
Si Si6 0.690485 0.688252 0.388279
Si Si7 0.150517 0.692844 0.133451
Si Si8 0.468984 0.691262 0.677845
O O1 0.581553 0.247412 0.910181
O O2 0.405029 0.241961 0.914959
O O3 0.497215 0.000000 0.944253
O O4 0.500000 0.247945 0.000000
O O5 0.147508 0.500000 0.482131
O O6 0.750000 0.750000 0.500000
O O7 0.591279 0.767759 0.538120
O O8 0.628677 0.728407 0.436903
O O9 0.005072 0.500000 0.789190
O O10 0.088554 0.756545 0.814861
O O11 0.911992 0.741849 0.819596
O O12 0.992164 0.743052 0.730961
O O13 0.787737 0.773496 0.393489
O O14 0.958637 0.756659 0.364518
O O15 0.902040 0.000000 0.415057
O O16 0.245329 0.751455 0.864858
O O17 0.141089 0.000000 0.865415
O O18 0.706780 0.500000 0.387685
O O19 0.631826 0.735772 0.341238
O O20 0.152553 0.500000 0.133558
O O21 0.472423 0.500000 0.679594
#
# Coordination Sequence:
#
# PCOD9174059 Si02
#       8
#     8   8   8   8   8   8   8   8
#     4   9  18  34  54  79 115 151 182 219 262 308
#     4  10  18  31  52  77 104 135 171 211 256 310
#     4  10  21  38  57  76 103 136 175 220 266 315
#     4  10  20  36  55  76 104 138 172 210 260 316
#     4  10  19  34  56  79 107 141 181 222 262 312
#     4  10  20  36  55  77 105 136 171 212 257 312
#     4   8  17  34  54  77 105 142 179 214 263 313
#     4  10  23  39  55  77 106 137 171 213 266 319
#
# _framework density 19.152070999999999
#
# number of rings (size 3 to 8) (size 9 to 14) (size 15 to 20)
#    0.000    2.375    0.000    4.875    0.000    4.250 
#    0.000   12.500    0.000    0.000    0.000    0.000 
#    0.000    0.000    0.000    0.000    0.000    0.000 
#
# Total GULP energy -178607.915782 kJ/mol
# GULP energy per Si atom -5581.497368 kJ/mol
# Density = 1.910848 g / cm^3
# Si number density = 19.152071 Si / 1000 Ang^3
#
#
#
# Elastic Constant Matrix: (Units=GPa)
#
#
# Indices 1 2 3 4 5 6 
#
# 1 116.9074 2.1664 51.2285 0.0000 5.9429 0.0000
# 2 2.1664 25.6800 5.9676 0.0000 3.8003 0.0000
# 3 51.2285 5.9676 118.9888 0.0000 25.4744 0.0000
# 4 0.0000 0.0000 0.0000 29.9126 0.0000 -2.1421
# 5 5.9429 3.8003 25.4744 0.0000 16.2764 0.0000
# 6 0.0000 0.0000 0.0000 -2.1421 0.0000 19.4601
#
#
#
# Elastic Compliance Matrix: (Units=1/GPa)
#
#
# Indices 1 2 3 4 5 6 
#
# 1 0.010811 -0.000335 -0.005729 0.000000 0.005098 0.000000
# 2 -0.000335 0.040345 0.000167 0.000000 -0.009560 0.000000
# 3 -0.005729 0.000167 0.015675 0.000000 -0.022481 0.000000
# 4 0.000000 0.000000 0.000000 0.033696 0.000000 0.003709
# 5 0.005098 -0.009560 -0.022481 0.000000 0.096994 0.000000
# 6 0.000000 0.000000 0.000000 0.003709 0.000000 0.051795
#
#
# Mechanical properties :
#
#
# Convention : Reuss Voigt Hill
#
# Bulk Modulus (GPa) = 18.16929 42.25571 30.21250
# Shear Modulus (GPa) = 17.89184 26.61075 22.25129
#
# Velocity S-wave (km/s) = 3.05978 3.73157 3.41225
# Velocity P-wave (km/s) = 4.68940 6.37788 5.59767
#
# Compressibility (1/GPa) = 0.05503793
#
# Stress axis : x y z
#
# Youngs Moduli (GPa) = 92.49521 24.78635 63.79463
#
# Poissons Ratio (x) = 0.00831 0.36549
# Poissons Ratio (y) = 0.03099 -0.01069
# Poissons Ratio (z) = 0.52992 -0.00415
#
# Static dielectric constant tensor:
#      x y z
#    x 1.594140 0.000000 -0.005820 
#    y 0.000000 1.650920 0.000000 
#    z -0.005820 0.000000 1.659020 
# 
# From -- ./inp_files/359735.got.cif
#   From: 2010.05.17/outbox.cif.g08.bks.cpg/sg12_180_cif.got.tgz:359735.got - 2010.06.03 13:09:07.
