data_PCOD9174139
_publ_section_title
;
Structure prediction by ZEFSAII (Michael W. Deem and Ramdas Pophale) SiO2 
 PCOD9174139
Probable space group: C 2/M
;
_chemical_formula_sum "Si O2"
_cell_formula_units_Z 64
_cell_length_a 16.698577
_cell_length_b 19.869424
_cell_length_c 11.455275
_cell_angle_alpha 90.000000
_cell_angle_beta 53.219707
_cell_angle_gamma 90.000000
_cell_volume 3044.169370
_symmetry_space_group_name_H-M "C 2/M"
_symmetry_group_IT_number 12
_symmetry_cell_setting 'monoclinic'
loop_
_space_group_symop_operation_xyz
x,y,z
-x,y,-z
-x,-y,-z
x,-y,z
1/2+x,1/2+y,z
1/2-x,1/2+y,-z
1/2-x,1/2-y,-z
1/2+x,1/2-y,z
loop_
_atom_site_type_symbol
_atom_site_label
_atom_site_fract_x
_atom_site_fract_y
_atom_site_fract_z
Si Si1 0.401870 0.194675 0.866409
Si Si2 0.864496 0.079132 0.942064
Si Si3 0.229911 0.341387 0.392857
Si Si4 0.841746 0.419571 0.750844
Si Si5 0.906419 0.841237 0.500582
Si Si6 0.376235 0.233243 0.319733
Si Si7 0.422126 0.576792 0.274512
Si Si8 0.792581 0.813330 0.820338
O O1 0.397674 0.122040 0.804609
O O2 0.512925 0.212129 0.813781
O O3 0.357150 0.249044 0.810921
O O4 0.321684 0.197257 0.041132
O O5 0.830145 0.124120 0.864873
O O6 0.976328 0.104639 0.872728
O O7 0.871080 0.000000 0.906319
O O8 0.776343 0.085205 0.112408
O O9 0.151582 0.372781 0.370369
O O10 0.297533 0.274238 0.307240
O O11 0.177863 0.326212 0.561911
O O12 0.317010 0.394892 0.328919
O O13 0.866299 0.500000 0.718772
O O14 0.896531 0.786569 0.407300
O O15 0.926913 0.908624 0.409265
O O16 0.815292 0.835975 0.669302
O O17 0.000000 0.825770 0.500000
O O18 0.421249 0.500000 0.244871
#
# Coordination Sequence:
#
# PCOD9174139 Si02
#       8
#     8   8   8   8   8   8   8   8
#     4  10  20  35  57  80 110 140 186 233 274 331
#     4   9  18  32  50  77 115 147 178 220 279 342
#     4  10  21  36  55  74 108 144 186 224 274 334
#     4  10  21  36  55  83 115 151 184 227 284 339
#     4  11  18  30  53  79 108 133 166 218 273 321
#     4  10  21  37  55  80 105 145 181 231 283 319
#     4  10  20  33  50  75 106 141 178 217 262 326
#     4  10  18  31  52  83 109 140 175 226 280 328
#
# _framework density 21.023797999999999
#
# number of rings (size 3 to 8) (size 9 to 14) (size 15 to 20)
#    0.000    2.000    2.500    1.875    0.000    1.250 
#    0.000    5.000    0.000    9.000    0.000    0.875 
#    0.000    0.000    0.000    0.000    0.000    0.000 
#
# Total GULP energy -178321.081004 kJ/mol
# GULP energy per Si atom -5572.533781 kJ/mol
# Density = 2.097595 g / cm^3
# Si number density = 21.023798 Si / 1000 Ang^3
#
#
#
# Elastic Constant Matrix: (Units=GPa)
#
#
# Indices 1 2 3 4 5 6 
#
# 1 31.9558 8.2442 3.7441 0.0000 -10.3108 0.0000
# 2 8.2442 57.8741 6.3570 0.0000 0.5835 0.0000
# 3 3.7441 6.3570 44.2748 0.0000 -17.3915 0.0000
# 4 0.0000 0.0000 0.0000 12.9746 0.0000 -1.9089
# 5 -10.3108 0.5835 -17.3915 0.0000 38.0683 0.0000
# 6 0.0000 0.0000 0.0000 -1.9089 0.0000 28.3874
#
#
#
# Elastic Compliance Matrix: (Units=1/GPa)
#
#
# Indices 1 2 3 4 5 6 
#
# 1 0.035921 -0.005439 0.001947 0.000000 0.010702 0.000000
# 2 -0.005439 0.018473 -0.003513 0.000000 -0.003361 0.000000
# 3 0.001947 -0.003513 0.028218 0.000000 0.013473 0.000000
# 4 0.000000 0.000000 0.000000 0.077844 0.000000 0.005235
# 5 0.010702 -0.003361 0.013473 0.000000 0.035374 0.000000
# 6 0.000000 0.000000 0.000000 0.005235 0.000000 0.035579
#
#
# Mechanical properties :
#
#
# Convention : Reuss Voigt Hill
#
# Bulk Modulus (GPa) = 14.57640 18.97725 16.77683
# Shear Modulus (GPa) = 18.63683 23.60337 21.12010
#
# Velocity S-wave (km/s) = 2.98058 3.35430 3.17295
# Velocity P-wave (km/s) = 4.33515 4.90387 4.62825
#
# Compressibility (1/GPa) = 0.06860403
#
# Stress axis : x y z
#
# Youngs Moduli (GPa) = 27.83854 54.13203 35.43832
#
# Poissons Ratio (x) = 0.29441 -0.06900
# Poissons Ratio (y) = 0.15141 0.12448
# Poissons Ratio (z) = -0.05420 0.19015
#
# Static dielectric constant tensor:
#      x y z
#    x 1.806170 0.000000 -0.004730 
#    y 0.000000 1.817460 0.000000 
#    z -0.004730 0.000000 1.826520 
# 
# From -- ./inp_files/159538.got.cif
#   From: 2010.05.17/outbox.cif.g08.bks.cpg/sg12_80_cif.got.tgz:159538.got - 2010.06.03 13:09:07.
