data_PCOD9174670
_publ_section_title
;
Structure prediction by ZEFSAII (Michael W. Deem and Ramdas Pophale) SiO2 
 PCOD9174670
Probable space group: C 2/M
;
_chemical_formula_sum "Si O2"
_cell_formula_units_Z 48
_cell_length_a 25.716757
_cell_length_b 17.305180
_cell_length_c 12.810953
_cell_angle_alpha 90.000000
_cell_angle_beta 151.318388
_cell_angle_gamma 90.000000
_cell_volume 2736.292305
_symmetry_space_group_name_H-M "C 2/M"
_symmetry_group_IT_number 12
_symmetry_cell_setting 'monoclinic'
loop_
_space_group_symop_operation_xyz
x,y,z
-x,y,-z
-x,-y,-z
x,-y,z
1/2+x,1/2+y,z
1/2-x,1/2+y,-z
1/2-x,1/2-y,-z
1/2+x,1/2-y,z
loop_
_atom_site_type_symbol
_atom_site_label
_atom_site_fract_x
_atom_site_fract_y
_atom_site_fract_z
Si Si1 0.907442 0.219313 0.727765
Si Si2 0.685028 0.586749 0.296385
Si Si3 0.979166 0.909671 0.586561
Si Si4 0.627941 0.313342 0.003225
Si Si5 0.377607 0.119263 0.784712
Si Si6 0.736002 0.673622 0.713133
O O1 0.886518 0.140419 0.753357
O O2 0.885638 0.291466 0.762377
O O3 0.824164 0.220035 0.485674
O O4 0.025873 0.220153 0.887915
O O5 0.642711 0.500000 0.211459
O O6 0.799348 0.584284 0.558930
O O7 0.687084 0.628172 0.187628
O O8 0.860436 0.874381 0.403273
O O9 0.000000 0.905227 0.500000
O O10 0.071157 0.860898 0.810072
O O11 0.982451 0.000000 0.624686
O O12 0.702989 0.238995 0.111652
O O13 0.320362 0.119574 0.797389
O O14 0.500000 0.089179 0.000000
#
# Coordination Sequence:
#
# PCOD9174670 Si02
#       6
#     8   8   8   8   8   8
#     4  10  18  32  51  77 111 148 172 213 263 314
#     4  11  21  30  46  77 113 150 188 219 260 326
#     4  10  24  43  59  80 111 141 181 246 304 328
#     4  11  19  33  59  82 104 141 188 228 270 331
#     4  11  18  32  52  75 114 153 176 207 263 321
#     4  10  19  32  59  83 106 144 189 219 268 333
#
# _framework density 17.541986000000001
#
# number of rings (size 3 to 8) (size 9 to 14) (size 15 to 20)
#    0.000    1.500    5.000    2.000    0.000    8.333 
#    0.000    0.000    0.000    0.000    0.000    0.000 
#    0.000   12.000    0.000    0.000    0.000    0.000 
#
# Total GULP energy -133832.064188 kJ/mol
# GULP energy per Si atom -5576.336008 kJ/mol
# Density = 1.750206 g / cm^3
# Si number density = 17.541986 Si / 1000 Ang^3
#
#
#
# Elastic Constant Matrix: (Units=GPa)
#
#
# Indices 1 2 3 4 5 6 
#
# 1 68.0291 30.1923 36.8108 0.0000 3.2536 0.0000
# 2 30.1923 97.1790 35.4483 0.0000 -3.2380 0.0000
# 3 36.8108 35.4483 100.6611 0.0000 11.3982 0.0000
# 4 0.0000 0.0000 0.0000 9.2223 0.0000 -4.0535
# 5 3.2536 -3.2380 11.3982 0.0000 23.0814 0.0000
# 6 0.0000 0.0000 0.0000 -4.0535 0.0000 17.2701
#
#
#
# Elastic Compliance Matrix: (Units=1/GPa)
#
#
# Indices 1 2 3 4 5 6 
#
# 1 0.019589 -0.004029 -0.005686 0.000000 -0.000519 0.000000
# 2 -0.004029 0.012982 -0.003568 0.000000 0.004151 0.000000
# 3 -0.005686 -0.003568 0.014020 0.000000 -0.006623 0.000000
# 4 0.000000 0.000000 0.000000 0.120905 0.000000 0.028378
# 5 -0.000519 0.004151 -0.006623 0.000000 0.047251 0.000000
# 6 0.000000 0.000000 0.000000 0.028378 0.000000 0.064564
#
#
# Mechanical properties :
#
#
# Convention : Reuss Voigt Hill
#
# Bulk Modulus (GPa) = 49.93909 52.30800 51.12354
# Shear Modulus (GPa) = 15.99725 20.80929 18.40327
#
# Velocity S-wave (km/s) = 3.02311 3.44794 3.24249
# Velocity P-wave (km/s) = 6.38089 6.76273 6.57458
#
# Compressibility (1/GPa) = 0.02002439
#
# Stress axis : x y z
#
# Youngs Moduli (GPa) = 51.04809 77.02917 71.32618
#
# Poissons Ratio (x) = 0.31038 0.40556
# Poissons Ratio (y) = 0.20569 0.25451
# Poissons Ratio (z) = 0.29026 0.27486
#
# Static dielectric constant tensor:
#      x y z
#    x 1.578630 0.000000 0.026150 
#    y 0.000000 1.614370 0.000000 
#    z 0.026150 0.000000 1.661780 
# 
# From -- ./inp_files/184224.got.cif
#   From: 2010.05.17/outbox.cif.g08.bks.cpg/sg12_93_cif.got.tgz:184224.got - 2010.06.03 13:09:07.
