data_PCOD9174306
_publ_section_title
;
Structure prediction by ZEFSAII (Michael W. Deem and Ramdas Pophale) SiO2 
 PCOD9174306
Probable space group: C 2/M
;
_chemical_formula_sum "Si O2"
_cell_formula_units_Z 56
_cell_length_a 27.582022
_cell_length_b 7.521560
_cell_length_c 12.261426
_cell_angle_alpha 90.000000
_cell_angle_beta 77.198706
_cell_angle_gamma 90.000000
_cell_volume 2480.526752
_symmetry_space_group_name_H-M "C 2/M"
_symmetry_group_IT_number 12
_symmetry_cell_setting 'monoclinic'
loop_
_space_group_symop_operation_xyz
x,y,z
-x,y,-z
-x,-y,-z
x,-y,z
1/2+x,1/2+y,z
1/2-x,1/2+y,-z
1/2-x,1/2-y,-z
1/2+x,1/2-y,z
loop_
_atom_site_type_symbol
_atom_site_label
_atom_site_fract_x
_atom_site_fract_y
_atom_site_fract_z
Si Si1 0.557575 0.783205 0.474001
Si Si2 0.064998 0.707809 0.709229
Si Si3 0.244430 0.286767 0.375326
Si Si4 0.850564 0.717701 0.710595
Si Si5 0.523426 0.217388 0.103942
Si Si6 0.862518 0.285561 0.944905
Si Si7 0.340030 0.291956 0.199262
O O1 0.500000 0.726859 0.500000
O O2 0.578265 0.725640 0.582342
O O3 0.595546 0.724434 0.361255
O O4 0.557205 0.000000 0.466274
O O5 0.054852 0.500000 0.697303
O O6 0.109001 0.719166 0.774922
O O7 0.014099 0.782674 0.784325
O O8 0.243768 0.500000 0.362428
O O9 0.250000 0.250000 0.500000
O O10 0.192948 0.222348 0.348587
O O11 0.292006 0.217035 0.284956
O O12 0.851198 0.500000 0.709983
O O13 0.840528 0.772943 0.840071
O O14 0.580072 0.275537 0.083089
O O15 0.524037 0.000000 0.107307
O O16 0.500000 0.268128 0.000000
O O17 0.862610 0.500000 0.945759
O O18 0.837758 0.230575 0.070516
O O19 0.342230 0.500000 0.222124
#
# Coordination Sequence:
#
# PCOD9174306 Si02
#       7
#     8   8   8   8   8   8   8
#     4   9  16  27  49  83 111 129 163 219 273 315
#     4  10  18  31  54  79 106 142 181 218 263 320
#     4  10  22  40  59  80 106 138 176 220 266 312
#     4   9  18  33  53  77 106 138 173 217 264 312
#     4   9  15  26  47  77 107 133 172 221 258 300
#     4  10  19  34  56  79 106 141 179 217 266 321
#     4  11  23  36  51  76 110 140 175 223 265 305
#
# _framework density 22.575849000000002
#
# number of rings (size 3 to 8) (size 9 to 14) (size 15 to 20)
#    0.000    2.286    1.429    2.143    0.000    6.286 
#    0.000    2.143    0.000    1.286    0.000    0.000 
#    0.000    0.000    0.000    0.000    0.000    0.000 
#
# Total GULP energy -156404.826883 kJ/mol
# GULP energy per Si atom -5585.886674 kJ/mol
# Density = 2.252447 g / cm^3
# Si number density = 22.575849 Si / 1000 Ang^3
#
#
#
# Elastic Constant Matrix: (Units=GPa)
#
#
# Indices 1 2 3 4 5 6 
#
# 1 102.5991 -9.3544 57.1182 0.0000 -4.8495 0.0000
# 2 -9.3544 50.1858 -12.7461 0.0000 -4.6371 0.0000
# 3 57.1182 -12.7461 170.6165 0.0000 -7.2803 0.0000
# 4 0.0000 0.0000 0.0000 6.6096 0.0000 3.9946
# 5 -4.8495 -4.6371 -7.2803 0.0000 43.5048 0.0000
# 6 0.0000 0.0000 0.0000 3.9946 0.0000 3.0876
#
#
#
# Elastic Compliance Matrix: (Units=1/GPa)
#
#
# Indices 1 2 3 4 5 6 
#
# 1 0.012085 0.001337 -0.003910 0.000000 0.000835 0.000000
# 2 0.001337 0.020719 0.001210 0.000000 0.002560 0.000000
# 3 -0.003910 0.001210 0.007300 0.000000 0.000915 0.000000
# 4 0.000000 0.000000 0.000000 0.693650 0.000000 -0.897402
# 5 0.000835 0.002560 0.000915 0.000000 0.023505 0.000000
# 6 0.000000 0.000000 0.000000 -0.897402 0.000000 1.484879
#
#
# Mechanical properties :
#
#
# Convention : Reuss Voigt Hill
#
# Bulk Modulus (GPa) = 26.75571 43.71521 35.23546
# Shear Modulus (GPa) = 2.21501 29.86597 16.04049
#
# Velocity S-wave (km/s) = 0.99160 3.64114 2.66844
# Velocity P-wave (km/s) = 3.63156 6.08958 5.01354
#
# Compressibility (1/GPa) = 0.03737521
#
# Stress axis : x y z
#
# Youngs Moduli (GPa) = 82.74795 48.26530 136.99495
#
# Poissons Ratio (x) = -0.06451 0.53568
# Poissons Ratio (y) = -0.11060 -0.16571
# Poissons Ratio (z) = 0.32356 -0.05838
#
# Static dielectric constant tensor:
#      x y z
#    x 1.809420 0.000000 -0.003520 
#    y 0.000000 1.885290 0.000000 
#    z -0.003520 0.000000 1.828920 
# 
# From -- ./inp_files/186407.got.cif
#   From: 2010.05.17/outbox.cif.g08.bks.cpg/sg12_94_cif.got.tgz:186407.got - 2010.06.03 13:09:07.
