data_PCOD9174737
_publ_section_title
;
Structure prediction by ZEFSAII (Michael W. Deem and Ramdas Pophale) SiO2 
 PCOD9174737
Probable space group: C 2/M
;
_chemical_formula_sum "Si O2"
_cell_formula_units_Z 48
_cell_length_a 17.187442
_cell_length_b 25.172608
_cell_length_c 5.400596
_cell_angle_alpha 90.000000
_cell_angle_beta 52.779134
_cell_angle_gamma 90.000000
_cell_volume 1860.643393
_symmetry_space_group_name_H-M "C 2/M"
_symmetry_group_IT_number 12
_symmetry_cell_setting 'monoclinic'
loop_
_space_group_symop_operation_xyz
x,y,z
-x,y,-z
-x,-y,-z
x,-y,z
1/2+x,1/2+y,z
1/2-x,1/2+y,-z
1/2-x,1/2-y,-z
1/2+x,1/2-y,z
loop_
_atom_site_type_symbol
_atom_site_label
_atom_site_fract_x
_atom_site_fract_y
_atom_site_fract_z
Si Si1 0.109639 0.899168 0.237998
Si Si2 0.619223 0.937796 0.032133
Si Si3 0.627464 0.775510 0.482782
Si Si4 0.637538 0.715766 0.962173
Si Si5 0.116678 0.059948 0.726921
Si Si6 0.900134 0.394563 0.432481
O O1 0.150491 0.901751 0.438682
O O2 0.000000 0.919849 0.500000
O O3 0.103033 0.841223 0.126137
O O4 0.156765 0.932983 0.927219
O O5 0.501896 0.926864 0.247477
O O6 0.652541 0.905670 0.207730
O O7 0.637557 0.000000 0.021413
O O8 0.654561 0.914981 0.703994
O O9 0.605902 0.734687 0.749028
O O10 0.744411 0.785520 0.270409
O O11 0.578969 0.832261 0.625311
O O12 0.607987 0.755383 0.242006
O O13 0.133788 0.000000 0.606068
O O14 0.000000 0.067553 0.000000
#
# Coordination Sequence:
#
# PCOD9174737 Si02
#       6
#     8   8   8   8   8   8
#     4  10  19  33  52  78 106 133 167 212 272 307
#     4  10  19  33  54  80 112 140 170 213 272 325
#     4  10  21  37  56  72 101 141 190 213 258 316
#     4  10  21  38  54  74 101 145 177 221 265 318
#     4   9  17  30  52  76 101 132 165 200 250 319
#     4  10  18  32  52  77 101 135 180 216 251 312
#
# _framework density 25.797526999999999
#
# number of rings (size 3 to 8) (size 9 to 14) (size 15 to 20)
#    0.000    2.167    0.000    5.000    0.000    2.000 
#    9.000    0.000    0.000    8.000    0.000    0.000 
#    0.000    0.000    0.000    0.000    0.000    0.000 
#
# Total GULP energy -134272.540930 kJ/mol
# GULP energy per Si atom -5594.689205 kJ/mol
# Density = 2.573881 g / cm^3
# Si number density = 25.797527 Si / 1000 Ang^3
#
#
#
# Elastic Constant Matrix: (Units=GPa)
#
#
# Indices 1 2 3 4 5 6 
#
# 1 70.2150 -15.2054 48.9360 0.0000 9.4709 0.0000
# 2 -15.2054 131.0291 47.2315 0.0000 35.8349 0.0000
# 3 48.9360 47.2315 200.1193 0.0000 47.7277 0.0000
# 4 0.0000 0.0000 0.0000 22.2052 0.0000 41.5762
# 5 9.4709 35.8349 47.7277 0.0000 69.0908 0.0000
# 6 0.0000 0.0000 0.0000 41.5762 0.0000 -7.0921
#
#
#
# Elastic Compliance Matrix: (Units=1/GPa)
#
#
# Indices 1 2 3 4 5 6 
#
# 1 0.019204 0.004531 -0.005480 0.000000 -0.001197 0.000000
# 2 0.004531 0.010208 -0.002522 0.000000 -0.004174 0.000000
# 3 -0.005480 -0.002522 0.007712 0.000000 -0.003268 0.000000
# 4 0.000000 0.000000 0.000000 0.003760 0.000000 0.022044
# 5 -0.001197 -0.004174 -0.003268 0.000000 0.019060 0.000000
# 6 0.000000 0.000000 0.000000 0.022044 0.000000 -0.011773
#
#
# Mechanical properties :
#
#
# Convention : Reuss Voigt Hill
#
# Bulk Modulus (GPa) = 33.13170 62.58750 47.85960
# Shear Modulus (GPa) = 76.71880 38.20086 57.45983
#
# Velocity S-wave (km/s) = 5.45925 3.85229 4.72459
# Velocity P-wave (km/s) = 7.25319 6.64082 6.95375
#
# Compressibility (1/GPa) = 0.03018258
#
# Stress axis : x y z
#
# Youngs Moduli (GPa) = 52.07256 97.95995 129.67337
#
# Poissons Ratio (x) = -0.44389 0.71061
# Poissons Ratio (y) = -0.23596 0.32703
# Poissons Ratio (z) = 0.28536 0.24705
#
# Static dielectric constant tensor:
#      x y z
#    x 1.974860 0.000000 0.113000 
#    y 0.000000 1.938870 0.000000 
#    z 0.113000 0.000000 1.975630 
# 
# From -- ./inp_files/21501.got.cif
#   From: 2010.05.17/outbox.cif.g08.bks.cpg/sg12_11_cif.got.tgz:21501.got - 2010.06.03 13:09:07.
