data_PCOD9174967
_publ_section_title
;
Structure prediction by ZEFSAII (Michael W. Deem and Ramdas Pophale) SiO2 
 PCOD9174967
Probable space group: C 2/M
;
_chemical_formula_sum "Si O2"
_cell_formula_units_Z 64
_cell_length_a 20.507979
_cell_length_b 8.883239
_cell_length_c 24.583369
_cell_angle_alpha 90.000000
_cell_angle_beta 126.807655
_cell_angle_gamma 90.000000
_cell_volume 3585.742023
_symmetry_space_group_name_H-M "C 2/M"
_symmetry_group_IT_number 12
_symmetry_cell_setting 'monoclinic'
loop_
_space_group_symop_operation_xyz
x,y,z
-x,y,-z
-x,-y,-z
x,-y,z
1/2+x,1/2+y,z
1/2-x,1/2+y,-z
1/2-x,1/2-y,-z
1/2+x,1/2-y,z
loop_
_atom_site_type_symbol
_atom_site_label
_atom_site_fract_x
_atom_site_fract_y
_atom_site_fract_z
Si Si1 0.663386 0.679662 0.229230
Si Si2 0.076992 0.673325 0.496938
Si Si3 0.924701 0.178525 0.004112
Si Si4 0.401424 0.320612 0.207156
Si Si5 0.486462 0.820742 0.147048
Si Si6 0.034632 0.819959 0.643334
Si Si7 0.788578 0.321010 0.862450
Si Si8 0.185222 0.179096 0.637759
O O1 0.656989 0.500000 0.225932
O O2 0.576550 0.752491 0.199030
O O3 0.689090 0.737830 0.182307
O O4 0.733027 0.735404 0.305150
O O5 0.101444 0.500000 0.503145
O O6 0.147027 0.767990 0.561600
O O7 0.000000 0.678944 0.500000
O O8 0.041084 0.740180 0.423473
O O9 0.948954 0.250943 0.073410
O O10 0.910755 0.000000 0.003366
O O11 0.846960 0.257765 0.938444
O O12 0.000000 0.198536 0.000000
O O13 0.413405 0.500000 0.203845
O O14 0.433022 0.229173 0.171706
O O15 0.449141 0.278735 0.286258
O O16 0.305791 0.296819 0.170386
O O17 0.490736 0.000000 0.144356
O O18 0.116370 0.785696 0.649220
O O19 0.023581 0.000000 0.634319
O O20 0.801464 0.500000 0.861597
O O21 0.198329 0.000000 0.645072
#
# Coordination Sequence:
#
# PCOD9174967 Si02
#       8
#     8   8   8   8   8   8   8   8
#     4  12  23  37  59  87 119 154 193 243 294 345
#     4   9  17  28  45  78 117 152 190 239 289 337
#     4  11  23  40  63  90 118 153 192 240 294 346
#     4  10  22  41  61  86 121 156 195 241 292 346
#     4  12  26  42  62  87 116 155 198 240 290 351
#     4   9  17  32  54  80 113 156 193 233 288 343
#     4  11  22  39  64  91 117 153 195 240 289 347
#     4  10  18  32  54  83 115 151 195 242 288 343
#
# _framework density 17.848468
#
# number of rings (size 3 to 8) (size 9 to 14) (size 15 to 20)
#    0.000    1.500    2.500    3.750    0.000    4.500 
#    0.000    0.000    0.000    0.750    0.000    0.000 
#    0.000    0.000    0.000    0.000    0.000    0.000 
#
# Total GULP energy -178799.037044 kJ/mol
# GULP energy per Si atom -5587.469908 kJ/mol
# Density = 1.780784 g / cm^3
# Si number density = 17.848468 Si / 1000 Ang^3
#
#
#
# Elastic Constant Matrix: (Units=GPa)
#
#
# Indices 1 2 3 4 5 6 
#
# 1 34.9610 32.3058 18.3793 0.0000 -3.4721 0.0000
# 2 32.3058 88.7980 46.5709 0.0000 -3.9859 0.0000
# 3 18.3793 46.5709 121.6450 0.0000 1.0472 0.0000
# 4 0.0000 0.0000 0.0000 30.0323 0.0000 0.9026
# 5 -3.4721 -3.9859 1.0472 0.0000 18.3901 0.0000
# 6 0.0000 0.0000 0.0000 0.9026 0.0000 22.7103
#
#
#
# Elastic Compliance Matrix: (Units=1/GPa)
#
#
# Indices 1 2 3 4 5 6 
#
# 1 0.043572 -0.015207 -0.000804 0.000000 0.004976 0.000000
# 2 -0.015207 0.019609 -0.005224 0.000000 0.001676 0.000000
# 3 -0.000804 -0.005224 0.010358 0.000000 -0.001874 0.000000
# 4 0.000000 0.000000 0.000000 0.033337 0.000000 -0.001325
# 5 0.004976 0.001676 -0.001874 0.000000 0.055787 0.000000
# 6 0.000000 0.000000 0.000000 -0.001325 0.000000 0.044085
#
#
# Mechanical properties :
#
#
# Convention : Reuss Voigt Hill
#
# Bulk Modulus (GPa) = 32.18626 48.87954 40.53290
# Shear Modulus (GPa) = 19.26219 24.10309 21.68264
#
# Velocity S-wave (km/s) = 3.28869 3.67881 3.48921
# Velocity P-wave (km/s) = 5.70025 6.74464 6.24432
#
# Compressibility (1/GPa) = 0.03106916
#
# Stress axis : x y z
#
# Youngs Moduli (GPa) = 22.95031 50.99693 96.54130
#
# Poissons Ratio (x) = 0.77551 0.07765
# Poissons Ratio (y) = 0.34901 0.50433
# Poissons Ratio (z) = 0.01846 0.26641
#
# Static dielectric constant tensor:
#      x y z
#    x 1.585060 0.000000 0.000680 
#    y 0.000000 1.593980 0.000000 
#    z 0.000680 0.000000 1.599640 
# 
# From -- ./inp_files/346212.got.cif
#   From: 2010.05.17/outbox.cif.g08.bks.cpg/sg12_174_cif.got.tgz:346212.got - 2010.06.03 13:09:07.
