data_PCOD9174800
_publ_section_title
;
Structure prediction by ZEFSAII (Michael W. Deem and Ramdas Pophale) SiO2 
 PCOD9174800
Probable space group: C 2/M
;
_chemical_formula_sum "Si O2"
_cell_formula_units_Z 64
_cell_length_a 17.264652
_cell_length_b 15.451142
_cell_length_c 22.423540
_cell_angle_alpha 90.000000
_cell_angle_beta 35.017909
_cell_angle_gamma 90.000000
_cell_volume 3432.477453
_symmetry_space_group_name_H-M "C 2/M"
_symmetry_group_IT_number 12
_symmetry_cell_setting 'monoclinic'
loop_
_space_group_symop_operation_xyz
x,y,z
-x,y,-z
-x,-y,-z
x,-y,z
1/2+x,1/2+y,z
1/2-x,1/2+y,-z
1/2-x,1/2-y,-z
1/2+x,1/2-y,z
loop_
_atom_site_type_symbol
_atom_site_label
_atom_site_fract_x
_atom_site_fract_y
_atom_site_fract_z
Si Si1 0.415603 0.258666 0.106629
Si Si2 0.323749 0.296693 0.821269
Si Si3 0.409260 0.100594 0.963482
Si Si4 0.590734 0.601358 0.645215
Si Si5 0.879216 0.398889 0.419141
Si Si6 0.912494 0.401601 0.614485
Si Si7 0.500806 0.840455 0.220560
Si Si8 0.145769 0.180573 0.735631
O O1 0.266897 0.242634 0.174425
O O2 0.475990 0.163393 0.081913
O O3 0.440023 0.316011 0.149641
O O4 0.500000 0.298497 0.000000
O O5 0.454633 0.347939 0.715218
O O6 0.383689 0.221054 0.824764
O O7 0.228400 0.358128 0.922653
O O8 0.434417 0.109964 0.876312
O O9 0.419280 0.000000 0.973667
O O10 0.574658 0.500000 0.642673
O O11 0.728136 0.635577 0.527039
O O12 0.611361 0.616647 0.703383
O O13 0.868619 0.500000 0.442384
O O14 0.992714 0.364335 0.393038
O O15 0.934419 0.390861 0.317552
O O16 0.865581 0.500000 0.660694
O O17 0.790615 0.342003 0.670514
O O18 0.000000 0.410296 0.500000
O O19 0.382094 0.776010 0.272667
#
# Coordination Sequence:
#
# PCOD9174800 Si02
#       8
#     8   8   8   8   8   8   8   8
#     4   9  20  36  53  76 102 135 173 213 260 309
#     4  10  20  34  54  79 105 133 170 218 266 306
#     4  10  20  36  58  78 101 136 178 218 255 307
#     4  10  20  34  52  76 106 137 172 213 258 307
#     4  10  20  35  54  76 105 142 177 212 253 306
#     4  10  18  32  53  75  99 133 175 213 248 296
#     4  10  21  35  53  79 108 139 170 213 263 313
#     4  10  19  33  52  76 103 135 169 213 261 302
#
# _framework density 18.645423999999998
#
# number of rings (size 3 to 8) (size 9 to 14) (size 15 to 20)
#    0.000    2.125    1.250    2.250    0.000    5.750 
#    2.250    0.000    0.000    1.500    0.000    4.375 
#    0.000    0.000    0.000    0.000    0.000    0.000 
#
# Total GULP energy -178191.222921 kJ/mol
# GULP energy per Si atom -5568.475716 kJ/mol
# Density = 1.860299 g / cm^3
# Si number density = 18.645424 Si / 1000 Ang^3
#
#
#
# Elastic Constant Matrix: (Units=GPa)
#
#
# Indices 1 2 3 4 5 6 
#
# 1 60.7560 -6.8496 30.1840 0.0001 -6.7888 0.0000
# 2 -6.8496 24.1677 10.7680 -0.0008 -8.5196 0.0006
# 3 30.1840 10.7680 65.4931 -0.0007 -7.5133 0.0004
# 4 0.0001 -0.0008 -0.0007 -77.4697 0.0004 84.7001
# 5 -6.7888 -8.5196 -7.5133 0.0004 41.5880 -0.0004
# 6 0.0000 0.0006 0.0004 84.7001 -0.0004 -54.5782
#
#
#
# Elastic Compliance Matrix: (Units=1/GPa)
#
#
# Indices 1 2 3 4 5 6 
#
# 1 0.025461 0.014976 -0.013651 0.000000 0.004758 0.000000
# 2 0.014976 0.056214 -0.014850 0.000000 0.011278 0.000000
# 3 -0.013651 -0.014850 0.023892 0.000000 -0.000954 0.000000
# 4 0.000000 0.000000 0.000000 0.018526 0.000000 0.028751
# 5 0.004758 0.011278 -0.000954 0.000000 0.026960 0.000000
# 6 0.000000 0.000000 0.000000 0.028751 0.000000 0.026297
#
#
# Mechanical properties :
#
#
# Convention : Reuss Voigt Hill
#
# Bulk Modulus (GPa) = 12.73623 24.29127 18.51375
# Shear Modulus (GPa) = 21.68502 -10.33768 5.67367
#
# Velocity S-wave (km/s) = 3.41401 -2.35720 1.74629
# Velocity P-wave (km/s) = 4.73141 2.37650 3.74393
#
# Compressibility (1/GPa) = 0.07851614
#
# Stress axis : x y z
#
# Youngs Moduli (GPa) = 39.27575 17.78912 41.85472
#
# Poissons Ratio (x) = -0.26640 0.57134
# Poissons Ratio (y) = -0.58818 0.62156
# Poissons Ratio (z) = 0.53614 0.26418
#
# Static dielectric constant tensor:
#      x y z
#    x 1.654340 0.000000 0.011690 
#    y 0.000000 1.655640 0.000000 
#    z 0.011690 0.000000 1.697560 
# 
# From -- ./inp_files/328614.got.cif
#   From: 2010.05.17/outbox.cif.g08.bks.cpg/sg12_165_cif.got.tgz:328614.got - 2010.06.03 13:09:07.
