data_PCOD9174027
_publ_section_title
;
Structure prediction by ZEFSAII (Michael W. Deem and Ramdas Pophale) SiO2 
 PCOD9174027
Probable space group: C 2/M
;
_chemical_formula_sum "Si O2"
_cell_formula_units_Z 40
_cell_length_a 10.272462
_cell_length_b 13.557714
_cell_length_c 12.819263
_cell_angle_alpha 90.000000
_cell_angle_beta 62.938016
_cell_angle_gamma 90.000000
_cell_volume 1589.883281
_symmetry_space_group_name_H-M "C 2/M"
_symmetry_group_IT_number 12
_symmetry_cell_setting 'monoclinic'
loop_
_space_group_symop_operation_xyz
x,y,z
-x,y,-z
-x,-y,-z
x,-y,z
1/2+x,1/2+y,z
1/2-x,1/2+y,-z
1/2-x,1/2-y,-z
1/2+x,1/2-y,z
loop_
_atom_site_type_symbol
_atom_site_label
_atom_site_fract_x
_atom_site_fract_y
_atom_site_fract_z
Si Si1 0.957814 0.171814 0.262969
Si Si2 0.722558 0.115244 0.931063
Si Si3 0.100138 0.613534 0.754057
Si Si4 0.849107 0.834987 0.511008
Si Si5 0.836297 0.881900 0.100761
O O1 0.878375 0.358754 0.131056
O O2 0.903415 0.114426 0.384907
O O3 0.111990 0.129403 0.169719
O O4 0.835137 0.158562 0.217790
O O5 0.726614 0.153589 0.049454
O O6 0.694262 0.000000 0.953809
O O7 0.042892 0.500000 0.767111
O O8 0.250000 0.750000 0.500000
O O9 0.023533 0.709331 0.730891
O O10 0.255527 0.612790 0.634855
O O11 0.000000 0.794022 0.500000
O O12 0.826673 0.000000 0.110977
O O13 0.000000 0.858151 0.000000
#
# Coordination Sequence:
#
# PCOD9174027 Si02
#       5
#     8   8   8   8   8
#     4  10  18  31  52  75 107 139 173 223 280 325
#     4   9  17  32  54  79 104 132 178 232 276 322
#     4  10  21  33  50  79 108 140 181 226 270 323
#     4  10  20  35  55  82 109 142 182 231 274 327
#     4   8  15  28  49  77 104 132 173 228 278 322
#
# _framework density 25.159078999999998
#
# number of rings (size 3 to 8) (size 9 to 14) (size 15 to 20)
#    0.000    2.600    2.000    1.800    0.000    2.800 
#    0.000    0.000    0.000   17.400    0.000    0.000 
#    0.000    0.000    0.000    0.000    0.000    0.000 
#
# Total GULP energy -111550.294479 kJ/mol
# GULP energy per Si atom -5577.514724 kJ/mol
# Density = 2.510182 g / cm^3
# Si number density = 25.159079 Si / 1000 Ang^3
#
#
#
# Elastic Constant Matrix: (Units=GPa)
#
#
# Indices 1 2 3 4 5 6 
#
# 1 67.2257 24.9194 30.2680 0.0000 2.6255 0.0000
# 2 24.9194 78.5960 20.3338 0.0000 19.8994 0.0000
# 3 30.2680 20.3338 156.3335 0.0000 -0.6352 0.0000
# 4 0.0000 0.0000 0.0000 9.4610 0.0000 0.1898
# 5 2.6255 19.8994 -0.6352 0.0000 49.8164 0.0000
# 6 0.0000 0.0000 0.0000 0.1898 0.0000 20.0449
#
#
#
# Elastic Compliance Matrix: (Units=1/GPa)
#
#
# Indices 1 2 3 4 5 6 
#
# 1 0.018052 -0.005282 -0.002803 0.000000 0.001123 0.000000
# 2 -0.005282 0.016266 -0.001118 0.000000 -0.006233 0.000000
# 3 -0.002803 -0.001118 0.007088 0.000000 0.000685 0.000000
# 4 0.000000 0.000000 0.000000 0.105718 0.000000 -0.001001
# 5 0.001123 -0.006233 0.000685 0.000000 0.022513 0.000000
# 6 0.000000 0.000000 0.000000 -0.001001 0.000000 0.049898
#
#
# Mechanical properties :
#
#
# Convention : Reuss Voigt Hill
#
# Bulk Modulus (GPa) = 43.48432 50.35527 46.91980
# Shear Modulus (GPa) = 20.35774 30.97337 25.66555
#
# Velocity S-wave (km/s) = 2.84766 3.51251 3.19741
# Velocity P-wave (km/s) = 5.30410 6.04223 5.68516
#
# Compressibility (1/GPa) = 0.02299679
#
# Stress axis : x y z
#
# Youngs Moduli (GPa) = 55.39627 61.47943 141.09201
#
# Poissons Ratio (x) = 0.32476 0.39554
# Poissons Ratio (y) = 0.29263 0.15777
# Poissons Ratio (z) = 0.15530 0.06875
#
# Static dielectric constant tensor:
#      x y z
#    x 2.088560 0.000000 -0.046220 
#    y 0.000000 1.977440 0.000000 
#    z -0.046220 0.000000 2.121400 
# 
# From -- ./inp_files/202960.got.cif
#   From: 2010.05.17/outbox.cif.g08.bks.cpg/sg12_102_cif.got.tgz:202960.got - 2010.06.03 13:09:07.
