data_PCOD9174537
_publ_section_title
;
Structure prediction by ZEFSAII (Michael W. Deem and Ramdas Pophale) SiO2 
 PCOD9174537
Probable space group: C 2/M
;
_chemical_formula_sum "Si O2"
_cell_formula_units_Z 44
_cell_length_a 13.078496
_cell_length_b 27.847386
_cell_length_c 13.197985
_cell_angle_alpha 90.000000
_cell_angle_beta 32.575078
_cell_angle_gamma 90.000000
_cell_volume 2587.964902
_symmetry_space_group_name_H-M "C 2/M"
_symmetry_group_IT_number 12
_symmetry_cell_setting 'monoclinic'
loop_
_space_group_symop_operation_xyz
x,y,z
-x,y,-z
-x,-y,-z
x,-y,z
1/2+x,1/2+y,z
1/2-x,1/2+y,-z
1/2-x,1/2-y,-z
1/2+x,1/2-y,z
loop_
_atom_site_type_symbol
_atom_site_label
_atom_site_fract_x
_atom_site_fract_y
_atom_site_fract_z
Si Si1 0.500000 0.589020 0.500000
Si Si2 0.494248 0.153609 0.805433
Si Si3 0.199173 0.730920 0.780234
Si Si4 0.721185 0.798095 0.458332
Si Si5 0.091110 0.834745 0.247696
Si Si6 0.910314 0.553742 0.186227
O O1 0.449872 0.622702 0.638445
O O2 0.684428 0.557538 0.365852
O O3 0.634362 0.185392 0.762432
O O4 0.543377 0.173543 0.653432
O O5 0.535312 0.097626 0.786711
O O6 0.280910 0.160348 0.022628
O O7 0.272886 0.776858 0.658390
O O8 0.357229 0.711163 0.725047
O O9 0.000000 0.743360 0.000000
O O10 0.750000 0.750000 0.500000
O O11 0.909512 0.828172 0.328672
O O12 0.969049 0.500000 0.167656
O O13 0.000000 0.563552 0.000000
#
# Coordination Sequence:
#
# PCOD9174537 Si02
#       6
#     4   8   8   8   8   8
#     4  12  17  30  48  66  88 134 162 186 239 274
#     4  10  18  32  45  64  92 128 159 192 237 272
#     4   9  18  31  48  67  93 126 164 196 234 277
#     4  10  20  31  47  69  90 127 167 196 232 280
#     4  11  19  31  51  63  97 130 161 195 231 281
#     4  11  20  30  45  69  95 124 166 201 229 281
#
# _framework density 17.001776
#
# number of rings (size 3 to 8) (size 9 to 14) (size 15 to 20)
#    0.000    1.636    5.455    1.909    0.000    6.545 
#    0.000    1.818    0.000    0.000    0.000    0.000 
#    0.000    0.727    0.000   20.545    0.000    4.727 
#
# Total GULP energy -122709.214824 kJ/mol
# GULP energy per Si atom -5577.691583 kJ/mol
# Density = 1.696308 g / cm^3
# Si number density = 17.001776 Si / 1000 Ang^3
#
#
#
# Elastic Constant Matrix: (Units=GPa)
#
#
# Indices 1 2 3 4 5 6 
#
# 1 22.9002 10.4063 19.0610 0.0000 0.3389 0.0000
# 2 10.4063 96.8068 42.9560 0.0000 17.6178 0.0000
# 3 19.0610 42.9560 104.5760 0.0000 1.6174 0.0000
# 4 0.0000 0.0000 0.0000 13.3749 0.0000 -7.3136
# 5 0.3389 17.6178 1.6174 0.0000 20.1452 0.0000
# 6 0.0000 0.0000 0.0000 -7.3136 0.0000 9.2302
#
#
#
# Elastic Compliance Matrix: (Units=1/GPa)
#
#
# Indices 1 2 3 4 5 6 
#
# 1 0.051743 -0.002025 -0.008624 0.000000 0.001593 0.000000
# 2 -0.002025 0.015493 -0.005793 0.000000 -0.013050 0.000000
# 3 -0.008624 -0.005793 0.013450 0.000000 0.004131 0.000000
# 4 0.000000 0.000000 0.000000 0.131928 0.000000 0.104535
# 5 0.001593 -0.013050 0.004131 0.000000 0.060694 0.000000
# 6 0.000000 0.000000 0.000000 0.104535 0.000000 0.191170
#
#
# Mechanical properties :
#
#
# Convention : Reuss Voigt Hill
#
# Bulk Modulus (GPa) = 20.91997 41.01439 30.96718
# Shear Modulus (GPa) = 9.74097 18.67403 14.20750
#
# Velocity S-wave (km/s) = 2.39621 3.31774 2.89389
# Velocity P-wave (km/s) = 4.47069 6.23318 5.42400
#
# Compressibility (1/GPa) = 0.04780122
#
# Stress axis : x y z
#
# Youngs Moduli (GPa) = 19.32646 64.54497 74.34993
#
# Poissons Ratio (x) = 0.13073 0.64118
# Poissons Ratio (y) = 0.03914 0.43071
# Poissons Ratio (z) = 0.16667 0.37391
#
# Static dielectric constant tensor:
#      x y z
#    x 1.599130 0.000000 0.009220 
#    y 0.000000 1.577410 0.000000 
#    z 0.009220 0.000000 1.627590 
# 
# From -- ./inp_files/136850.got.cif
#   From: 2010.05.17/outbox.cif.g08.bks.cpg/sg12_69_cif.got.tgz:136850.got - 2010.06.03 13:09:07.
