data_PCOD9174099
_publ_section_title
;
Structure prediction by ZEFSAII (Michael W. Deem and Ramdas Pophale) SiO2 
 PCOD9174099
Probable space group: C 2/M
;
_chemical_formula_sum "Si O2"
_cell_formula_units_Z 56
_cell_length_a 25.343775
_cell_length_b 9.228905
_cell_length_c 13.831304
_cell_angle_alpha 90.000000
_cell_angle_beta 69.547457
_cell_angle_gamma 90.000000
_cell_volume 3031.143908
_symmetry_space_group_name_H-M "C 2/M"
_symmetry_group_IT_number 12
_symmetry_cell_setting 'monoclinic'
loop_
_space_group_symop_operation_xyz
x,y,z
-x,y,-z
-x,-y,-z
x,-y,z
1/2+x,1/2+y,z
1/2-x,1/2+y,-z
1/2-x,1/2-y,-z
1/2+x,1/2-y,z
loop_
_atom_site_type_symbol
_atom_site_label
_atom_site_fract_x
_atom_site_fract_y
_atom_site_fract_z
Si Si1 0.092760 0.338311 0.074023
Si Si2 0.658300 0.673613 0.307276
Si Si3 0.286983 0.162474 0.900445
Si Si4 0.692034 0.325402 0.506523
Si Si5 0.436990 0.670304 0.083527
Si Si6 0.921772 0.175834 0.317049
Si Si7 0.457856 0.325558 0.716269
O O1 0.067992 0.500000 0.082278
O O2 0.152572 0.348926 0.087101
O O3 0.057490 0.236476 0.168450
O O4 0.099373 0.266363 0.965577
O O5 0.661771 0.500000 0.289810
O O6 0.700285 0.753207 0.206722
O O7 0.675422 0.704426 0.405928
O O8 0.593460 0.716964 0.322088
O O9 0.264820 0.000000 0.897392
O O10 0.250000 0.250000 0.000000
O O11 0.697850 0.500000 0.513248
O O12 0.750000 0.250000 0.500000
O O13 0.638211 0.275208 0.604113
O O14 0.422570 0.500000 0.085773
O O15 0.430911 0.714623 0.198835
O O16 0.500000 0.686783 0.000000
O O17 0.977402 0.220766 0.342451
O O18 0.920771 0.000000 0.321968
O O19 0.457452 0.500000 0.720449
#
# Coordination Sequence:
#
# PCOD9174099 Si02
#       7
#     8   8   8   8   8   8   8
#     4  10  20  32  48  76 112 143 172 218 273 325
#     4   9  19  35  58  83 109 141 179 229 283 331
#     4  10  21  36  55  80 110 144 185 228 273 328
#     4  10  22  40  58  80 110 145 188 234 275 327
#     4  10  18  31  52  78 109 145 181 216 262 329
#     4   9  18  33  55  81 108 141 185 228 271 326
#     4   9  16  32  56  80 106 137 174 221 277 334
#
# _framework density 18.474874
#
# number of rings (size 3 to 8) (size 9 to 14) (size 15 to 20)
#    0.000    2.429    1.429    0.857    0.000    4.286 
#    0.000    7.143    0.000    0.000    0.000    5.000 
#    0.000    0.000    0.000    0.000    0.000    0.000 
#
# Total GULP energy -156013.122082 kJ/mol
# GULP energy per Si atom -5571.897217 kJ/mol
# Density = 1.843282 g / cm^3
# Si number density = 18.474874 Si / 1000 Ang^3
#
#
#
# Elastic Constant Matrix: (Units=GPa)
#
#
# Indices 1 2 3 4 5 6 
#
# 1 102.5517 32.8458 75.9355 0.0000 -3.6479 0.0000
# 2 32.8458 25.1817 41.9204 0.0000 5.7151 0.0000
# 3 75.9355 41.9204 122.8044 0.0000 -3.6395 0.0000
# 4 0.0000 0.0000 0.0000 15.1714 0.0000 -1.3948
# 5 -3.6479 5.7151 -3.6395 0.0000 32.9923 0.0000
# 6 0.0000 0.0000 0.0000 -1.3948 0.0000 22.0440
#
#
#
# Elastic Compliance Matrix: (Units=1/GPa)
#
#
# Indices 1 2 3 4 5 6 
#
# 1 0.020003 -0.015365 -0.007002 0.000000 0.004101 0.000000
# 2 -0.015365 0.118188 -0.031604 0.000000 -0.025658 0.000000
# 3 -0.007002 -0.031604 0.023477 0.000000 0.007290 0.000000
# 4 0.000000 0.000000 0.000000 0.066299 0.000000 0.004195
# 5 0.004101 -0.025658 0.007290 0.000000 0.036013 0.000000
# 6 0.000000 0.000000 0.000000 0.004195 0.000000 0.045629
#
#
# Mechanical properties :
#
#
# Convention : Reuss Voigt Hill
#
# Bulk Modulus (GPa) = 18.61316 61.32681 39.96999
# Shear Modulus (GPa) = 11.48211 20.69727 16.08969
#
# Velocity S-wave (km/s) = 2.49569 3.35071 2.95430
# Velocity P-wave (km/s) = 4.28968 6.94525 5.77225
#
# Compressibility (1/GPa) = 0.05372542
#
# Stress axis : x y z
#
# Youngs Moduli (GPa) = 49.99202 8.46113 42.59429
#
# Poissons Ratio (x) = 0.13000 0.29826
# Poissons Ratio (y) = 0.76812 1.34615
# Poissons Ratio (z) = 0.35006 0.26741
#
# Static dielectric constant tensor:
#      x y z
#    x 1.673700 0.000000 -0.006360 
#    y 0.000000 1.651040 0.000000 
#    z -0.006360 0.000000 1.620510 
# 
# From -- ./inp_files/237419.got.cif
#   From: 2010.05.17/outbox.cif.g08.bks.cpg/sg12_119_cif.got.tgz:237419.got - 2010.06.03 13:09:07.
