data_PCOD9174363
_publ_section_title
;
Structure prediction by ZEFSAII (Michael W. Deem and Ramdas Pophale) SiO2 
 PCOD9174363
Probable space group: C 2/M
;
_chemical_formula_sum "Si O2"
_cell_formula_units_Z 64
_cell_length_a 28.344826
_cell_length_b 16.424288
_cell_length_c 20.392950
_cell_angle_alpha 90.000000
_cell_angle_beta 21.672630
_cell_angle_gamma 90.000000
_cell_volume 3506.090211
_symmetry_space_group_name_H-M "C 2/M"
_symmetry_group_IT_number 12
_symmetry_cell_setting 'monoclinic'
loop_
_space_group_symop_operation_xyz
x,y,z
-x,y,-z
-x,-y,-z
x,-y,z
1/2+x,1/2+y,z
1/2-x,1/2+y,-z
1/2-x,1/2-y,-z
1/2+x,1/2-y,z
loop_
_atom_site_type_symbol
_atom_site_label
_atom_site_fract_x
_atom_site_fract_y
_atom_site_fract_z
Si Si1 0.949917 0.253486 0.438692
Si Si2 0.782033 0.762247 0.161985
Si Si3 0.258041 0.710978 0.386077
Si Si4 0.284386 0.304724 0.893335
Si Si5 0.352081 0.088410 0.386231
Si Si6 0.139727 0.094079 0.853118
Si Si7 0.934552 0.590992 0.775346
Si Si8 0.982354 0.341955 0.094927
O O1 0.850841 0.255286 0.626585
O O2 0.864696 0.240312 0.482983
O O3 0.062513 0.188916 0.304554
O O4 0.020545 0.340415 0.334602
O O5 0.758757 0.742743 0.116347
O O6 0.842922 0.849078 0.105338
O O7 0.883015 0.695317 0.056710
O O8 0.237314 0.665203 0.481389
O O9 0.272825 0.637230 0.314570
O O10 0.382156 0.766620 0.220256
O O11 0.250000 0.250000 0.000000
O O12 0.198086 0.383693 0.018316
O O13 0.460074 0.092010 0.302966
O O14 0.421979 0.100072 0.227127
O O15 0.287534 0.000000 0.473267
O O16 0.172308 0.000000 0.822662
O O17 0.000000 0.097266 0.000000
O O18 0.928692 0.500000 0.755219
O O19 0.000000 0.377735 0.000000
#
# Coordination Sequence:
#
# PCOD9174363 Si02
#       8
#     8   8   8   8   8   8   8   8
#     4   9  19  32  56  83 105 141 180 230 272 325
#     4  11  19  35  54  81 115 146 184 225 272 330
#     4  10  18  35  55  83 112 146 187 227 274 335
#     4  10  20  36  57  81 106 143 191 232 273 322
#     4  10  21  34  53  80 111 147 187 232 275 324
#     4  10  18  31  54  84 118 149 177 220 281 345
#     4   9  18  35  58  82 108 142 185 230 275 327
#     4  12  20  35  56  84 111 148 183 228 276 333
#
# _framework density 18.253952000000002
#
# number of rings (size 3 to 8) (size 9 to 14) (size 15 to 20)
#    0.000    1.875    5.000    1.125    0.000    3.250 
#    0.000    2.500    0.000    9.000    0.000    0.000 
#    0.000    0.000    0.000    0.000    0.000    0.000 
#
# Total GULP energy -178277.507658 kJ/mol
# GULP energy per Si atom -5571.172114 kJ/mol
# Density = 1.821240 g / cm^3
# Si number density = 18.253952 Si / 1000 Ang^3
#
#
#
# Elastic Constant Matrix: (Units=GPa)
#
#
# Indices 1 2 3 4 5 6 
#
# 1 74.6439 2.3576 26.9136 0.0001 11.1837 -0.0001
# 2 2.3576 37.2184 13.6593 0.0002 -0.0274 -0.0001
# 3 26.9136 13.6593 79.6209 0.0001 -6.7522 -0.0001
# 4 0.0001 0.0002 0.0001 22.1662 -0.0002 3.9749
# 5 11.1837 -0.0274 -6.7522 -0.0002 32.3631 0.0001
# 6 -0.0001 -0.0001 -0.0001 3.9749 0.0001 19.3357
#
#
#
# Elastic Compliance Matrix: (Units=1/GPa)
#
#
# Indices 1 2 3 4 5 6 
#
# 1 0.016771 0.001318 -0.006502 0.000000 -0.007151 0.000000
# 2 0.001318 0.028811 -0.005522 0.000000 -0.001583 0.000000
# 3 -0.006502 -0.005522 0.016181 0.000000 0.005618 0.000000
# 4 0.000000 0.000000 0.000000 0.046841 0.000000 -0.009629
# 5 -0.007151 -0.001583 0.005618 0.000000 0.034541 0.000000
# 6 0.000000 0.000000 0.000000 -0.009629 0.000000 0.053697
#
#
# Mechanical properties :
#
#
# Convention : Reuss Voigt Hill
#
# Bulk Modulus (GPa) = 24.78235 30.81601 27.79918
# Shear Modulus (GPa) = 21.57935 24.67653 23.12794
#
# Velocity S-wave (km/s) = 3.44201 3.68073 3.56337
# Velocity P-wave (km/s) = 5.42240 5.91458 5.67383
#
# Compressibility (1/GPa) = 0.04035130
#
# Stress axis : x y z
#
# Youngs Moduli (GPa) = 59.62718 34.70952 61.80088
#
# Poissons Ratio (x) = -0.04576 0.40180
# Poissons Ratio (y) = -0.07862 0.34130
# Poissons Ratio (z) = 0.38767 0.19168
#
# Static dielectric constant tensor:
#      x y z
#    x 1.646570 0.000000 -0.005180 
#    y 0.000000 1.645350 0.000000 
#    z -0.005180 0.000000 1.679650 
# 
# From -- ./inp_files/330484.got.cif
#   From: 2010.05.17/outbox.cif.g08.bks.cpg/sg12_166_cif.got.tgz:330484.got - 2010.06.03 13:09:07.
