data_PCOD9174633
_publ_section_title
;
Structure prediction by ZEFSAII (Michael W. Deem and Ramdas Pophale) SiO2 
 PCOD9174633
Probable space group: C 2/M
;
_chemical_formula_sum "Si O2"
_cell_formula_units_Z 64
_cell_length_a 30.903326
_cell_length_b 7.409734
_cell_length_c 12.081064
_cell_angle_alpha 90.000000
_cell_angle_beta 93.174892
_cell_angle_gamma 90.000000
_cell_volume 2762.141534
_symmetry_space_group_name_H-M "C 2/M"
_symmetry_group_IT_number 12
_symmetry_cell_setting 'monoclinic'
loop_
_space_group_symop_operation_xyz
x,y,z
-x,y,-z
-x,-y,-z
x,-y,z
1/2+x,1/2+y,z
1/2-x,1/2+y,-z
1/2-x,1/2-y,-z
1/2+x,1/2-y,z
loop_
_atom_site_type_symbol
_atom_site_label
_atom_site_fract_x
_atom_site_fract_y
_atom_site_fract_z
Si Si1 0.592530 0.720167 0.268381
Si Si2 0.238477 0.290480 0.255754
Si Si3 0.422000 0.719952 0.216510
Si Si4 0.107585 0.778407 0.020006
Si Si5 0.825878 0.217607 0.572716
Si Si6 0.797763 0.196430 0.968889
Si Si7 0.003744 0.779498 0.373137
Si Si8 0.167040 0.220261 0.679989
O O1 0.593114 0.500000 0.268496
O O2 0.594264 0.778944 0.140903
O O3 0.634459 0.778972 0.344074
O O4 0.548717 0.776470 0.323613
O O5 0.237810 0.500000 0.223572
O O6 0.218579 0.274652 0.374832
O O7 0.207274 0.193175 0.164699
O O8 0.287662 0.222275 0.258517
O O9 0.422141 0.500000 0.218976
O O10 0.462803 0.779513 0.294339
O O11 0.376595 0.776995 0.265276
O O12 0.422002 0.773460 0.087808
O O13 0.156590 0.711030 0.002183
O O14 0.108569 0.000000 0.023367
O O15 0.831887 0.278240 0.447805
O O16 0.826213 0.000000 0.571135
O O17 0.803607 0.000000 0.020047
O O18 0.750000 0.250000 0.000000
O O19 0.000000 0.722075 0.500000
O O20 0.003454 0.000000 0.373654
O O21 0.167791 0.000000 0.680772
#
# Coordination Sequence:
#
# PCOD9174633 Si02
#       8
#     8   8   8   8   8   8   8   8
#     4   9  16  27  44  67  95 130 168 207 255 309
#     4  11  21  33  49  74 103 133 174 218 258 307
#     4   9  16  27  42  64  96 131 165 202 252 309
#     4   9  17  29  45  65  94 132 168 204 252 306
#     4  10  18  32  51  70  99 137 172 210 260 312
#     4  11  21  35  53  74 102 140 179 216 258 304
#     4   9  16  25  40  65  97 131 166 204 249 306
#     4   9  18  30  46  68  97 136 174 212 261 310
#
# _framework density 23.170427
#
# number of rings (size 3 to 8) (size 9 to 14) (size 15 to 20)
#    0.000    2.375    1.250    2.625    0.000    5.500 
#    0.000    3.125    0.000    0.000    0.000    0.000 
#    0.000   11.500    0.000    0.000    0.000    0.000 
#
# Total GULP energy -178837.893289 kJ/mol
# GULP energy per Si atom -5588.684165 kJ/mol
# Density = 2.311769 g / cm^3
# Si number density = 23.170427 Si / 1000 Ang^3
#
#
#
# Elastic Constant Matrix: (Units=GPa)
#
#
# Indices 1 2 3 4 5 6 
#
# 1 131.4505 2.1282 39.1036 0.0000 3.9484 0.0000
# 2 2.1282 75.4956 1.0714 0.0000 0.6444 0.0000
# 3 39.1036 1.0714 120.0571 0.0000 8.7942 0.0000
# 4 0.0000 0.0000 0.0000 1.5136 0.0000 -4.1941
# 5 3.9484 0.6444 8.7942 0.0000 43.9614 0.0000
# 6 0.0000 0.0000 0.0000 -4.1941 0.0000 1.6714
#
#
#
# Elastic Compliance Matrix: (Units=1/GPa)
#
#
# Indices 1 2 3 4 5 6 
#
# 1 0.008428 -0.000197 -0.002728 0.000000 -0.000208 0.000000
# 2 -0.000197 0.013253 -0.000042 0.000000 -0.000168 0.000000
# 3 -0.002728 -0.000042 0.009337 0.000000 -0.001622 0.000000
# 4 0.000000 0.000000 0.000000 -0.110982 0.000000 -0.278485
# 5 -0.000208 -0.000168 -0.001622 0.000000 0.023093 0.000000
# 6 0.000000 0.000000 0.000000 -0.278485 0.000000 -0.100504
#
#
# Mechanical properties :
#
#
# Convention : Reuss Voigt Hill
#
# Bulk Modulus (GPa) = 39.86462 45.73440 42.79951
# Shear Modulus (GPa) = -34.94579 28.40929 -3.26825
#
# Velocity S-wave (km/s) = -3.88778 3.50537 -1.18894
# Velocity P-wave (km/s) = 1.70610 6.01370 4.07761
#
# Compressibility (1/GPa) = 0.02508490
#
# Stress axis : x y z
#
# Youngs Moduli (GPa) = 118.64566 75.45242 107.09884
#
# Poissons Ratio (x) = 0.01487 0.29219
# Poissons Ratio (y) = 0.02338 0.00447
# Poissons Ratio (z) = 0.32369 0.00315
#
# Static dielectric constant tensor:
#      x y z
#    x 1.816730 0.000000 -0.006650 
#    y 0.000000 2.676410 0.000000 
#    z -0.006650 0.000000 1.855880 
# 
# From -- ./inp_files/187538.got.cif
#   From: 2010.05.17/outbox.cif.g08.bks.cpg/sg12_94_cif.got.tgz:187538.got - 2010.06.03 13:09:07.
