data_PCOD9174945
_publ_section_title
;
Structure prediction by ZEFSAII (Michael W. Deem and Ramdas Pophale) SiO2 
 PCOD9174945
Probable space group: C 2/M
;
_chemical_formula_sum "Si O2"
_cell_formula_units_Z 64
_cell_length_a 32.553915
_cell_length_b 8.717615
_cell_length_c 20.545665
_cell_angle_alpha 90.000000
_cell_angle_beta 142.777526
_cell_angle_gamma 90.000000
_cell_volume 3527.060883
_symmetry_space_group_name_H-M "C 2/M"
_symmetry_group_IT_number 12
_symmetry_cell_setting 'monoclinic'
loop_
_space_group_symop_operation_xyz
x,y,z
-x,y,-z
-x,-y,-z
x,-y,z
1/2+x,1/2+y,z
1/2-x,1/2+y,-z
1/2-x,1/2-y,-z
1/2+x,1/2-y,z
loop_
_atom_site_type_symbol
_atom_site_label
_atom_site_fract_x
_atom_site_fract_y
_atom_site_fract_z
Si Si1 0.950097 0.816635 0.601805
Si Si2 0.691798 0.317621 0.339835
Si Si3 0.185255 0.684483 0.818600
Si Si4 0.647791 0.315529 0.637470
Si Si5 0.836945 0.183768 0.970509
Si Si6 0.593501 0.183531 0.821107
Si Si7 0.698685 0.816309 0.209366
Si Si8 0.848015 0.318019 0.576976
O O1 0.910727 0.768242 0.486351
O O2 0.901293 0.771226 0.599929
O O3 0.021675 0.735337 0.701921
O O4 0.959125 0.000000 0.611372
O O5 0.681880 0.500000 0.330623
O O6 0.675111 0.254409 0.247603
O O7 0.771923 0.286311 0.454223
O O8 0.652129 0.236735 0.348558
O O9 0.184145 0.500000 0.816133
O O10 0.143897 0.745296 0.704212
O O11 0.263158 0.733819 0.906141
O O12 0.151494 0.735895 0.843175
O O13 0.646703 0.500000 0.641184
O O14 0.721894 0.272024 0.702088
O O15 0.840763 0.253984 0.903343
O O16 0.837974 0.000000 0.967748
O O17 0.892349 0.242713 0.091056
O O18 0.596187 0.000000 0.830079
O O19 0.695151 0.000000 0.207506
O O20 0.860120 0.500000 0.588002
#
# Coordination Sequence:
#
# PCOD9174945 Si02
#       8
#     8   8   8   8   8   8   8   8
#     4  11  22  37  54  76 109 147 183 222 265 321
#     4  10  19  31  52  82 113 143 177 218 264 316
#     4   9  20  36  56  79 106 136 176 227 276 321
#     4   9  19  33  52  77 107 141 178 218 269 320
#     4  10  20  36  57  81 105 137 180 228 275 319
#     4  11  23  38  54  77 105 142 184 224 272 324
#     4  10  18  32  54  81 111 142 176 222 270 317
#     4  10  20  33  52  79 111 146 179 218 264 315
#
# _framework density 18.145419
#
# number of rings (size 3 to 8) (size 9 to 14) (size 15 to 20)
#    0.000    2.000    1.250    2.625    0.000    4.500 
#    0.000    2.500    0.000    0.750    0.000    5.250 
#    0.000    0.000    0.000    0.000    0.000    0.000 
#
# Total GULP energy -178687.003499 kJ/mol
# GULP energy per Si atom -5583.968859 kJ/mol
# Density = 1.810412 g / cm^3
# Si number density = 18.145419 Si / 1000 Ang^3
#
#
#
# Elastic Constant Matrix: (Units=GPa)
#
#
# Indices 1 2 3 4 5 6 
#
# 1 28.4206 3.5663 9.0094 0.0000 -24.4242 0.0000
# 2 3.5663 17.7648 6.0131 0.0000 -5.6316 0.0000
# 3 9.0094 6.0131 83.6999 0.0000 -25.9768 0.0000
# 4 0.0000 0.0000 0.0000 29.2320 0.0000 -4.9367
# 5 -24.4242 -5.6316 -25.9768 0.0000 29.5727 0.0000
# 6 0.0000 0.0000 0.0000 -4.9367 0.0000 28.1708
#
#
#
# Elastic Compliance Matrix: (Units=1/GPa)
#
#
# Indices 1 2 3 4 5 6 
#
# 1 0.176689 0.009187 0.035956 0.000000 0.179262 0.000000
# 2 0.009187 0.060453 0.000819 0.000000 0.019819 0.000000
# 3 0.035956 0.000819 0.023761 0.000000 0.050724 0.000000
# 4 0.000000 0.000000 0.000000 0.035252 0.000000 0.006178
# 5 0.179262 0.019819 0.050724 0.000000 0.230198 0.000000
# 6 0.000000 0.000000 0.000000 0.006178 0.000000 0.036580
#
#
# Mechanical properties :
#
#
# Convention : Reuss Voigt Hill
#
# Bulk Modulus (GPa) = 2.83425 18.56253 10.69839
# Shear Modulus (GPa) = 8.49447 24.81488 16.65468
#
# Velocity S-wave (km/s) = 2.16599 3.70206 3.03288
# Velocity P-wave (km/s) = 2.79655 5.34095 4.26301
#
# Compressibility (1/GPa) = 0.35282701
#
# Stress axis : x y z
#
# Youngs Moduli (GPa) = 5.65965 16.54190 42.08621
#
# Poissons Ratio (x) = -0.15197 -1.51326
# Poissons Ratio (y) = -0.05199 -0.03448
# Poissons Ratio (z) = -0.20350 -0.01355
#
# Static dielectric constant tensor:
#      x y z
#    x 1.613260 0.000000 0.001380 
#    y 0.000000 1.603940 0.000000 
#    z 0.001380 0.000000 1.614120 
# 
# From -- ./inp_files/295752.got.cif
#   From: 2010.05.17/outbox.cif.g08.bks.cpg/sg12_148_cif.got.tgz:295752.got - 2010.06.03 13:09:07.
