data_PCOD9174272
_publ_section_title
;
Structure prediction by ZEFSAII (Michael W. Deem and Ramdas Pophale) SiO2 
 PCOD9174272
Probable space group: C 2/M
;
_chemical_formula_sum "Si O2"
_cell_formula_units_Z 48
_cell_length_a 21.944107
_cell_length_b 13.708204
_cell_length_c 19.322455
_cell_angle_alpha 90.000000
_cell_angle_beta 20.594800
_cell_angle_gamma 90.000000
_cell_volume 2044.575466
_symmetry_space_group_name_H-M "C 2/M"
_symmetry_group_IT_number 12
_symmetry_cell_setting 'monoclinic'
loop_
_space_group_symop_operation_xyz
x,y,z
-x,y,-z
-x,-y,-z
x,-y,z
1/2+x,1/2+y,z
1/2-x,1/2+y,-z
1/2-x,1/2-y,-z
1/2+x,1/2-y,z
loop_
_atom_site_type_symbol
_atom_site_label
_atom_site_fract_x
_atom_site_fract_y
_atom_site_fract_z
Si Si1 0.681493 0.115903 0.561305
Si Si2 0.128288 0.686118 0.463184
Si Si3 0.496861 0.610732 0.420476
Si Si4 0.253872 0.117435 0.802617
Si Si5 0.442190 0.381331 0.856655
Si Si6 0.815455 0.617330 0.989324
O O1 0.657236 0.134542 0.505173
O O2 0.875328 0.152018 0.368865
O O3 0.685164 0.000000 0.569653
O O4 0.511371 0.154310 0.781469
O O5 0.128174 0.803024 0.470179
O O6 0.255173 0.655219 0.266092
O O7 0.936805 0.654306 0.639871
O O8 0.500000 0.611336 0.500000
O O9 0.454384 0.500000 0.442027
O O10 0.686900 0.636979 0.189133
O O11 0.260111 0.000000 0.793679
O O12 0.105011 0.147584 0.014985
O O13 0.446831 0.500000 0.852165
O O14 0.286031 0.352675 0.972230
O O15 0.826938 0.500000 0.973597
#
# Coordination Sequence:
#
# PCOD9174272 Si02
#       6
#     8   8   8   8   8   8
#     4  10  19  33  57  89 121 152 185 219 276 349
#     4  11  19  32  54  85 112 154 191 227 278 330
#     4  10  21  38  60  83 105 144 201 246 287 333
#     4  10  18  31  53  84 122 152 178 221 277 339
#     4   9  18  33  55  85 121 156 183 217 275 344
#     4   9  18  35  58  81 113 150 186 237 285 327
#
# _framework density 23.476756999999999
#
# number of rings (size 3 to 8) (size 9 to 14) (size 15 to 20)
#    0.000    2.167    3.333    2.000    0.000    1.333 
#    0.000    3.333    0.000    1.000    0.000    9.333 
#    0.000    0.000    0.000    0.000    0.000    0.000 
#
# Total GULP energy -134213.439952 kJ/mol
# GULP energy per Si atom -5592.226665 kJ/mol
# Density = 2.342332 g / cm^3
# Si number density = 23.476757 Si / 1000 Ang^3
#
#
#
# Elastic Constant Matrix: (Units=GPa)
#
#
# Indices 1 2 3 4 5 6 
#
# 1 40.1073 15.8400 33.1504 -0.0010 33.7893 0.0001
# 2 15.8400 97.3595 45.2805 0.0052 -2.5692 -0.0027
# 3 33.1504 45.2805 158.0486 0.0017 39.0794 -0.0011
# 4 -0.0010 0.0052 0.0017 14.1368 -0.0003 -2.0002
# 5 33.7893 -2.5692 39.0794 -0.0003 39.3906 0.0002
# 6 0.0001 -0.0027 -0.0011 -2.0002 0.0002 9.0543
#
#
#
# Elastic Compliance Matrix: (Units=1/GPa)
#
#
# Indices 1 2 3 4 5 6 
#
# 1 0.145370 -0.033901 0.014047 0.000018 -0.140846 -0.000004
# 2 -0.033901 0.020724 -0.008416 -0.000008 0.038782 0.000003
# 3 0.014047 -0.008416 0.011802 0.000002 -0.024308 0.000000
# 4 0.000018 -0.000008 0.000002 0.073020 -0.000017 0.016131
# 5 -0.140846 0.038782 -0.024308 -0.000017 0.172850 0.000004
# 6 -0.000004 0.000003 0.000000 0.016131 0.000004 0.114008
#
#
# Mechanical properties :
#
#
# Convention : Reuss Voigt Hill
#
# Bulk Modulus (GPa) = 8.24013 53.78414 31.01213
# Shear Modulus (GPa) = 7.87691 25.93263 16.90477
#
# Velocity S-wave (km/s) = 1.83371 3.32717 2.68631
# Velocity P-wave (km/s) = 2.82857 6.14161 4.78122
#
# Compressibility (1/GPa) = 0.12135737
#
# Stress axis : x y z
#
# Youngs Moduli (GPa) = 6.87899 48.25250 84.72905
#
# Poissons Ratio (x) = 1.63581 -1.19022
# Poissons Ratio (y) = 0.23321 0.71308
# Poissons Ratio (z) = -0.09663 0.40609
#
# Static dielectric constant tensor:
#      x y z
#    x 1.858960 0.000000 -0.010110 
#    y 0.000000 1.923060 0.000000 
#    z -0.010110 0.000000 1.894540 
# 
# From -- ./inp_files/325608.got.cif
#   From: 2010.05.17/outbox.cif.g08.bks.cpg/sg12_163_cif.got.tgz:325608.got - 2010.06.03 13:09:07.
