data_PCOD9174119
_publ_section_title
;
Structure prediction by ZEFSAII (Michael W. Deem and Ramdas Pophale) SiO2 
 PCOD9174119
Probable space group: C 2/M
;
_chemical_formula_sum "Si O2"
_cell_formula_units_Z 64
_cell_length_a 19.818409
_cell_length_b 13.401118
_cell_length_c 25.411863
_cell_angle_alpha 90.000000
_cell_angle_beta 149.216477
_cell_angle_gamma 90.000000
_cell_volume 3454.164870
_symmetry_space_group_name_H-M "C 2/M"
_symmetry_group_IT_number 12
_symmetry_cell_setting 'monoclinic'
loop_
_space_group_symop_operation_xyz
x,y,z
-x,y,-z
-x,-y,-z
x,-y,z
1/2+x,1/2+y,z
1/2-x,1/2+y,-z
1/2-x,1/2-y,-z
1/2+x,1/2-y,z
loop_
_atom_site_type_symbol
_atom_site_label
_atom_site_fract_x
_atom_site_fract_y
_atom_site_fract_z
Si Si1 0.858151 0.114324 0.901585
Si Si2 0.756598 0.615311 0.588896
Si Si3 0.247149 0.117145 0.274433
Si Si4 0.979242 0.117724 0.155631
Si Si5 0.643125 0.317017 0.619019
Si Si6 0.494545 0.253149 0.728814
Si Si7 0.724190 0.114351 0.924990
Si Si8 0.538350 0.616381 0.656769
O O1 0.755831 0.147787 0.788955
O O2 0.799086 0.110869 0.919359
O O3 0.883353 0.000000 0.899866
O O4 0.000000 0.166296 0.000000
O O5 0.796302 0.500000 0.608950
O O6 0.743420 0.639798 0.642646
O O7 0.611323 0.627242 0.466136
O O8 0.861795 0.689102 0.632933
O O9 0.334962 0.198026 0.362902
O O10 0.096261 0.133620 0.192213
O O11 0.282094 0.000000 0.305640
O O12 0.027689 0.161744 0.242765
O O13 0.963817 0.000000 0.150130
O O14 0.835935 0.153937 0.039929
O O15 0.500000 0.340761 0.500000
O O16 0.637078 0.360458 0.674148
O O17 0.598512 0.180792 0.827780
O O18 0.547057 0.306876 0.711344
O O19 0.687584 0.000000 0.914757
O O20 0.555085 0.500000 0.683922
#
# Coordination Sequence:
#
# PCOD9174119 Si02
#       8
#     8   8   8   8   8   8   8   8
#     4   9  15  27  48  70  97 133 172 212 255 309
#     4  10  21  38  59  82 108 144 187 230 276 327
#     4  10  18  31  52  80 109 140 178 224 273 320
#     4  10  20  34  52  75 108 146 184 216 260 330
#     4  10  20  37  58  81 108 142 187 231 270 325
#     4  12  21  35  55  83 112 143 178 229 281 323
#     4  10  20  33  51  80 110 141 180 223 269 319
#     4  10  22  39  59  81 108 145 187 227 274 335
#
# _framework density 18.528357
#
# number of rings (size 3 to 8) (size 9 to 14) (size 15 to 20)
#    0.000    1.875    2.500    2.625    0.000    1.750 
#    0.000    0.625    0.000    0.750    0.000    0.875 
#    0.000    0.000    0.000    0.000    0.000    0.000 
#
# Total GULP energy -178212.326151 kJ/mol
# GULP energy per Si atom -5569.135192 kJ/mol
# Density = 1.848619 g / cm^3
# Si number density = 18.528357 Si / 1000 Ang^3
#
#
#
# Elastic Constant Matrix: (Units=GPa)
#
#
# Indices 1 2 3 4 5 6 
#
# 1 44.2494 25.0050 -3.7522 0.0002 -8.4958 0.0000
# 2 25.0050 55.4874 9.5785 0.0001 -3.3546 0.0000
# 3 -3.7522 9.5785 17.3769 0.0007 -5.2492 0.0000
# 4 0.0002 0.0001 0.0007 19.1089 0.0000 1.3497
# 5 -8.4958 -3.3546 -5.2492 0.0000 26.4895 0.0000
# 6 0.0000 0.0000 0.0000 1.3497 0.0000 24.8124
#
#
#
# Elastic Compliance Matrix: (Units=1/GPa)
#
#
# Indices 1 2 3 4 5 6 
#
# 1 0.039515 -0.021171 0.024700 -0.000001 0.014887 0.000000
# 2 -0.021171 0.031264 -0.024102 0.000001 -0.007607 0.000000
# 3 0.024700 -0.024102 0.082581 -0.000003 0.021234 0.000000
# 4 -0.000001 0.000001 -0.000003 0.052533 -0.000001 -0.002858
# 5 0.014887 -0.007607 0.021234 -0.000001 0.045770 0.000000
# 6 0.000000 0.000000 0.000000 -0.002858 0.000000 0.040458
#
#
# Mechanical properties :
#
#
# Convention : Reuss Voigt Hill
#
# Bulk Modulus (GPa) = 8.91169 19.86402 14.38785
# Shear Modulus (GPa) = 13.48897 19.83433 16.66165
#
# Velocity S-wave (km/s) = 2.70111 3.27538 3.00200
# Velocity P-wave (km/s) = 3.81421 5.00482 4.44952
#
# Compressibility (1/GPa) = 0.11221221
#
# Stress axis : x y z
#
# Youngs Moduli (GPa) = 25.30654 31.98618 12.10929
#
# Poissons Ratio (x) = 0.67718 -0.29909
# Poissons Ratio (y) = 0.53577 0.29186
# Poissons Ratio (z) = -0.62506 0.77095
#
# Static dielectric constant tensor:
#      x y z
#    x 1.646320 0.000000 -0.004790 
#    y 0.000000 1.658100 0.000000 
#    z -0.004790 0.000000 1.674940 
# 
# From -- ./inp_files/366051.got.cif
#   From: 2010.05.17/outbox.cif.g08.bks.cpg/sg12_184_cif.got.tgz:366051.got - 2010.06.03 13:09:07.
