data_PCOD9174940
_publ_section_title
;
Structure prediction by ZEFSAII (Michael W. Deem and Ramdas Pophale) SiO2 
 PCOD9174940
Probable space group: C 2/M
;
_chemical_formula_sum "Si O2"
_cell_formula_units_Z 56
_cell_length_a 9.335845
_cell_length_b 27.367904
_cell_length_c 16.920774
_cell_angle_alpha 90.000000
_cell_angle_beta 144.761429
_cell_angle_gamma 90.000000
_cell_volume 2494.467620
_symmetry_space_group_name_H-M "C 2/M"
_symmetry_group_IT_number 12
_symmetry_cell_setting 'monoclinic'
loop_
_space_group_symop_operation_xyz
x,y,z
-x,y,-z
-x,-y,-z
x,-y,z
1/2+x,1/2+y,z
1/2-x,1/2+y,-z
1/2-x,1/2-y,-z
1/2+x,1/2-y,z
loop_
_atom_site_type_symbol
_atom_site_label
_atom_site_fract_x
_atom_site_fract_y
_atom_site_fract_z
Si Si1 0.117795 0.110869 0.330770
Si Si2 0.449600 0.764874 0.894648
Si Si3 0.480696 0.095161 0.361233
Si Si4 0.434848 0.868080 0.860219
Si Si5 0.718520 0.057362 0.891300
Si Si6 0.775688 0.673529 0.620959
Si Si7 0.087662 0.778224 0.293113
O O1 0.234339 0.088642 0.303182
O O2 0.277327 0.086287 0.473863
O O3 0.191582 0.168198 0.354016
O O4 0.820738 0.113061 0.213507
O O5 0.566072 0.819600 0.954621
O O6 0.489289 0.735245 0.832257
O O7 0.159085 0.776282 0.765699
O O8 0.500000 0.737252 0.000000
O O9 0.442738 0.066886 0.261529
O O10 0.540458 0.150580 0.360087
O O11 0.610021 0.912853 0.916553
O O12 0.376771 0.843875 0.749747
O O13 0.720274 0.000000 0.908824
O O14 0.000000 0.073801 0.000000
O O15 0.500000 0.652312 0.500000
O O16 0.762912 0.731481 0.609893
#
# Coordination Sequence:
#
# PCOD9174940 Si02
#       7
#     8   8   8   8   8   8   8
#     4  10  20  36  55  89 130 160 202 243 300 354
#     4  10  20  36  53  78 121 170 212 254 293 341
#     4  10  21  36  59  88 125 162 193 250 305 362
#     4   9  20  38  59  88 117 155 201 255 308 362
#     4  10  23  45  70  92 114 147 198 250 306 387
#     4  10  18  32  54  80 119 162 212 251 289 343
#     4  10  21  32  50  83 116 168 217 255 284 331
#
# _framework density 22.449681000000002
#
# number of rings (size 3 to 8) (size 9 to 14) (size 15 to 20)
#    0.000    2.143    1.429    1.286    2.000    2.857 
#    0.000   12.143    0.000    2.143    0.000    0.000 
#    0.000    0.000    0.000    0.000    0.000    0.000 
#
# Total GULP energy -155992.306021 kJ/mol
# GULP energy per Si atom -5571.153786 kJ/mol
# Density = 2.239858 g / cm^3
# Si number density = 22.449681 Si / 1000 Ang^3
#
#
#
# Elastic Constant Matrix: (Units=GPa)
#
#
# Indices 1 2 3 4 5 6 
#
# 1 140.0320 19.0602 35.5615 0.0000 16.7861 0.0000
# 2 19.0602 37.6720 16.8923 0.0000 12.6416 0.0000
# 3 35.5615 16.8923 48.6278 0.0000 4.7631 0.0000
# 4 0.0000 0.0000 0.0000 35.3104 0.0000 -5.0362
# 5 16.7861 12.6416 4.7631 0.0000 44.1393 0.0000
# 6 0.0000 0.0000 0.0000 -5.0362 0.0000 26.8149
#
#
#
# Elastic Compliance Matrix: (Units=1/GPa)
#
#
# Indices 1 2 3 4 5 6 
#
# 1 0.009125 -0.001056 -0.006060 0.000000 -0.002514 0.000000
# 2 -0.001056 0.034558 -0.010412 0.000000 -0.008372 0.000000
# 3 -0.006060 -0.010412 0.028396 0.000000 0.002223 0.000000
# 4 0.000000 0.000000 0.000000 0.029100 0.000000 0.005465
# 5 -0.002514 -0.008372 0.002223 0.000000 0.025770 0.000000
# 6 0.000000 0.000000 0.000000 0.005465 0.000000 0.038319
#
#
# Mechanical properties :
#
#
# Convention : Reuss Voigt Hill
#
# Bulk Modulus (GPa) = 27.01144 41.03997 34.02570
# Shear Modulus (GPa) = 23.51122 31.57412 27.54267
#
# Velocity S-wave (km/s) = 3.23969 3.75432 3.50646
# Velocity P-wave (km/s) = 5.10414 6.09211 5.61988
#
# Compressibility (1/GPa) = 0.03702135
#
# Stress axis : x y z
#
# Youngs Moduli (GPa) = 109.58506 28.93728 35.21670
#
# Poissons Ratio (x) = 0.03055 0.21342
# Poissons Ratio (y) = 0.11571 0.36669
# Poissons Ratio (z) = 0.66412 0.30131
#
# Static dielectric constant tensor:
#      x y z
#    x 2.042450 0.000000 -0.089640 
#    y 0.000000 1.831690 0.000000 
#    z -0.089640 0.000000 1.910970 
# 
# From -- ./inp_files/259875.got.cif
#   From: 2010.05.17/outbox.cif.g08.bks.cpg/sg12_130_cif.got.tgz:259875.got - 2010.06.03 13:09:07.
