data_PCOD9174822
_publ_section_title
;
Structure prediction by ZEFSAII (Michael W. Deem and Ramdas Pophale) SiO2 
 PCOD9174822
Probable space group: C 2/M
;
_chemical_formula_sum "Si O2"
_cell_formula_units_Z 56
_cell_length_a 13.706797
_cell_length_b 18.221456
_cell_length_c 15.535361
_cell_angle_alpha 90.000000
_cell_angle_beta 38.876633
_cell_angle_gamma 90.000000
_cell_volume 2435.313662
_symmetry_space_group_name_H-M "C 2/M"
_symmetry_group_IT_number 12
_symmetry_cell_setting 'monoclinic'
loop_
_space_group_symop_operation_xyz
x,y,z
-x,y,-z
-x,-y,-z
x,-y,z
1/2+x,1/2+y,z
1/2-x,1/2+y,-z
1/2-x,1/2-y,-z
1/2+x,1/2-y,z
loop_
_atom_site_type_symbol
_atom_site_label
_atom_site_fract_x
_atom_site_fract_y
_atom_site_fract_z
Si Si1 0.974463 0.293016 0.318880
Si Si2 0.181572 0.818535 0.097012
Si Si3 0.096767 0.918493 0.568971
Si Si4 0.051961 0.089212 0.864736
Si Si5 0.238267 0.412872 0.814106
Si Si6 0.585093 0.083814 0.754636
Si Si7 0.256865 0.681662 0.383637
O O1 0.015513 0.367969 0.241991
O O2 0.912101 0.307420 0.457660
O O3 0.841752 0.259494 0.343936
O O4 0.098526 0.229196 0.229734
O O5 0.283488 0.875470 0.079278
O O6 0.075440 0.868585 0.107404
O O7 0.250000 0.750000 0.000000
O O8 0.237373 0.919166 0.405145
O O9 0.159057 0.867974 0.601684
O O10 0.920784 0.902373 0.661593
O O11 0.085756 0.000000 0.613778
O O12 0.205354 0.137378 0.729828
O O13 0.065747 0.000000 0.840004
O O14 0.000000 0.098122 0.000000
O O15 0.215269 0.500000 0.835577
O O16 0.119227 0.384667 0.825060
O O17 0.528573 0.000000 0.796737
#
# Coordination Sequence:
#
# PCOD9174822 Si02
#       7
#     8   8   8   8   8   8   8
#     4   9  18  33  51  76 108 141 174 216 274 328
#     4  11  23  37  55  77 110 147 185 224 273 330
#     4   9  14  25  48  78 107 132 164 213 266 317
#     4  10  20  36  60  83 104 139 189 236 271 316
#     4  10  18  32  53  77 105 137 176 221 267 318
#     4   9  18  29  48  79 110 137 168 210 266 326
#     4   9  16  29  53  79 106 135 173 226 274 320
#
# _framework density 22.994985
#
# number of rings (size 3 to 8) (size 9 to 14) (size 15 to 20)
#    0.000    2.429    2.857    1.286    0.000    4.571 
#    0.000    1.429    0.000    1.714    0.000    2.000 
#    0.000    0.000    0.000    0.000    0.000    0.000 
#
# Total GULP energy -155893.245277 kJ/mol
# GULP energy per Si atom -5567.615903 kJ/mol
# Density = 2.294265 g / cm^3
# Si number density = 22.994985 Si / 1000 Ang^3
#
#
#
# Elastic Constant Matrix: (Units=GPa)
#
#
# Indices 1 2 3 4 5 6 
#
# 1 27.3089 12.3264 22.6601 0.0011 5.9073 -0.0006
# 2 12.3264 99.2909 28.8034 0.0008 12.3562 -0.0006
# 3 22.6601 28.8034 100.7865 0.0021 18.4298 -0.0013
# 4 0.0011 0.0008 0.0021 41.6833 -0.0013 12.7844
# 5 5.9073 12.3562 18.4298 -0.0013 32.9168 0.0009
# 6 -0.0006 -0.0006 -0.0013 12.7844 0.0009 5.6226
#
#
#
# Elastic Compliance Matrix: (Units=1/GPa)
#
#
# Indices 1 2 3 4 5 6 
#
# 1 0.045915 -0.002789 -0.009147 -0.000005 -0.002072 0.000015
# 2 -0.002789 0.011360 -0.002152 -0.000001 -0.002559 0.000003
# 3 -0.009147 -0.002152 0.013531 -0.000005 -0.005127 0.000013
# 4 -0.000005 -0.000001 -0.000005 0.079272 0.000012 -0.180246
# 5 -0.002072 -0.002559 -0.005127 0.000012 0.034582 -0.000034
# 6 0.000015 0.000003 0.000013 -0.180246 -0.000034 0.587689
#
#
# Mechanical properties :
#
#
# Convention : Reuss Voigt Hill
#
# Bulk Modulus (GPa) = 23.45719 39.44069 31.44894
# Shear Modulus (GPa) = 6.13695 26.95096 16.54396
#
# Velocity S-wave (km/s) = 1.63543 3.42722 2.68518
# Velocity P-wave (km/s) = 3.71340 5.73151 4.82905
#
# Compressibility (1/GPa) = 0.04263085
#
# Stress axis : x y z
#
# Youngs Moduli (GPa) = 21.77923 88.02608 73.90456
#
# Poissons Ratio (x) = 0.24548 0.67604
# Poissons Ratio (y) = 0.06074 0.15901
# Poissons Ratio (z) = 0.19922 0.18940
#
# Static dielectric constant tensor:
#      x y z
#    x 1.837940 0.000000 -0.075730 
#    y 0.000000 1.872390 0.000000 
#    z -0.075730 0.000000 2.096150 
# 
# From -- ./inp_files/216303.got.cif
#   From: 2010.05.17/outbox.cif.g08.bks.cpg/sg12_109_cif.got.tgz:216303.got - 2010.06.03 13:09:07.
