data_PCOD9174653
_publ_section_title
;
Structure prediction by ZEFSAII (Michael W. Deem and Ramdas Pophale) SiO2 
 PCOD9174653
Probable space group: C 2/M
;
_chemical_formula_sum "Si O2"
_cell_formula_units_Z 48
_cell_length_a 24.414981
_cell_length_b 8.889374
_cell_length_c 31.107589
_cell_angle_alpha 90.000000
_cell_angle_beta 25.036450
_cell_angle_gamma 90.000000
_cell_volume 2857.157537
_symmetry_space_group_name_H-M "C 2/M"
_symmetry_group_IT_number 12
_symmetry_cell_setting 'monoclinic'
loop_
_space_group_symop_operation_xyz
x,y,z
-x,y,-z
-x,-y,-z
x,-y,z
1/2+x,1/2+y,z
1/2-x,1/2+y,-z
1/2-x,1/2-y,-z
1/2+x,1/2-y,z
loop_
_atom_site_type_symbol
_atom_site_label
_atom_site_fract_x
_atom_site_fract_y
_atom_site_fract_z
Si Si1 0.024039 0.820591 0.360308
Si Si2 0.636623 0.673564 0.739477
Si Si3 0.619208 0.820866 0.110748
Si Si4 0.114328 0.317801 0.384898
Si Si5 0.242901 0.825395 0.566907
Si Si6 0.520670 0.819684 0.275148
O O1 0.876481 0.761464 0.467266
O O2 0.090234 0.756317 0.356055
O O3 0.078286 0.752613 0.277222
O O4 0.028172 0.000000 0.356554
O O5 0.603323 0.500000 0.772922
O O6 0.505564 0.766486 0.827490
O O7 0.746413 0.725397 0.694559
O O8 0.705072 0.675103 0.644118
O O9 0.593004 0.778015 0.179334
O O10 0.627255 0.000000 0.103239
O O11 0.750000 0.750000 0.000000
O O12 0.110145 0.500000 0.383890
O O13 0.000000 0.276706 0.500000
O O14 0.124727 0.744358 0.627132
O O15 0.255338 0.000000 0.544371
O O16 0.517389 0.000000 0.281026
#
# Coordination Sequence:
#
# PCOD9174653 Si02
#       6
#     8   8   8   8   8   8
#     4  12  23  32  47  74 108 147 181 217 260 308
#     4   9  18  33  55  79 106 140 179 218 261 311
#     4  10  21  37  60  84 106 132 170 220 274 322
#     4  10  19  35  54  75 106 148 187 217 256 308
#     4  10  18  32  51  73 104 142 179 218 260 312
#     4  10  21  36  52  75 104 137 176 219 265 319
#
# _framework density 16.799914000000001
#
# number of rings (size 3 to 8) (size 9 to 14) (size 15 to 20)
#    0.000    1.833    1.667    3.500    0.000    3.667 
#    0.000    0.000    0.000    1.000    0.000    7.000 
#    0.000    0.000    0.000    0.000    0.000    0.000 
#
# Total GULP energy -133987.990860 kJ/mol
# GULP energy per Si atom -5582.832953 kJ/mol
# Density = 1.676168 g / cm^3
# Si number density = 16.799914 Si / 1000 Ang^3
#
#
#
# Elastic Constant Matrix: (Units=GPa)
#
#
# Indices 1 2 3 4 5 6 
#
# 1 160.3551 62.8702 65.0587 0.0007 2.0155 -0.0007
# 2 62.8702 76.0496 45.2458 0.0025 -0.7144 -0.0050
# 3 65.0587 45.2458 98.9404 0.0004 -8.4362 -0.0001
# 4 0.0007 0.0025 0.0004 24.0464 -0.0008 -1.2197
# 5 2.0155 -0.7144 -8.4362 -0.0008 10.3404 0.0022
# 6 -0.0007 -0.0050 -0.0001 -1.2197 0.0022 30.0722
#
#
#
# Elastic Compliance Matrix: (Units=1/GPa)
#
#
# Indices 1 2 3 4 5 6 
#
# 1 0.010600 -0.005979 -0.004779 0.000000 -0.006378 0.000000
# 2 -0.005979 0.021778 -0.006234 -0.000002 -0.002416 0.000004
# 3 -0.004779 -0.006234 0.017350 0.000001 0.014656 -0.000002
# 4 0.000000 -0.000002 0.000001 0.041672 0.000003 0.001690
# 5 -0.006378 -0.002416 0.014656 0.000003 0.109742 -0.000008
# 6 0.000000 0.000004 -0.000002 0.001690 -0.000008 0.033322
#
#
# Mechanical properties :
#
#
# Convention : Reuss Voigt Hill
#
# Bulk Modulus (GPa) = 63.51761 75.74382 69.63071
# Shear Modulus (GPa) = 18.26844 23.70315 20.98580
#
# Velocity S-wave (km/s) = 3.30117 3.76028 3.53818
# Velocity P-wave (km/s) = 7.24021 8.00229 7.63077
#
# Compressibility (1/GPa) = 0.01574367
#
# Stress axis : x y z
#
# Youngs Moduli (GPa) = 94.34285 45.91727 57.63632
#
# Poissons Ratio (x) = 0.27454 0.27547
# Poissons Ratio (y) = 0.56409 0.35929
# Poissons Ratio (z) = 0.45090 0.28623
#
# Static dielectric constant tensor:
#      x y z
#    x 1.584010 0.000000 0.019820 
#    y 0.000000 1.562350 0.000000 
#    z 0.019820 0.000000 1.551390 
# 
# From -- ./inp_files/323513.got.cif
#   From: 2010.05.17/outbox.cif.g08.bks.cpg/sg12_162_cif.got.tgz:323513.got - 2010.06.03 13:09:07.
