data_PCOD9174098
_publ_section_title
;
Structure prediction by ZEFSAII (Michael W. Deem and Ramdas Pophale) SiO2 
 PCOD9174098
Probable space group: C 2/M
;
_chemical_formula_sum "Si O2"
_cell_formula_units_Z 40
_cell_length_a 25.842424
_cell_length_b 8.600234
_cell_length_c 12.425820
_cell_angle_alpha 90.000000
_cell_angle_beta 121.388525
_cell_angle_gamma 90.000000
_cell_volume 2357.496336
_symmetry_space_group_name_H-M "C 2/M"
_symmetry_group_IT_number 12
_symmetry_cell_setting 'monoclinic'
loop_
_space_group_symop_operation_xyz
x,y,z
-x,y,-z
-x,-y,-z
x,-y,z
1/2+x,1/2+y,z
1/2-x,1/2+y,-z
1/2-x,1/2-y,-z
1/2+x,1/2-y,z
loop_
_atom_site_type_symbol
_atom_site_label
_atom_site_fract_x
_atom_site_fract_y
_atom_site_fract_z
Si Si1 0.462729 0.815194 0.610411
Si Si2 0.786535 0.315677 0.140567
Si Si3 0.582790 0.683762 0.665333
Si Si4 0.157042 0.313021 0.409076
Si Si5 0.245292 0.684742 0.318402
O O1 0.526583 0.727543 0.681424
O O2 0.431819 0.770918 0.462717
O O3 0.412926 0.773816 0.646215
O O4 0.473523 0.000000 0.624403
O O5 0.793160 0.500000 0.139031
O O6 0.852925 0.238989 0.221059
O O7 0.752333 0.272527 0.214199
O O8 0.750000 0.250000 0.000000
O O9 0.583355 0.500000 0.645610
O O10 0.163445 0.500000 0.431650
O O11 0.185845 0.275788 0.324556
O O12 0.198464 0.230193 0.543510
O O13 0.246468 0.500000 0.300074
#
# Coordination Sequence:
#
# PCOD9174098 Si02
#       5
#     8   8   8   8   8
#     4  10  18  31  52  78 109 143 173 214 263 313
#     4  12  24  39  56  76 104 141 180 221 265 316
#     4  11  21  33  50  77 107 139 177 219 264 314
#     4   9  18  31  51  78 110 142 172 212 263 314
#     4  10  19  32  51  78 108 139 176 216 261 313
#
# _framework density 16.967153
#
# number of rings (size 3 to 8) (size 9 to 14) (size 15 to 20)
#    0.000    1.600    2.000    6.000    0.000    1.600 
#    0.000    0.000    0.000    1.200    0.000    8.400 
#    0.000    0.000    0.000    0.000    0.000    0.000 
#
# Total GULP energy -111655.310676 kJ/mol
# GULP energy per Si atom -5582.765534 kJ/mol
# Density = 1.692854 g / cm^3
# Si number density = 16.967153 Si / 1000 Ang^3
#
#
#
# Elastic Constant Matrix: (Units=GPa)
#
#
# Indices 1 2 3 4 5 6 
#
# 1 125.1948 11.6803 30.8419 0.0000 3.5212 0.0000
# 2 11.6803 38.5516 6.6831 0.0000 -3.3531 0.0000
# 3 30.8419 6.6831 65.0244 0.0000 1.3236 0.0000
# 4 0.0000 0.0000 0.0000 24.9542 0.0000 1.0387
# 5 3.5212 -3.3531 1.3236 0.0000 16.7385 0.0000
# 6 0.0000 0.0000 0.0000 1.0387 0.0000 28.3074
#
#
#
# Elastic Compliance Matrix: (Units=1/GPa)
#
#
# Indices 1 2 3 4 5 6 
#
# 1 0.009274 -0.002276 -0.004122 0.000000 -0.002081 0.000000
# 2 -0.002276 0.027487 -0.001870 0.000000 0.006133 0.000000
# 3 -0.004122 -0.001870 0.017545 0.000000 -0.000895 0.000000
# 4 0.000000 0.000000 0.000000 0.040135 0.000000 -0.001473
# 5 -0.002081 0.006133 -0.000895 0.000000 0.061480 0.000000
# 6 0.000000 0.000000 0.000000 -0.001473 0.000000 0.035381
#
#
# Mechanical properties :
#
#
# Convention : Reuss Voigt Hill
#
# Bulk Modulus (GPa) = 26.47787 36.35348 31.41567
# Shear Modulus (GPa) = 22.68326 25.97105 24.32715
#
# Velocity S-wave (km/s) = 3.66032 3.91662 3.79064
# Velocity P-wave (km/s) = 5.78819 6.47499 6.14120
#
# Compressibility (1/GPa) = 0.03776739
#
# Stress axis : x y z
#
# Youngs Moduli (GPa) = 107.82808 36.38148 56.99749
#
# Poissons Ratio (x) = 0.08281 0.23497
# Poissons Ratio (y) = 0.24544 0.10660
# Poissons Ratio (z) = 0.44452 0.06804
#
# Static dielectric constant tensor:
#      x y z
#    x 1.620780 0.000000 -0.003030 
#    y 0.000000 1.569810 0.000000 
#    z -0.003030 0.000000 1.520750 
# 
# From -- ./inp_files/179417.got.cif
#   From: 2010.05.17/outbox.cif.g08.bks.cpg/sg12_90_cif.got.tgz:179417.got - 2010.06.03 13:09:07.
