data_PCOD9174190
_publ_section_title
;
Structure prediction by ZEFSAII (Michael W. Deem and Ramdas Pophale) SiO2 
 PCOD9174190
Probable space group: C 2/M
;
_chemical_formula_sum "Si O2"
_cell_formula_units_Z 52
_cell_length_a 13.949054
_cell_length_b 15.356585
_cell_length_c 11.662682
_cell_angle_alpha 90.000000
_cell_angle_beta 59.595109
_cell_angle_gamma 90.000000
_cell_volume 2154.676482
_symmetry_space_group_name_H-M "C 2/M"
_symmetry_group_IT_number 12
_symmetry_cell_setting 'monoclinic'
loop_
_space_group_symop_operation_xyz
x,y,z
-x,y,-z
-x,-y,-z
x,-y,z
1/2+x,1/2+y,z
1/2-x,1/2+y,-z
1/2-x,1/2-y,-z
1/2+x,1/2-y,z
loop_
_atom_site_type_symbol
_atom_site_label
_atom_site_fract_x
_atom_site_fract_y
_atom_site_fract_z
Si Si1 0.499975 0.704666 0.748971
Si Si2 0.710386 0.602653 0.537277
Si Si3 0.500000 0.130474 0.000000
Si Si4 0.119886 0.899849 0.362693
Si Si5 0.160516 0.772062 0.955825
Si Si6 0.485778 0.906025 0.268909
Si Si7 0.791514 0.597976 0.717197
O O1 0.602980 0.643233 0.662368
O O2 0.402950 0.671250 0.721014
O O3 0.446265 0.695534 0.906612
O O4 0.542829 0.803130 0.703109
O O5 0.691555 0.500000 0.539147
O O6 0.708744 0.630577 0.405193
O O7 0.805057 0.621441 0.574151
O O8 0.613490 0.186297 0.924067
O O9 0.510976 0.087731 0.117589
O O10 0.000000 0.903949 0.500000
O O11 0.144336 0.000000 0.308376
O O12 0.250000 0.750000 0.000000
O O13 0.213044 0.837742 0.834579
O O14 0.593566 0.906671 0.284736
O O15 0.425357 0.000000 0.331173
O O16 0.743795 0.500000 0.747521
#
# Coordination Sequence:
#
# PCOD9174190 Si02
#       7
#     8   8   4   8   8   8   8
#     4  10  18  31  53  77 105 141 172 215 272 313
#     4   9  18  33  56  83 109 134 170 219 276 333
#     4  10  19  34  55  70  94 146 179 216 266 306
#     4   8  15  30  53  80 107 135 171 215 266 332
#     4  11  20  34  50  77 113 134 175 224 264 317
#     4  10  20  33  49  71 100 141 189 217 246 302
#     4  10  19  32  49  75 109 141 169 215 269 315
#
# _framework density 24.133552999999999
#
# number of rings (size 3 to 8) (size 9 to 14) (size 15 to 20)
#    0.000    2.308    3.077    3.462    0.000    1.231 
#    0.000    2.692    0.000    4.154    0.000    0.000 
#    0.000    0.000    0.000    0.000    0.000    0.000 
#
# Total GULP energy -145026.691431 kJ/mol
# GULP energy per Si atom -5577.949670 kJ/mol
# Density = 2.407862 g / cm^3
# Si number density = 24.133553 Si / 1000 Ang^3
#
#
#
# Elastic Constant Matrix: (Units=GPa)
#
#
# Indices 1 2 3 4 5 6 
#
# 1 101.9029 36.1795 39.1679 0.0000 41.6414 0.0000
# 2 36.1795 102.5281 51.8608 0.0000 -0.5704 0.0000
# 3 39.1679 51.8608 108.2729 0.0000 35.2094 0.0000
# 4 0.0000 0.0000 0.0000 12.1124 0.0000 -49.0970
# 5 41.6414 -0.5704 35.2094 0.0000 61.2797 0.0000
# 6 0.0000 0.0000 0.0000 -49.0970 0.0000 -136.0349
#
#
#
# Elastic Compliance Matrix: (Units=1/GPa)
#
#
# Indices 1 2 3 4 5 6 
#
# 1 0.016562 -0.006370 0.000908 0.000000 -0.011836 0.000000
# 2 -0.006370 0.016419 -0.008630 0.000000 0.009440 0.000000
# 3 0.000908 -0.008630 0.016316 0.000000 -0.010072 0.000000
# 4 0.000000 0.000000 0.000000 0.033521 0.000000 -0.012098
# 5 -0.011836 0.009440 -0.010072 0.000000 0.030237 0.000000
# 6 0.000000 0.000000 0.000000 -0.012098 0.000000 -0.002985
#
#
# Mechanical properties :
#
#
# Convention : Reuss Voigt Hill
#
# Bulk Modulus (GPa) = 47.35928 63.01337 55.18632
# Shear Modulus (GPa) = 34.41394 -0.16219 17.12587
#
# Velocity S-wave (km/s) = 3.78031 -0.25952 2.66678
# Velocity P-wave (km/s) = 6.22260 5.10658 5.69201
#
# Compressibility (1/GPa) = 0.02111519
#
# Stress axis : x y z
#
# Youngs Moduli (GPa) = 60.37892 60.90606 61.28865
#
# Poissons Ratio (x) = 0.38795 -0.05568
# Poissons Ratio (y) = 0.38460 0.52890
# Poissons Ratio (z) = -0.05485 0.52560
#
# Static dielectric constant tensor:
#      x y z
#    x 2.038940 0.000000 0.021330 
#    y 0.000000 1.949690 0.000000 
#    z 0.021330 0.000000 1.919030 
# 
# From -- ./inp_files/144841.got.cif
#   From: 2010.05.17/outbox.cif.g08.bks.cpg/sg12_73_cif.got.tgz:144841.got - 2010.06.03 13:09:07.
