data_PCOD9174000
_publ_section_title
;
Structure prediction by ZEFSAII (Michael W. Deem and Ramdas Pophale) SiO2 
 PCOD9174000
Probable space group: C 2/M
;
_chemical_formula_sum "Si O2"
_cell_formula_units_Z 56
_cell_length_a 29.515110
_cell_length_b 7.375397
_cell_length_c 17.365895
_cell_angle_alpha 90.000000
_cell_angle_beta 39.276728
_cell_angle_gamma 90.000000
_cell_volume 2393.185247
_symmetry_space_group_name_H-M "C 2/M"
_symmetry_group_IT_number 12
_symmetry_cell_setting 'monoclinic'
loop_
_space_group_symop_operation_xyz
x,y,z
-x,y,-z
-x,-y,-z
x,-y,z
1/2+x,1/2+y,z
1/2-x,1/2+y,-z
1/2-x,1/2-y,-z
1/2+x,1/2-y,z
loop_
_atom_site_type_symbol
_atom_site_label
_atom_site_fract_x
_atom_site_fract_y
_atom_site_fract_z
Si Si1 0.016866 0.209061 0.094631
Si Si2 0.706376 0.795946 0.268842
Si Si3 0.652283 0.709649 0.504997
Si Si4 0.069697 0.721712 0.359317
Si Si5 0.146433 0.778842 0.679713
Si Si6 0.158074 0.222598 0.833069
Si Si7 0.983782 0.282240 0.734628
O O1 0.044713 0.217386 0.145730
O O2 0.936583 0.283726 0.203605
O O3 0.007432 0.000000 0.084037
O O4 0.078242 0.284437 0.959021
O O5 0.676858 0.805229 0.395254
O O6 0.643309 0.713120 0.300935
O O7 0.784353 0.713095 0.180180
O O8 0.717409 0.000000 0.224665
O O9 0.673144 0.500000 0.471089
O O10 0.674994 0.784224 0.559216
O O11 0.565743 0.717691 0.620027
O O12 0.070533 0.500000 0.361827
O O13 0.058718 0.775229 0.285381
O O14 0.000000 0.778160 0.500000
O O15 0.179628 0.726079 0.717722
O O16 0.146562 0.000000 0.674859
O O17 0.157988 0.000000 0.835134
O O18 0.985269 0.500000 0.733871
#
# Coordination Sequence:
#
# PCOD9174000 Si02
#       7
#     8   8   8   8   8   8   8
#     4   9  17  31  51  74  99 123 157 202 240 274
#     4  10  19  32  50  71  96 127 166 199 229 282
#     4  10  19  31  48  73 102 126 153 196 247 286
#     4   9  16  29  49  71  94 123 158 196 237 281
#     4   8  15  28  48  72  96 124 159 195 236 283
#     4   9  17  30  50  72  94 129 168 196 226 279
#     4  10  18  31  52  73  95 124 161 199 238 283
#
# _framework density 23.399775999999999
#
# number of rings (size 3 to 8) (size 9 to 14) (size 15 to 20)
#    0.000    2.714    1.429    2.143    0.000    2.286 
#    0.000    3.571    0.000   11.143    0.000    0.000 
#    0.000    0.000    0.000    0.000    0.000    0.000 
#
# Total GULP energy -156366.641220 kJ/mol
# GULP energy per Si atom -5584.522901 kJ/mol
# Density = 2.334652 g / cm^3
# Si number density = 23.399776 Si / 1000 Ang^3
#
#
#
# Elastic Constant Matrix: (Units=GPa)
#
#
# Indices 1 2 3 4 5 6 
#
# 1 147.8141 -2.0849 2.3175 0.0092 6.8172 -0.0002
# 2 -2.0849 96.4798 -3.7959 -0.0374 -2.0170 -0.0125
# 3 2.3175 -3.7959 55.6247 0.0067 7.0780 -0.0139
# 4 0.0092 -0.0374 0.0067 5.3695 0.0154 4.6261
# 5 6.8172 -2.0170 7.0780 0.0154 34.9024 0.0079
# 6 -0.0002 -0.0125 -0.0139 4.6261 0.0079 0.1081
#
#
#
# Elastic Compliance Matrix: (Units=1/GPa)
#
#
# Indices 1 2 3 4 5 6 
#
# 1 0.006829 0.000116 -0.000111 0.000003 -0.001305 -0.000011
# 2 0.000116 0.010402 0.000648 0.000028 0.000447 0.000049
# 3 -0.000111 0.000648 0.018496 0.000066 -0.003692 -0.000085
# 4 0.000003 0.000028 0.000066 -0.005189 -0.000060 0.222188
# 5 -0.001305 0.000447 -0.003692 -0.000060 0.029681 -0.000018
# 6 -0.000011 0.000049 -0.000085 0.222188 -0.000018 -0.257891
#
#
# Mechanical properties :
#
#
# Convention : Reuss Voigt Hill
#
# Bulk Modulus (GPa) = 27.00201 32.53243 29.76722
# Shear Modulus (GPa) = -26.79034 28.30811 0.75889
#
# Velocity S-wave (km/s) = -3.38730 3.48193 0.57010
# Velocity P-wave (km/s) = 1.93234 5.48618 3.63072
#
# Compressibility (1/GPa) = 0.03703428
#
# Stress axis : x y z
#
# Youngs Moduli (GPa) = 146.43868 96.13322 54.06512
#
# Poissons Ratio (x) = -0.01115 0.00598
# Poissons Ratio (y) = -0.01698 -0.03504
# Poissons Ratio (z) = 0.01619 -0.06231
#
# Static dielectric constant tensor:
#      x y z
#    x 1.901170 -0.000010 -0.024800 
#    y -0.000010 1.879130 0.000010 
#    z -0.024800 0.000010 1.856530 
# 
# From -- ./inp_files/288185.got.cif
#   From: 2010.05.17/outbox.cif.g08.bks.cpg/sg12_145_cif.got.tgz:288185.got - 2010.06.03 13:09:07.
