data_PCOD9174009
_publ_section_title
;
Structure prediction by ZEFSAII (Michael W. Deem and Ramdas Pophale) SiO2 
 PCOD9174009
Probable space group: C 2/M
;
_chemical_formula_sum "Si O2"
_cell_formula_units_Z 48
_cell_length_a 18.096339
_cell_length_b 8.884062
_cell_length_c 24.899123
_cell_angle_alpha 90.000000
_cell_angle_beta 144.420473
_cell_angle_gamma 90.000000
_cell_volume 2329.079177
_symmetry_space_group_name_H-M "C 2/M"
_symmetry_group_IT_number 12
_symmetry_cell_setting 'monoclinic'
loop_
_space_group_symop_operation_xyz
x,y,z
-x,y,-z
-x,-y,-z
x,-y,z
1/2+x,1/2+y,z
1/2-x,1/2+y,-z
1/2-x,1/2-y,-z
1/2+x,1/2-y,z
loop_
_atom_site_type_symbol
_atom_site_label
_atom_site_fract_x
_atom_site_fract_y
_atom_site_fract_z
Si Si1 0.213754 0.679223 0.143531
Si Si2 0.747686 0.331189 0.055657
Si Si3 0.175904 0.177449 0.228014
Si Si4 0.549261 0.678916 0.589164
Si Si5 0.993120 0.681296 0.331217
Si Si6 0.451134 0.831511 0.749898
O O1 0.208219 0.500000 0.139951
O O2 0.182223 0.743818 0.066122
O O3 0.137013 0.745017 0.148815
O O4 0.357889 0.736446 0.240716
O O5 0.695116 0.500000 0.019956
O O6 0.896563 0.342245 0.158599
O O7 0.750000 0.250000 0.000000
O O8 0.313382 0.243982 0.324897
O O9 0.089270 0.220937 0.227075
O O10 0.183286 0.000000 0.224269
O O11 0.500000 0.702473 0.500000
O O12 0.559058 0.500000 0.604711
O O13 0.465413 0.754613 0.586724
O O14 0.975032 0.500000 0.322852
O O15 0.078620 0.712481 0.329226
O O16 0.398848 0.000000 0.729812
#
# Coordination Sequence:
#
# PCOD9174009 Si02
#       6
#     8   8   8   8   8   8
#     4  10  18  31  52  74 101 136 171 207 249 302
#     4  10  20  35  55  79 106 135 170 211 254 301
#     4  11  21  33  53  78 103 133 171 213 253 299
#     4  10  20  34  53  76 103 135 170 209 254 305
#     4   9  17  31  52  75 100 132 170 210 251 300
#     4   9  19  35  53  75 104 135 167 207 254 302
#
# _framework density 20.609003000000001
#
# number of rings (size 3 to 8) (size 9 to 14) (size 15 to 20)
#    0.000    2.167    0.000    7.500    0.000    5.333 
#    0.000    1.667    0.000    5.000    0.000    0.000 
#    0.000    0.000    0.000    0.000    0.000    0.000 
#
# Total GULP energy -133890.074118 kJ/mol
# GULP energy per Si atom -5578.753088 kJ/mol
# Density = 2.056210 g / cm^3
# Si number density = 20.609003 Si / 1000 Ang^3
#
#
#
# Elastic Constant Matrix: (Units=GPa)
#
#
# Indices 1 2 3 4 5 6 
#
# 1 111.7204 70.2794 41.7910 0.0000 -51.6638 0.0000
# 2 70.2794 166.6514 50.8129 0.0000 -44.5174 0.0000
# 3 41.7910 50.8129 59.2813 0.0000 -40.1855 0.0000
# 4 0.0000 0.0000 0.0000 21.9339 0.0000 -11.0633
# 5 -51.6638 -44.5174 -40.1855 0.0000 45.8916 0.0000
# 6 0.0000 0.0000 0.0000 -11.0633 0.0000 35.0581
#
#
#
# Elastic Compliance Matrix: (Units=1/GPa)
#
#
# Indices 1 2 3 4 5 6 
#
# 1 0.020406 -0.003791 0.004783 0.000000 0.023484 0.000000
# 2 -0.003791 0.009203 -0.005062 0.000000 0.000228 0.000000
# 3 0.004783 -0.005062 0.044677 0.000000 0.039596 0.000000
# 4 0.000000 0.000000 0.000000 0.054222 0.000000 0.017111
# 5 0.023484 0.000228 0.039596 0.000000 0.083121 0.000000
# 6 0.000000 0.000000 0.000000 0.017111 0.000000 0.033924
#
#
# Mechanical properties :
#
#
# Convention : Reuss Voigt Hill
#
# Bulk Modulus (GPa) = 15.11792 73.71332 44.41562
# Shear Modulus (GPa) = 18.13283 32.22804 25.18043
#
# Velocity S-wave (km/s) = 2.96944 3.95876 3.49924
# Velocity P-wave (km/s) = 4.37131 7.53266 6.15830
#
# Compressibility (1/GPa) = 0.06614667
#
# Stress axis : x y z
#
# Youngs Moduli (GPa) = 49.00468 108.65526 22.38277
#
# Poissons Ratio (x) = 0.41188 -0.10705
# Poissons Ratio (y) = 0.18576 0.11330
# Poissons Ratio (z) = -0.23437 0.55002
#
# Static dielectric constant tensor:
#      x y z
#    x 1.796190 0.000000 -0.021740 
#    y 0.000000 1.715820 0.000000 
#    z -0.021740 0.000000 1.789080 
# 
# From -- ./inp_files/342056.got.cif
#   From: 2010.05.17/outbox.cif.g08.bks.cpg/sg12_172_cif.got.tgz:342056.got - 2010.06.03 13:09:07.
