data_PCOD9174035
_publ_section_title
;
Structure prediction by ZEFSAII (Michael W. Deem and Ramdas Pophale) SiO2 
 PCOD9174035
Probable space group: C 2/M
;
_chemical_formula_sum "Si O2"
_cell_formula_units_Z 64
_cell_length_a 26.184218
_cell_length_b 7.759113
_cell_length_c 14.705842
_cell_angle_alpha 90.000000
_cell_angle_beta 78.069827
_cell_angle_gamma 90.000000
_cell_volume 2923.197370
_symmetry_space_group_name_H-M "C 2/M"
_symmetry_group_IT_number 12
_symmetry_cell_setting 'monoclinic'
loop_
_space_group_symop_operation_xyz
x,y,z
-x,y,-z
-x,-y,-z
x,-y,z
1/2+x,1/2+y,z
1/2-x,1/2+y,-z
1/2-x,1/2-y,-z
1/2+x,1/2-y,z
loop_
_atom_site_type_symbol
_atom_site_label
_atom_site_fract_x
_atom_site_fract_y
_atom_site_fract_z
Si Si1 0.530817 0.707778 0.135889
Si Si2 0.578912 0.203301 0.616514
Si Si3 0.687594 0.794120 0.877969
Si Si4 0.583546 0.206554 0.821749
Si Si5 0.368500 0.708230 0.576941
Si Si6 0.644855 0.707437 0.078198
Si Si7 0.466172 0.297716 0.656661
Si Si8 0.202862 0.210913 0.238009
O O1 0.531743 0.500000 0.134593
O O2 0.474149 0.755642 0.118650
O O3 0.586155 0.769680 0.076241
O O4 0.532006 0.771035 0.240793
O O5 0.586264 0.271526 0.716207
O O6 0.625322 0.236884 0.529309
O O7 0.524734 0.279414 0.598312
O O8 0.570965 0.000000 0.626133
O O9 0.633304 0.724001 0.857446
O O10 0.739529 0.727800 0.809966
O O11 0.687931 0.000000 0.864864
O O12 0.685159 0.761212 0.986104
O O13 0.588042 0.000000 0.817714
O O14 0.368967 0.500000 0.576388
O O15 0.420254 0.773678 0.611320
O O16 0.319793 0.765026 0.656301
O O17 0.643532 0.500000 0.080324
O O18 0.663641 0.763148 0.171098
O O19 0.454406 0.500000 0.670546
O O20 0.203282 0.000000 0.237732
#
# Coordination Sequence:
#
# PCOD9174035 Si02
#       8
#     8   8   8   8   8   8   8   8
#     4   9  17  31  53  78 104 134 166 207 257 304
#     4  10  20  32  47  71 104 137 167 206 252 296
#     4  10  21  37  56  75  98 138 180 210 248 303
#     4   9  20  37  52  70 104 143 176 207 245 299
#     4  10  18  31  52  76 100 130 168 208 250 302
#     4  10  19  34  56  82 107 128 161 214 267 307
#     4   9  16  29  49  73 101 133 166 201 247 306
#     4   9  18  35  57  78 103 133 169 211 256 305
#
# _framework density 21.893836
#
# number of rings (size 3 to 8) (size 9 to 14) (size 15 to 20)
#    0.000    2.500    1.250    1.125    0.000    4.000 
#    0.000    4.375    0.000    0.000    0.000    0.000 
#    0.000    0.000    0.000    0.000    0.000    0.000 
#
# Total GULP energy -178590.779759 kJ/mol
# GULP energy per Si atom -5580.961867 kJ/mol
# Density = 2.184400 g / cm^3
# Si number density = 21.893836 Si / 1000 Ang^3
#
#
#
# Elastic Constant Matrix: (Units=GPa)
#
#
# Indices 1 2 3 4 5 6 
#
# 1 95.7210 2.5078 29.1368 0.0000 -21.5361 0.0000
# 2 2.5078 28.6207 -9.2256 0.0000 3.4024 0.0000
# 3 29.1368 -9.2256 87.9297 0.0000 -30.7551 0.0000
# 4 0.0000 0.0000 0.0000 37.2272 0.0000 -17.4845
# 5 -21.5361 3.4024 -30.7551 0.0000 31.1614 0.0000
# 6 0.0000 0.0000 0.0000 -17.4845 0.0000 22.0695
#
#
#
# Elastic Compliance Matrix: (Units=1/GPa)
#
#
# Indices 1 2 3 4 5 6 
#
# 1 0.012723 -0.002605 -0.002007 0.000000 0.007096 0.000000
# 2 -0.002605 0.036698 0.004097 0.000000 -0.001764 0.000000
# 3 -0.002007 0.004097 0.018061 0.000000 0.015991 0.000000
# 4 0.000000 0.000000 0.000000 0.042781 0.000000 0.033893
# 5 0.007096 -0.001764 0.015991 0.000000 0.052971 0.000000
# 6 0.000000 0.000000 0.000000 0.033893 0.000000 0.072163
#
#
# Mechanical properties :
#
#
# Convention : Reuss Voigt Hill
#
# Bulk Modulus (GPa) = 15.04891 28.56770 21.80830
# Shear Modulus (GPa) = 19.33655 30.74844 25.04250
#
# Velocity S-wave (km/s) = 2.97509 3.75164 3.38570
# Velocity P-wave (km/s) = 4.32320 5.64296 5.02658
#
# Compressibility (1/GPa) = 0.06645001
#
# Stress axis : x y z
#
# Youngs Moduli (GPa) = 78.59862 27.24927 55.36867
#
# Poissons Ratio (x) = 0.07099 0.11113
# Poissons Ratio (y) = 0.20478 -0.22682
# Poissons Ratio (z) = 0.15776 -0.11163
#
# Static dielectric constant tensor:
#      x y z
#    x 1.815700 0.000000 -0.005420 
#    y 0.000000 1.807870 0.000000 
#    z -0.005420 0.000000 1.812200 
# 
# From -- ./inp_files/243892.got.cif
#   From: 2010.05.17/outbox.cif.g08.bks.cpg/sg12_122_cif.got.tgz:243892.got - 2010.06.03 13:09:07.
