data_PCOD9174767
_publ_section_title
;
Structure prediction by ZEFSAII (Michael W. Deem and Ramdas Pophale) SiO2 
 PCOD9174767
Probable space group: C 2/M
;
_chemical_formula_sum "Si O2"
_cell_formula_units_Z 58
_cell_length_a 13.933080
_cell_length_b 16.394722
_cell_length_c 20.816345
_cell_angle_alpha 90.000000
_cell_angle_beta 32.677577
_cell_angle_gamma 90.000000
_cell_volume 2567.306970
_symmetry_space_group_name_H-M "C 2/M"
_symmetry_group_IT_number 12
_symmetry_cell_setting 'monoclinic'
loop_
_space_group_symop_operation_xyz
x,y,z
-x,y,-z
-x,-y,-z
x,-y,z
1/2+x,1/2+y,z
1/2-x,1/2+y,-z
1/2-x,1/2-y,-z
1/2+x,1/2-y,z
loop_
_atom_site_type_symbol
_atom_site_label
_atom_site_fract_x
_atom_site_fract_y
_atom_site_fract_z
Si Si1 0.869895 0.674311 0.018287
Si Si2 0.036859 0.803059 0.574551
Si Si3 0.500000 0.500000 0.000000
Si Si4 0.984573 0.845667 0.263634
Si Si5 0.382512 0.910399 0.362125
Si Si6 0.248557 0.160447 0.848383
Si Si7 0.620896 0.884151 0.492193
Si Si8 0.158201 0.264066 0.770322
O O1 0.680019 0.630429 0.128713
O O2 0.823652 0.768602 0.063554
O O3 0.000000 0.641248 0.000000
O O4 0.994485 0.680814 0.886411
O O5 0.840660 0.812912 0.655338
O O6 0.002849 0.810184 0.670836
O O7 0.192158 0.865786 0.469379
O O8 0.103901 0.713551 0.516022
O O9 0.650524 0.573831 0.908080
O O10 0.822845 0.907921 0.362833
O O11 0.905781 0.786582 0.253930
O O12 0.548281 0.856935 0.246159
O O13 0.431045 0.918767 0.410303
O O14 0.373643 0.000000 0.337361
O O15 0.212776 0.200657 0.797662
O O16 0.500000 0.903410 0.500000
#
# Coordination Sequence:
#
# PCOD9174767 Si02
#       8
#     8   8   2   8   8   8   8   8
#     4  10  18  32  52  82 116 135 185 241 291 341
#     4  11  21  36  57  83 111 154 202 244 286 348
#     4  12  20  32  60  76 118 170 172 226 318 364
#     4  11  19  32  55  80 114 144 181 246 302 330
#     4  11  22  34  55  84 121 160 193 234 300 361
#     4  11  19  35  54  83 116 149 191 234 291 363
#     4  11  20  36  58  85 111 151 202 249 297 344
#     4  11  20  33  54  85 113 143 193 248 286 342
#
# _framework density 22.591767000000001
#
# number of rings (size 3 to 8) (size 9 to 14) (size 15 to 20)
#    0.000    1.103    8.276    2.897    0.000    0.276 
#    0.000    0.000    1.517    0.414    1.793    7.724 
#    0.000    0.000    0.000    0.000    0.000    0.000 
#
# Total GULP energy -161634.083161 kJ/mol
# GULP energy per Si atom -5573.589075 kJ/mol
# Density = 2.254035 g / cm^3
# Si number density = 22.591767 Si / 1000 Ang^3
#
#
#
# Elastic Constant Matrix: (Units=GPa)
#
#
# Indices 1 2 3 4 5 6 
#
# 1 83.5724 -2.7755 17.3831 0.0004 -9.9623 -0.0001
# 2 -2.7755 66.1021 5.5988 -0.0005 -9.8686 0.0004
# 3 17.3831 5.5988 144.8551 0.0005 -41.4206 0.0000
# 4 0.0004 -0.0005 0.0005 -3.7526 0.0001 -6.6403
# 5 -9.9623 -9.8686 -41.4206 0.0001 38.9798 -0.0001
# 6 -0.0001 0.0004 0.0000 -6.6403 -0.0001 -6.1635
#
#
#
# Elastic Compliance Matrix: (Units=1/GPa)
#
#
# Indices 1 2 3 4 5 6 
#
# 1 0.012472 0.000978 -0.000793 -0.000001 0.002592 0.000001
# 2 0.000978 0.015858 0.000703 0.000004 0.005011 -0.000003
# 3 -0.000793 0.000703 0.010004 -0.000002 0.010606 0.000002
# 4 -0.000001 0.000004 -0.000002 0.293997 -0.000002 -0.316741
# 5 0.002592 0.005011 0.010606 -0.000002 0.038855 0.000002
# 6 0.000001 -0.000003 0.000002 -0.316741 0.000002 0.178998
#
#
# Mechanical properties :
#
#
# Convention : Reuss Voigt Hill
#
# Bulk Modulus (GPa) = 24.93223 37.21582 31.07403
# Shear Modulus (GPa) = 8.90028 24.10095 16.50062
#
# Velocity S-wave (km/s) = 1.98700 3.26974 2.70549
# Velocity P-wave (km/s) = 4.04032 5.54652 4.85222
#
# Compressibility (1/GPa) = 0.04010872
#
# Stress axis : x y z
#
# Youngs Moduli (GPa) = 80.17859 63.06039 99.95859
#
# Poissons Ratio (x) = -0.06166 0.07929
# Poissons Ratio (y) = -0.07840 -0.07024
# Poissons Ratio (z) = 0.06360 -0.04431
#
# Static dielectric constant tensor:
#      x y z
#    x 1.866650 0.000000 -0.010200 
#    y 0.000000 1.884880 0.000000 
#    z -0.010200 0.000000 1.931930 
# 
# From -- ./inp_files/340641.got.cif
#   From: 2010.05.17/outbox.cif.g08.bks.cpg/sg12_171_cif.got.tgz:340641.got - 2010.06.03 13:09:07.
