data_PCOD9174546
_publ_section_title
;
Structure prediction by ZEFSAII (Michael W. Deem and Ramdas Pophale) SiO2 
 PCOD9174546
Probable space group: C 2/M
;
_chemical_formula_sum "Si O2"
_cell_formula_units_Z 56
_cell_length_a 13.991045
_cell_length_b 19.566892
_cell_length_c 13.217564
_cell_angle_alpha 90.000000
_cell_angle_beta 118.476884
_cell_angle_gamma 90.000000
_cell_volume 3180.658316
_symmetry_space_group_name_H-M "C 2/M"
_symmetry_group_IT_number 12
_symmetry_cell_setting 'monoclinic'
loop_
_space_group_symop_operation_xyz
x,y,z
-x,y,-z
-x,-y,-z
x,-y,z
1/2+x,1/2+y,z
1/2-x,1/2+y,-z
1/2-x,1/2-y,-z
1/2+x,1/2-y,z
loop_
_atom_site_type_symbol
_atom_site_label
_atom_site_fract_x
_atom_site_fract_y
_atom_site_fract_z
Si Si1 0.535825 0.581963 0.681861
Si Si2 0.113517 0.660764 0.838699
Si Si3 0.668656 0.417684 0.544112
Si Si4 0.045604 0.814734 0.860777
Si Si5 0.393849 0.918876 0.731748
Si Si6 0.128686 0.345802 0.073081
Si Si7 0.171304 0.195342 0.134245
O O1 0.538117 0.500000 0.701220
O O2 0.414071 0.603751 0.585405
O O3 0.611014 0.596287 0.622520
O O4 0.571980 0.626365 0.794689
O O5 0.076190 0.739575 0.834862
O O6 0.212275 0.659083 0.809610
O O7 0.006586 0.617391 0.761738
O O8 0.156591 0.636492 0.971750
O O9 0.672911 0.500000 0.538931
O O10 0.792266 0.393254 0.613494
O O11 0.917597 0.818220 0.824752
O O12 0.112211 0.822384 0.998311
O O13 0.366062 0.900873 0.835309
O O14 0.404339 0.000000 0.727554
O O15 0.188937 0.277217 0.137579
O O16 0.000000 0.326502 0.000000
#
# Coordination Sequence:
#
# PCOD9174546 Si02
#       7
#     8   8   8   8   8   8   8
#     4   9  18  33  53  77  98 128 171 216 261 300
#     4  10  20  30  48  73 104 140 166 205 250 309
#     4   8  17  33  53  76 100 125 164 216 270 307
#     4  10  18  32  53  72  98 138 173 207 251 302
#     4  10  19  32  51  76 103 132 168 215 261 299
#     4   9  15  29  47  70  99 132 169 203 245 300
#     4  10  18  32  47  74 103 136 174 195 249 312
#
# _framework density 17.606418000000001
#
# number of rings (size 3 to 8) (size 9 to 14) (size 15 to 20)
#    0.000    2.571    4.286    2.571    4.000    2.571 
#    0.000    3.571    0.000    0.857    0.000    3.000 
#    0.000    0.000    0.000    0.000    0.000    0.000 
#
# Total GULP energy -155954.800589 kJ/mol
# GULP energy per Si atom -5569.814307 kJ/mol
# Density = 1.756635 g / cm^3
# Si number density = 17.606418 Si / 1000 Ang^3
#
#
#
# Elastic Constant Matrix: (Units=GPa)
#
#
# Indices 1 2 3 4 5 6 
#
# 1 76.5377 11.6491 7.5591 0.0000 17.5776 0.0000
# 2 11.6491 48.4824 25.1998 0.0000 3.0743 0.0000
# 3 7.5591 25.1998 35.1744 0.0000 6.7016 0.0000
# 4 0.0000 0.0000 0.0000 -5.9378 0.0000 11.7096
# 5 17.5776 3.0743 6.7016 0.0000 23.7215 0.0000
# 6 0.0000 0.0000 0.0000 11.7096 0.0000 9.1594
#
#
#
# Elastic Compliance Matrix: (Units=1/GPa)
#
#
# Indices 1 2 3 4 5 6 
#
# 1 0.016269 -0.004014 0.001667 0.000000 -0.012006 0.000000
# 2 -0.004014 0.033998 -0.024543 0.000000 0.005502 0.000000
# 3 0.001667 -0.024543 0.047860 0.000000 -0.011575 0.000000
# 4 0.000000 0.000000 0.000000 -0.047829 0.000000 0.061146
# 5 -0.012006 0.005502 -0.011575 0.000000 0.053610 0.000000
# 6 0.000000 0.000000 0.000000 0.061146 0.000000 0.031006
#
#
# Mechanical properties :
#
#
# Convention : Reuss Voigt Hill
#
# Bulk Modulus (GPa) = 22.54920 27.66783 25.10852
# Shear Modulus (GPa) = 24.57280 13.10772 18.84026
#
# Velocity S-wave (km/s) = 3.73992 2.73149 3.27476
# Velocity P-wave (km/s) = 5.61111 5.06920 5.34702
#
# Compressibility (1/GPa) = 0.04434748
#
# Stress axis : x y z
#
# Youngs Moduli (GPa) = 61.46619 29.41314 20.89422
#
# Poissons Ratio (x) = 0.11807 -0.03483
# Poissons Ratio (y) = 0.24674 0.51281
# Poissons Ratio (z) = -0.10247 0.72188
#
# Static dielectric constant tensor:
#      x y z
#    x 1.653730 0.000000 0.033520 
#    y 0.000000 1.578330 0.000000 
#    z 0.033520 0.000000 1.607310 
# 
# From -- ./inp_files/216007.got.cif
#   From: 2010.05.17/outbox.cif.g08.bks.cpg/sg12_109_cif.got.tgz:216007.got - 2010.06.03 13:09:07.
