data_PCOD9174249
_publ_section_title
;
Structure prediction by ZEFSAII (Michael W. Deem and Ramdas Pophale) SiO2 
 PCOD9174249
Probable space group: C 2/M
;
_chemical_formula_sum "Si O2"
_cell_formula_units_Z 56
_cell_length_a 14.671686
_cell_length_b 16.065361
_cell_length_c 11.017114
_cell_angle_alpha 90.000000
_cell_angle_beta 86.049931
_cell_angle_gamma 90.000000
_cell_volume 2590.630328
_symmetry_space_group_name_H-M "C 2/M"
_symmetry_group_IT_number 12
_symmetry_cell_setting 'monoclinic'
loop_
_space_group_symop_operation_xyz
x,y,z
-x,y,-z
-x,-y,-z
x,-y,z
1/2+x,1/2+y,z
1/2-x,1/2+y,-z
1/2-x,1/2-y,-z
1/2+x,1/2-y,z
loop_
_atom_site_type_symbol
_atom_site_label
_atom_site_fract_x
_atom_site_fract_y
_atom_site_fract_z
Si Si1 0.514404 0.312331 0.794881
Si Si2 0.663712 0.090274 0.764188
Si Si3 0.788099 0.404478 0.710595
Si Si4 0.625782 0.594511 0.304552
Si Si5 0.189046 0.767771 0.889437
Si Si6 0.507765 0.853229 0.357307
Si Si7 0.623340 0.401552 0.568165
O O1 0.416710 0.357384 0.805324
O O2 0.586073 0.306674 0.898477
O O3 0.494361 0.224304 0.734599
O O4 0.569186 0.362822 0.684907
O O5 0.765490 0.090661 0.701942
O O6 0.666483 0.175870 0.838841
O O7 0.582576 0.096439 0.674136
O O8 0.652821 0.000000 0.830059
O O9 0.767780 0.500000 0.754555
O O10 0.749563 0.331718 0.802073
O O11 0.729617 0.391287 0.593099
O O12 0.895316 0.396738 0.675909
O O13 0.592200 0.500000 0.300296
O O14 0.600499 0.633350 0.437663
O O15 0.250000 0.750000 0.000000
O O16 0.500000 0.831340 0.500000
O O17 0.605702 0.500000 0.563517
#
# Coordination Sequence:
#
# PCOD9174249 Si02
#       7
#     8   8   8   8   8   8   8
#     4  10  20  33  52  81 113 146 194 243 285 346
#     4  10  22  38  56  82 115 151 192 235 284 345
#     4  10  21  37  59  88 118 151 197 243 283 342
#     4  10  18  31  53  81 117 153 182 226 290 356
#     4  10  23  43  63  81 106 146 194 251 306 342
#     4  11  21  34  56  86 123 163 195 228 277 342
#     4   9  17  30  51  81 116 152 186 228 290 353
#
# _framework density 21.616361000000001
#
# number of rings (size 3 to 8) (size 9 to 14) (size 15 to 20)
#    0.000    2.000    0.000    3.857    0.000    4.571 
#    0.000   12.143    0.000    6.000    0.000    0.000 
#    0.000    0.000    0.000    0.000    0.000    0.000 
#
# Total GULP energy -156023.810494 kJ/mol
# GULP energy per Si atom -5572.278946 kJ/mol
# Density = 2.156716 g / cm^3
# Si number density = 21.616361 Si / 1000 Ang^3
#
#
#
# Elastic Constant Matrix: (Units=GPa)
#
#
# Indices 1 2 3 4 5 6 
#
# 1 167.0205 32.2127 38.6130 0.0000 36.4083 0.0000
# 2 32.2127 95.0818 26.8428 0.0000 16.2571 0.0000
# 3 38.6130 26.8428 58.9358 0.0000 37.2609 0.0000
# 4 0.0000 0.0000 0.0000 9.1520 0.0000 5.2260
# 5 36.4083 16.2571 37.2609 0.0000 36.0957 0.0000
# 6 0.0000 0.0000 0.0000 5.2260 0.0000 34.5466
#
#
#
# Elastic Compliance Matrix: (Units=1/GPa)
#
#
# Indices 1 2 3 4 5 6 
#
# 1 0.007848 -0.001451 0.000318 0.000000 -0.007592 0.000000
# 2 -0.001451 0.012343 -0.005993 0.000000 0.002091 0.000000
# 3 0.000318 -0.005993 0.051776 0.000000 -0.051069 0.000000
# 4 0.000000 0.000000 0.000000 0.119597 0.000000 -0.018092
# 5 -0.007592 0.002091 -0.051069 0.000000 0.087137 0.000000
# 6 0.000000 0.000000 0.000000 -0.018092 0.000000 0.031683
#
#
# Mechanical properties :
#
#
# Convention : Reuss Voigt Hill
#
# Bulk Modulus (GPa) = 17.32606 57.37501 37.35053
# Shear Modulus (GPa) = 14.54015 30.85016 22.69516
#
# Velocity S-wave (km/s) = 2.59636 3.78189 3.24374
# Velocity P-wave (km/s) = 4.12562 6.75798 5.59870
#
# Compressibility (1/GPa) = 0.05771653
#
# Stress axis : x y z
#
# Youngs Moduli (GPa) = 127.41522 81.01603 19.31398
#
# Poissons Ratio (x) = 0.11754 -0.00615
# Poissons Ratio (y) = 0.18486 0.11575
# Poissons Ratio (z) = -0.04056 0.48553
#
# Static dielectric constant tensor:
#      x y z
#    x 1.863560 0.000000 -0.005980 
#    y 0.000000 1.854350 0.000000 
#    z -0.005980 0.000000 1.783790 
# 
# From -- ./inp_files/143716.got.cif
#   From: 2010.05.17/outbox.cif.g08.bks.cpg/sg12_72_cif.got.tgz:143716.got - 2010.06.03 13:09:07.
