data_PCOD9174360
_publ_section_title
;
Structure prediction by ZEFSAII (Michael W. Deem and Ramdas Pophale) SiO2 
 PCOD9174360
Probable space group: C 2/M
;
_chemical_formula_sum "Si O2"
_cell_formula_units_Z 64
_cell_length_a 30.739893
_cell_length_b 7.990046
_cell_length_c 21.956687
_cell_angle_alpha 90.000000
_cell_angle_beta 34.310529
_cell_angle_gamma 90.000000
_cell_volume 3039.830791
_symmetry_space_group_name_H-M "C 2/M"
_symmetry_group_IT_number 12
_symmetry_cell_setting 'monoclinic'
loop_
_space_group_symop_operation_xyz
x,y,z
-x,y,-z
-x,-y,-z
x,-y,z
1/2+x,1/2+y,z
1/2-x,1/2+y,-z
1/2-x,1/2-y,-z
1/2+x,1/2-y,z
loop_
_atom_site_type_symbol
_atom_site_label
_atom_site_fract_x
_atom_site_fract_y
_atom_site_fract_z
Si Si1 0.753171 0.190861 0.608467
Si Si2 0.910971 0.294093 0.248254
Si Si3 0.929672 0.702915 0.736611
Si Si4 0.430985 0.799173 0.982103
Si Si5 0.782121 0.189803 0.222186
Si Si6 0.199394 0.198589 0.196708
Si Si7 0.656681 0.201461 0.042626
Si Si8 0.418943 0.802620 0.376545
O O1 0.674138 0.262675 0.672002
O O2 0.741482 0.196107 0.694352
O O3 0.831901 0.278671 0.498713
O O4 0.760093 0.000000 0.578947
O O5 0.910783 0.500000 0.247600
O O6 0.928103 0.236479 0.297245
O O7 0.980176 0.243598 0.123044
O O8 0.927656 0.500000 0.736386
O O9 0.886411 0.765813 0.726731
O O10 0.880270 0.764028 0.852438
O O11 0.016730 0.760487 0.650476
O O12 0.397238 0.765031 0.953449
O O13 0.428619 0.000000 0.994060
O O14 0.369909 0.721875 0.099115
O O15 0.727941 0.221415 0.226389
O O16 0.773407 0.000000 0.252992
O O17 0.211284 0.000000 0.189324
O O18 0.258784 0.261770 0.075404
O O19 0.660052 0.000000 0.044923
O O20 0.434608 0.000000 0.353014
#
# Coordination Sequence:
#
# PCOD9174360 Si02
#       8
#     8   8   8   8   8   8   8   8
#     4  11  23  39  59  83 111 151 197 239 282 332
#     4   9  18  35  62  89 115 149 188 229 282 342
#     4  10  18  31  54  83 115 149 185 224 276 336
#     4   9  16  33  59  86 115 149 187 229 277 335
#     4  11  23  40  58  80 113 151 192 237 285 336
#     4  10  20  34  55  82 113 148 188 230 277 333
#     4   8  14  27  50  79 112 148 180 217 267 328
#     4  10  20  37  60  86 117 152 188 231 280 334
#
# _framework density 21.053802000000001
#
# number of rings (size 3 to 8) (size 9 to 14) (size 15 to 20)
#    0.000    2.250    1.250    3.375    0.000    1.000 
#    0.000    8.125    0.000    3.750    0.000    0.000 
#    0.000    0.000    0.000    0.000    0.000    0.000 
#
# Total GULP energy -178623.945680 kJ/mol
# GULP energy per Si atom -5581.998302 kJ/mol
# Density = 2.100588 g / cm^3
# Si number density = 21.053802 Si / 1000 Ang^3
#
#
#
# Elastic Constant Matrix: (Units=GPa)
#
#
# Indices 1 2 3 4 5 6 
#
# 1 51.6905 -1.9963 40.8567 0.0008 -26.4734 -0.0029
# 2 -1.9963 25.9765 -11.0270 -0.0276 -2.7640 -0.0080
# 3 40.8567 -11.0270 112.8872 -0.0199 -28.4842 -0.0098
# 4 0.0008 -0.0276 -0.0199 18.3870 0.0114 -8.4573
# 5 -26.4734 -2.7640 -28.4842 0.0114 38.5373 0.0039
# 6 -0.0029 -0.0080 -0.0098 -8.4573 0.0039 10.8161
#
#
#
# Elastic Compliance Matrix: (Units=1/GPa)
#
#
# Indices 1 2 3 4 5 6 
#
# 1 0.035041 0.001267 -0.007943 -0.000033 0.018292 -0.000029
# 2 0.001267 0.041855 0.005663 0.000124 0.008058 0.000130
# 3 -0.007943 0.005663 0.013537 0.000041 0.004955 0.000044
# 4 -0.000033 0.000124 0.000041 0.084932 -0.000015 0.066410
# 5 0.018292 0.008058 0.004955 -0.000015 0.042755 -0.000012
# 6 -0.000029 0.000130 0.000044 0.066410 -0.000012 0.144382
#
#
# Mechanical properties :
#
#
# Convention : Reuss Voigt Hill
#
# Bulk Modulus (GPa) = 11.31115 27.35788 19.33451
# Shear Modulus (GPa) = 12.69045 24.39615 18.54330
#
# Velocity S-wave (km/s) = 2.45779 3.40774 2.97098
# Velocity P-wave (km/s) = 3.66585 5.33911 4.57955
#
# Compressibility (1/GPa) = 0.08840833
#
# Stress axis : x y z
#
# Youngs Moduli (GPa) = 28.53777 23.89176 73.87333
#
# Poissons Ratio (x) = -0.03028 0.58678
# Poissons Ratio (y) = -0.03617 -0.41836
# Poissons Ratio (z) = 0.22668 -0.13530
#
# Static dielectric constant tensor:
#      x y z
#    x 1.759300 -0.000010 -0.029560 
#    y -0.000010 1.757640 0.000010 
#    z -0.029560 0.000010 1.752510 
# 
# From -- ./inp_files/353312.got.cif
#   From: 2010.05.17/outbox.cif.g08.bks.cpg/sg12_177_cif.got.tgz:353312.got - 2010.06.03 13:09:07.
