data_PCOD9174816
_publ_section_title
;
Structure prediction by ZEFSAII (Michael W. Deem and Ramdas Pophale) SiO2 
 PCOD9174816
Probable space group: C 2/M
;
_chemical_formula_sum "Si O2"
_cell_formula_units_Z 56
_cell_length_a 14.126189
_cell_length_b 13.917463
_cell_length_c 16.999299
_cell_angle_alpha 90.000000
_cell_angle_beta 63.351209
_cell_angle_gamma 90.000000
_cell_volume 2987.054494
_symmetry_space_group_name_H-M "C 2/M"
_symmetry_group_IT_number 12
_symmetry_cell_setting 'monoclinic'
loop_
_space_group_symop_operation_xyz
x,y,z
-x,y,-z
-x,-y,-z
x,-y,z
1/2+x,1/2+y,z
1/2-x,1/2+y,-z
1/2-x,1/2-y,-z
1/2+x,1/2-y,z
loop_
_atom_site_type_symbol
_atom_site_label
_atom_site_fract_x
_atom_site_fract_y
_atom_site_fract_z
Si Si1 0.665183 0.112474 0.453786
Si Si2 0.873572 0.760534 0.941865
Si Si3 0.597468 0.887364 0.186499
Si Si4 0.352125 0.612845 0.096851
Si Si5 0.508895 0.608328 0.807214
Si Si6 0.978302 0.304123 0.621410
Si Si7 0.094449 0.889440 0.599323
O O1 0.625213 0.172436 0.392847
O O2 0.572875 0.129824 0.551783
O O3 0.780606 0.136368 0.446002
O O4 0.669570 0.000000 0.429309
O O5 0.923385 0.661145 0.891485
O O6 0.905336 0.828653 0.857561
O O7 0.750000 0.750000 0.000000
O O8 0.898076 0.819889 0.011332
O O9 0.724902 0.878544 0.149814
O O10 0.543147 0.832847 0.280197
O O11 0.569977 0.000000 0.198445
O O12 0.373552 0.500000 0.071930
O O13 0.405353 0.639273 0.159782
O O14 0.478768 0.500000 0.837020
O O15 0.560063 0.610215 0.703305
O O16 0.021487 0.195564 0.592336
O O17 0.081358 0.000000 0.574325
#
# Coordination Sequence:
#
# PCOD9174816 Si02
#       7
#     8   8   8   8   8   8   8
#     4  10  21  36  58  88 112 140 187 230 266 318
#     4  10  19  30  45  73 102 132 167 211 265 317
#     4  10  19  32  50  75 103 136 176 215 263 320
#     4   9  18  31  52  78 101 127 169 224 268 308
#     4  10  18  32  53  77 101 130 168 217 266 314
#     4  11  19  35  58  83 111 149 178 223 277 326
#     4  10  21  36  56  86 116 142 181 229 273 323
#
# _framework density 18.747567
#
# number of rings (size 3 to 8) (size 9 to 14) (size 15 to 20)
#    0.000    2.000    1.429    3.857    0.000    4.000 
#    0.000    1.429    0.000    4.286    0.000    0.000 
#    0.000    0.000    0.000    0.000    0.000    0.000 
#
# Total GULP energy -155901.786697 kJ/mol
# GULP energy per Si atom -5567.920953 kJ/mol
# Density = 1.870490 g / cm^3
# Si number density = 18.747567 Si / 1000 Ang^3
#
#
#
# Elastic Constant Matrix: (Units=GPa)
#
#
# Indices 1 2 3 4 5 6 
#
# 1 42.2385 35.6485 11.4830 0.0000 -3.2969 0.0000
# 2 35.6485 100.6867 19.3592 0.0000 2.8414 0.0000
# 3 11.4830 19.3592 66.9567 0.0000 -3.2117 0.0000
# 4 0.0000 0.0000 0.0000 31.7754 0.0000 0.6811
# 5 -3.2969 2.8414 -3.2117 0.0000 26.0271 0.0000
# 6 0.0000 0.0000 0.0000 0.6811 0.0000 5.2167
#
#
#
# Elastic Compliance Matrix: (Units=1/GPa)
#
#
# Indices 1 2 3 4 5 6 
#
# 1 0.034907 -0.012084 -0.002230 0.000000 0.005466 0.000000
# 2 -0.012084 0.014761 -0.002360 0.000000 -0.003433 0.000000
# 3 -0.002230 -0.002360 0.016094 0.000000 0.001961 0.000000
# 4 0.000000 0.000000 0.000000 0.031559 0.000000 -0.004120
# 5 0.005466 -0.003433 0.001961 0.000000 0.039731 0.000000
# 6 0.000000 0.000000 0.000000 -0.004120 0.000000 0.192231
#
#
# Mechanical properties :
#
#
# Convention : Reuss Voigt Hill
#
# Bulk Modulus (GPa) = 30.85246 38.09592 34.47419
# Shear Modulus (GPa) = 13.38914 22.16323 17.77618
#
# Velocity S-wave (km/s) = 2.67531 3.44203 3.08260
# Velocity P-wave (km/s) = 5.10251 6.01343 5.57660
#
# Compressibility (1/GPa) = 0.03241232
#
# Stress axis : x y z
#
# Youngs Moduli (GPa) = 28.64752 67.74618 62.13502
#
# Poissons Ratio (x) = 0.81867 0.13859
# Poissons Ratio (y) = 0.34619 0.14664
# Poissons Ratio (z) = 0.06390 0.15989
#
# Static dielectric constant tensor:
#      x y z
#    x 1.686730 0.000000 0.016470 
#    y 0.000000 1.730350 0.000000 
#    z 0.016470 0.000000 1.658950 
# 
# From -- ./inp_files/315275.got.cif
#   From: 2010.05.17/outbox.cif.g08.bks.cpg/sg12_158_cif.got.tgz:315275.got - 2010.06.03 13:09:07.
