data_PCOD9174491
_publ_section_title
;
Structure prediction by ZEFSAII (Michael W. Deem and Ramdas Pophale) SiO2 
 PCOD9174491
Probable space group: C 2/M
;
_chemical_formula_sum "Si O2"
_cell_formula_units_Z 56
_cell_length_a 10.399630
_cell_length_b 19.991903
_cell_length_c 14.058446
_cell_angle_alpha 90.000000
_cell_angle_beta 79.522581
_cell_angle_gamma 90.000000
_cell_volume 2874.134923
_symmetry_space_group_name_H-M "C 2/M"
_symmetry_group_IT_number 12
_symmetry_cell_setting 'monoclinic'
loop_
_space_group_symop_operation_xyz
x,y,z
-x,y,-z
-x,-y,-z
x,-y,z
1/2+x,1/2+y,z
1/2-x,1/2+y,-z
1/2-x,1/2-y,-z
1/2+x,1/2-y,z
loop_
_atom_site_type_symbol
_atom_site_label
_atom_site_fract_x
_atom_site_fract_y
_atom_site_fract_z
Si Si1 0.760613 0.835928 0.392995
Si Si2 0.452248 0.333669 0.739982
Si Si3 0.662113 0.075543 0.236702
Si Si4 0.247985 0.820233 0.390361
Si Si5 0.363303 0.754403 0.062393
Si Si6 0.527305 0.188130 0.777097
Si Si7 0.434150 0.396985 0.105157
O O1 0.683763 0.886282 0.334527
O O2 0.763740 0.851751 0.504169
O O3 0.710104 0.759027 0.397537
O O4 0.905868 0.834726 0.329560
O O5 0.347444 0.351075 0.674793
O O6 0.443452 0.256977 0.780592
O O7 0.459527 0.385407 0.826169
O O8 0.565516 0.125184 0.192710
O O9 0.803118 0.071515 0.165508
O O10 0.612382 0.000000 0.254501
O O11 0.395049 0.823094 0.331258
O O12 0.359737 0.797630 0.159299
O O13 0.387016 0.678334 0.089222
O O14 0.500000 0.778991 0.000000
O O15 0.250000 0.750000 0.000000
O O16 0.500000 0.423673 0.000000
#
# Coordination Sequence:
#
# PCOD9174491 Si02
#       7
#     8   8   8   8   8   8   8
#     4   9  19  33  54  85 112 151 194 233 301 346
#     4   9  17  32  55  84 118 138 180 252 302 340
#     4  11  22  40  58  78 121 162 197 235 277 357
#     4  10  18  31  57  83 117 144 183 254 297 343
#     4  10  20  32  57  89 122 151 182 248 314 352
#     4  10  21  32  52  85 120 150 195 226 292 360
#     4   9  20  34  57  86 109 145 195 242 298 346
#
# _framework density 19.484124000000001
#
# number of rings (size 3 to 8) (size 9 to 14) (size 15 to 20)
#    0.000    2.286    1.429    2.143    6.000    0.857 
#    0.000    1.429    0.000   14.143    0.000    0.000 
#    0.000    0.000    0.000    0.000    0.000    0.000 
#
# Total GULP energy -156094.669191 kJ/mol
# GULP energy per Si atom -5574.809614 kJ/mol
# Density = 1.943978 g / cm^3
# Si number density = 19.484124 Si / 1000 Ang^3
#
#
#
# Elastic Constant Matrix: (Units=GPa)
#
#
# Indices 1 2 3 4 5 6 
#
# 1 67.0835 28.0936 41.3369 0.0000 25.8712 0.0000
# 2 28.0936 74.3933 26.8698 0.0000 -0.8576 0.0000
# 3 41.3369 26.8698 139.0221 0.0000 10.8851 0.0000
# 4 0.0000 0.0000 0.0000 1.8458 0.0000 -3.3810
# 5 25.8712 -0.8576 10.8851 0.0000 27.6431 0.0000
# 6 0.0000 0.0000 0.0000 -3.3810 0.0000 5.8574
#
#
#
# Elastic Compliance Matrix: (Units=1/GPa)
#
#
# Indices 1 2 3 4 5 6 
#
# 1 0.035399 -0.011619 -0.005838 0.000000 -0.031192 0.000000
# 2 -0.011619 0.018333 -0.001016 0.000000 0.011843 0.000000
# 3 -0.005838 -0.001016 0.008977 0.000000 0.001897 0.000000
# 4 0.000000 0.000000 0.000000 -9.453702 0.000000 -5.456881
# 5 -0.031192 0.011843 0.001897 0.000000 0.064988 0.000000
# 6 0.000000 0.000000 0.000000 -5.456881 0.000000 -2.979104
#
#
# Mechanical properties :
#
#
# Convention : Reuss Voigt Hill
#
# Bulk Modulus (GPa) = 38.81397 52.56661 45.69029
# Shear Modulus (GPa) = -0.40784 19.34916 9.47066
#
# Velocity S-wave (km/s) = -0.45801 3.15472 2.20709
# Velocity P-wave (km/s) = 4.43671 6.34882 5.47685
#
# Compressibility (1/GPa) = 0.02576392
#
# Stress axis : x y z
#
# Youngs Moduli (GPa) = 28.24917 54.54548 111.39979
#
# Poissons Ratio (x) = 0.63377 0.65032
# Poissons Ratio (y) = 0.32823 0.11317
# Poissons Ratio (z) = 0.16491 0.05541
#
# Static dielectric constant tensor:
#      x y z
#    x 1.756750 0.000000 -0.034160 
#    y 0.000000 1.663590 0.000000 
#    z -0.034160 0.000000 1.778560 
# 
# From -- ./inp_files/133225.got.cif
#   From: 2010.05.17/outbox.cif.g08.bks.cpg/sg12_67_cif.got.tgz:133225.got - 2010.06.03 13:09:07.
