data_PCOD9174058
_publ_section_title
;
Structure prediction by ZEFSAII (Michael W. Deem and Ramdas Pophale) SiO2 
 PCOD9174058
Probable space group: C 2/M
;
_chemical_formula_sum "Si O2"
_cell_formula_units_Z 64
_cell_length_a 20.720456
_cell_length_b 8.483695
_cell_length_c 25.215764
_cell_angle_alpha 90.000000
_cell_angle_beta 126.107654
_cell_angle_gamma 90.000000
_cell_volume 3581.130091
_symmetry_space_group_name_H-M "C 2/M"
_symmetry_group_IT_number 12
_symmetry_cell_setting 'monoclinic'
loop_
_space_group_symop_operation_xyz
x,y,z
-x,y,-z
-x,-y,-z
x,-y,z
1/2+x,1/2+y,z
1/2-x,1/2+y,-z
1/2-x,1/2-y,-z
1/2+x,1/2-y,z
loop_
_atom_site_type_symbol
_atom_site_label
_atom_site_fract_x
_atom_site_fract_y
_atom_site_fract_z
Si Si1 0.873315 0.691585 0.944706
Si Si2 0.873794 0.186936 0.441530
Si Si3 0.775671 0.810978 0.570297
Si Si4 0.960101 0.190875 0.673715
Si Si5 0.719061 0.309059 0.928349
Si Si6 0.038058 0.190033 0.821799
Si Si7 0.490900 0.813300 0.414298
Si Si8 0.985730 0.690293 0.906944
O O1 0.874026 0.500000 0.944355
O O2 0.784690 0.742878 0.916875
O O3 0.911371 0.742542 0.907431
O O4 0.934964 0.737980 0.021361
O O5 0.787447 0.247004 0.417619
O O6 0.910967 0.263741 0.406794
O O7 0.935960 0.232257 0.518510
O O8 0.873290 0.000000 0.435276
O O9 0.750000 0.750000 0.500000
O O10 0.866863 0.762763 0.625674
O O11 0.771920 0.000000 0.568228
O O12 0.999428 0.242822 0.747919
O O13 0.004637 0.258933 0.644025
O O14 0.963560 0.000000 0.672550
O O15 0.718471 0.500000 0.929065
O O16 0.629526 0.254116 0.872943
O O17 0.750000 0.250000 0.000000
O O18 0.989909 0.243904 0.850194
O O19 0.039179 0.000000 0.821662
O O20 0.501484 0.000000 0.423487
O O21 0.985517 0.500000 0.904478
#
# Coordination Sequence:
#
# PCOD9174058 Si02
#       8
#     8   8   8   8   8   8   8   8
#     4   8  15  28  49  75 101 133 171 217 263 305
#     4  11  21  35  57  84 115 144 177 226 283 329
#     4  11  21  35  57  82 109 142 187 236 279 327
#     4  10  22  39  55  75 112 153 180 218 283 336
#     4  10  18  31  52  77 104 134 177 222 262 310
#     4  10  21  35  52  77 109 143 174 213 268 327
#     4  11  21  35  57  84 112 143 186 227 267 326
#     4   9  16  30  51  73 101 137 175 215 262 311
#
# _framework density 17.871452999999999
#
# number of rings (size 3 to 8) (size 9 to 14) (size 15 to 20)
#    0.000    2.000    2.500    4.125    0.000    1.000 
#    0.000    3.125    0.000    1.500    0.000    0.000 
#    0.000    0.000    0.000    0.000    0.000    0.000 
#
# Total GULP energy -178594.951443 kJ/mol
# GULP energy per Si atom -5581.092233 kJ/mol
# Density = 1.783078 g / cm^3
# Si number density = 17.871453 Si / 1000 Ang^3
#
#
#
# Elastic Constant Matrix: (Units=GPa)
#
#
# Indices 1 2 3 4 5 6 
#
# 1 149.9243 8.1867 71.5496 0.0000 -16.5776 0.0000
# 2 8.1867 16.9626 12.1228 0.0000 1.1066 0.0000
# 3 71.5496 12.1228 117.2307 0.0000 -13.2435 0.0000
# 4 0.0000 0.0000 0.0000 19.7220 0.0000 -6.6192
# 5 -16.5776 1.1066 -13.2435 0.0000 28.0277 0.0000
# 6 0.0000 0.0000 0.0000 -6.6192 0.0000 28.2520
#
#
#
# Elastic Compliance Matrix: (Units=1/GPa)
#
#
# Indices 1 2 3 4 5 6 
#
# 1 0.009674 -0.000988 -0.005442 0.000000 0.003189 0.000000
# 2 -0.000988 0.064709 -0.006807 0.000000 -0.006355 0.000000
# 3 -0.005442 -0.006807 0.012911 0.000000 0.003151 0.000000
# 4 0.000000 0.000000 0.000000 0.055032 0.000000 0.012894
# 5 0.003189 -0.006355 0.003151 0.000000 0.039305 0.000000
# 6 0.000000 0.000000 0.000000 0.012894 0.000000 0.038417
#
#
# Mechanical properties :
#
#
# Convention : Reuss Voigt Hill
#
# Bulk Modulus (GPa) = 16.44151 51.98173 34.21162
# Shear Modulus (GPa) = 18.74107 28.01757 23.37932
#
# Velocity S-wave (km/s) = 3.24181 3.96375 3.62082
# Velocity P-wave (km/s) = 4.81999 7.07800 6.05518
#
# Compressibility (1/GPa) = 0.06082166
#
# Stress axis : x y z
#
# Youngs Moduli (GPa) = 103.37415 15.45383 77.45204
#
# Poissons Ratio (x) = 0.01527 0.42147
# Poissons Ratio (y) = 0.10211 0.52718
# Poissons Ratio (z) = 0.56253 0.10519
#
# Static dielectric constant tensor:
#      x y z
#    x 1.625340 0.000000 0.007540 
#    y 0.000000 1.612310 0.000000 
#    z 0.007540 0.000000 1.585110 
# 
# From -- ./inp_files/346245.got.cif
#   From: 2010.05.17/outbox.cif.g08.bks.cpg/sg12_174_cif.got.tgz:346245.got - 2010.06.03 13:09:07.
