data_PCOD9174396
_publ_section_title
;
Structure prediction by ZEFSAII (Michael W. Deem and Ramdas Pophale) SiO2 
 PCOD9174396
Probable space group: C 2/M
;
_chemical_formula_sum "Si O2"
_cell_formula_units_Z 56
_cell_length_a 21.173774
_cell_length_b 7.636594
_cell_length_c 17.777203
_cell_angle_alpha 90.000000
_cell_angle_beta 75.050852
_cell_angle_gamma 90.000000
_cell_volume 2777.207204
_symmetry_space_group_name_H-M "C 2/M"
_symmetry_group_IT_number 12
_symmetry_cell_setting 'monoclinic'
loop_
_space_group_symop_operation_xyz
x,y,z
-x,y,-z
-x,-y,-z
x,-y,z
1/2+x,1/2+y,z
1/2-x,1/2+y,-z
1/2-x,1/2-y,-z
1/2+x,1/2-y,z
loop_
_atom_site_type_symbol
_atom_site_label
_atom_site_fract_x
_atom_site_fract_y
_atom_site_fract_z
Si Si1 0.940699 0.785570 0.772162
Si Si2 0.208769 0.705166 0.898989
Si Si3 0.916897 0.214823 0.324605
Si Si4 0.853259 0.204850 0.659696
Si Si5 0.794566 0.798531 0.267176
Si Si6 0.654238 0.288266 0.070873
Si Si7 0.927935 0.786518 0.493140
O O1 0.894763 0.723959 0.717272
O O2 0.907036 0.730633 0.860457
O O3 0.014758 0.730774 0.734208
O O4 0.939829 0.000000 0.772646
O O5 0.216962 0.500000 0.881037
O O6 0.189753 0.789116 0.826181
O O7 0.279029 0.772386 0.907862
O O8 0.159241 0.729387 0.983303
O O9 0.853842 0.276203 0.297859
O O10 0.915754 0.272270 0.411825
O O11 0.916892 0.000000 0.323585
O O12 0.776517 0.217832 0.697672
O O13 0.876700 0.275355 0.571928
O O14 0.870642 0.000000 0.652398
O O15 0.787245 0.000000 0.291675
O O16 0.655960 0.500000 0.069732
O O17 0.000000 0.737602 0.500000
O O18 0.926452 0.000000 0.490206
#
# Coordination Sequence:
#
# PCOD9174396 Si02
#       7
#     8   8   8   8   8   8   8
#     4   9  15  29  52  78 103 129 172 221 255 294
#     4  10  19  33  53  77 104 134 172 215 256 305
#     4   9  18  31  49  77 108 137 172 217 261 302
#     4  10  18  31  55  81 102 132 176 221 259 299
#     4  11  22  34  49  74 111 145 170 205 261 318
#     4   9  17  30  52  80 103 127 166 218 266 302
#     4   9  15  27  52  82 105 128 172 227 263 291
#
# _framework density 20.164142999999999
#
# number of rings (size 3 to 8) (size 9 to 14) (size 15 to 20)
#    0.000    2.429    2.857    0.857    0.000    1.143 
#    0.000    0.714    0.000    9.000    0.000    0.000 
#    0.000    0.000    0.000    0.000    0.000    0.000 
#
# Total GULP energy -156251.801534 kJ/mol
# GULP energy per Si atom -5580.421483 kJ/mol
# Density = 2.011825 g / cm^3
# Si number density = 20.164143 Si / 1000 Ang^3
#
#
#
# Elastic Constant Matrix: (Units=GPa)
#
#
# Indices 1 2 3 4 5 6 
#
# 1 106.3292 -7.7060 63.6806 0.0000 2.1396 0.0000
# 2 -7.7060 33.5007 -8.6198 0.0000 -0.5758 0.0000
# 3 63.6806 -8.6198 149.0943 0.0000 -9.7889 0.0000
# 4 0.0000 0.0000 0.0000 9.0757 0.0000 -2.6744
# 5 2.1396 -0.5758 -9.7889 0.0000 32.9325 0.0000
# 6 0.0000 0.0000 0.0000 -2.6744 0.0000 2.5497
#
#
#
# Elastic Compliance Matrix: (Units=1/GPa)
#
#
# Indices 1 2 3 4 5 6 
#
# 1 0.012911 0.001489 -0.005591 0.000000 -0.002475 0.000000
# 2 0.001489 0.030510 0.001180 0.000000 0.000787 0.000000
# 3 -0.005591 0.001180 0.009371 0.000000 0.003169 0.000000
# 4 0.000000 0.000000 0.000000 0.159476 0.000000 0.167274
# 5 -0.002475 0.000787 0.003169 0.000000 0.031482 0.000000
# 6 0.000000 0.000000 0.000000 0.167274 0.000000 0.567660
#
#
# Mechanical properties :
#
#
# Convention : Reuss Voigt Hill
#
# Bulk Modulus (GPa) = 21.30058 42.62599 31.96329
# Shear Modulus (GPa) = 6.00310 25.01619 15.50965
#
# Velocity S-wave (km/s) = 1.72730 3.52608 2.77640
# Velocity P-wave (km/s) = 3.81636 6.14516 5.11506
#
# Compressibility (1/GPa) = 0.04694707
#
# Stress axis : x y z
#
# Youngs Moduli (GPa) = 77.45463 32.77657 106.70780
#
# Poissons Ratio (x) = -0.04880 0.59658
# Poissons Ratio (y) = -0.11531 -0.12589
# Poissons Ratio (z) = 0.43303 -0.03867
#
# Static dielectric constant tensor:
#      x y z
#    x 1.679540 0.000000 -0.005100 
#    y 0.000000 1.770120 0.000000 
#    z -0.005100 0.000000 1.708290 
# 
# From -- ./inp_files/280220.got.cif
#   From: 2010.05.17/outbox.cif.g08.bks.cpg/sg12_141_cif.got.tgz:280220.got - 2010.06.03 13:09:07.
