data_PCOD9174485
_publ_section_title
;
Structure prediction by ZEFSAII (Michael W. Deem and Ramdas Pophale) SiO2 
 PCOD9174485
Probable space group: C 2/M
;
_chemical_formula_sum "Si O2"
_cell_formula_units_Z 48
_cell_length_a 8.126975
_cell_length_b 17.002330
_cell_length_c 14.385741
_cell_angle_alpha 90.000000
_cell_angle_beta 89.414066
_cell_angle_gamma 90.000000
_cell_volume 1987.681942
_symmetry_space_group_name_H-M "C 2/M"
_symmetry_group_IT_number 12
_symmetry_cell_setting 'monoclinic'
loop_
_space_group_symop_operation_xyz
x,y,z
-x,y,-z
-x,-y,-z
x,-y,z
1/2+x,1/2+y,z
1/2-x,1/2+y,-z
1/2-x,1/2-y,-z
1/2+x,1/2-y,z
loop_
_atom_site_type_symbol
_atom_site_label
_atom_site_fract_x
_atom_site_fract_y
_atom_site_fract_z
Si Si1 0.643645 0.684850 0.782818
Si Si2 0.854747 0.369038 0.267403
Si Si3 0.343065 0.836211 0.610174
Si Si4 0.365102 0.414771 0.881506
Si Si5 0.349563 0.350513 0.565082
Si Si6 0.684385 0.834365 0.035698
O O1 0.637717 0.778138 0.766535
O O2 0.686495 0.653825 0.679947
O O3 0.482833 0.650645 0.834246
O O4 0.790552 0.664722 0.853953
O O5 0.806137 0.414143 0.175415
O O6 0.703665 0.388112 0.338453
O O7 0.012894 0.376680 0.332241
O O8 0.372925 0.741994 0.594007
O O9 0.301295 0.861145 0.506417
O O10 0.443761 0.500000 0.873186
O O11 0.308651 0.394581 0.985553
O O12 0.500000 0.375848 0.500000
O O13 0.500000 0.844267 0.000000
O O14 0.750000 0.750000 0.000000
#
# Coordination Sequence:
#
# PCOD9174485 Si02
#       6
#     8   8   8   8   8   8
#     4  11  22  39  65  94 129 174 223 269 329 401
#     4  11  21  37  64  94 133 179 223 274 337 403
#     4  10  19  32  56  93 130 168 218 277 329 384
#     4  12  27  45  68 100 136 175 222 281 339 399
#     4  10  18  31  56  96 137 167 216 285 337 386
#     4  12  25  43  69  98 131 174 224 274 332 403
#
# _framework density 24.148734000000001
#
# number of rings (size 3 to 8) (size 9 to 14) (size 15 to 20)
#    0.000    1.000    1.667    9.000    0.000    1.667 
#    0.000    2.500    0.000    6.500    0.000    0.000 
#    0.000    6.000    0.000    0.000    0.000    0.000 
#
# Total GULP energy -134109.279431 kJ/mol
# GULP energy per Si atom -5587.886643 kJ/mol
# Density = 2.409377 g / cm^3
# Si number density = 24.148734 Si / 1000 Ang^3
#
#
#
# Elastic Constant Matrix: (Units=GPa)
#
#
# Indices 1 2 3 4 5 6 
#
# 1 111.8510 8.4988 14.3629 0.0000 1.6221 0.0000
# 2 8.4988 52.0066 8.3543 0.0000 -12.3701 0.0000
# 3 14.3629 8.3543 139.3910 0.0000 1.2226 0.0000
# 4 0.0000 0.0000 0.0000 -17.5314 0.0000 1.1716
# 5 1.6221 -12.3701 1.2226 0.0000 55.4661 0.0000
# 6 0.0000 0.0000 0.0000 1.1716 0.0000 9.7521
#
#
#
# Elastic Compliance Matrix: (Units=1/GPa)
#
#
# Indices 1 2 3 4 5 6 
#
# 1 0.009172 -0.001501 -0.000850 0.000000 -0.000584 0.000000
# 2 -0.001501 0.020774 -0.001132 0.000000 0.004702 0.000000
# 3 -0.000850 -0.001132 0.007333 0.000000 -0.000389 0.000000
# 4 0.000000 0.000000 0.000000 -0.056586 0.000000 0.006798
# 5 -0.000584 0.004702 -0.000389 0.000000 0.019103 0.000000
# 6 0.000000 0.000000 0.000000 0.006798 0.000000 0.101725
#
#
# Mechanical properties :
#
#
# Convention : Reuss Voigt Hill
#
# Bulk Modulus (GPa) = 32.98916 40.63118 36.81017
# Shear Modulus (GPa) = 42.16157 27.67287 34.91722
#
# Velocity S-wave (km/s) = 4.18294 3.38884 3.80666
# Velocity P-wave (km/s) = 6.08439 5.67223 5.88192
#
# Compressibility (1/GPa) = 0.03031299
#
# Stress axis : x y z
#
# Youngs Moduli (GPa) = 109.02550 48.13750 136.37204
#
# Poissons Ratio (x) = 0.07227 0.11592
# Poissons Ratio (y) = 0.16368 0.15432
# Poissons Ratio (z) = 0.09267 0.05447
#
# Static dielectric constant tensor:
#      x y z
#    x 2.063710 0.000000 0.026340 
#    y 0.000000 1.889600 0.000000 
#    z 0.026340 0.000000 1.866270 
# 
# From -- ./inp_files/195907.got.cif
#   From: 2010.05.17/outbox.cif.g08.bks.cpg/sg12_98_cif.got.tgz:195907.got - 2010.06.03 13:09:07.
