data_PCOD9174604
_publ_section_title
;
Structure prediction by ZEFSAII (Michael W. Deem and Ramdas Pophale) SiO2 
 PCOD9174604
Probable space group: C 2/M
;
_chemical_formula_sum "Si O2"
_cell_formula_units_Z 36
_cell_length_a 27.141773
_cell_length_b 14.001516
_cell_length_c 5.225290
_cell_angle_alpha 90.000000
_cell_angle_beta 104.694635
_cell_angle_gamma 90.000000
_cell_volume 1920.795145
_symmetry_space_group_name_H-M "C 2/M"
_symmetry_group_IT_number 12
_symmetry_cell_setting 'monoclinic'
loop_
_space_group_symop_operation_xyz
x,y,z
-x,y,-z
-x,-y,-z
x,-y,z
1/2+x,1/2+y,z
1/2-x,1/2+y,-z
1/2-x,1/2-y,-z
1/2+x,1/2-y,z
loop_
_atom_site_type_symbol
_atom_site_label
_atom_site_fract_x
_atom_site_fract_y
_atom_site_fract_z
Si Si1 0.272815 0.000000 0.822559
Si Si2 0.775407 0.795560 0.281393
Si Si3 0.464887 0.000000 0.198015
Si Si4 0.112771 0.715026 0.522401
Si Si5 0.844417 0.500000 0.421564
Si Si6 0.555873 0.209521 0.940912
O O1 0.238055 0.093307 0.750854
O O2 0.312153 0.000000 0.638986
O O3 0.305922 0.000000 0.128128
O O4 0.750000 0.750000 0.500000
O O5 0.834422 0.767565 0.354682
O O6 0.750000 0.750000 0.000000
O O7 0.500000 0.000000 0.500000
O O8 0.500000 0.000000 0.000000
O O9 0.435975 0.097621 0.112818
O O10 0.123845 0.599597 0.537925
O O11 0.094145 0.739302 0.213318
O O12 0.071005 0.747997 0.680072
O O13 0.500000 0.221074 0.000000
#
# Coordination Sequence:
#
# PCOD9174604 Si02
#       6
#     4   8   4   8   4   8
#     4  12  22  41  60  86 122 162 188 247 302 352
#     4  12  23  41  61  89 121 154 202 248 298 361
#     4  10  18  32  50  72 110 154 190 231 276 339
#     4  12  22  36  57  86 115 158 202 241 290 357
#     4  12  22  35  59  86 118 162 203 228 298 357
#     4  11  22  36  53  79 117 157 201 242 292 343
#
# _framework density 18.742238
#
# number of rings (size 3 to 8) (size 9 to 14) (size 15 to 20)
#    0.000    0.444    4.444    7.333    0.000    0.000 
#    0.000    0.000    0.000    0.000    0.000    4.667 
#    0.000    0.000    0.000    0.000    0.000    0.000 
#
# Total GULP energy -100420.876048 kJ/mol
# GULP energy per Si atom -5578.937558 kJ/mol
# Density = 1.869958 g / cm^3
# Si number density = 18.742238 Si / 1000 Ang^3
#
#
#
# Elastic Constant Matrix: (Units=GPa)
#
#
# Indices 1 2 3 4 5 6 
#
# 1 71.7165 9.4162 9.5193 0.0000 -19.5138 0.0000
# 2 9.4162 75.1562 11.3916 0.0000 -4.3434 0.0000
# 3 9.5193 11.3916 139.2796 0.0000 -11.1695 0.0000
# 4 0.0000 0.0000 0.0000 18.9959 0.0000 10.8309
# 5 -19.5138 -4.3434 -11.1695 0.0000 41.2352 0.0000
# 6 0.0000 0.0000 0.0000 10.8309 0.0000 23.7642
#
#
#
# Elastic Compliance Matrix: (Units=1/GPa)
#
#
# Indices 1 2 3 4 5 6 
#
# 1 0.016213 -0.001545 -0.000388 0.000000 0.007405 0.000000
# 2 -0.001545 0.013673 -0.000977 0.000000 0.000445 0.000000
# 3 -0.000388 -0.000977 0.007425 0.000000 0.001725 0.000000
# 4 0.000000 0.000000 0.000000 0.071126 0.000000 -0.032417
# 5 0.007405 0.000445 0.001725 0.000000 0.028269 0.000000
# 6 0.000000 0.000000 0.000000 -0.032417 0.000000 0.056855
#
#
# Mechanical properties :
#
#
# Convention : Reuss Voigt Hill
#
# Bulk Modulus (GPa) = 31.75495 38.53407 35.14451
# Shear Modulus (GPa) = 23.82350 33.85405 28.83878
#
# Velocity S-wave (km/s) = 3.56913 4.25467 3.92689
# Velocity P-wave (km/s) = 5.82793 6.68886 6.27318
#
# Compressibility (1/GPa) = 0.03149115
#
# Stress axis : x y z
#
# Youngs Moduli (GPa) = 61.67941 73.13720 134.68853
#
# Poissons Ratio (x) = 0.11296 0.05225
# Poissons Ratio (y) = 0.09527 0.13160
# Poissons Ratio (z) = 0.02393 0.07146
#
# Static dielectric constant tensor:
#      x y z
#    x 1.615450 0.000000 0.015640 
#    y 0.000000 1.427570 0.000000 
#    z 0.015640 0.000000 1.631020 
# 
# From -- ./inp_files/27788.got.cif
#   From: 2010.05.17/outbox.cif.g08.bks.cpg/sg12_14_cif.got.tgz:27788.got - 2010.06.03 13:09:07.
