data_PCOD9174379
_publ_section_title
;
Structure prediction by ZEFSAII (Michael W. Deem and Ramdas Pophale) SiO2 
 PCOD9174379
Probable space group: C 2/M
;
_chemical_formula_sum "Si O2"
_cell_formula_units_Z 40
_cell_length_a 7.434536
_cell_length_b 23.215273
_cell_length_c 14.264718
_cell_angle_alpha 90.000000
_cell_angle_beta 125.854294
_cell_angle_gamma 90.000000
_cell_volume 1995.486404
_symmetry_space_group_name_H-M "C 2/M"
_symmetry_group_IT_number 12
_symmetry_cell_setting 'monoclinic'
loop_
_space_group_symop_operation_xyz
x,y,z
-x,y,-z
-x,-y,-z
x,-y,z
1/2+x,1/2+y,z
1/2-x,1/2+y,-z
1/2-x,1/2-y,-z
1/2+x,1/2-y,z
loop_
_atom_site_type_symbol
_atom_site_label
_atom_site_fract_x
_atom_site_fract_y
_atom_site_fract_z
Si Si1 0.782033 0.564267 0.309466
Si Si2 0.262607 0.288937 0.395552
Si Si3 0.778715 0.092735 0.493804
Si Si4 0.656874 0.283892 0.778583
Si Si5 0.430981 0.665180 0.874435
O O1 0.701124 0.500000 0.260626
O O2 0.696534 0.580417 0.388238
O O3 0.706401 0.614407 0.216300
O O4 0.049778 0.562662 0.394724
O O5 0.500000 0.264491 0.500000
O O6 0.224075 0.340313 0.455617
O O7 0.264545 0.316080 0.291063
O O8 0.084012 0.239517 0.327083
O O9 0.000000 0.079241 0.500000
O O10 0.632615 0.320470 0.864704
O O11 0.797443 0.225871 0.838369
O O12 0.500000 0.649821 0.000000
#
# Coordination Sequence:
#
# PCOD9174379 Si02
#       5
#     8   8   8   8   8
#     4  11  24  40  60  90 121 156 201 241 291 357
#     4  10  18  31  54  86 123 150 180 233 300 359
#     4  10  20  38  62  89 120 155 191 240 298 356
#     4  10  21  35  56  88 116 152 195 240 295 358
#     4  11  22  40  60  83 115 156 203 249 292 340
#
# _framework density 20.045237
#
# number of rings (size 3 to 8) (size 9 to 14) (size 15 to 20)
#    0.000    1.600    2.000    4.800    0.000    3.600 
#    0.000    0.000    0.000    0.000    0.000    4.200 
#    0.000    0.000    0.000    0.000    0.000    0.000 
#
# Total GULP energy -111581.681485 kJ/mol
# GULP energy per Si atom -5579.084074 kJ/mol
# Density = 1.999961 g / cm^3
# Si number density = 20.045237 Si / 1000 Ang^3
#
#
#
# Elastic Constant Matrix: (Units=GPa)
#
#
# Indices 1 2 3 4 5 6 
#
# 1 79.2598 20.0164 36.2008 0.0000 -22.4535 0.0000
# 2 20.0164 82.9594 34.1632 0.0000 -13.1021 0.0000
# 3 36.2008 34.1632 113.3566 0.0000 -30.6549 0.0000
# 4 0.0000 0.0000 0.0000 -15.3204 0.0000 65.9071
# 5 -22.4535 -13.1021 -30.6549 0.0000 28.7398 0.0000
# 6 0.0000 0.0000 0.0000 65.9071 0.0000 -248.3960
#
#
#
# Elastic Compliance Matrix: (Units=1/GPa)
#
#
# Indices 1 2 3 4 5 6 
#
# 1 0.016883 -0.001576 -0.002170 0.000000 0.010157 0.000000
# 2 -0.001576 0.014049 -0.003277 0.000000 0.001678 0.000000
# 3 -0.002170 -0.003277 0.013548 0.000000 0.011261 0.000000
# 4 0.000000 0.000000 0.000000 0.461512 0.000000 0.122453
# 5 0.010157 0.001678 0.011261 0.000000 0.055507 0.000000
# 6 0.000000 0.000000 0.000000 0.122453 0.000000 0.028465
#
#
# Mechanical properties :
#
#
# Convention : Reuss Voigt Hill
#
# Bulk Modulus (GPa) = 32.85752 50.70405 41.78078
# Shear Modulus (GPa) = 8.14129 -34.64895 -13.25383
#
# Velocity S-wave (km/s) = 2.01749 -4.16208 -2.57416
# Velocity P-wave (km/s) = 4.67486 1.50084 3.47180
#
# Compressibility (1/GPa) = 0.03043443
#
# Stress axis : x y z
#
# Youngs Moduli (GPa) = 59.23015 71.18044 73.81368
#
# Poissons Ratio (x) = 0.11216 0.16017
# Poissons Ratio (y) = 0.09333 0.24188
# Poissons Ratio (z) = 0.12853 0.23325
#
# Static dielectric constant tensor:
#      x y z
#    x 1.853380 0.000000 -0.020220 
#    y 0.000000 1.710970 0.000000 
#    z -0.020220 0.000000 1.698870 
# 
# From -- ./inp_files/198094.got.cif
#   From: 2010.05.17/outbox.cif.g08.bks.cpg/sg12_100_cif.got.tgz:198094.got - 2010.06.03 13:09:07.
