data_PCOD9174891
_publ_section_title
;
Structure prediction by ZEFSAII (Michael W. Deem and Ramdas Pophale) SiO2 
 PCOD9174891
Probable space group: C 2/M
;
_chemical_formula_sum "Si O2"
_cell_formula_units_Z 64
_cell_length_a 24.315919
_cell_length_b 12.692269
_cell_length_c 11.823234
_cell_angle_alpha 90.000000
_cell_angle_beta 84.397661
_cell_angle_gamma 90.000000
_cell_volume 3631.506506
_symmetry_space_group_name_H-M "C 2/M"
_symmetry_group_IT_number 12
_symmetry_cell_setting 'monoclinic'
loop_
_space_group_symop_operation_xyz
x,y,z
-x,y,-z
-x,-y,-z
x,-y,z
1/2+x,1/2+y,z
1/2-x,1/2+y,-z
1/2-x,1/2-y,-z
1/2+x,1/2-y,z
loop_
_atom_site_type_symbol
_atom_site_label
_atom_site_fract_x
_atom_site_fract_y
_atom_site_fract_z
Si Si1 0.260264 0.879069 0.112964
Si Si2 0.029647 0.827672 0.320554
Si Si3 0.343010 0.234273 0.930374
Si Si4 0.413888 0.380669 0.457036
Si Si5 0.444743 0.620918 0.942254
Si Si6 0.593814 0.877566 0.288147
Si Si7 0.749336 0.617959 0.371291
Si Si8 0.333328 0.208876 0.527951
O O1 0.204027 0.813089 0.107341
O O2 0.274965 0.873783 0.241999
O O3 0.249238 0.000000 0.084587
O O4 0.309727 0.834723 0.027382
O O5 0.069055 0.870368 0.413400
O O6 0.043064 0.873279 0.194842
O O7 0.042190 0.702685 0.309426
O O8 0.968696 0.857095 0.373753
O O9 0.393091 0.302301 0.972530
O O10 0.369744 0.164703 0.824746
O O11 0.395185 0.500000 0.438538
O O12 0.370335 0.288193 0.445657
O O13 0.431524 0.500000 0.975223
O O14 0.500000 0.651455 0.000000
O O15 0.629529 0.857995 0.394213
O O16 0.579839 0.000000 0.277950
O O17 0.725242 0.500000 0.386802
O O18 0.704405 0.709445 0.394069
O O19 0.794425 0.638011 0.458540
#
# Coordination Sequence:
#
# PCOD9174891 Si02
#       8
#     8   8   8   8   8   8   8   8
#     4  10  20  35  56  79 105 140 178 220 264 310
#     4   9  19  33  51  77 103 133 171 215 255 314
#     4  10  20  35  55  80 106 137 178 222 261 319
#     4  10  18  32  54  77 102 133 173 218 260 300
#     4  10  20  34  54  78 107 139 170 214 270 318
#     4  10  19  34  54  77 104 138 171 214 261 306
#     4  10  20  35  52  74 107 142 173 210 259 314
#     4  10  20  33  51  78 106 137 174 213 257 315
#
# _framework density 17.623539999999998
#
# number of rings (size 3 to 8) (size 9 to 14) (size 15 to 20)
#    0.000    2.125    1.250    3.000    0.000    1.000 
#    0.000    5.625    0.000   10.875    0.000    0.000 
#    0.000    0.000    0.000    0.000    0.000    0.000 
#
# Total GULP energy -178465.940764 kJ/mol
# GULP energy per Si atom -5577.060649 kJ/mol
# Density = 1.758343 g / cm^3
# Si number density = 17.623540 Si / 1000 Ang^3
#
#
#
# Elastic Constant Matrix: (Units=GPa)
#
#
# Indices 1 2 3 4 5 6 
#
# 1 30.5612 11.6686 5.5102 0.0000 -4.7153 0.0000
# 2 11.6686 110.8875 22.4934 0.0000 -4.0666 0.0000
# 3 5.5102 22.4934 46.3177 0.0000 -6.6077 0.0000
# 4 0.0000 0.0000 0.0000 19.8507 0.0000 -2.0389
# 5 -4.7153 -4.0666 -6.6077 0.0000 15.3676 0.0000
# 6 0.0000 0.0000 0.0000 -2.0389 0.0000 14.0845
#
#
#
# Elastic Compliance Matrix: (Units=1/GPa)
#
#
# Indices 1 2 3 4 5 6 
#
# 1 0.035628 -0.003123 -0.001364 0.000000 0.009519 0.000000
# 2 -0.003123 0.010283 -0.004656 0.000000 -0.000239 0.000000
# 3 -0.001364 -0.004656 0.025332 0.000000 0.009242 0.000000
# 4 0.000000 0.000000 0.000000 0.051136 0.000000 0.007403
# 5 0.009519 -0.000239 0.009242 0.000000 0.071903 0.000000
# 6 0.000000 0.000000 0.000000 0.007403 0.000000 0.072072
#
#
# Mechanical properties :
#
#
# Convention : Reuss Voigt Hill
#
# Bulk Modulus (GPa) = 18.88353 29.67898 24.28125
# Shear Modulus (GPa) = 16.54028 19.73351 18.13689
#
# Velocity S-wave (km/s) = 3.06687 3.34986 3.21148
# Velocity P-wave (km/s) = 4.82485 5.64262 5.24968
#
# Compressibility (1/GPa) = 0.05295621
#
# Stress axis : x y z
#
# Youngs Moduli (GPa) = 28.06758 97.25234 39.47600
#
# Poissons Ratio (x) = 0.30376 0.05383
# Poissons Ratio (y) = 0.08767 0.18381
# Poissons Ratio (z) = 0.03828 0.45282
#
# Static dielectric constant tensor:
#      x y z
#    x 1.592990 0.000000 -0.002880 
#    y 0.000000 1.597730 0.000000 
#    z -0.002880 0.000000 1.587760 
# 
# From -- ./inp_files/174587.got.cif
#   From: 2010.05.17/outbox.cif.g08.bks.cpg/sg12_88_cif.got.tgz:174587.got - 2010.06.03 13:09:07.
