data_PCOD9174248
_publ_section_title
;
Structure prediction by ZEFSAII (Michael W. Deem and Ramdas Pophale) SiO2 
 PCOD9174248
Probable space group: C 2/M
;
_chemical_formula_sum "Si O2"
_cell_formula_units_Z 48
_cell_length_a 19.110963
_cell_length_b 12.987386
_cell_length_c 11.536659
_cell_angle_alpha 90.000000
_cell_angle_beta 113.528687
_cell_angle_gamma 90.000000
_cell_volume 2625.352058
_symmetry_space_group_name_H-M "C 2/M"
_symmetry_group_IT_number 12
_symmetry_cell_setting 'monoclinic'
loop_
_space_group_symop_operation_xyz
x,y,z
-x,y,-z
-x,-y,-z
x,-y,z
1/2+x,1/2+y,z
1/2-x,1/2+y,-z
1/2-x,1/2-y,-z
1/2+x,1/2-y,z
loop_
_atom_site_type_symbol
_atom_site_label
_atom_site_fract_x
_atom_site_fract_y
_atom_site_fract_z
Si Si1 0.920920 0.288194 0.057475
Si Si2 0.831700 0.741512 0.615787
Si Si3 0.181887 0.619196 0.820990
Si Si4 0.424603 0.113587 0.823785
Si Si5 0.587710 0.118199 0.522536
Si Si6 0.854394 0.120716 0.851513
O O1 0.857704 0.306342 0.112645
O O2 0.006111 0.308429 0.162109
O O3 0.913657 0.375531 0.953615
O O4 0.909133 0.185348 0.973638
O O5 0.750000 0.750000 0.500000
O O6 0.845555 0.646142 0.712697
O O7 0.889209 0.706930 0.552025
O O8 0.849928 0.835152 0.716450
O O9 0.172496 0.500000 0.853343
O O10 0.138214 0.629713 0.670578
O O11 0.270408 0.636928 0.851669
O O12 0.448384 0.000000 0.805878
O O13 0.500000 0.124989 0.500000
O O14 0.601351 0.000000 0.487754
O O15 0.871900 0.000000 0.861532
#
# Coordination Sequence:
#
# PCOD9174248 Si02
#       6
#     8   8   8   8   8   8
#     4  10  19  34  55  82 114 146 190 243 298 347
#     4  11  21  36  57  83 118 156 194 233 283 351
#     4  10  18  31  53  81 115 150 187 239 298 350
#     4  10  20  34  56  85 113 142 185 243 301 342
#     4  10  20  34  58  90 119 148 188 242 300 348
#     4  10  22  37  55  79 112 158 201 237 281 345
#
# _framework density 18.283262000000001
#
# number of rings (size 3 to 8) (size 9 to 14) (size 15 to 20)
#    0.000    1.833    1.667    4.000    0.000    2.000 
#    0.000    6.667    0.000    2.500    0.000    0.000 
#    0.000    0.000    0.000    0.000    0.000    0.000 
#
# Total GULP energy -133667.467153 kJ/mol
# GULP energy per Si atom -5569.477798 kJ/mol
# Density = 1.824165 g / cm^3
# Si number density = 18.283262 Si / 1000 Ang^3
#
#
#
# Elastic Constant Matrix: (Units=GPa)
#
#
# Indices 1 2 3 4 5 6 
#
# 1 70.9575 51.0195 40.6667 0.0000 -2.6494 0.0000
# 2 51.0195 122.9031 54.0238 0.0000 2.0969 0.0000
# 3 40.6667 54.0238 99.1778 0.0000 8.3152 0.0000
# 4 0.0000 0.0000 0.0000 17.4395 0.0000 -4.7471
# 5 -2.6494 2.0969 8.3152 0.0000 35.7437 0.0000
# 6 0.0000 0.0000 0.0000 -4.7471 0.0000 26.6027
#
#
#
# Elastic Compliance Matrix: (Units=1/GPa)
#
#
# Indices 1 2 3 4 5 6 
#
# 1 0.022441 -0.006842 -0.005760 0.000000 0.003405 0.000000
# 2 -0.006842 0.012803 -0.004144 0.000000 -0.000294 0.000000
# 3 -0.005760 -0.004144 0.015010 0.000000 -0.003676 0.000000
# 4 0.000000 0.000000 0.000000 0.060269 0.000000 0.010755
# 5 0.003405 -0.000294 -0.003676 0.000000 0.029102 0.000000
# 6 0.000000 0.000000 0.000000 0.010755 0.000000 0.039509
#
#
# Mechanical properties :
#
#
# Convention : Reuss Voigt Hill
#
# Bulk Modulus (GPa) = 59.65799 64.93982 62.29891
# Shear Modulus (GPa) = 22.91340 25.77908 24.34624
#
# Velocity S-wave (km/s) = 3.54396 3.75905 3.65309
# Velocity P-wave (km/s) = 7.03185 7.37810 7.20706
#
# Compressibility (1/GPa) = 0.01676221
#
# Stress axis : x y z
#
# Youngs Moduli (GPa) = 44.56227 78.10545 66.62070
#
# Poissons Ratio (x) = 0.53437 0.38375
# Poissons Ratio (y) = 0.30488 0.27609
# Poissons Ratio (z) = 0.25669 0.32368
#
# Static dielectric constant tensor:
#      x y z
#    x 1.696010 0.000000 0.027710 
#    y 0.000000 1.643530 0.000000 
#    z 0.027710 0.000000 1.680270 
# 
# From -- ./inp_files/164286.got.cif
#   From: 2010.05.17/outbox.cif.g08.bks.cpg/sg12_83_cif.got.tgz:164286.got - 2010.06.03 13:09:07.
