data_PCOD9174955
_publ_section_title
;
Structure prediction by ZEFSAII (Michael W. Deem and Ramdas Pophale) SiO2 
 PCOD9174955
Probable space group: C 2/M
;
_chemical_formula_sum "Si O2"
_cell_formula_units_Z 52
_cell_length_a 15.208097
_cell_length_b 9.889256
_cell_length_c 17.842996
_cell_angle_alpha 90.000000
_cell_angle_beta 102.319003
_cell_angle_gamma 90.000000
_cell_volume 2621.740256
_symmetry_space_group_name_H-M "C 2/M"
_symmetry_group_IT_number 12
_symmetry_cell_setting 'monoclinic'
loop_
_space_group_symop_operation_xyz
x,y,z
-x,y,-z
-x,-y,-z
x,-y,z
1/2+x,1/2+y,z
1/2-x,1/2+y,-z
1/2-x,1/2-y,-z
1/2+x,1/2-y,z
loop_
_atom_site_type_symbol
_atom_site_label
_atom_site_fract_x
_atom_site_fract_y
_atom_site_fract_z
Si Si1 0.559499 0.258886 0.233614
Si Si2 0.093413 0.839213 0.705612
Si Si3 0.174080 0.155362 0.397178
Si Si4 0.717066 0.500000 0.937276
Si Si5 0.347867 0.658401 0.442861
Si Si6 0.190554 0.000000 0.101717
Si Si7 0.500658 0.500000 0.884115
Si Si8 0.722801 0.792982 0.174392
O O1 0.467346 0.230136 0.261219
O O2 0.618878 0.319746 0.312007
O O3 0.523933 0.368749 0.168507
O O4 0.629100 0.168565 0.198884
O O5 0.194477 0.824579 0.755312
O O6 0.067537 0.000000 0.712465
O O7 0.256865 0.873498 0.898334
O O8 0.258989 0.253129 0.415765
O O9 0.120790 0.178031 0.465815
O O10 0.204280 0.000000 0.403151
O O11 0.607986 0.500000 0.913235
O O12 0.737345 0.500000 0.029086
O O13 0.324593 0.500000 0.431198
O O14 0.410435 0.687701 0.383527
O O15 0.080978 0.000000 0.070063
O O16 0.215760 0.134495 0.152364
#
# Coordination Sequence:
#
# PCOD9174955 Si02
#       8
#     8   8   8   4   8   4   4   8
#     4  11  19  33  57  89 115 146 196 243 280 329
#     4  11  19  37  61  85 117 156 201 240 283 338
#     4  10  18  32  54  81 118 150 193 240 290 327
#     4  12  21  44  65  83 119 156 184 237 297 355
#     4   9  20  32  52  83 113 156 195 237 283 340
#     4  10  25  38  63  94 116 145 191 242 291 349
#     4  10  19  36  62  90 110 146 203 231 278 347
#     4  11  22  37  63  88 116 150 195 233 289 354
#
# _framework density 19.834152
#
# number of rings (size 3 to 8) (size 9 to 14) (size 15 to 20)
#    0.000    1.538    5.385    0.692    0.000    0.615 
#    0.000    3.077    0.000    0.923    0.000    4.308 
#    0.000    0.000    0.000    0.000    0.000    0.000 
#
# Total GULP energy -144781.096297 kJ/mol
# GULP energy per Si atom -5568.503704 kJ/mol
# Density = 1.978901 g / cm^3
# Si number density = 19.834152 Si / 1000 Ang^3
#
#
#
# Elastic Constant Matrix: (Units=GPa)
#
#
# Indices 1 2 3 4 5 6 
#
# 1 99.0500 12.2024 24.1061 0.0000 -15.7386 0.0000
# 2 12.2024 45.6184 11.8892 0.0000 -2.3288 0.0000
# 3 24.1061 11.8892 69.6239 0.0000 -25.5684 0.0000
# 4 0.0000 0.0000 0.0000 8.8242 0.0000 -8.6370
# 5 -15.7386 -2.3288 -25.5684 0.0000 37.3048 0.0000
# 6 0.0000 0.0000 0.0000 -8.6370 0.0000 15.2485
#
#
#
# Elastic Compliance Matrix: (Units=1/GPa)
#
#
# Indices 1 2 3 4 5 6 
#
# 1 0.011454 -0.002265 -0.002481 0.000000 0.002991 0.000000
# 2 -0.002265 0.023468 -0.004058 0.000000 -0.002271 0.000000
# 3 -0.002481 -0.004058 0.020630 0.000000 0.012840 0.000000
# 4 0.000000 0.000000 0.000000 0.254320 0.000000 0.144050
# 5 0.002991 -0.002271 0.012840 0.000000 0.036726 0.000000
# 6 0.000000 0.000000 0.000000 0.144050 0.000000 0.147172
#
#
# Mechanical properties :
#
#
# Convention : Reuss Voigt Hill
#
# Bulk Modulus (GPa) = 26.35310 34.52087 30.43698
# Shear Modulus (GPa) = 9.54153 23.34847 16.44500
#
# Velocity S-wave (km/s) = 2.19570 3.43474 2.88258
# Velocity P-wave (km/s) = 4.44339 5.75955 5.14374
#
# Compressibility (1/GPa) = 0.03794620
#
# Stress axis : x y z
#
# Youngs Moduli (GPa) = 87.30704 42.61071 48.47337
#
# Poissons Ratio (x) = 0.09649 0.12025
# Poissons Ratio (y) = 0.19771 0.19669
# Poissons Ratio (z) = 0.21658 0.17290
#
# Static dielectric constant tensor:
#      x y z
#    x 1.767480 0.000000 -0.054730 
#    y 0.000000 1.614830 0.000000 
#    z -0.054730 0.000000 1.716990 
# 
# From -- ./inp_files/276136.got.cif
#   From: 2010.05.17/outbox.cif.g08.bks.cpg/sg12_139_cif.got.tgz:276136.got - 2010.06.03 13:09:07.
