data_PCOD9174623
_publ_section_title
;
Structure prediction by ZEFSAII (Michael W. Deem and Ramdas Pophale) SiO2 
 PCOD9174623
Probable space group: C 2/M
;
_chemical_formula_sum "Si O2"
_cell_formula_units_Z 44
_cell_length_a 26.250315
_cell_length_b 9.590909
_cell_length_c 30.256215
_cell_angle_alpha 90.000000
_cell_angle_beta 160.617604
_cell_angle_gamma 90.000000
_cell_volume 2528.008914
_symmetry_space_group_name_H-M "C 2/M"
_symmetry_group_IT_number 12
_symmetry_cell_setting 'monoclinic'
loop_
_space_group_symop_operation_xyz
x,y,z
-x,y,-z
-x,-y,-z
x,-y,z
1/2+x,1/2+y,z
1/2-x,1/2+y,-z
1/2-x,1/2-y,-z
1/2+x,1/2-y,z
loop_
_atom_site_type_symbol
_atom_site_label
_atom_site_fract_x
_atom_site_fract_y
_atom_site_fract_z
Si Si1 0.020179 0.166175 0.606745
Si Si2 0.000000 0.763694 0.000000
Si Si3 0.156892 0.332324 0.960635
Si Si4 0.758031 0.663084 0.871950
Si Si5 0.730990 0.841685 0.716522
Si Si6 0.810164 0.336594 0.695639
O O1 0.837806 0.183420 0.456517
O O2 0.108210 0.215141 0.722999
O O3 0.096292 0.252564 0.629236
O O4 0.052538 0.000000 0.627044
O O5 0.099402 0.680627 0.044998
O O6 0.127867 0.843073 0.133106
O O7 0.182162 0.500000 0.977781
O O8 0.973936 0.308928 0.807659
O O9 0.250000 0.250000 0.000000
O O10 0.205710 0.280820 0.049793
O O11 0.733826 0.500000 0.858935
O O12 0.786310 0.760775 0.718433
O O13 0.685081 0.000000 0.669446
O O14 0.811048 0.500000 0.710646
#
# Coordination Sequence:
#
# PCOD9174623 Si02
#       6
#     8   4   8   8   8   8
#     4   9  19  34  54  78 106 141 176 217 263 314
#     4  10  18  32  50  78 111 144 175 214 269 314
#     4  10  21  38  57  79 104 138 182 226 265 310
#     4   9  17  32  56  81 105 136 180 222 260 312
#     4  11  21  31  48  78 115 146 174 212 265 322
#     4  10  20  36  55  76 104 139 182 221 261 313
#
# _framework density 17.405002
#
# number of rings (size 3 to 8) (size 9 to 14) (size 15 to 20)
#    0.000    2.182    1.818    1.636    0.000    5.091 
#    0.000    1.818    0.000    0.000    0.000    0.000 
#    0.000    0.000    0.000    0.000    0.000    0.000 
#
# Total GULP energy -122604.329551 kJ/mol
# GULP energy per Si atom -5572.924071 kJ/mol
# Density = 1.736539 g / cm^3
# Si number density = 17.405002 Si / 1000 Ang^3
#
#
#
# Elastic Constant Matrix: (Units=GPa)
#
#
# Indices 1 2 3 4 5 6 
#
# 1 115.4706 30.6882 71.7520 0.0035 8.5333 0.0000
# 2 30.6882 43.2055 50.9304 0.0035 8.6442 -0.0008
# 3 71.7520 50.9304 140.2963 0.0005 6.2043 -0.0006
# 4 0.0035 0.0035 0.0005 13.2407 -0.0026 8.0853
# 5 8.5333 8.6442 6.2043 -0.0026 18.9362 -0.0004
# 6 0.0000 -0.0008 -0.0006 8.0853 -0.0004 10.0595
#
#
#
# Elastic Compliance Matrix: (Units=1/GPa)
#
#
# Indices 1 2 3 4 5 6 
#
# 1 0.013006 -0.001619 -0.005923 -0.000006 -0.003181 0.000004
# 2 -0.001619 0.044592 -0.014705 -0.000030 -0.014808 0.000026
# 3 -0.005923 -0.014705 0.015302 0.000012 0.004368 -0.000010
# 4 -0.000006 -0.000030 0.000012 0.148320 0.000031 -0.119212
# 5 -0.003181 -0.014808 0.004368 0.000031 0.059571 -0.000024
# 6 0.000004 0.000026 -0.000010 -0.119212 -0.000024 0.195224
#
#
# Mechanical properties :
#
#
# Convention : Reuss Voigt Hill
#
# Bulk Modulus (GPa) = 35.20432 67.30151 51.25291
# Shear Modulus (GPa) = 9.43434 18.15407 13.79421
#
# Velocity S-wave (km/s) = 2.33072 3.23311 2.81827
# Velocity P-wave (km/s) = 5.24533 7.25873 6.33256
#
# Compressibility (1/GPa) = 0.02840560
#
# Stress axis : x y z
#
# Youngs Moduli (GPa) = 76.88555 22.42549 65.35056
#
# Poissons Ratio (x) = 0.03632 0.38709
# Poissons Ratio (y) = 0.12451 0.96096
# Poissons Ratio (z) = 0.45542 0.32976
#
# Static dielectric constant tensor:
#      x y z
#    x 1.568190 0.000000 -0.040140 
#    y 0.000000 1.588470 0.000000 
#    z -0.040140 0.000000 1.637030 
# 
# From -- ./inp_files/382579.got.cif
#   From: 2010.05.17/outbox.cif.g08.bks.cpg/sg12_192_cif.got.tgz:382579.got - 2010.06.03 13:09:07.
