data_PCOD9174442
_publ_section_title
;
Structure prediction by ZEFSAII (Michael W. Deem and Ramdas Pophale) SiO2 
 PCOD9174442
Probable space group: C 2/M
;
_chemical_formula_sum "Si O2"
_cell_formula_units_Z 40
_cell_length_a 8.900804
_cell_length_b 24.379686
_cell_length_c 9.878367
_cell_angle_alpha 90.000000
_cell_angle_beta 52.265452
_cell_angle_gamma 90.000000
_cell_volume 1695.271171
_symmetry_space_group_name_H-M "C 2/M"
_symmetry_group_IT_number 12
_symmetry_cell_setting 'monoclinic'
loop_
_space_group_symop_operation_xyz
x,y,z
-x,y,-z
-x,-y,-z
x,-y,z
1/2+x,1/2+y,z
1/2-x,1/2+y,-z
1/2-x,1/2-y,-z
1/2+x,1/2-y,z
loop_
_atom_site_type_symbol
_atom_site_label
_atom_site_fract_x
_atom_site_fract_y
_atom_site_fract_z
Si Si1 0.727732 0.381482 0.357511
Si Si2 0.208743 0.000000 0.328226
Si Si3 0.087884 0.800466 0.806833
Si Si4 0.270177 0.378576 0.959466
Si Si5 0.526301 0.197366 0.289048
Si Si6 0.171316 0.000000 0.018261
O O1 0.500000 0.378104 0.500000
O O2 0.796376 0.444267 0.336675
O O3 0.775072 0.373073 0.173394
O O4 0.836373 0.338809 0.391336
O O5 0.169223 0.000000 0.187581
O O6 0.000000 0.000000 0.500000
O O7 0.315214 0.800778 0.682522
O O8 0.991585 0.860057 0.845842
O O9 0.017299 0.758772 0.732679
O O10 0.000000 0.779577 0.000000
O O11 0.242011 0.438583 0.040204
O O12 0.149862 0.334123 0.105893
O O13 0.000000 0.000000 0.000000
#
# Coordination Sequence:
#
# PCOD9174442 Si02
#       6
#     8   4   8   8   8   4
#     4  10  20  36  55  78 107 143 181 221 267 326
#     4   8  18  35  55  77 112 154 184 215 277 345
#     4  10  19  33  54  79 106 141 177 217 272 335
#     4  10  20  35  55  80 110 141 177 223 276 326
#     4  11  20  34  56  80 105 139 182 225 271 324
#     4  10  18  31  55  87 114 138 180 239 281 315
#
# _framework density 23.595044000000001
#
# number of rings (size 3 to 8) (size 9 to 14) (size 15 to 20)
#    0.000    2.000    0.000    7.200    0.000    0.800 
#    0.000    9.000    0.000    0.000    0.000   12.600 
#    0.000    0.000    0.000    0.000    0.000    0.000 
#
# Total GULP energy -111561.798822 kJ/mol
# GULP energy per Si atom -5578.089941 kJ/mol
# Density = 2.354134 g / cm^3
# Si number density = 23.595044 Si / 1000 Ang^3
#
#
#
# Elastic Constant Matrix: (Units=GPa)
#
#
# Indices 1 2 3 4 5 6 
#
# 1 120.0219 50.1682 29.8501 0.0000 -24.6513 0.0000
# 2 50.1682 128.3047 25.5138 0.0000 -11.6058 0.0000
# 3 29.8501 25.5138 45.6750 0.0000 -17.0830 0.0000
# 4 0.0000 0.0000 0.0000 24.7623 0.0000 -9.0460
# 5 -24.6513 -11.6058 -17.0830 0.0000 46.6477 0.0000
# 6 0.0000 0.0000 0.0000 -9.0460 0.0000 118.0381
#
#
#
# Elastic Compliance Matrix: (Units=1/GPa)
#
#
# Indices 1 2 3 4 5 6 
#
# 1 0.011554 -0.003326 -0.004309 0.000000 0.003700 0.000000
# 2 -0.003326 0.009734 -0.003494 0.000000 -0.000615 0.000000
# 3 -0.004309 -0.003494 0.029529 0.000000 0.007668 0.000000
# 4 0.000000 0.000000 0.000000 0.041547 0.000000 0.003184
# 5 0.003700 -0.000615 0.007668 0.000000 0.026048 0.000000
# 6 0.000000 0.000000 0.000000 0.003184 0.000000 0.008716
#
#
# Mechanical properties :
#
#
# Convention : Reuss Voigt Hill
#
# Bulk Modulus (GPa) = 35.01494 56.11844 45.56669
# Shear Modulus (GPa) = 31.46562 50.45426 40.95994
#
# Velocity S-wave (km/s) = 3.65577 4.62924 4.17100
# Velocity P-wave (km/s) = 5.71766 7.23939 6.52305
#
# Compressibility (1/GPa) = 0.02855924
#
# Stress axis : x y z
#
# Youngs Moduli (GPa) = 86.55238 102.73796 33.86492
#
# Poissons Ratio (x) = 0.34171 0.14592
# Poissons Ratio (y) = 0.28788 0.11831
# Poissons Ratio (z) = 0.37295 0.35892
#
# Static dielectric constant tensor:
#      x y z
#    x 1.874810 0.000000 -0.003450 
#    y 0.000000 1.903160 0.000000 
#    z -0.003450 0.000000 1.937470 
# 
# From -- ./inp_files/40469.got.cif
#   From: 2010.05.17/outbox.cif.g08.bks.cpg/sg12_21_cif.got.tgz:40469.got - 2010.06.03 13:09:07.
