data_PCOD9174397
_publ_section_title
;
Structure prediction by ZEFSAII (Michael W. Deem and Ramdas Pophale) SiO2 
 PCOD9174397
Probable space group: C 2/M
;
_chemical_formula_sum "Si O2"
_cell_formula_units_Z 64
_cell_length_a 32.080881
_cell_length_b 21.111141
_cell_length_c 15.745695
_cell_angle_alpha 90.000000
_cell_angle_beta 17.835257
_cell_angle_gamma 90.000000
_cell_volume 3266.179759
_symmetry_space_group_name_H-M "C 2/M"
_symmetry_group_IT_number 12
_symmetry_cell_setting 'monoclinic'
loop_
_space_group_symop_operation_xyz
x,y,z
-x,y,-z
-x,-y,-z
x,-y,z
1/2+x,1/2+y,z
1/2-x,1/2+y,-z
1/2-x,1/2-y,-z
1/2+x,1/2-y,z
loop_
_atom_site_type_symbol
_atom_site_label
_atom_site_fract_x
_atom_site_fract_y
_atom_site_fract_z
Si Si1 0.759884 0.932046 0.973037
Si Si2 0.566879 0.823908 0.080686
Si Si3 0.291191 0.763171 0.560542
Si Si4 0.653202 0.654262 0.684358
Si Si5 0.995795 0.069248 0.371017
Si Si6 0.353256 0.181561 0.893885
Si Si7 0.880663 0.571482 0.161973
Si Si8 0.044101 0.801663 0.508031
O O1 0.867330 0.932877 0.685488
O O2 0.859255 0.930481 0.861510
O O3 0.687499 0.000000 0.113278
O O4 0.665563 0.871196 0.142201
O O5 0.678604 0.771168 0.836741
O O6 0.577840 0.879580 0.991228
O O7 0.418084 0.792434 0.364619
O O8 0.605283 0.850437 0.098051
O O9 0.346327 0.710548 0.386815
O O10 0.221124 0.816169 0.637082
O O11 0.745909 0.598720 0.467676
O O12 0.500000 0.634802 0.000000
O O13 0.982778 0.143376 0.369048
O O14 0.989532 0.000000 0.337054
O O15 0.458312 0.238325 0.681512
O O16 0.203489 0.211445 0.194569
O O17 0.861829 0.500000 0.167366
O O18 0.000000 0.572155 0.000000
O O19 0.000000 0.827107 0.500000
#
# Coordination Sequence:
#
# PCOD9174397 Si02
#       8
#     8   8   8   8   8   8   8   8
#     4   8  14  27  47  71  94 125 172 212 250 308
#     4  11  21  35  52  76 114 140 178 220 274 322
#     4  10  19  31  51  79 104 136 173 220 262 315
#     4  10  18  31  55  81 102 133 176 222 264 309
#     4   8  13  26  50  74  95 123 168 221 258 295
#     4  11  22  33  51  80 108 144 172 222 281 324
#     4  10  21  36  55  80 109 144 185 223 261 314
#     4  11  20  34  54  79 109 137 180 226 273 324
#
# _framework density 19.594757999999999
#
# number of rings (size 3 to 8) (size 9 to 14) (size 15 to 20)
#    0.000    2.125    5.000    1.875    0.000    0.750 
#    0.000    0.000    0.000    1.125    0.000    0.875 
#    0.000    0.000    0.000    0.000    0.000    0.000 
#
# Total GULP energy -178310.254448 kJ/mol
# GULP energy per Si atom -5572.195451 kJ/mol
# Density = 1.955016 g / cm^3
# Si number density = 19.594758 Si / 1000 Ang^3
#
#
#
# Elastic Constant Matrix: (Units=GPa)
#
#
# Indices 1 2 3 4 5 6 
#
# 1 21.7041 -13.5765 8.8300 -0.0002 -10.1726 0.0002
# 2 -13.5765 114.3582 41.6776 0.0002 -3.4181 0.0004
# 3 8.8300 41.6776 77.5158 0.0007 -28.5514 0.0002
# 4 -0.0002 0.0002 0.0007 11.9813 0.0001 -5.1285
# 5 -10.1726 -3.4181 -28.5514 0.0001 17.8793 -0.0004
# 6 0.0002 0.0004 0.0002 -5.1285 -0.0004 4.1546
#
#
#
# Elastic Compliance Matrix: (Units=1/GPa)
#
#
# Indices 1 2 3 4 5 6 
#
# 1 0.074084 0.007253 0.008979 0.000000 0.057875 0.000000
# 2 0.007253 0.014482 -0.014747 0.000000 -0.016654 -0.000003
# 3 0.008979 -0.014747 0.050144 -0.000002 0.082364 0.000004
# 4 0.000000 0.000000 -0.000002 0.176975 0.000001 0.218464
# 5 0.057875 -0.016654 0.082364 0.000001 0.217203 0.000015
# 6 0.000000 -0.000003 0.000004 0.218464 0.000015 0.510379
#
#
# Mechanical properties :
#
#
# Convention : Reuss Voigt Hill
#
# Bulk Modulus (GPa) = 7.05819 31.93780 19.49800
# Shear Modulus (GPa) = 4.59759 18.57949 11.58854
#
# Velocity S-wave (km/s) = 1.53344 3.08261 2.43453
# Velocity P-wave (km/s) = 2.59714 5.38558 4.22786
#
# Compressibility (1/GPa) = 0.14167933
#
# Stress axis : x y z
#
# Youngs Moduli (GPa) = 13.49814 69.04983 19.94250
#
# Poissons Ratio (x) = -0.50081 -0.17906
# Poissons Ratio (y) = -0.09790 0.29410
# Poissons Ratio (z) = -0.12119 1.01829
#
# Static dielectric constant tensor:
#      x y z
#    x 1.738810 0.000000 0.023060 
#    y 0.000000 1.758050 0.000000 
#    z 0.023060 0.000000 1.678310 
# 
# From -- ./inp_files/251894.got.cif
#   From: 2010.05.17/outbox.cif.g08.bks.cpg/sg12_126_cif.got.tgz:251894.got - 2010.06.03 13:09:07.
