data_PCOD9174487
_publ_section_title
;
Structure prediction by ZEFSAII (Michael W. Deem and Ramdas Pophale) SiO2 
 PCOD9174487
Probable space group: C 2/M
;
_chemical_formula_sum "Si O2"
_cell_formula_units_Z 40
_cell_length_a 28.079322
_cell_length_b 10.059945
_cell_length_c 24.145184
_cell_angle_alpha 90.000000
_cell_angle_beta 164.245046
_cell_angle_gamma 90.000000
_cell_volume 1851.912367
_symmetry_space_group_name_H-M "C 2/M"
_symmetry_group_IT_number 12
_symmetry_cell_setting 'monoclinic'
loop_
_space_group_symop_operation_xyz
x,y,z
-x,y,-z
-x,-y,-z
x,-y,z
1/2+x,1/2+y,z
1/2-x,1/2+y,-z
1/2-x,1/2-y,-z
1/2+x,1/2-y,z
loop_
_atom_site_type_symbol
_atom_site_label
_atom_site_fract_x
_atom_site_fract_y
_atom_site_fract_z
Si Si1 0.147874 0.000000 0.104654
Si Si2 0.025039 0.500000 0.756496
Si Si3 0.101491 0.000000 0.260965
Si Si4 0.980509 0.500000 0.880061
Si Si5 0.598575 0.000000 0.720197
Si Si6 0.622433 0.794596 0.584772
Si Si7 0.764775 0.000000 0.287283
Si Si8 0.062511 0.279442 0.261389
O O1 0.265327 0.000000 0.178839
O O2 0.200473 0.129920 0.198667
O O3 0.951767 0.000000 0.862777
O O4 0.812918 0.500000 0.505483
O O5 0.048927 0.367633 0.820379
O O6 0.144332 0.500000 0.835857
O O7 0.014737 0.868387 0.189993
O O8 0.866534 0.500000 0.807776
O O9 0.937302 0.372547 0.793251
O O10 0.174046 0.500000 0.124560
O O11 0.473118 0.128773 0.571451
O O12 0.500000 0.821717 0.500000
O O13 0.635807 0.638118 0.594144
O O14 0.250000 0.250000 0.500000
#
# Coordination Sequence:
#
# PCOD9174487 Si02
#       8
#     4   4   4   4   4   8   4   8
#     4   9  18  36  55  74 106 140 174 217 269 314
#     4   9  19  34  53  75 102 142 176 221 266 312
#     4  10  18  31  57  77  96 139 178 217 259 319
#     4  10  22  35  47  83 116 140 162 229 280 304
#     4   9  19  36  54  76 104 140 181 219 255 319
#     4   9  19  35  53  74 104 143 176 209 263 325
#     4  11  21  32  54  80 115 133 175 223 270 319
#     4   9  19  35  53  74 107 142 180 213 269 319
#
# _framework density 21.599294
#
# number of rings (size 3 to 8) (size 9 to 14) (size 15 to 20)
#    0.000    2.600    0.000    3.300    5.600    0.000 
#    0.000    2.000    0.000    0.000    0.000    0.000 
#    0.000    0.000    0.000    0.000    0.000    0.000 
#
# Total GULP energy -111443.537972 kJ/mol
# GULP energy per Si atom -5572.176899 kJ/mol
# Density = 2.155013 g / cm^3
# Si number density = 21.599294 Si / 1000 Ang^3
#
#
#
# Elastic Constant Matrix: (Units=GPa)
#
#
# Indices 1 2 3 4 5 6 
#
# 1 111.4256 29.2039 8.2531 -0.0197 -17.1832 -0.0051
# 2 29.2039 182.2074 28.7215 -0.0122 -17.9172 -0.0036
# 3 8.2531 28.7215 41.0817 -0.0189 -11.8784 -0.0052
# 4 -0.0197 -0.0122 -0.0189 46.7731 -0.0165 -13.7906
# 5 -17.1832 -17.9172 -11.8784 -0.0165 22.5877 -0.0042
# 6 -0.0051 -0.0036 -0.0052 -13.7906 -0.0042 -1.1738
#
#
#
# Elastic Compliance Matrix: (Units=1/GPa)
#
#
# Indices 1 2 3 4 5 6 
#
# 1 0.010340 -0.001052 0.000815 -0.000003 0.007460 -0.000035
# 2 -0.001052 0.006464 -0.003605 0.000000 0.002431 -0.000004
# 3 0.000815 -0.003605 0.030722 -0.000008 0.013917 -0.000084
# 4 -0.000003 0.000000 -0.000008 0.004789 -0.000014 -0.056269
# 5 0.007460 0.002431 0.013917 -0.000014 0.059194 -0.000150
# 6 -0.000035 -0.000004 -0.000084 -0.056269 -0.000150 -0.190846
#
#
# Mechanical properties :
#
#
# Convention : Reuss Voigt Hill
#
# Bulk Modulus (GPa) = 25.09829 51.89689 38.49759
# Shear Modulus (GPa) = -85.66012 31.53982 -27.06015
#
# Velocity S-wave (km/s) = -6.30435 3.82543 -3.54337
# Velocity P-wave (km/s) = 6.43024 6.60236 1.05907
#
# Compressibility (1/GPa) = 0.03984335
#
# Stress axis : x y z
#
# Youngs Moduli (GPa) = 96.70725 154.69714 32.54974
#
# Poissons Ratio (x) = 0.16279 -0.02654
# Poissons Ratio (y) = 0.10176 0.11734
# Poissons Ratio (z) = -0.07886 0.55768
#
# Static dielectric constant tensor:
#      x y z
#    x 1.805410 0.000000 0.014400 
#    y 0.000000 1.764060 0.000000 
#    z 0.014400 0.000000 1.848320 
# 
# From -- ./inp_files/345839.got.cif
#   From: 2010.05.17/outbox.cif.g08.bks.cpg/sg12_173_cif.got.tgz:345839.got - 2010.06.03 13:09:07.
