data_PCOD9174158
_publ_section_title
;
Structure prediction by ZEFSAII (Michael W. Deem and Ramdas Pophale) SiO2 
 PCOD9174158
Probable space group: C 2/M
;
_chemical_formula_sum "Si O2"
_cell_formula_units_Z 64
_cell_length_a 20.347095
_cell_length_b 7.420429
_cell_length_c 20.751363
_cell_angle_alpha 90.000000
_cell_angle_beta 116.792808
_cell_angle_gamma 90.000000
_cell_volume 2796.762383
_symmetry_space_group_name_H-M "C 2/M"
_symmetry_group_IT_number 12
_symmetry_cell_setting 'monoclinic'
loop_
_space_group_symop_operation_xyz
x,y,z
-x,y,-z
-x,-y,-z
x,-y,z
1/2+x,1/2+y,z
1/2-x,1/2+y,-z
1/2-x,1/2-y,-z
1/2+x,1/2-y,z
loop_
_atom_site_type_symbol
_atom_site_label
_atom_site_fract_x
_atom_site_fract_y
_atom_site_fract_z
Si Si1 0.906566 0.793985 0.721493
Si Si2 0.321885 0.277673 0.805999
Si Si3 0.330937 0.293998 0.952436
Si Si4 0.559677 0.717649 0.739573
Si Si5 0.330167 0.206693 0.322872
Si Si6 0.917685 0.720752 0.482600
Si Si7 0.829262 0.286942 0.565067
Si Si8 0.338221 0.281176 0.095132
O O1 0.878668 0.717466 0.776309
O O2 0.841099 0.792984 0.640774
O O3 0.977328 0.715814 0.716622
O O4 0.927294 0.000000 0.745395
O O5 0.320601 0.500000 0.807913
O O6 0.341900 0.214107 0.886493
O O7 0.240694 0.217879 0.746074
O O8 0.357558 0.500000 0.961233
O O9 0.242494 0.291220 0.923465
O O10 0.360192 0.217595 0.033084
O O11 0.560237 0.500000 0.732632
O O12 0.600830 0.790022 0.695220
O O13 0.606550 0.765881 0.823658
O O14 0.359241 0.284626 0.402907
O O15 0.310317 0.000000 0.328242
O O16 0.917179 0.500000 0.481632
O O17 0.890267 0.778724 0.540745
O O18 0.000000 0.777042 0.500000
O O19 0.837657 0.500000 0.575915
O O20 0.750000 0.250000 0.500000
O O21 0.332593 0.500000 0.090454
#
# Coordination Sequence:
#
# PCOD9174158 Si02
#       8
#     8   8   8   8   8   8   8   8
#     4  10  21  37  54  73 105 141 171 207 255 309
#     4   9  17  31  51  74  97 132 178 216 248 294
#     4   9  16  29  50  74  98 131 175 214 248 296
#     4  10  20  33  49  75 109 139 163 204 267 314
#     4  10  18  31  53  74  94 126 172 215 248 296
#     4   9  18  32  51  75 100 128 166 211 252 294
#     4  11  22  38  59  80 103 134 173 214 257 306
#     4   9  17  29  47  74 106 133 163 209 262 306
#
# _framework density 22.883604999999999
#
# number of rings (size 3 to 8) (size 9 to 14) (size 15 to 20)
#    0.000    2.375    1.250    1.875    0.000    3.500 
#    0.000    4.375    0.000    7.125    0.000    0.000 
#    0.000    6.000    0.000    0.000    0.000    0.000 
#
# Total GULP energy -178729.286043 kJ/mol
# GULP energy per Si atom -5585.290189 kJ/mol
# Density = 2.283152 g / cm^3
# Si number density = 22.883605 Si / 1000 Ang^3
#
#
#
# Elastic Constant Matrix: (Units=GPa)
#
#
# Indices 1 2 3 4 5 6 
#
# 1 68.5163 -3.9512 -5.8038 0.0000 -26.0551 0.0000
# 2 -3.9512 77.7166 -3.5028 0.0000 -3.5089 0.0000
# 3 -5.8038 -3.5028 90.7691 0.0000 -36.4061 0.0000
# 4 0.0000 0.0000 0.0000 0.4740 0.0000 -0.5983
# 5 -26.0551 -3.5089 -36.4061 0.0000 41.9400 0.0000
# 6 0.0000 0.0000 0.0000 -0.5983 0.0000 12.0510
#
#
#
# Elastic Compliance Matrix: (Units=1/GPa)
#
#
# Indices 1 2 3 4 5 6 
#
# 1 0.026627 0.003221 0.013147 0.000000 0.028224 0.000000
# 2 0.003221 0.013428 0.003033 0.000000 0.005757 0.000000
# 3 0.013147 0.003033 0.023552 0.000000 0.028866 0.000000
# 4 0.000000 0.000000 0.000000 2.250759 0.000000 0.111746
# 5 0.028224 0.005757 0.028866 0.000000 0.066916 0.000000
# 6 0.000000 0.000000 0.000000 0.111746 0.000000 0.088528
#
#
# Mechanical properties :
#
#
# Convention : Reuss Voigt Hill
#
# Bulk Modulus (GPa) = 9.76478 23.38737 16.57607
# Shear Modulus (GPa) = 2.02828 27.57699 14.80264
#
# Velocity S-wave (km/s) = 0.94248 3.47522 2.54612
# Velocity P-wave (km/s) = 2.33683 5.13276 3.98785
#
# Compressibility (1/GPa) = 0.10240884
#
# Stress axis : x y z
#
# Youngs Moduli (GPa) = 37.55551 74.47319 42.45866
#
# Poissons Ratio (x) = -0.23985 -0.55820
# Poissons Ratio (y) = -0.12095 -0.12879
# Poissons Ratio (z) = -0.49374 -0.22589
#
# Static dielectric constant tensor:
#      x y z
#    x 1.828960 0.000000 -0.008020 
#    y 0.000000 1.842080 0.000000 
#    z -0.008020 0.000000 1.844190 
# 
# From -- ./inp_files/320033.got.cif
#   From: 2010.05.17/outbox.cif.g08.bks.cpg/sg12_161_cif.got.tgz:320033.got - 2010.06.03 13:09:07.
