data_PCOD9174483
_publ_section_title
;
Structure prediction by ZEFSAII (Michael W. Deem and Ramdas Pophale) SiO2 
 PCOD9174483
Probable space group: C 2/M
;
_chemical_formula_sum "Si O2"
_cell_formula_units_Z 56
_cell_length_a 10.017545
_cell_length_b 17.392154
_cell_length_c 15.976400
_cell_angle_alpha 90.000000
_cell_angle_beta 92.138612
_cell_angle_gamma 90.000000
_cell_volume 2781.576421
_symmetry_space_group_name_H-M "C 2/M"
_symmetry_group_IT_number 12
_symmetry_cell_setting 'monoclinic'
loop_
_space_group_symop_operation_xyz
x,y,z
-x,y,-z
-x,-y,-z
x,-y,z
1/2+x,1/2+y,z
1/2-x,1/2+y,-z
1/2-x,1/2-y,-z
1/2+x,1/2-y,z
loop_
_atom_site_type_symbol
_atom_site_label
_atom_site_fract_x
_atom_site_fract_y
_atom_site_fract_z
Si Si1 0.353374 0.909116 0.455796
Si Si2 0.992837 0.909405 0.734657
Si Si3 0.929554 0.409793 0.773765
Si Si4 0.976651 0.836991 0.089392
Si Si5 0.725405 0.407426 0.621187
Si Si6 0.218098 0.725383 0.144892
Si Si7 0.301825 0.841085 0.281027
O O1 0.500000 0.909443 0.500000
O O2 0.252791 0.883329 0.527032
O O3 0.346033 0.851412 0.377899
O O4 0.327271 0.000000 0.430207
O O5 0.844478 0.877998 0.723224
O O6 0.040874 0.889923 0.829500
O O7 0.094552 0.878406 0.666606
O O8 0.989583 0.000000 0.724640
O O9 0.915068 0.500000 0.791805
O O10 0.853125 0.393926 0.684019
O O11 0.856504 0.354316 0.837270
O O12 0.083950 0.386668 0.767366
O O13 0.841717 0.786748 0.085990
O O14 0.105224 0.784094 0.111305
O O15 0.000000 0.875122 0.000000
O O16 0.714733 0.500000 0.615708
O O17 0.281300 0.760854 0.232151
#
# Coordination Sequence:
#
# PCOD9174483 Si02
#       7
#     8   8   8   8   8   8   8
#     4  10  18  31  56  90 122 161 215 255 292 356
#     4  10  21  37  59  90 122 154 199 253 311 365
#     4  11  20  37  65  88 117 166 213 246 293 369
#     4  11  23  40  64  88 117 159 201 252 311 380
#     4   9  18  32  56  86 120 161 202 247 297 356
#     4  11  23  41  62  91 123 157 203 253 314 372
#     4  11  22  37  61  89 123 164 204 257 302 358
#
# _framework density 20.132467999999999
#
# number of rings (size 3 to 8) (size 9 to 14) (size 15 to 20)
#    0.000    1.571    4.286    1.714    0.000    0.857 
#    0.000    2.857    0.000    0.429    0.000    0.000 
#    0.000    0.000    0.000    0.000    0.000    0.000 
#
# Total GULP energy -156200.747192 kJ/mol
# GULP energy per Si atom -5578.598114 kJ/mol
# Density = 2.008665 g / cm^3
# Si number density = 20.132468 Si / 1000 Ang^3
#
#
#
# Elastic Constant Matrix: (Units=GPa)
#
#
# Indices 1 2 3 4 5 6 
#
# 1 106.1392 7.3089 23.3363 0.0000 -14.5257 0.0000
# 2 7.3089 37.9325 7.3392 0.0000 -3.3723 0.0000
# 3 23.3363 7.3392 83.3958 0.0000 -22.9578 0.0000
# 4 0.0000 0.0000 0.0000 17.2896 0.0000 -3.3968
# 5 -14.5257 -3.3723 -22.9578 0.0000 23.0166 0.0000
# 6 0.0000 0.0000 0.0000 -3.3968 0.0000 17.3886
#
#
#
# Elastic Compliance Matrix: (Units=1/GPa)
#
#
# Indices 1 2 3 4 5 6 
#
# 1 0.010514 -0.001301 -0.001452 0.000000 0.004996 0.000000
# 2 -0.001301 0.027059 -0.001588 0.000000 0.001560 0.000000
# 3 -0.001452 -0.001588 0.016847 0.000000 0.015654 0.000000
# 4 0.000000 0.000000 0.000000 0.060147 0.000000 0.011750
# 5 0.004996 0.001560 0.015654 0.000000 0.062443 0.000000
# 6 0.000000 0.000000 0.000000 0.011750 0.000000 0.059804
#
#
# Mechanical properties :
#
#
# Convention : Reuss Voigt Hill
#
# Bulk Modulus (GPa) = 21.86359 33.71515 27.78937
# Shear Modulus (GPa) = 19.17605 24.17116 21.67360
#
# Velocity S-wave (km/s) = 3.08960 3.46873 3.28464
# Velocity P-wave (km/s) = 4.85911 5.72938 5.31210
#
# Compressibility (1/GPa) = 0.04573815
#
# Stress axis : x y z
#
# Youngs Moduli (GPa) = 95.10905 36.95610 59.35909
#
# Poissons Ratio (x) = 0.04807 0.08620
# Poissons Ratio (y) = 0.12371 0.09426
# Poissons Ratio (z) = 0.13812 0.05869
#
# Static dielectric constant tensor:
#      x y z
#    x 1.743770 0.000000 -0.004710 
#    y 0.000000 1.710900 0.000000 
#    z -0.004710 0.000000 1.741130 
# 
# From -- ./inp_files/197506.got.cif
#   From: 2010.05.17/outbox.cif.g08.bks.cpg/sg12_99_cif.got.tgz:197506.got - 2010.06.03 13:09:07.
