data_PCOD9174494
_publ_section_title
;
Structure prediction by ZEFSAII (Michael W. Deem and Ramdas Pophale) SiO2 
 PCOD9174494
Probable space group: C 2/M
;
_chemical_formula_sum "Si O2"
_cell_formula_units_Z 64
_cell_length_a 9.093938
_cell_length_b 21.278083
_cell_length_c 22.572635
_cell_angle_alpha 90.000000
_cell_angle_beta 51.544282
_cell_angle_gamma 90.000000
_cell_volume 3420.407850
_symmetry_space_group_name_H-M "C 2/M"
_symmetry_group_IT_number 12
_symmetry_cell_setting 'monoclinic'
loop_
_space_group_symop_operation_xyz
x,y,z
-x,y,-z
-x,-y,-z
x,-y,z
1/2+x,1/2+y,z
1/2-x,1/2+y,-z
1/2-x,1/2-y,-z
1/2+x,1/2-y,z
loop_
_atom_site_type_symbol
_atom_site_label
_atom_site_fract_x
_atom_site_fract_y
_atom_site_fract_z
Si Si1 0.581939 0.733627 0.616502
Si Si2 0.777985 0.817640 0.307944
Si Si3 0.539971 0.926749 0.419958
Si Si4 0.804767 0.304228 0.085898
Si Si5 0.300246 0.570785 0.083213
Si Si6 0.105388 0.186115 0.857393
Si Si7 0.312886 0.650686 0.517786
Si Si8 0.051018 0.569844 0.917192
O O1 0.396293 0.769442 0.643058
O O2 0.566156 0.709463 0.687091
O O3 0.640329 0.676357 0.559481
O O4 0.742806 0.786525 0.568931
O O5 0.704527 0.883449 0.352649
O O6 0.835202 0.819063 0.225732
O O7 0.500000 0.917512 0.500000
O O8 0.350407 0.899943 0.438616
O O9 0.571819 0.000000 0.401195
O O10 0.808658 0.245388 0.129200
O O11 0.622234 0.306511 0.089215
O O12 0.814362 0.370027 0.119603
O O13 0.000000 0.299679 0.000000
O O14 0.272645 0.500000 0.114577
O O15 0.320954 0.624653 0.126721
O O16 0.132851 0.581377 0.077494
O O17 0.500000 0.571293 0.000000
O O18 0.500000 0.625777 0.500000
O O19 0.125179 0.500000 0.882997
O O20 0.000000 0.566861 0.000000
#
# Coordination Sequence:
#
# PCOD9174494 Si02
#       8
#     8   8   8   8   8   8   8   8
#     4  10  19  32  53  84 114 143 188 235 290 330
#     4  11  22  37  56  83 119 152 189 243 291 350
#     4  10  21  37  58  84 116 155 194 232 280 342
#     4  11  22  38  59  84 119 155 198 249 297 359
#     4  10  20  36  59  85 112 145 196 247 290 354
#     4  12  24  37  57  87 118 159 196 245 309 360
#     4  10  18  31  57  86 110 143 188 241 277 330
#     4   9  18  34  58  86 113 143 184 239 294 342
#
# _framework density 18.711220000000001
#
# number of rings (size 3 to 8) (size 9 to 14) (size 15 to 20)
#    0.000    1.625    2.500    3.750    0.000    2.250 
#    0.000    0.000    0.000    0.000    0.000    0.000 
#    0.000    0.000    0.000    0.000    0.000    0.000 
#
# Total GULP energy -178478.486310 kJ/mol
# GULP energy per Si atom -5577.452697 kJ/mol
# Density = 1.866863 g / cm^3
# Si number density = 18.711220 Si / 1000 Ang^3
#
#
#
# Elastic Constant Matrix: (Units=GPa)
#
#
# Indices 1 2 3 4 5 6 
#
# 1 99.5661 48.1552 3.1231 0.0000 11.1362 0.0000
# 2 48.1552 126.0310 22.4891 0.0000 20.4801 0.0000
# 3 3.1231 22.4891 54.9476 0.0000 19.2409 0.0000
# 4 0.0000 0.0000 0.0000 8.9733 0.0000 6.0149
# 5 11.1362 20.4801 19.2409 0.0000 30.2236 0.0000
# 6 0.0000 0.0000 0.0000 6.0149 0.0000 18.9953
#
#
#
# Elastic Compliance Matrix: (Units=1/GPa)
#
#
# Indices 1 2 3 4 5 6 
#
# 1 0.012586 -0.004744 0.002219 0.000000 -0.002835 0.000000
# 2 -0.004744 0.010874 -0.002848 0.000000 -0.003808 0.000000
# 3 0.002219 -0.002848 0.024257 0.000000 -0.014330 0.000000
# 4 0.000000 0.000000 0.000000 0.141471 0.000000 -0.044797
# 5 -0.002835 -0.003808 -0.014330 0.000000 0.045835 0.000000
# 6 0.000000 0.000000 0.000000 -0.044797 0.000000 0.066830
#
#
# Mechanical properties :
#
#
# Convention : Reuss Voigt Hill
#
# Bulk Modulus (GPa) = 27.04807 47.56438 37.30623
# Shear Modulus (GPa) = 15.38840 25.42358 20.40599
#
# Velocity S-wave (km/s) = 2.87089 3.69010 3.30597
# Velocity P-wave (km/s) = 5.04740 6.60539 5.87824
#
# Compressibility (1/GPa) = 0.03697121
#
# Stress axis : x y z
#
# Youngs Moduli (GPa) = 79.45611 91.96170 41.22601
#
# Poissons Ratio (x) = 0.43627 -0.09149
# Poissons Ratio (y) = 0.37694 0.11740
# Poissons Ratio (z) = -0.17633 0.26187
#
# Static dielectric constant tensor:
#      x y z
#    x 1.652640 0.000000 0.002340 
#    y 0.000000 1.654890 0.000000 
#    z 0.002340 0.000000 1.647080 
# 
# From -- ./inp_files/333703.got.cif
#   From: 2010.05.17/outbox.cif.g08.bks.cpg/sg12_167_cif.got.tgz:333703.got - 2010.06.03 13:09:07.
