data_PCOD9174308
_publ_section_title
;
Structure prediction by ZEFSAII (Michael W. Deem and Ramdas Pophale) SiO2 
 PCOD9174308
Probable space group: C 2/M
;
_chemical_formula_sum "Si O2"
_cell_formula_units_Z 48
_cell_length_a 17.676957
_cell_length_b 14.310975
_cell_length_c 18.279900
_cell_angle_alpha 90.000000
_cell_angle_beta 31.134772
_cell_angle_gamma 90.000000
_cell_volume 2391.032692
_symmetry_space_group_name_H-M "C 2/M"
_symmetry_group_IT_number 12
_symmetry_cell_setting 'monoclinic'
loop_
_space_group_symop_operation_xyz
x,y,z
-x,y,-z
-x,-y,-z
x,-y,z
1/2+x,1/2+y,z
1/2-x,1/2+y,-z
1/2-x,1/2-y,-z
1/2+x,1/2-y,z
loop_
_atom_site_type_symbol
_atom_site_label
_atom_site_fract_x
_atom_site_fract_y
_atom_site_fract_z
Si Si1 0.434005 0.602222 0.953257
Si Si2 0.675714 0.392934 0.357767
Si Si3 0.596796 0.289566 0.154330
Si Si4 0.718688 0.764468 0.610286
Si Si5 0.781011 0.606945 0.671445
Si Si6 0.206449 0.738699 0.216151
O O1 0.375408 0.500000 0.023005
O O2 0.422271 0.613933 0.874522
O O3 0.604642 0.606018 0.832691
O O4 0.342526 0.686115 0.064885
O O5 0.500000 0.384888 0.500000
O O6 0.717141 0.500000 0.311162
O O7 0.721915 0.355595 0.398853
O O8 0.742260 0.322965 0.241947
O O9 0.457346 0.233977 0.239387
O O10 0.605550 0.280053 0.234802
O O11 0.750000 0.250000 0.000000
O O12 0.750000 0.750000 0.500000
O O13 0.786391 0.676376 0.598103
O O14 0.825868 0.500000 0.622616
O O15 0.856748 0.658237 0.677579
#
# Coordination Sequence:
#
# PCOD9174308 Si02
#       6
#     8   8   8   8   8   8
#     4   9  17  31  54  81 108 142 184 226 270 329
#     4  10  22  39  58  80 108 148 197 244 290 341
#     4   9  19  34  53  79 115 151 180 219 279 339
#     4  10  20  36  59  83 109 143 189 239 280 330
#     4   9  18  32  54  83 110 141 183 226 273 333
#     4  10  18  31  54  79 108 143 181 228 279 332
#
# _framework density 20.075008
#
# number of rings (size 3 to 8) (size 9 to 14) (size 15 to 20)
#    0.000    2.500    0.000    2.000    0.000    4.000 
#    0.000    7.500    0.000   58.500    0.000    0.000 
#    0.000    0.000    0.000    0.000    0.000    0.000 
#
# Total GULP energy -133726.709980 kJ/mol
# GULP energy per Si atom -5571.946249 kJ/mol
# Density = 2.002932 g / cm^3
# Si number density = 20.075008 Si / 1000 Ang^3
#
#
#
# Elastic Constant Matrix: (Units=GPa)
#
#
# Indices 1 2 3 4 5 6 
#
# 1 136.8144 43.2937 27.8706 -0.0001 19.7839 0.0001
# 2 43.2937 137.0729 28.1539 -0.0002 12.7388 0.0001
# 3 27.8706 28.1539 53.3668 -0.0002 -3.9757 0.0002
# 4 -0.0001 -0.0002 -0.0002 16.5066 0.0002 -0.4574
# 5 19.7839 12.7388 -3.9757 0.0002 38.1843 -0.0001
# 6 0.0001 0.0001 0.0002 -0.4574 -0.0001 15.2995
#
#
#
# Elastic Compliance Matrix: (Units=1/GPa)
#
#
# Indices 1 2 3 4 5 6 
#
# 1 0.009416 -0.001620 -0.004420 0.000000 -0.004798 0.000000
# 2 -0.001620 0.008869 -0.004022 0.000000 -0.002538 0.000000
# 3 -0.004420 -0.004022 0.023622 0.000000 0.006092 0.000000
# 4 0.000000 0.000000 0.000000 0.060632 0.000000 0.001813
# 5 -0.004798 -0.002538 0.006092 0.000000 0.030156 0.000000
# 6 0.000000 0.000000 0.000000 0.001813 0.000000 0.065416
#
#
# Mechanical properties :
#
#
# Convention : Reuss Voigt Hill
#
# Bulk Modulus (GPa) = 45.90772 58.43226 52.16999
# Shear Modulus (GPa) = 22.17327 29.19382 25.68354
#
# Velocity S-wave (km/s) = 3.32704 3.81758 3.58072
# Velocity P-wave (km/s) = 6.13813 6.97152 6.56806
#
# Compressibility (1/GPa) = 0.02178283
#
# Stress axis : x y z
#
# Youngs Moduli (GPa) = 106.19992 112.75146 42.33291
#
# Poissons Ratio (x) = 0.18268 0.18712
# Poissons Ratio (y) = 0.17207 0.17026
# Poissons Ratio (z) = 0.46944 0.45347
#
# Static dielectric constant tensor:
#      x y z
#    x 1.763320 0.000000 0.040350 
#    y 0.000000 1.708380 0.000000 
#    z 0.040350 0.000000 1.788310 
# 
# From -- ./inp_files/278023.got.cif
#   From: 2010.05.17/outbox.cif.g08.bks.cpg/sg12_140_cif.got.tgz:278023.got - 2010.06.03 13:09:07.
