data_PCOD9174044
_publ_section_title
;
Structure prediction by ZEFSAII (Michael W. Deem and Ramdas Pophale) SiO2 
 PCOD9174044
Probable space group: C 2/M
;
_chemical_formula_sum "Si O2"
_cell_formula_units_Z 48
_cell_length_a 14.994518
_cell_length_b 12.602067
_cell_length_c 14.316036
_cell_angle_alpha 90.000000
_cell_angle_beta 122.481785
_cell_angle_gamma 90.000000
_cell_volume 2281.992410
_symmetry_space_group_name_H-M "C 2/M"
_symmetry_group_IT_number 12
_symmetry_cell_setting 'monoclinic'
loop_
_space_group_symop_operation_xyz
x,y,z
-x,y,-z
-x,-y,-z
x,-y,z
1/2+x,1/2+y,z
1/2-x,1/2+y,-z
1/2-x,1/2-y,-z
1/2+x,1/2-y,z
loop_
_atom_site_type_symbol
_atom_site_label
_atom_site_fract_x
_atom_site_fract_y
_atom_site_fract_z
Si Si1 0.656063 0.662348 0.548705
Si Si2 0.215553 0.375271 0.001839
Si Si3 0.102719 0.618573 0.125131
Si Si4 0.357437 0.886098 0.536451
Si Si5 0.014093 0.684930 0.776787
Si Si6 0.559264 0.615757 0.684952
O O1 0.653018 0.789509 0.540279
O O2 0.759203 0.623015 0.553017
O O3 0.642637 0.629037 0.647707
O O4 0.553845 0.624704 0.432474
O O5 0.259422 0.500000 0.011164
O O6 0.107358 0.377311 0.880193
O O7 0.250000 0.250000 0.000000
O O8 0.194636 0.368873 0.101497
O O9 0.109168 0.500000 0.169822
O O10 0.078545 0.696541 0.197060
O O11 0.000000 0.623681 0.000000
O O12 0.461374 0.870321 0.657868
O O13 0.356951 0.000000 0.489872
O O14 0.057638 0.795681 0.762807
O O15 0.568832 0.500000 0.731915
#
# Coordination Sequence:
#
# PCOD9174044 Si02
#       6
#     8   8   8   8   8   8
#     4   9  19  33  51  76 105 144 181 212 260 316
#     4  10  21  38  59  82 109 140 176 221 273 326
#     4   8  15  32  55  75 100 133 168 208 257 313
#     4  10  18  31  52  76 104 136 177 222 262 308
#     4  10  20  33  53  81 104 133 180 227 264 309
#     4  10  19  34  53  75 109 144 177 217 264 318
#
# _framework density 21.034251000000001
#
# number of rings (size 3 to 8) (size 9 to 14) (size 15 to 20)
#    0.000    2.500    0.000    4.500    0.000    2.000 
#    0.000   10.833    0.000    3.000    0.000    0.000 
#    0.000    0.000    0.000    0.000    0.000    0.000 
#
# Total GULP energy -133682.558587 kJ/mol
# GULP energy per Si atom -5570.106608 kJ/mol
# Density = 2.098638 g / cm^3
# Si number density = 21.034251 Si / 1000 Ang^3
#
#
#
# Elastic Constant Matrix: (Units=GPa)
#
#
# Indices 1 2 3 4 5 6 
#
# 1 44.0871 30.2287 5.3353 0.0000 -5.3560 0.0000
# 2 30.2287 173.3451 20.7388 0.0000 -15.1100 0.0000
# 3 5.3353 20.7388 69.4216 0.0000 2.3027 0.0000
# 4 0.0000 0.0000 0.0000 81.9340 0.0000 -166.8569
# 5 -5.3560 -15.1100 2.3027 0.0000 30.6578 0.0000
# 6 0.0000 0.0000 0.0000 -166.8569 0.0000 385.1973
#
#
#
# Elastic Compliance Matrix: (Units=1/GPa)
#
#
# Indices 1 2 3 4 5 6 
#
# 1 0.025976 -0.004211 -0.000822 0.000000 0.002524 0.000000
# 2 -0.004211 0.006973 -0.001853 0.000000 0.002840 0.000000
# 3 -0.000822 -0.001853 0.015094 0.000000 -0.002191 0.000000
# 4 0.000000 0.000000 0.000000 0.103561 0.000000 0.044860
# 5 0.002524 0.002840 -0.002191 0.000000 0.034623 0.000000
# 6 0.000000 0.000000 0.000000 0.044860 0.000000 0.022028
#
#
# Mechanical properties :
#
#
# Convention : Reuss Voigt Hill
#
# Bulk Modulus (GPa) = 29.18077 44.38437 36.78257
# Shear Modulus (GPa) = 21.41763 114.92789 68.17276
#
# Velocity S-wave (km/s) = 3.19443 7.39980 5.69919
# Velocity P-wave (km/s) = 5.24489 9.70341 7.79952
#
# Compressibility (1/GPa) = 0.03426914
#
# Stress axis : x y z
#
# Youngs Moduli (GPa) = 38.49685 143.41950 66.25023
#
# Poissons Ratio (x) = 0.60401 0.05446
# Poissons Ratio (y) = 0.16213 0.12279
# Poissons Ratio (z) = 0.03164 0.26583
#
# Static dielectric constant tensor:
#      x y z
#    x 1.826730 0.000000 0.058250 
#    y 0.000000 1.781470 0.000000 
#    z 0.058250 0.000000 1.751970 
# 
# From -- ./inp_files/212935.got.cif
#   From: 2010.05.17/outbox.cif.g08.bks.cpg/sg12_107_cif.got.tgz:212935.got - 2010.06.03 13:09:07.
