data_PCOD9174372
_publ_section_title
;
Structure prediction by ZEFSAII (Michael W. Deem and Ramdas Pophale) SiO2 
 PCOD9174372
Probable space group: C 2/M
;
_chemical_formula_sum "Si O2"
_cell_formula_units_Z 44
_cell_length_a 16.596328
_cell_length_b 14.586880
_cell_length_c 19.021695
_cell_angle_alpha 90.000000
_cell_angle_beta 25.019315
_cell_angle_gamma 90.000000
_cell_volume 1947.537019
_symmetry_space_group_name_H-M "C 2/M"
_symmetry_group_IT_number 12
_symmetry_cell_setting 'monoclinic'
loop_
_space_group_symop_operation_xyz
x,y,z
-x,y,-z
-x,-y,-z
x,-y,z
1/2+x,1/2+y,z
1/2-x,1/2+y,-z
1/2-x,1/2-y,-z
1/2+x,1/2-y,z
loop_
_atom_site_type_symbol
_atom_site_label
_atom_site_fract_x
_atom_site_fract_y
_atom_site_fract_z
Si Si1 0.500000 0.816867 0.500000
Si Si2 0.637130 0.104913 0.950844
Si Si3 0.784044 0.387239 0.954046
Si Si4 0.854856 0.890724 0.292622
Si Si5 0.507458 0.640536 0.573154
Si Si6 0.157980 0.609900 0.589574
O O1 0.692084 0.870802 0.364311
O O2 0.467433 0.747553 0.590478
O O3 0.654878 0.142277 0.015514
O O4 0.847099 0.102983 0.751265
O O5 0.566768 0.000000 0.015766
O O6 0.500000 0.148678 0.000000
O O7 0.784994 0.500000 0.953064
O O8 0.568258 0.357029 0.109606
O O9 0.945376 0.355496 0.772195
O O10 0.772648 0.853677 0.431684
O O11 0.871679 0.000000 0.286324
O O12 0.500000 0.601215 0.500000
O O13 0.712602 0.626200 0.444592
O O14 0.142894 0.500000 0.591559
#
# Coordination Sequence:
#
# PCOD9174372 Si02
#       6
#     4   8   8   8   8   8
#     4  10  25  40  55  82 116 160 196 236 293 344
#     4  10  18  31  54  85 122 157 191 232 277 341
#     4   9  18  33  58  90 112 139 191 245 287 334
#     4  10  20  41  66  82 108 149 201 253 289 330
#     4  10  21  35  52  82 122 156 181 228 287 347
#     4  10  19  35  62  90 112 146 191 237 293 345
#
# _framework density 22.592638000000001
#
# number of rings (size 3 to 8) (size 9 to 14) (size 15 to 20)
#    0.545    1.636    1.818    1.909    0.000    3.636 
#    0.000    3.636    0.000    4.364    0.000    0.000 
#    0.000    0.000    0.000    0.000    0.000    0.000 
#
# Total GULP energy -122803.715414 kJ/mol
# GULP energy per Si atom -5581.987064 kJ/mol
# Density = 2.254122 g / cm^3
# Si number density = 22.592638 Si / 1000 Ang^3
#
#
#
# Elastic Constant Matrix: (Units=GPa)
#
#
# Indices 1 2 3 4 5 6 
#
# 1 51.2838 2.0418 49.9263 0.0045 -27.1822 -0.0067
# 2 2.0418 30.0357 16.6761 0.0181 3.6428 0.0099
# 3 49.9263 16.6761 182.6222 0.0327 -24.8632 0.0057
# 4 0.0045 0.0181 0.0327 -1.2670 0.0069 -5.5206
# 5 -27.1822 3.6428 -24.8632 0.0069 37.7160 -0.0049
# 6 -0.0067 0.0099 0.0057 -5.5206 -0.0049 15.4221
#
#
#
# Elastic Compliance Matrix: (Units=1/GPa)
#
#
# Indices 1 2 3 4 5 6 
#
# 1 0.039224 -0.001418 -0.007390 -0.000026 0.023534 0.000019
# 2 -0.001418 0.036422 -0.003907 0.000189 -0.007115 0.000043
# 3 -0.007390 -0.003907 0.007887 0.000054 0.000251 0.000016
# 4 -0.000026 0.000189 0.000054 -0.308341 0.000041 -0.110376
# 5 0.023534 -0.007115 0.000251 0.000041 0.044328 0.000044
# 6 0.000019 0.000043 0.000016 -0.110376 0.000044 0.025331
#
#
# Mechanical properties :
#
#
# Convention : Reuss Voigt Hill
#
# Bulk Modulus (GPa) = 17.21055 44.58113 30.89584
# Shear Modulus (GPa) = -45.30962 23.39406 -10.95778
#
# Velocity S-wave (km/s) = -4.48314 3.22137 -2.20470
# Velocity P-wave (km/s) = 4.37765 5.79756 2.68774
#
# Compressibility (1/GPa) = 0.05810390
#
# Stress axis : x y z
#
# Youngs Moduli (GPa) = 25.49463 27.45579 126.79211
#
# Poissons Ratio (x) = 0.03893 0.93695
# Poissons Ratio (y) = 0.03615 0.49538
# Poissons Ratio (z) = 0.18840 0.10727
#
# Static dielectric constant tensor:
#      x y z
#    x 1.842300 -0.000010 -0.006200 
#    y -0.000010 1.890680 0.000030 
#    z -0.006200 0.000030 1.817470 
# 
# From -- ./inp_files/317760.got.cif
#   From: 2010.05.17/outbox.cif.g08.bks.cpg/sg12_159_cif.got.tgz:317760.got - 2010.06.03 13:09:07.
