data_PCOD9174861
_publ_section_title
;
Structure prediction by ZEFSAII (Michael W. Deem and Ramdas Pophale) SiO2 
 PCOD9174861
Probable space group: C 2/M
;
_chemical_formula_sum "Si O2"
_cell_formula_units_Z 38
_cell_length_a 22.148165
_cell_length_b 7.618873
_cell_length_c 10.929732
_cell_angle_alpha 90.000000
_cell_angle_beta 86.871716
_cell_angle_gamma 90.000000
_cell_volume 1841.578993
_symmetry_space_group_name_H-M "C 2/M"
_symmetry_group_IT_number 12
_symmetry_cell_setting 'monoclinic'
loop_
_space_group_symop_operation_xyz
x,y,z
-x,y,-z
-x,-y,-z
x,-y,z
1/2+x,1/2+y,z
1/2-x,1/2+y,-z
1/2-x,1/2-y,-z
1/2+x,1/2-y,z
loop_
_atom_site_type_symbol
_atom_site_label
_atom_site_fract_x
_atom_site_fract_y
_atom_site_fract_z
Si Si1 0.941798 0.500000 0.740863
Si Si2 0.000000 0.500000 0.000000
Si Si3 0.095593 0.795384 0.426465
Si Si4 0.367584 0.000000 0.117687
Si Si5 0.807526 0.500000 0.875981
Si Si6 0.728771 0.705147 0.293625
Si Si7 0.858117 0.204242 0.320424
O O1 0.944638 0.670062 0.652831
O O2 0.873688 0.500000 0.804403
O O3 0.986956 0.500000 0.849056
O O4 0.928658 0.500000 0.034005
O O5 0.164740 0.779760 0.369286
O O6 0.100947 0.745053 0.568175
O O7 0.078002 0.000000 0.418807
O O8 0.366597 0.829966 0.204311
O O9 0.315962 0.000000 0.019706
O O10 0.775125 0.328011 0.825421
O O11 0.737633 0.500000 0.265869
O O12 0.787060 0.772314 0.361182
O O13 0.869175 0.000000 0.291515
#
# Coordination Sequence:
#
# PCOD9174861 Si02
#       7
#     4   2   8   4   4   8   8
#     4   9  18  38  63  82 108 146 192 243 287 329
#     4  10  24  48  68  80 100 146 204 256 294 336
#     4   9  19  33  57  88 123 151 183 221 276 348
#     4  11  24  42  59  78 110 150 202 248 294 323
#     4   9  20  35  52  80 116 155 197 233 265 338
#     4  10  18  32  53  84 120 162 189 214 271 333
#     4  11  21  35  54  87 121 153 186 228 279 342
#
# _framework density 20.634467000000001
#
# number of rings (size 3 to 8) (size 9 to 14) (size 15 to 20)
#    0.000    2.105    2.105    1.263    0.000    1.684 
#    0.000    7.368    0.000    2.526    0.000    0.000 
#    0.000    0.000    0.000    0.000    0.000    0.000 
#
# Total GULP energy -105819.276309 kJ/mol
# GULP energy per Si atom -5569.435595 kJ/mol
# Density = 2.058750 g / cm^3
# Si number density = 20.634467 Si / 1000 Ang^3
#
#
#
# Elastic Constant Matrix: (Units=GPa)
#
#
# Indices 1 2 3 4 5 6 
#
# 1 36.8583 8.0167 14.2989 0.0000 17.6310 0.0000
# 2 8.0167 120.5875 83.6346 0.0000 27.9166 0.0000
# 3 14.2989 83.6346 159.6778 0.0000 45.7291 0.0000
# 4 0.0000 0.0000 0.0000 -11.4218 0.0000 12.8694
# 5 17.6310 27.9166 45.7291 0.0000 47.2263 0.0000
# 6 0.0000 0.0000 0.0000 12.8694 0.0000 -9.9874
#
#
#
# Elastic Compliance Matrix: (Units=1/GPa)
#
#
# Indices 1 2 3 4 5 6 
#
# 1 0.033118 0.000454 0.000573 0.000000 -0.013187 0.000000
# 2 0.000454 0.013109 -0.006419 0.000000 -0.001703 0.000000
# 3 0.000573 -0.006419 0.011828 0.000000 -0.007873 0.000000
# 4 0.000000 0.000000 0.000000 0.193752 0.000000 0.249662
# 5 -0.013187 -0.001703 -0.007873 0.000000 0.034727 0.000000
# 6 0.000000 0.000000 0.000000 0.249662 0.000000 0.221580
#
#
# Mechanical properties :
#
#
# Convention : Reuss Voigt Hill
#
# Bulk Modulus (GPa) = 21.15489 58.78045 39.96767
# Shear Modulus (GPa) = 9.35184 19.24165 14.29674
#
# Velocity S-wave (km/s) = 2.13119 3.05700 2.63507
# Velocity P-wave (km/s) = 4.04109 6.40380 5.35440
#
# Compressibility (1/GPa) = 0.04727039
#
# Stress axis : x y z
#
# Youngs Moduli (GPa) = 30.19523 76.28531 84.54591
#
# Poissons Ratio (x) = -0.03460 -0.04848
# Poissons Ratio (y) = -0.01369 0.54269
# Poissons Ratio (z) = -0.01731 0.48967
#
# Static dielectric constant tensor:
#      x y z
#    x 1.740010 0.000000 -0.029470 
#    y 0.000000 1.722700 0.000000 
#    z -0.029470 0.000000 1.732680 
# 
# From -- ./inp_files/92898.got.cif
#   From: 2010.05.17/outbox.cif.g08.bks.cpg/sg12_47_cif.got.tgz:92898.got - 2010.06.03 13:09:07.
