data_PCOD9174821
_publ_section_title
;
Structure prediction by ZEFSAII (Michael W. Deem and Ramdas Pophale) SiO2 
 PCOD9174821
Probable space group: C 2/M
;
_chemical_formula_sum "Si O2"
_cell_formula_units_Z 64
_cell_length_a 25.711985
_cell_length_b 8.607785
_cell_length_c 17.032811
_cell_angle_alpha 90.000000
_cell_angle_beta 105.358214
_cell_angle_gamma 90.000000
_cell_volume 3635.134425
_symmetry_space_group_name_H-M "C 2/M"
_symmetry_group_IT_number 12
_symmetry_cell_setting 'monoclinic'
loop_
_space_group_symop_operation_xyz
x,y,z
-x,y,-z
-x,-y,-z
x,-y,z
1/2+x,1/2+y,z
1/2-x,1/2+y,-z
1/2-x,1/2-y,-z
1/2+x,1/2-y,z
loop_
_atom_site_type_symbol
_atom_site_label
_atom_site_fract_x
_atom_site_fract_y
_atom_site_fract_z
Si Si1 0.808919 0.185969 0.039162
Si Si2 0.410247 0.813014 0.997194
Si Si3 0.970148 0.687456 0.179463
Si Si4 0.183870 0.815027 0.313380
Si Si5 0.305588 0.312983 0.352837
Si Si6 0.585229 0.188076 0.179412
Si Si7 0.688926 0.185641 0.480044
Si Si8 0.869119 0.812980 0.222545
O O1 0.850834 0.251936 0.992815
O O2 0.808674 0.000000 0.036167
O O3 0.750000 0.250000 0.000000
O O4 0.831828 0.234803 0.133665
O O5 0.425970 0.767614 0.915636
O O6 0.410634 0.000000 0.999332
O O7 0.447348 0.760496 0.084794
O O8 0.968254 0.500000 0.180058
O O9 0.928626 0.749924 0.227386
O O10 0.032610 0.734082 0.208624
O O11 0.243757 0.746818 0.321285
O O12 0.140165 0.762023 0.232355
O O13 0.163832 0.750298 0.389903
O O14 0.188333 0.000000 0.318903
O O15 0.303714 0.500000 0.355898
O O16 0.330491 0.247889 0.443790
O O17 0.340986 0.263955 0.292109
O O18 0.590390 0.000000 0.184576
O O19 0.811030 0.500000 0.520908
O O20 0.750000 0.250000 0.500000
O O21 0.871552 0.000000 0.223737
#
# Coordination Sequence:
#
# PCOD9174821 Si02
#       8
#     8   8   8   8   8   8   8   8
#     4  10  20  33  47  69 101 138 173 210 256 302
#     4   9  18  33  52  73  98 133 175 216 258 305
#     4   9  18  34  55  76  99 133 177 219 257 302
#     4  11  22  34  50  78 109 137 170 209 256 306
#     4  10  19  34  55  78 105 138 171 207 253 310
#     4  10  20  34  53  76 104 136 172 216 263 308
#     4  10  18  32  53  77 105 136 166 204 254 307
#     4   9  20  35  52  73 101 136 172 209 255 306
#
# _framework density 17.605951000000001
#
# number of rings (size 3 to 8) (size 9 to 14) (size 15 to 20)
#    0.000    2.250    0.000    4.875    1.750    4.000 
#    0.000    0.000    0.000    4.500    0.000    5.250 
#    0.000    0.000    0.000    0.000    0.000    0.000 
#
# Total GULP energy -178466.389382 kJ/mol
# GULP energy per Si atom -5577.074668 kJ/mol
# Density = 1.756588 g / cm^3
# Si number density = 17.605951 Si / 1000 Ang^3
#
#
#
# Elastic Constant Matrix: (Units=GPa)
#
#
# Indices 1 2 3 4 5 6 
#
# 1 88.9264 20.4326 38.5918 0.0000 -23.3408 0.0000
# 2 20.4326 48.1465 25.6903 0.0000 -9.3954 0.0000
# 3 38.5918 25.6903 64.9104 0.0000 -27.0703 0.0000
# 4 0.0000 0.0000 0.0000 24.1052 0.0000 -2.9602
# 5 -23.3408 -9.3954 -27.0703 0.0000 28.3804 0.0000
# 6 0.0000 0.0000 0.0000 -2.9602 0.0000 23.1783
#
#
#
# Elastic Compliance Matrix: (Units=1/GPa)
#
#
# Indices 1 2 3 4 5 6 
#
# 1 0.016117 -0.002433 -0.005691 0.000000 0.007021 0.000000
# 2 -0.002433 0.026769 -0.010439 0.000000 -0.003097 0.000000
# 3 -0.005691 -0.010439 0.032427 0.000000 0.022794 0.000000
# 4 0.000000 0.000000 0.000000 0.042146 0.000000 0.005383
# 5 0.007021 -0.003097 0.022794 0.000000 0.061726 0.000000
# 6 0.000000 0.000000 0.000000 0.005383 0.000000 0.043831
#
#
# Mechanical properties :
#
#
# Convention : Reuss Voigt Hill
#
# Bulk Modulus (GPa) = 26.18793 41.26807 33.72800
# Shear Modulus (GPa) = 18.32362 22.95066 20.63714
#
# Velocity S-wave (km/s) = 3.22959 3.61442 3.42741
# Velocity P-wave (km/s) = 5.36784 6.39605 5.90437
#
# Compressibility (1/GPa) = 0.03818553
#
# Stress axis : x y z
#
# Youngs Moduli (GPa) = 62.04645 37.35730 30.83837
#
# Poissons Ratio (x) = 0.09089 0.17551
# Poissons Ratio (y) = 0.15095 0.32194
# Poissons Ratio (z) = 0.35312 0.38999
#
# Static dielectric constant tensor:
#      x y z
#    x 1.569960 0.000000 -0.021070 
#    y 0.000000 1.595030 0.000000 
#    z -0.021070 0.000000 1.620950 
# 
# From -- ./inp_files/244247.got.cif
#   From: 2010.05.17/outbox.cif.g08.bks.cpg/sg12_123_cif.got.tgz:244247.got - 2010.06.03 13:09:07.
