data_PCOD9174260
_publ_section_title
;
Structure prediction by ZEFSAII (Michael W. Deem and Ramdas Pophale) SiO2 
 PCOD9174260
Probable space group: C 2/M
;
_chemical_formula_sum "Si O2"
_cell_formula_units_Z 48
_cell_length_a 18.949689
_cell_length_b 8.843388
_cell_length_c 19.591163
_cell_angle_alpha 90.000000
_cell_angle_beta 62.143631
_cell_angle_gamma 90.000000
_cell_volume 2902.639072
_symmetry_space_group_name_H-M "C 2/M"
_symmetry_group_IT_number 12
_symmetry_cell_setting 'monoclinic'
loop_
_space_group_symop_operation_xyz
x,y,z
-x,y,-z
-x,-y,-z
x,-y,z
1/2+x,1/2+y,z
1/2-x,1/2+y,-z
1/2-x,1/2-y,-z
1/2+x,1/2-y,z
loop_
_atom_site_type_symbol
_atom_site_label
_atom_site_fract_x
_atom_site_fract_y
_atom_site_fract_z
Si Si1 0.922842 0.682895 0.990472
Si Si2 0.943951 0.676499 0.286070
Si Si3 0.761300 0.315926 0.140489
Si Si4 0.711247 0.177591 0.719211
Si Si5 0.093659 0.181283 0.151619
Si Si6 0.797254 0.179482 0.415788
O O1 0.922652 0.500000 0.984934
O O2 0.923622 0.751975 0.914971
O O3 0.841547 0.731055 0.065391
O O4 0.000000 0.726152 0.000000
O O5 0.956316 0.500000 0.295086
O O6 0.885331 0.686163 0.245933
O O7 0.887021 0.752833 0.368484
O O8 0.025526 0.759724 0.233453
O O9 0.762495 0.500000 0.141835
O O10 0.762733 0.266312 0.218781
O O11 0.681111 0.269363 0.138010
O O12 0.740846 0.268222 0.639583
O O13 0.732100 0.000000 0.702217
O O14 0.091904 0.000000 0.149941
O O15 0.750000 0.250000 0.500000
O O16 0.799491 0.000000 0.419512
#
# Coordination Sequence:
#
# PCOD9174260 Si02
#       6
#     8   8   8   8   8   8
#     4  10  20  35  54  72  96 138 184 220 256 305
#     4   9  18  33  53  74 100 135 173 211 253 304
#     4   9  18  33  51  73 103 139 176 211 259 313
#     4   8  16  32  53  74  99 134 174 211 250 302
#     4  11  21  32  49  75 106 137 171 218 264 306
#     4  10  18  31  53  83 109 132 166 210 256 303
#
# _framework density 16.536676
#
# number of rings (size 3 to 8) (size 9 to 14) (size 15 to 20)
#    1.000    1.500    0.000    3.500    0.000    3.000 
#    0.000    3.333    0.000    1.000    0.000    7.000 
#    0.000    0.000    0.000    0.000    0.000    0.000 
#
# Total GULP energy -133618.153306 kJ/mol
# GULP energy per Si atom -5567.423054 kJ/mol
# Density = 1.649904 g / cm^3
# Si number density = 16.536676 Si / 1000 Ang^3
#
#
#
# Elastic Constant Matrix: (Units=GPa)
#
#
# Indices 1 2 3 4 5 6 
#
# 1 90.6636 38.2116 64.9466 0.0000 -21.2193 0.0000
# 2 38.2116 62.6362 46.4198 0.0000 -5.2533 -0.0001
# 3 64.9466 46.4198 146.0666 0.0000 -13.5832 0.0000
# 4 0.0000 0.0000 0.0000 29.9622 0.0000 -0.5664
# 5 -21.2193 -5.2533 -13.5832 0.0000 13.1615 0.0000
# 6 0.0000 -0.0001 0.0000 -0.5664 0.0000 15.6512
#
#
#
# Elastic Compliance Matrix: (Units=1/GPa)
#
#
# Indices 1 2 3 4 5 6 
#
# 1 0.027166 -0.009305 -0.005967 0.000000 0.033926 0.000000
# 2 -0.009305 0.024103 -0.004450 0.000000 -0.009974 0.000000
# 3 -0.005967 -0.004450 0.010900 0.000000 -0.000147 0.000000
# 4 0.000000 0.000000 0.000000 0.033398 0.000000 0.001209
# 5 0.033926 -0.009974 -0.000147 0.000000 0.126542 0.000000
# 6 0.000000 0.000000 0.000000 0.001209 0.000000 0.063937
#
#
# Mechanical properties :
#
#
# Convention : Reuss Voigt Hill
#
# Bulk Modulus (GPa) = 44.00519 66.50250 55.25384
# Shear Modulus (GPa) = 15.01202 21.74087 18.37645
#
# Velocity S-wave (km/s) = 3.01624 3.62982 3.33716
# Velocity P-wave (km/s) = 6.22886 7.60723 6.95229
#
# Compressibility (1/GPa) = 0.02272459
#
# Stress axis : x y z
#
# Youngs Moduli (GPa) = 36.81024 41.48779 91.74413
#
# Poissons Ratio (x) = 0.38606 0.54744
# Poissons Ratio (y) = 0.34254 0.40827
# Poissons Ratio (z) = 0.21965 0.18462
#
# Static dielectric constant tensor:
#      x y z
#    x 1.554730 0.000000 -0.003070 
#    y 0.000000 1.553980 0.000000 
#    z -0.003070 0.000000 1.543450 
# 
# From -- ./inp_files/313590.got.cif
#   From: 2010.05.17/outbox.cif.g08.bks.cpg/sg12_157_cif.got.tgz:313590.got - 2010.06.03 13:09:07.
