data_PCOD9174527
_publ_section_title
;
Structure prediction by ZEFSAII (Michael W. Deem and Ramdas Pophale) SiO2 
 PCOD9174527
Probable space group: C 2/M
;
_chemical_formula_sum "Si O2"
_cell_formula_units_Z 64
_cell_length_a 10.037623
_cell_length_b 20.701758
_cell_length_c 23.805079
_cell_angle_alpha 90.000000
_cell_angle_beta 49.781743
_cell_angle_gamma 90.000000
_cell_volume 3777.184056
_symmetry_space_group_name_H-M "C 2/M"
_symmetry_group_IT_number 12
_symmetry_cell_setting 'monoclinic'
loop_
_space_group_symop_operation_xyz
x,y,z
-x,y,-z
-x,-y,-z
x,-y,z
1/2+x,1/2+y,z
1/2-x,1/2+y,-z
1/2-x,1/2-y,-z
1/2+x,1/2-y,z
loop_
_atom_site_type_symbol
_atom_site_label
_atom_site_fract_x
_atom_site_fract_y
_atom_site_fract_z
Si Si1 0.591469 0.733886 0.619577
Si Si2 0.746958 0.818750 0.312044
Si Si3 0.499814 0.923997 0.433522
Si Si4 0.137089 0.291711 0.910673
Si Si5 0.390024 0.425084 0.974059
Si Si6 0.005635 0.186138 0.859489
Si Si7 0.334190 0.651587 0.508015
Si Si8 0.013979 0.571465 0.928329
O O1 0.404570 0.767690 0.663021
O O2 0.634776 0.708837 0.669668
O O3 0.608187 0.677536 0.568768
O O4 0.738014 0.787400 0.563748
O O5 0.645546 0.881189 0.363191
O O6 0.863760 0.831213 0.225985
O O7 0.500000 0.907792 0.500000
O O8 0.312438 0.902634 0.460213
O O9 0.529451 0.000000 0.419125
O O10 0.329603 0.283345 0.882309
O O11 0.089825 0.237405 0.878941
O O12 0.122444 0.363774 0.887868
O O13 0.000000 0.288623 0.000000
O O14 0.419349 0.500000 0.950404
O O15 0.447527 0.376702 0.910025
O O16 0.500000 0.411138 0.000000
O O17 0.182666 0.418221 0.040310
O O18 0.500000 0.632566 0.500000
O O19 0.076910 0.500000 0.892606
O O20 0.000000 0.568287 0.000000
#
# Coordination Sequence:
#
# PCOD9174527 Si02
#       8
#     8   8   8   8   8   8   8   8
#     4  10  19  33  53  84 111 138 186 228 275 327
#     4  11  22  37  55  81 118 150 182 232 284 341
#     4  10  21  37  58  85 114 148 189 230 273 331
#     4  11  22  37  57  84 113 149 188 242 284 341
#     4  10  21  37  58  82 106 141 193 240 279 338
#     4  12  24  36  55  84 116 152 186 234 299 342
#     4  10  18  31  59  85 106 142 184 233 268 320
#     4   9  17  34  58  81 103 134 183 233 275 326
#
# _framework density 16.943839000000001
#
# number of rings (size 3 to 8) (size 9 to 14) (size 15 to 20)
#    0.000    1.625    5.000    1.500    1.750    0.750 
#    0.000    0.000    0.000    0.000    0.000    0.000 
#    0.000    0.000    0.000    0.000    0.000    0.000 
#
# Total GULP energy -178578.743227 kJ/mol
# GULP energy per Si atom -5580.585726 kJ/mol
# Density = 1.690527 g / cm^3
# Si number density = 16.943839 Si / 1000 Ang^3
#
#
#
# Elastic Constant Matrix: (Units=GPa)
#
#
# Indices 1 2 3 4 5 6 
#
# 1 134.0350 35.3470 27.3864 -0.0001 0.9709 0.0002
# 2 35.3470 68.2310 36.4003 0.0001 12.1731 0.0000
# 3 27.3864 36.4003 71.6046 0.0002 3.1693 0.0000
# 4 -0.0001 0.0001 0.0002 2.3207 0.0002 0.5266
# 5 0.9709 12.1731 3.1693 0.0002 17.1106 -0.0003
# 6 0.0002 0.0000 0.0000 0.5266 -0.0003 22.2907
#
#
#
# Elastic Compliance Matrix: (Units=1/GPa)
#
#
# Indices 1 2 3 4 5 6 
#
# 1 0.008868 -0.004433 -0.001265 0.000001 0.002885 0.000000
# 2 -0.004433 0.025390 -0.010509 0.000001 -0.015865 0.000000
# 3 -0.001265 -0.010509 0.019619 -0.000002 0.003914 0.000000
# 4 0.000001 0.000001 -0.000002 0.433227 -0.000007 -0.010234
# 5 0.002885 -0.015865 0.003914 -0.000007 0.068841 0.000001
# 6 0.000000 0.000000 0.000000 -0.010234 0.000001 0.045103
#
#
# Mechanical properties :
#
#
# Convention : Reuss Voigt Hill
#
# Bulk Modulus (GPa) = 46.59855 52.45978 49.52917
# Shear Modulus (GPa) = 7.80497 19.99354 13.89925
#
# Velocity S-wave (km/s) = 2.14857 3.43882 2.86722
# Velocity P-wave (km/s) = 5.80660 6.84073 6.34477
#
# Compressibility (1/GPa) = 0.02145990
#
# Stress axis : x y z
#
# Youngs Moduli (GPa) = 112.77027 39.38589 50.97197
#
# Poissons Ratio (x) = 0.17462 0.06450
# Poissons Ratio (y) = 0.49997 0.53567
# Poissons Ratio (z) = 0.14271 0.41391
#
# Static dielectric constant tensor:
#      x y z
#    x 1.539880 0.000000 -0.011530 
#    y 0.000000 1.574220 0.000000 
#    z -0.011530 0.000000 1.545570 
# 
# From -- ./inp_files/333704.got.cif
#   From: 2010.05.17/outbox.cif.g08.bks.cpg/sg12_167_cif.got.tgz:333704.got - 2010.06.03 13:09:07.
