data_PCOD9174528
_publ_section_title
;
Structure prediction by ZEFSAII (Michael W. Deem and Ramdas Pophale) SiO2 
 PCOD9174528
Probable space group: C 2/M
;
_chemical_formula_sum "Si O2"
_cell_formula_units_Z 32
_cell_length_a 19.657441
_cell_length_b 16.882943
_cell_length_c 11.051178
_cell_angle_alpha 90.000000
_cell_angle_beta 24.420946
_cell_angle_gamma 90.000000
_cell_volume 1516.328833
_symmetry_space_group_name_H-M "C 2/M"
_symmetry_group_IT_number 12
_symmetry_cell_setting 'monoclinic'
loop_
_space_group_symop_operation_xyz
x,y,z
-x,y,-z
-x,-y,-z
x,-y,z
1/2+x,1/2+y,z
1/2-x,1/2+y,-z
1/2-x,1/2-y,-z
1/2+x,1/2-y,z
loop_
_atom_site_type_symbol
_atom_site_label
_atom_site_fract_x
_atom_site_fract_y
_atom_site_fract_z
Si Si1 0.035645 0.910738 0.084684
Si Si2 0.079734 0.618133 0.495405
Si Si3 0.513455 0.858089 0.107307
Si Si4 0.158476 0.231789 0.483890
O O1 0.943934 0.844263 0.310249
O O2 0.976707 0.000000 0.207252
O O3 0.230491 0.906417 0.795823
O O4 0.000000 0.896623 0.000000
O O5 0.079282 0.714387 0.506190
O O6 0.000000 0.592194 0.500000
O O7 0.982497 0.593460 0.775304
O O8 0.357422 0.799913 0.385694
O O9 0.500000 0.900100 0.000000
O O10 0.665762 0.798405 0.844937
#
# Coordination Sequence:
#
# PCOD9174528 Si02
#       4
#     8   8   8   8
#     4  11  23  39  60  89 125 161 198 245 304 360
#     4  10  22  38  61  92 120 158 198 250 298 356
#     4  10  18  31  59  89 116 151 201 249 290 342
#     4  10  19  33  60  87 118 149 203 245 293 342
#
# _framework density 21.103603
#
# number of rings (size 3 to 8) (size 9 to 14) (size 15 to 20)
#    1.500    0.250    2.500    3.000    0.000    4.500 
#    0.000    1.250    0.000    9.750    0.000    0.000 
#    0.000    0.000    0.000    0.000    0.000    0.000 
#
# Total GULP energy -89078.180517 kJ/mol
# GULP energy per Si atom -5567.386282 kJ/mol
# Density = 2.105557 g / cm^3
# Si number density = 21.103603 Si / 1000 Ang^3
#
#
#
# Elastic Constant Matrix: (Units=GPa)
#
#
# Indices 1 2 3 4 5 6 
#
# 1 164.7365 16.5242 37.8726 0.0000 5.8210 -0.0017
# 2 16.5242 114.7794 14.5795 0.0001 6.3512 -0.0004
# 3 37.8726 14.5795 77.2642 0.0003 3.8837 -0.0006
# 4 0.0000 0.0001 0.0003 7.8361 0.0000 5.3786
# 5 5.8210 6.3512 3.8837 0.0000 28.0027 -0.0030
# 6 -0.0017 -0.0004 -0.0006 5.3786 -0.0030 -55.2252
#
#
#
# Elastic Compliance Matrix: (Units=1/GPa)
#
#
# Indices 1 2 3 4 5 6 
#
# 1 0.006899 -0.000534 -0.003237 0.000000 -0.000864 0.000000
# 2 -0.000534 0.009059 -0.001359 0.000000 -0.001755 0.000000
# 3 -0.003237 -0.001359 0.014840 -0.000001 -0.001077 0.000000
# 4 0.000000 0.000000 -0.000001 0.119618 0.000001 0.011650
# 5 -0.000864 -0.001755 -0.001077 0.000001 0.036438 -0.000002
# 6 0.000000 0.000000 0.000000 0.011650 -0.000002 -0.016973
#
#
# Mechanical properties :
#
#
# Convention : Reuss Voigt Hill
#
# Bulk Modulus (GPa) = 48.69465 54.97030 51.83247
# Shear Modulus (GPa) = 26.73976 15.30963 21.02470
#
# Velocity S-wave (km/s) = 3.56346 2.69634 3.15978
# Velocity P-wave (km/s) = 6.32891 5.98315 6.15846
#
# Compressibility (1/GPa) = 0.02053614
#
# Stress axis : x y z
#
# Youngs Moduli (GPa) = 144.95582 110.38684 67.38509
#
# Poissons Ratio (x) = 0.05896 0.21815
# Poissons Ratio (y) = 0.07743 0.09160
# Poissons Ratio (z) = 0.46927 0.15006
#
# Static dielectric constant tensor:
#      x y z
#    x 1.832630 0.000000 0.022900 
#    y 0.000000 1.762670 0.000000 
#    z 0.022900 0.000000 1.754960 
# 
# From -- ./inp_files/118131.got.cif
#   From: 2010.05.17/outbox.cif.g08.bks.cpg/sg12_60_cif.got.tgz:118131.got - 2010.06.03 13:09:07.
