data_PCOD9174962
_publ_section_title
;
Structure prediction by ZEFSAII (Michael W. Deem and Ramdas Pophale) SiO2 
 PCOD9174962
Probable space group: C 2/M
;
_chemical_formula_sum "Si O2"
_cell_formula_units_Z 64
_cell_length_a 8.889842
_cell_length_b 20.182722
_cell_length_c 23.980404
_cell_angle_alpha 90.000000
_cell_angle_beta 50.564800
_cell_angle_gamma 90.000000
_cell_volume 3323.079712
_symmetry_space_group_name_H-M "C 2/M"
_symmetry_group_IT_number 12
_symmetry_cell_setting 'monoclinic'
loop_
_space_group_symop_operation_xyz
x,y,z
-x,y,-z
-x,-y,-z
x,-y,z
1/2+x,1/2+y,z
1/2-x,1/2+y,-z
1/2-x,1/2-y,-z
1/2+x,1/2-y,z
loop_
_atom_site_type_symbol
_atom_site_label
_atom_site_fract_x
_atom_site_fract_y
_atom_site_fract_z
Si Si1 0.938297 0.655573 0.875619
Si Si2 0.790827 0.679432 0.019369
Si Si3 0.648277 0.923767 0.734662
Si Si4 0.825427 0.784501 0.841775
Si Si5 0.714240 0.701492 0.678252
Si Si6 0.791149 0.925831 0.518411
Si Si7 0.887264 0.075346 0.365651
Si Si8 0.398616 0.824581 0.356394
O O1 0.020495 0.598006 0.817494
O O2 0.131547 0.693390 0.854428
O O3 0.821206 0.709052 0.865799
O O4 0.814089 0.633846 0.959268
O O5 0.653890 0.672176 0.105633
O O6 0.750000 0.750000 0.000000
O O7 0.000000 0.681572 0.000000
O O8 0.600168 0.875053 0.695398
O O9 0.878666 0.916298 0.693021
O O10 0.615854 0.000000 0.726867
O O11 0.011953 0.791004 0.758880
O O12 0.711263 0.631584 0.647648
O O13 0.731672 0.762222 0.631007
O O14 0.889730 0.703681 0.680083
O O15 0.826466 0.917295 0.444492
O O16 0.673520 0.866430 0.573785
O O17 0.000000 0.925751 0.500000
O O18 0.705881 0.000000 0.547495
O O19 0.839956 0.000000 0.359503
#
# Coordination Sequence:
#
# PCOD9174962 Si02
#       8
#     8   8   8   8   8   8   8   8
#     4  10  18  32  55  83 115 146 189 234 284 341
#     4   8  16  28  48  79 112 144 183 228 276 338
#     4  11  21  37  60  84 113 153 196 238 287 346
#     4  10  18  32  54  82 118 147 183 232 288 333
#     4  12  24  39  60  88 120 153 186 246 289 340
#     4  10  21  41  66  85 113 154 195 237 284 348
#     4  10  22  41  63  85 113 155 195 233 289 348
#     4  12  25  39  59  88 118 149 196 239 295 341
#
# _framework density 19.259243000000001
#
# number of rings (size 3 to 8) (size 9 to 14) (size 15 to 20)
#    0.000    1.625    3.750    1.875    0.000    2.000 
#    0.000    1.250    0.000    4.125    0.000    0.875 
#    0.000    0.000    0.000    0.000    0.000    0.000 
#
# Total GULP energy -178532.902203 kJ/mol
# GULP energy per Si atom -5579.153194 kJ/mol
# Density = 1.921541 g / cm^3
# Si number density = 19.259243 Si / 1000 Ang^3
#
#
#
# Elastic Constant Matrix: (Units=GPa)
#
#
# Indices 1 2 3 4 5 6 
#
# 1 50.5749 28.8713 -19.1542 0.0008 7.5787 -0.0004
# 2 28.8713 88.8170 20.0040 0.0004 11.9513 -0.0001
# 3 -19.1542 20.0040 65.3593 0.0000 11.0529 0.0002
# 4 0.0008 0.0004 0.0000 -52.9801 -0.0003 20.8028
# 5 7.5787 11.9513 11.0529 -0.0003 21.0844 0.0002
# 6 -0.0004 -0.0001 0.0002 20.8028 0.0002 22.8190
#
#
#
# Elastic Compliance Matrix: (Units=1/GPa)
#
#
# Indices 1 2 3 4 5 6 
#
# 1 0.036325 -0.013775 0.017281 0.000001 -0.014308 0.000000
# 2 -0.013775 0.017902 -0.009478 0.000000 -0.000228 0.000000
# 3 0.017281 -0.009478 0.025684 0.000000 -0.014304 0.000000
# 4 0.000001 0.000000 0.000000 -0.013900 -0.000001 0.012671
# 5 -0.014308 -0.000228 -0.014304 -0.000001 0.060199 0.000000
# 6 0.000000 0.000000 0.000000 0.012671 0.000000 0.032271
#
#
# Mechanical properties :
#
#
# Convention : Reuss Voigt Hill
#
# Bulk Modulus (GPa) = 14.71268 29.35483 22.03376
# Shear Modulus (GPa) = 25.89592 9.85334 17.87463
#
# Velocity S-wave (km/s) = 3.67085 2.26435 3.04979
# Velocity P-wave (km/s) = 5.06189 4.70228 4.88539
#
# Compressibility (1/GPa) = 0.06796856
#
# Stress axis : x y z
#
# Youngs Moduli (GPa) = 27.52914 55.85939 38.93470
#
# Poissons Ratio (x) = 0.76946 -0.67283
# Poissons Ratio (y) = 0.37921 0.36900
# Poissons Ratio (z) = -0.47573 0.52941
#
# Static dielectric constant tensor:
#      x y z
#    x 1.674350 0.000000 -0.003350 
#    y 0.000000 1.661470 0.000000 
#    z -0.003350 0.000000 1.729940 
# 
# From -- ./inp_files/333727.got.cif
#   From: 2010.05.17/outbox.cif.g08.bks.cpg/sg12_167_cif.got.tgz:333727.got - 2010.06.03 13:09:07.
