data_PCOD9174795
_publ_section_title
;
Structure prediction by ZEFSAII (Michael W. Deem and Ramdas Pophale) SiO2 
 PCOD9174795
Probable space group: C 2/M
;
_chemical_formula_sum "Si O2"
_cell_formula_units_Z 56
_cell_length_a 29.600440
_cell_length_b 8.751765
_cell_length_c 19.728224
_cell_angle_alpha 90.000000
_cell_angle_beta 138.696008
_cell_angle_gamma 90.000000
_cell_volume 3373.349027
_symmetry_space_group_name_H-M "C 2/M"
_symmetry_group_IT_number 12
_symmetry_cell_setting 'monoclinic'
loop_
_space_group_symop_operation_xyz
x,y,z
-x,y,-z
-x,-y,-z
x,-y,z
1/2+x,1/2+y,z
1/2-x,1/2+y,-z
1/2-x,1/2-y,-z
1/2+x,1/2-y,z
loop_
_atom_site_type_symbol
_atom_site_label
_atom_site_fract_x
_atom_site_fract_y
_atom_site_fract_z
Si Si1 0.787905 0.316791 0.295657
Si Si2 0.761186 0.682714 0.620355
Si Si3 0.244631 0.182456 0.884459
Si Si4 0.985872 0.315473 0.692431
Si Si5 0.856577 0.316029 0.121443
Si Si6 0.357858 0.682563 0.620577
Si Si7 0.554880 0.186000 0.505991
O O1 0.786720 0.500000 0.295793
O O2 0.749178 0.252656 0.317509
O O3 0.756904 0.257304 0.190717
O O4 0.867672 0.266241 0.390283
O O5 0.764282 0.500000 0.627633
O O6 0.695094 0.725594 0.499701
O O7 0.826306 0.745744 0.652902
O O8 0.179929 0.240382 0.855201
O O9 0.242321 0.000000 0.875669
O O10 0.311079 0.223953 0.004532
O O11 0.980581 0.500000 0.689708
O O12 0.931633 0.244139 0.682678
O O13 0.966223 0.267636 0.593619
O O14 0.064290 0.272593 0.795080
O O15 0.853267 0.500000 0.126550
O O16 0.358126 0.500000 0.626446
O O17 0.500000 0.238563 0.500000
O O18 0.553971 0.000000 0.506120
#
# Coordination Sequence:
#
# PCOD9174795 Si02
#       7
#     8   8   8   8   8   8   8
#     4  11  20  32  52  76 104 137 173 210 256 308
#     4  10  20  34  52  74 104 137 172 210 252 304
#     4  10  20  34  52  76 105 137 176 219 258 298
#     4  10  18  32  53  75 102 135 173 212 255 305
#     4   9  19  35  55  76 100 137 181 217 253 303
#     4  10  20  33  51  76 106 135 169 209 256 309
#     4   9  17  28  45  71 101 132 166 203 245 298
#
# _framework density 16.600712999999999
#
# number of rings (size 3 to 8) (size 9 to 14) (size 15 to 20)
#    0.000    2.143    1.429    2.571    0.000    4.571 
#    0.000    0.000    0.000    3.000    0.000    6.000 
#    0.000    0.000    0.000    0.000    0.000    0.000 
#
# Total GULP energy -156286.009279 kJ/mol
# GULP energy per Si atom -5581.643189 kJ/mol
# Density = 1.656293 g / cm^3
# Si number density = 16.600713 Si / 1000 Ang^3
#
#
#
# Elastic Constant Matrix: (Units=GPa)
#
#
# Indices 1 2 3 4 5 6 
#
# 1 162.0043 45.9673 74.4602 0.0000 -13.6953 0.0000
# 2 45.9673 32.7639 33.0004 0.0000 -5.8452 0.0000
# 3 74.4602 33.0004 78.9994 0.0000 -9.1399 0.0000
# 4 0.0000 0.0000 0.0000 20.8204 0.0000 -2.0991
# 5 -13.6953 -5.8452 -9.1399 0.0000 25.4676 0.0000
# 6 0.0000 0.0000 0.0000 -2.0991 0.0000 30.5548
#
#
#
# Elastic Compliance Matrix: (Units=1/GPa)
#
#
# Indices 1 2 3 4 5 6 
#
# 1 0.012550 -0.009635 -0.007595 0.000000 0.001812 0.000000
# 2 -0.009635 0.060560 -0.015866 0.000000 0.003024 0.000000
# 3 -0.007595 -0.015866 0.026657 0.000000 0.001841 0.000000
# 4 0.000000 0.000000 0.000000 0.048365 0.000000 0.003323
# 5 0.001812 0.003024 0.001841 0.000000 0.041595 0.000000
# 6 0.000000 0.000000 0.000000 0.003323 0.000000 0.032956
#
#
# Mechanical properties :
#
#
# Convention : Reuss Voigt Hill
#
# Bulk Modulus (GPa) = 29.78369 64.51371 47.14870
# Shear Modulus (GPa) = 16.66291 23.39122 20.02706
#
# Velocity S-wave (km/s) = 3.17163 3.75780 3.47709
# Velocity P-wave (km/s) = 5.60290 7.60095 6.67709
#
# Compressibility (1/GPa) = 0.03357543
#
# Stress axis : x y z
#
# Youngs Moduli (GPa) = 79.67815 16.51261 37.51298
#
# Poissons Ratio (x) = 0.15911 0.28490
# Poissons Ratio (y) = 0.76773 0.59518
# Poissons Ratio (z) = 0.60514 0.26199
#
# Static dielectric constant tensor:
#      x y z
#    x 1.532970 0.000000 0.004690 
#    y 0.000000 1.555260 0.000000 
#    z 0.004690 0.000000 1.550910 
# 
# From -- ./inp_files/288157.got.cif
#   From: 2010.05.17/outbox.cif.g08.bks.cpg/sg12_145_cif.got.tgz:288157.got - 2010.06.03 13:09:07.
