data_PCOD9174804
_publ_section_title
;
Structure prediction by ZEFSAII (Michael W. Deem and Ramdas Pophale) SiO2 
 PCOD9174804
Probable space group: C 2/M
;
_chemical_formula_sum "Si O2"
_cell_formula_units_Z 56
_cell_length_a 19.840236
_cell_length_b 8.713677
_cell_length_c 28.916223
_cell_angle_alpha 90.000000
_cell_angle_beta 39.360328
_cell_angle_gamma 90.000000
_cell_volume 3170.391434
_symmetry_space_group_name_H-M "C 2/M"
_symmetry_group_IT_number 12
_symmetry_cell_setting 'monoclinic'
loop_
_space_group_symop_operation_xyz
x,y,z
-x,y,-z
-x,-y,-z
x,-y,z
1/2+x,1/2+y,z
1/2-x,1/2+y,-z
1/2-x,1/2-y,-z
1/2+x,1/2-y,z
loop_
_atom_site_type_symbol
_atom_site_label
_atom_site_fract_x
_atom_site_fract_y
_atom_site_fract_z
Si Si1 0.868239 0.684050 0.685650
Si Si2 0.357184 0.183438 0.209067
Si Si3 0.398449 0.813471 0.082137
Si Si4 0.161456 0.185523 0.196273
Si Si5 0.687922 0.181273 0.602655
Si Si6 0.397625 0.816552 0.455701
Si Si7 0.035647 0.182675 0.759979
O O1 0.863714 0.500000 0.688236
O O2 0.761055 0.750078 0.720426
O O3 0.869272 0.743320 0.737998
O O4 0.979853 0.729952 0.603156
O O5 0.394566 0.233879 0.137988
O O6 0.435338 0.239151 0.207325
O O7 0.350023 0.000000 0.212737
O O8 0.283738 0.771001 0.121899
O O9 0.403047 0.000000 0.079483
O O10 0.500000 0.756272 0.000000
O O11 0.076797 0.231621 0.202548
O O12 0.157018 0.000000 0.203387
O O13 0.634079 0.213100 0.581173
O O14 0.810122 0.231965 0.532798
O O15 0.625153 0.271423 0.675212
O O16 0.679773 0.000000 0.615797
O O17 0.388264 0.000000 0.467866
O O18 0.034552 0.000000 0.766492
#
# Coordination Sequence:
#
# PCOD9174804 Si02
#       7
#     8   8   8   8   8   8   8
#     4  10  18  32  53  76 103 135 174 217 260 307
#     4  10  21  35  53  77 105 137 174 212 257 311
#     4   8  15  32  57  81 103 131 169 210 252 303
#     4   9  18  31  52  79 103 135 176 212 250 303
#     4  10  19  31  49  74 103 136 174 217 261 305
#     4   9  18  31  48  74 103 134 172 215 263 308
#     4  11  21  34  51  74 107 141 174 215 261 306
#
# _framework density 17.663435
#
# number of rings (size 3 to 8) (size 9 to 14) (size 15 to 20)
#    0.000    2.429    1.429    2.571    0.000    2.286 
#    0.000    1.429    0.000   15.000    0.000    0.000 
#    0.000    0.000    0.000    0.000    0.000    0.000 
#
# Total GULP energy -156175.657292 kJ/mol
# GULP energy per Si atom -5577.702046 kJ/mol
# Density = 1.762323 g / cm^3
# Si number density = 17.663435 Si / 1000 Ang^3
#
#
#
# Elastic Constant Matrix: (Units=GPa)
#
#
# Indices 1 2 3 4 5 6 
#
# 1 110.4706 24.8807 45.6582 0.0000 -20.4549 0.0004
# 2 24.8807 25.2089 17.5117 0.0000 -6.0722 0.0000
# 3 45.6582 17.5117 108.9318 0.0000 -26.2451 -0.0001
# 4 0.0000 0.0000 0.0000 15.5357 0.0000 -0.0146
# 5 -20.4549 -6.0722 -26.2451 0.0000 17.2521 -0.0001
# 6 0.0004 0.0000 -0.0001 -0.0146 -0.0001 26.3623
#
#
#
# Elastic Compliance Matrix: (Units=1/GPa)
#
#
# Indices 1 2 3 4 5 6 
#
# 1 0.013957 -0.010074 -0.001733 0.000000 0.010366 0.000000
# 2 -0.010074 0.052563 -0.004180 0.000000 0.000197 0.000000
# 3 -0.001733 -0.004180 0.015358 0.000000 0.019837 0.000000
# 4 0.000000 0.000000 0.000000 0.064368 0.000000 0.000036
# 5 0.010366 0.000197 0.019837 0.000000 0.100501 0.000000
# 6 0.000000 0.000000 0.000000 0.000036 0.000000 0.037933
#
#
# Mechanical properties :
#
#
# Convention : Reuss Voigt Hill
#
# Bulk Modulus (GPa) = 20.03885 46.74584 33.39235
# Shear Modulus (GPa) = 15.00206 22.26741 18.63473
#
# Velocity S-wave (km/s) = 2.91749 3.55442 3.25158
# Velocity P-wave (km/s) = 4.76638 6.58539 5.74829
#
# Compressibility (1/GPa) = 0.04990306
#
# Stress axis : x y z
#
# Youngs Moduli (GPa) = 71.65004 19.02491 65.11342
#
# Poissons Ratio (x) = 0.19166 0.11284
# Poissons Ratio (y) = 0.72183 0.27216
# Poissons Ratio (z) = 0.12417 0.07952
#
# Static dielectric constant tensor:
#      x y z
#    x 1.602820 0.000000 -0.018880 
#    y 0.000000 1.589300 0.000000 
#    z -0.018880 0.000000 1.596110 
# 
# From -- ./inp_files/342348.got.cif
#   From: 2010.05.17/outbox.cif.g08.bks.cpg/sg12_172_cif.got.tgz:342348.got - 2010.06.03 13:09:07.
