data_PCOD9174024
_publ_section_title
;
Structure prediction by ZEFSAII (Michael W. Deem and Ramdas Pophale) SiO2 
 PCOD9174024
Probable space group: C 2/M
;
_chemical_formula_sum "Si O2"
_cell_formula_units_Z 48
_cell_length_a 30.694104
_cell_length_b 8.394189
_cell_length_c 19.976084
_cell_angle_alpha 90.000000
_cell_angle_beta 31.120796
_cell_angle_gamma 90.000000
_cell_volume 2660.134582
_symmetry_space_group_name_H-M "C 2/M"
_symmetry_group_IT_number 12
_symmetry_cell_setting 'monoclinic'
loop_
_space_group_symop_operation_xyz
x,y,z
-x,y,-z
-x,-y,-z
x,-y,z
1/2+x,1/2+y,z
1/2-x,1/2+y,-z
1/2-x,1/2-y,-z
1/2+x,1/2-y,z
loop_
_atom_site_type_symbol
_atom_site_label
_atom_site_fract_x
_atom_site_fract_y
_atom_site_fract_z
Si Si1 0.011484 0.307011 0.908681
Si Si2 0.470455 0.692628 0.612005
Si Si3 0.386102 0.193590 0.959934
Si Si4 0.033671 0.309357 0.666063
Si Si5 0.219766 0.807244 0.111987
Si Si6 0.154558 0.189342 0.621278
O O1 0.012786 0.500000 0.907109
O O2 0.095658 0.252317 0.759424
O O3 0.932728 0.254178 0.966109
O O4 0.000000 0.252433 0.000000
O O5 0.500000 0.745272 0.500000
O O6 0.471044 0.500000 0.612239
O O7 0.527581 0.750372 0.598342
O O8 0.374582 0.748789 0.749725
O O9 0.447723 0.241798 0.817827
O O10 0.385349 0.000000 0.961792
O O11 0.291244 0.246876 0.070562
O O12 0.036677 0.500000 0.663266
O O13 0.109659 0.245755 0.611662
O O14 0.218637 0.000000 0.113967
O O15 0.250000 0.750000 0.000000
O O16 0.250000 0.250000 0.500000
O O17 0.154195 0.000000 0.623738
#
# Coordination Sequence:
#
# PCOD9174024 Si02
#       6
#     8   8   8   8   8   8
#     4   9  18  35  57  83 115 147 182 226 281 335
#     4  10  21  35  50  77 115 148 181 223 276 331
#     4   8  15  29  51  77 102 136 179 221 264 315
#     4  10  19  35  58  80 106 140 185 230 278 332
#     4  10  18  31  52  75 103 138 181 224 261 314
#     4  11  22  38  60  84 112 145 187 231 279 335
#
# _framework density 18.044198999999999
#
# number of rings (size 3 to 8) (size 9 to 14) (size 15 to 20)
#    0.000    2.333    1.667    3.000    0.000    0.667 
#    3.000    0.000    0.000    0.000    0.000    0.000 
#    0.000    0.000    0.000    0.000    0.000    0.000 
#
# Total GULP energy -133861.940834 kJ/mol
# GULP energy per Si atom -5577.580868 kJ/mol
# Density = 1.800313 g / cm^3
# Si number density = 18.044199 Si / 1000 Ang^3
#
#
#
# Elastic Constant Matrix: (Units=GPa)
#
#
# Indices 1 2 3 4 5 6 
#
# 1 176.5581 27.4852 98.3207 -0.0008 7.5289 -0.0005
# 2 27.4852 29.3926 22.1706 -0.0074 1.7363 0.0020
# 3 98.3207 22.1706 122.9673 -0.0066 -5.5517 -0.0003
# 4 -0.0008 -0.0074 -0.0066 20.2011 0.0015 2.7078
# 5 7.5289 1.7363 -5.5517 0.0015 35.1606 0.0009
# 6 -0.0005 0.0020 -0.0003 2.7078 0.0009 23.1764
#
#
#
# Elastic Compliance Matrix: (Units=1/GPa)
#
#
# Indices 1 2 3 4 5 6 
#
# 1 0.011019 -0.003860 -0.008272 -0.000004 -0.003475 0.000001
# 2 -0.003860 0.041065 -0.004404 0.000014 -0.001897 -0.000005
# 3 -0.008272 -0.004404 0.015742 0.000003 0.004474 0.000000
# 4 -0.000004 0.000014 0.000003 0.050290 -0.000002 -0.005876
# 5 -0.003475 -0.001897 0.004474 -0.000002 0.029985 -0.000001
# 6 0.000001 -0.000005 0.000000 -0.005876 -0.000001 0.043834
#
#
# Mechanical properties :
#
#
# Convention : Reuss Voigt Hill
#
# Bulk Modulus (GPa) = 28.77156 69.43011 49.10084
# Shear Modulus (GPa) = 21.13367 27.77037 24.45202
#
# Velocity S-wave (km/s) = 3.42602 3.92729 3.68519
# Velocity P-wave (km/s) = 5.62404 7.68935 6.73632
#
# Compressibility (1/GPa) = 0.03475654
#
# Stress axis : x y z
#
# Youngs Moduli (GPa) = 90.75182 24.35174 63.52504
#
# Poissons Ratio (x) = 0.09399 0.52545
# Poissons Ratio (y) = 0.35026 0.27973
# Poissons Ratio (z) = 0.75065 0.10723
#
# Static dielectric constant tensor:
#      x y z
#    x 1.623210 0.000000 -0.012270 
#    y 0.000000 1.617470 0.000000 
#    z -0.012270 0.000000 1.605200 
# 
# From -- ./inp_files/329014.got.cif
#   From: 2010.05.17/outbox.cif.g08.bks.cpg/sg12_165_cif.got.tgz:329014.got - 2010.06.03 13:09:07.
