data_PCOD9174682
_publ_section_title
;
Structure prediction by ZEFSAII (Michael W. Deem and Ramdas Pophale) SiO2 
 PCOD9174682
Probable space group: C 2/M
;
_chemical_formula_sum "Si O2"
_cell_formula_units_Z 56
_cell_length_a 23.599603
_cell_length_b 7.515551
_cell_length_c 19.965308
_cell_angle_alpha 90.000000
_cell_angle_beta 54.787086
_cell_angle_gamma 90.000000
_cell_volume 2893.153948
_symmetry_space_group_name_H-M "C 2/M"
_symmetry_group_IT_number 12
_symmetry_cell_setting 'monoclinic'
loop_
_space_group_symop_operation_xyz
x,y,z
-x,y,-z
-x,-y,-z
x,-y,z
1/2+x,1/2+y,z
1/2-x,1/2+y,-z
1/2-x,1/2-y,-z
1/2+x,1/2-y,z
loop_
_atom_site_type_symbol
_atom_site_label
_atom_site_fract_x
_atom_site_fract_y
_atom_site_fract_z
Si Si1 0.818104 0.713751 0.496389
Si Si2 0.958936 0.298845 0.336696
Si Si3 0.406402 0.791342 0.817035
Si Si4 0.182537 0.210292 0.000834
Si Si5 0.803029 0.701594 0.656982
Si Si6 0.453461 0.706458 0.597334
Si Si7 0.272396 0.219069 0.820935
O O1 0.829179 0.500000 0.495745
O O2 0.750000 0.750000 0.500000
O O3 0.885922 0.783564 0.410347
O O4 0.806576 0.783482 0.580189
O O5 0.943004 0.500000 0.323989
O O6 0.016478 0.215507 0.247741
O O7 0.004079 0.299784 0.373631
O O8 0.380325 0.778213 0.911106
O O9 0.344141 0.723497 0.810245
O O10 0.411781 0.000000 0.797054
O O11 0.173259 0.000000 0.002147
O O12 0.250000 0.250000 0.000000
O O13 0.207379 0.275533 0.911219
O O14 0.776255 0.500000 0.667127
O O15 0.882120 0.700414 0.628357
O O16 0.766787 0.780480 0.747918
O O17 0.500000 0.707654 0.500000
O O18 0.440418 0.500000 0.624591
O O19 0.274346 0.000000 0.819227
#
# Coordination Sequence:
#
# PCOD9174682 Si02
#       7
#     8   8   8   8   8   8   8
#     4  10  22  36  53  70  90 123 161 201 244 286
#     4  10  19  33  51  69  91 128 168 194 227 289
#     4   9  16  27  44  66  93 123 157 195 226 268
#     4   9  16  26  39  60  95 130 156 186 226 274
#     4  10  18  32  52  69  89 127 168 192 224 288
#     4  11  21  29  42  71 103 125 148 195 246 275
#     4   8  14  25  43  66  91 121 155 191 221 261
#
# _framework density 19.356038000000002
#
# number of rings (size 3 to 8) (size 9 to 14) (size 15 to 20)
#    0.000    2.429    2.857    1.714    0.000    2.286 
#    0.000    0.714    0.000    0.000    0.000    1.000 
#    0.000    8.000    0.000    0.000    0.000    0.000 
#
# Total GULP energy -155879.038566 kJ/mol
# GULP energy per Si atom -5567.108520 kJ/mol
# Density = 1.931198 g / cm^3
# Si number density = 19.356038 Si / 1000 Ang^3
#
#
#
# Elastic Constant Matrix: (Units=GPa)
#
#
# Indices 1 2 3 4 5 6 
#
# 1 66.0150 -9.6811 52.8974 0.0010 -6.9317 -0.0014
# 2 -9.6811 58.7186 7.8366 -0.0117 -0.2700 0.0082
# 3 52.8974 7.8366 218.3785 0.0013 -4.3381 0.0028
# 4 0.0010 -0.0117 0.0013 14.9846 -0.0013 1.6426
# 5 -6.9317 -0.2700 -4.3381 -0.0013 7.7020 0.0010
# 6 -0.0014 0.0082 0.0028 1.6426 0.0010 28.8213
#
#
#
# Elastic Compliance Matrix: (Units=1/GPa)
#
#
# Indices 1 2 3 4 5 6 
#
# 1 0.021584 0.004310 -0.005050 0.000004 0.016732 0.000000
# 2 0.004310 0.017973 -0.001617 0.000015 0.003598 -0.000006
# 3 -0.005050 -0.001617 0.005834 -0.000002 -0.001316 0.000000
# 4 0.000004 0.000015 -0.000002 0.067155 0.000015 -0.003827
# 5 0.016732 0.003598 -0.001316 0.000015 0.144281 -0.000006
# 6 0.000000 -0.000006 0.000000 -0.003827 -0.000006 0.034915
#
#
# Mechanical properties :
#
#
# Convention : Reuss Voigt Hill
#
# Bulk Modulus (GPa) = 24.58517 49.46867 37.02692
# Shear Modulus (GPa) = 16.12816 29.77218 22.95017
#
# Velocity S-wave (km/s) = 2.88972 3.92616 3.44711
# Velocity P-wave (km/s) = 4.88498 6.79453 5.91729
#
# Compressibility (1/GPa) = 0.04067493
#
# Stress axis : x y z
#
# Youngs Moduli (GPa) = 46.33094 55.63806 171.39499
#
# Poissons Ratio (x) = -0.23977 0.86563
# Poissons Ratio (y) = -0.19966 0.27722
# Poissons Ratio (z) = 0.23399 0.08999
#
# Static dielectric constant tensor:
#      x y z
#    x 1.624280 0.000000 -0.002310 
#    y 0.000000 1.757620 0.000000 
#    z -0.002310 0.000000 1.793880 
# 
# From -- ./inp_files/287860.got.cif
#   From: 2010.05.17/outbox.cif.g08.bks.cpg/sg12_144_cif.got.tgz:287860.got - 2010.06.03 13:09:07.
