data_PCOD9174909
_publ_section_title
;
Structure prediction by ZEFSAII (Michael W. Deem and Ramdas Pophale) SiO2 
 PCOD9174909
Probable space group: C 2/M
;
_chemical_formula_sum "Si O2"
_cell_formula_units_Z 50
_cell_length_a 28.142018
_cell_length_b 7.739132
_cell_length_c 12.687466
_cell_angle_alpha 90.000000
_cell_angle_beta 65.333177
_cell_angle_gamma 90.000000
_cell_volume 2511.116150
_symmetry_space_group_name_H-M "C 2/M"
_symmetry_group_IT_number 12
_symmetry_cell_setting 'monoclinic'
loop_
_space_group_symop_operation_xyz
x,y,z
-x,y,-z
-x,-y,-z
x,-y,z
1/2+x,1/2+y,z
1/2-x,1/2+y,-z
1/2-x,1/2-y,-z
1/2+x,1/2-y,z
loop_
_atom_site_type_symbol
_atom_site_label
_atom_site_fract_x
_atom_site_fract_y
_atom_site_fract_z
Si Si1 0.470676 0.210377 0.354361
Si Si2 0.689762 0.699906 0.549686
Si Si3 0.909286 0.709073 0.778344
Si Si4 0.000000 0.500000 0.000000
Si Si5 0.877051 0.290697 0.587113
Si Si6 0.598262 0.802297 0.775933
Si Si7 0.433535 0.689900 0.975656
O O1 0.530608 0.262415 0.301663
O O2 0.433132 0.262178 0.485221
O O3 0.441049 0.268963 0.275913
O O4 0.469743 0.000000 0.353896
O O5 0.683373 0.500000 0.583489
O O6 0.750000 0.750000 0.500000
O O7 0.666557 0.728511 0.454213
O O8 0.653340 0.804029 0.665048
O O9 0.907567 0.500000 0.783842
O O10 0.874911 0.765551 0.710326
O O11 0.898686 0.779831 0.904293
O O12 0.974598 0.345486 0.947158
O O13 0.875560 0.500000 0.586506
O O14 0.597969 0.704134 0.885667
O O15 0.580025 0.000000 0.821274
O O16 0.457701 0.500000 0.945871
#
# Coordination Sequence:
#
# PCOD9174909 Si02
#       7
#     8   8   8   2   8   8   8
#     4   8  15  27  50  78 106 149 195 230 272 334
#     4  11  22  38  61  88 114 142 188 244 305 364
#     4  10  18  32  54  78 116 159 199 235 280 344
#     4  12  22  40  52  78 118 164 210 248 288 328
#     4   9  18  33  54  82 112 151 190 234 294 350
#     4  10  19  36  59  83 116 150 192 246 298 346
#     4  12  24  36  55  82 115 161 209 250 291 342
#
# _framework density 19.911465
#
# number of rings (size 3 to 8) (size 9 to 14) (size 15 to 20)
#    0.000    1.920    1.600    4.560    2.240    2.560 
#    0.000    3.200    0.000    5.760    0.000    0.000 
#    0.000    0.000    0.000    0.000    0.000    0.000 
#
# Total GULP energy -139405.911224 kJ/mol
# GULP energy per Si atom -5576.236449 kJ/mol
# Density = 1.986615 g / cm^3
# Si number density = 19.911465 Si / 1000 Ang^3
#
#
#
# Elastic Constant Matrix: (Units=GPa)
#
#
# Indices 1 2 3 4 5 6 
#
# 1 78.5843 10.9035 45.6820 0.0000 11.2433 0.0000
# 2 10.9035 101.7203 20.5182 0.0000 7.6190 0.0000
# 3 45.6820 20.5182 115.9313 0.0000 37.4305 0.0000
# 4 0.0000 0.0000 0.0000 9.9209 0.0000 2.6559
# 5 11.2433 7.6190 37.4305 0.0000 29.8569 0.0000
# 6 0.0000 0.0000 0.0000 2.6559 0.0000 10.0349
#
#
#
# Elastic Compliance Matrix: (Units=1/GPa)
#
#
# Indices 1 2 3 4 5 6 
#
# 1 0.016723 -0.000514 -0.007573 0.000000 0.003328 0.000000
# 2 -0.000514 0.010216 -0.001388 0.000000 -0.000673 0.000000
# 3 -0.007573 -0.001388 0.018178 0.000000 -0.019584 0.000000
# 4 0.000000 0.000000 0.000000 0.108483 0.000000 -0.028711
# 5 0.003328 -0.000673 -0.019584 0.000000 0.056963 0.000000
# 6 0.000000 0.000000 0.000000 -0.028711 0.000000 0.107251
#
#
# Mechanical properties :
#
#
# Convention : Reuss Voigt Hill
#
# Bulk Modulus (GPa) = 38.21623 50.04925 44.13274
# Shear Modulus (GPa) = 14.47231 24.57137 19.52184
#
# Velocity S-wave (km/s) = 2.69891 3.51669 3.13458
# Velocity P-wave (km/s) = 5.38023 6.45600 5.94251
#
# Compressibility (1/GPa) = 0.02616689
#
# Stress axis : x y z
#
# Youngs Moduli (GPa) = 59.79923 97.88146 55.01017
#
# Poissons Ratio (x) = 0.05033 0.41658
# Poissons Ratio (y) = 0.03075 0.07637
# Poissons Ratio (z) = 0.45285 0.13588
#
# Static dielectric constant tensor:
#      x y z
#    x 1.615440 0.000000 0.097780 
#    y 0.000000 1.752480 0.000000 
#    z 0.097780 0.000000 1.639260 
# 
# From -- ./inp_files/179780.got.cif
#   From: 2010.05.17/outbox.cif.g08.bks.cpg/sg12_90_cif.got.tgz:179780.got - 2010.06.03 13:09:07.
