data_PCOD9174382
_publ_section_title
;
Structure prediction by ZEFSAII (Michael W. Deem and Ramdas Pophale) SiO2 
 PCOD9174382
Probable space group: C 2/M
;
_chemical_formula_sum "Si O2"
_cell_formula_units_Z 64
_cell_length_a 10.671295
_cell_length_b 16.616518
_cell_length_c 18.033512
_cell_angle_alpha 90.000000
_cell_angle_beta 93.324552
_cell_angle_gamma 90.000000
_cell_volume 3192.316578
_symmetry_space_group_name_H-M "C 2/M"
_symmetry_group_IT_number 12
_symmetry_cell_setting 'monoclinic'
loop_
_space_group_symop_operation_xyz
x,y,z
-x,y,-z
-x,-y,-z
x,-y,z
1/2+x,1/2+y,z
1/2-x,1/2+y,-z
1/2-x,1/2-y,-z
1/2+x,1/2-y,z
loop_
_atom_site_type_symbol
_atom_site_label
_atom_site_fract_x
_atom_site_fract_y
_atom_site_fract_z
Si Si1 0.873095 0.803864 0.210057
Si Si2 0.862308 0.858145 0.972189
Si Si3 0.801729 0.410149 0.296853
Si Si4 0.776197 0.406198 0.688401
Si Si5 0.603740 0.405455 0.186871
Si Si6 0.665088 0.178973 0.078557
Si Si7 0.513320 0.901875 0.415669
Si Si8 0.497887 0.867902 0.194733
O O1 0.826238 0.843076 0.285444
O O2 0.755092 0.794355 0.150629
O O3 0.966814 0.867945 0.177224
O O4 0.953250 0.722365 0.215126
O O5 0.831831 0.889287 0.889483
O O6 0.871335 0.761040 0.964032
O O7 0.752456 0.873078 0.027417
O O8 0.000000 0.888852 0.000000
O O9 0.770283 0.500000 0.322982
O O10 0.677047 0.368701 0.260796
O O11 0.895966 0.373631 0.360772
O O12 0.882329 0.416760 0.223814
O O13 0.733567 0.500000 0.681455
O O14 0.853571 0.381348 0.617667
O O15 0.884225 0.401285 0.755024
O O16 0.595674 0.500000 0.198727
O O17 0.544783 0.136938 0.111889
O O18 0.500000 0.876499 0.500000
O O19 0.509535 0.000000 0.412603
#
# Coordination Sequence:
#
# PCOD9174382 Si02
#       8
#     8   8   8   8   8   8   8   8
#     4  11  20  34  52  79 103 145 184 218 268 329
#     4  11  20  35  50  72 100 134 180 224 275 317
#     4   9  19  34  53  79 108 136 171 221 269 313
#     4   9  19  33  52  83 113 137 175 230 270 309
#     4  11  22  35  50  72 108 144 177 221 273 328
#     4  10  20  33  52  73  99 130 178 235 270 311
#     4   8  14  30  58  86 108 137 179 219 261 316
#     4  10  18  31  55  77 102 135 181 224 268 321
#
# _framework density 20.048136
#
# number of rings (size 3 to 8) (size 9 to 14) (size 15 to 20)
#    0.000    2.125    2.500    2.250    1.750    1.250 
#    0.000    1.250    0.000    5.250    0.000    4.375 
#    0.000    0.000    0.000    0.000    0.000    0.000 
#
# Total GULP energy -178220.774426 kJ/mol
# GULP energy per Si atom -5569.399201 kJ/mol
# Density = 2.000251 g / cm^3
# Si number density = 20.048136 Si / 1000 Ang^3
#
#
#
# Elastic Constant Matrix: (Units=GPa)
#
#
# Indices 1 2 3 4 5 6 
#
# 1 48.9039 17.0554 29.3971 0.0000 0.0546 0.0000
# 2 17.0554 43.0156 18.5679 0.0000 -6.5879 0.0000
# 3 29.3971 18.5679 102.6770 0.0000 -14.4333 0.0000
# 4 0.0000 0.0000 0.0000 18.4534 0.0000 -8.6369
# 5 0.0546 -6.5879 -14.4333 0.0000 33.7561 0.0000
# 6 0.0000 0.0000 0.0000 -8.6369 0.0000 1.0082
#
#
#
# Elastic Compliance Matrix: (Units=1/GPa)
#
#
# Indices 1 2 3 4 5 6 
#
# 1 0.027706 -0.008677 -0.007030 0.000000 -0.004744 0.000000
# 2 -0.008677 0.028254 -0.001966 0.000000 0.004688 0.000000
# 3 -0.007030 -0.001966 0.012826 0.000000 0.005112 0.000000
# 4 0.000000 0.000000 0.000000 -0.018006 0.000000 -0.154254
# 5 -0.004744 0.004688 0.005112 0.000000 0.032732 0.000000
# 6 0.000000 0.000000 0.000000 -0.154254 0.000000 -0.329575
#
#
# Mechanical properties :
#
#
# Convention : Reuss Voigt Hill
#
# Bulk Modulus (GPa) = 29.90478 36.07080 32.98779
# Shear Modulus (GPa) = -25.05401 19.28194 -2.88603
#
# Velocity S-wave (km/s) = -3.53893 3.10463 -1.20111
# Velocity P-wave (km/s) = 1.32283 5.55723 3.81660
#
# Compressibility (1/GPa) = 0.03343947
#
# Stress axis : x y z
#
# Youngs Moduli (GPa) = 36.09382 35.39271 77.96568
#
# Poissons Ratio (x) = 0.30711 0.54810
# Poissons Ratio (y) = 0.31319 0.15330
# Poissons Ratio (z) = 0.25374 0.06959
#
# Static dielectric constant tensor:
#      x y z
#    x 1.748950 0.000000 -0.018000 
#    y 0.000000 1.739000 0.000000 
#    z -0.018000 0.000000 1.720980 
# 
# From -- ./inp_files/263905.got.cif
#   From: 2010.05.17/outbox.cif.g08.bks.cpg/sg12_132_cif.got.tgz:263905.got - 2010.06.03 13:09:07.
