data_PCOD9174923
_publ_section_title
;
Structure prediction by ZEFSAII (Michael W. Deem and Ramdas Pophale) SiO2 
 PCOD9174923
Probable space group: C 2/M
;
_chemical_formula_sum "Si O2"
_cell_formula_units_Z 44
_cell_length_a 15.783392
_cell_length_b 16.598070
_cell_length_c 10.353947
_cell_angle_alpha 90.000000
_cell_angle_beta 119.729409
_cell_angle_gamma 90.000000
_cell_volume 2355.440993
_symmetry_space_group_name_H-M "C 2/M"
_symmetry_group_IT_number 12
_symmetry_cell_setting 'monoclinic'
loop_
_space_group_symop_operation_xyz
x,y,z
-x,y,-z
-x,-y,-z
x,-y,z
1/2+x,1/2+y,z
1/2-x,1/2+y,-z
1/2-x,1/2-y,-z
1/2+x,1/2-y,z
loop_
_atom_site_type_symbol
_atom_site_label
_atom_site_fract_x
_atom_site_fract_y
_atom_site_fract_z
Si Si1 0.367043 0.405051 0.604616
Si Si2 0.500000 0.203036 0.500000
Si Si3 0.576473 0.406176 0.879080
Si Si4 0.825598 0.595037 0.373942
Si Si5 0.650229 0.673709 0.686661
Si Si6 0.275594 0.703090 0.887513
O O1 0.369691 0.500000 0.578058
O O2 0.464340 0.388926 0.760187
O O3 0.269880 0.388676 0.612275
O O4 0.365001 0.360899 0.466504
O O5 0.417882 0.144602 0.496426
O O6 0.437694 0.261620 0.360703
O O7 0.585993 0.500000 0.927093
O O8 0.636283 0.390813 0.790037
O O9 0.622890 0.342635 0.013768
O O10 0.843935 0.500000 0.383243
O O11 0.796962 0.631335 0.212156
O O12 0.750425 0.725025 0.768569
O O13 0.250000 0.750000 0.000000
#
# Coordination Sequence:
#
# PCOD9174923 Si02
#       6
#     8   4   8   8   8   8
#     4  10  20  33  56  85 111 138 175 226 279 323
#     4  10  19  32  53  74 106 142 176 220 261 314
#     4  10  18  32  54  79 111 146 177 218 272 329
#     4  10  21  36  54  79 108 142 183 223 267 321
#     4  10  18  34  52  82 111 139 183 221 268 321
#     4   9  20  33  51  74 108 144 180 217 264 323
#
# _framework density 18.680153000000001
#
# number of rings (size 3 to 8) (size 9 to 14) (size 15 to 20)
#    0.000    2.182    1.818    1.364    0.000    5.091 
#    0.000    2.727    4.000    0.000    0.000    0.000 
#    0.000   26.182    0.000    0.000    0.000    0.000 
#
# Total GULP energy -122474.136828 kJ/mol
# GULP energy per Si atom -5567.006219 kJ/mol
# Density = 1.863764 g / cm^3
# Si number density = 18.680153 Si / 1000 Ang^3
#
#
#
# Elastic Constant Matrix: (Units=GPa)
#
#
# Indices 1 2 3 4 5 6 
#
# 1 63.3689 62.2678 44.0234 0.0000 18.4402 0.0000
# 2 62.2678 77.5362 39.9051 0.0000 11.7172 0.0000
# 3 44.0234 39.9051 87.2595 0.0000 18.9528 0.0000
# 4 0.0000 0.0000 0.0000 30.9042 0.0000 15.8230
# 5 18.4402 11.7172 18.9528 0.0000 25.1901 0.0000
# 6 0.0000 0.0000 0.0000 15.8230 0.0000 18.7454
#
#
#
# Elastic Compliance Matrix: (Units=1/GPa)
#
#
# Indices 1 2 3 4 5 6 
#
# 1 0.110375 -0.076622 -0.012954 0.000000 -0.035412 0.000000
# 2 -0.076622 0.070184 0.001755 0.000000 0.022123 0.000000
# 3 -0.012954 0.001755 0.018301 0.000000 -0.005103 0.000000
# 4 0.000000 0.000000 0.000000 0.056987 0.000000 -0.048103
# 5 -0.035412 0.022123 -0.005103 0.000000 0.059170 0.000000
# 6 0.000000 0.000000 0.000000 -0.048103 0.000000 0.093950
#
#
# Mechanical properties :
#
#
# Convention : Reuss Voigt Hill
#
# Bulk Modulus (GPa) = 43.06714 57.83971 50.45342
# Shear Modulus (GPa) = 8.44100 20.43250 14.43675
#
# Velocity S-wave (km/s) = 2.12803 3.31086 2.78301
# Velocity P-wave (km/s) = 5.39843 6.75620 6.11512
#
# Compressibility (1/GPa) = 0.02321956
#
# Stress axis : x y z
#
# Youngs Moduli (GPa) = 9.06005 14.24828 54.64138
#
# Poissons Ratio (x) = 1.09172 0.70780
# Poissons Ratio (y) = 0.69420 -0.09590
# Poissons Ratio (z) = 0.11736 -0.02501
#
# Static dielectric constant tensor:
#      x y z
#    x 1.652360 0.000000 0.017230 
#    y 0.000000 1.665750 0.000000 
#    z 0.017230 0.000000 1.686870 
# 
# From -- ./inp_files/143271.got.cif
#   From: 2010.05.17/outbox.cif.g08.bks.cpg/sg12_72_cif.got.tgz:143271.got - 2010.06.03 13:09:07.
