data_PCOD9174801
_publ_section_title
;
Structure prediction by ZEFSAII (Michael W. Deem and Ramdas Pophale) SiO2 
 PCOD9174801
Probable space group: C 2/M
;
_chemical_formula_sum "Si O2"
_cell_formula_units_Z 56
_cell_length_a 23.374107
_cell_length_b 14.368907
_cell_length_c 12.544278
_cell_angle_alpha 90.000000
_cell_angle_beta 57.845705
_cell_angle_gamma 90.000000
_cell_volume 3566.908067
_symmetry_space_group_name_H-M "C 2/M"
_symmetry_group_IT_number 12
_symmetry_cell_setting 'monoclinic'
loop_
_space_group_symop_operation_xyz
x,y,z
-x,y,-z
-x,-y,-z
x,-y,z
1/2+x,1/2+y,z
1/2-x,1/2+y,-z
1/2-x,1/2-y,-z
1/2+x,1/2-y,z
loop_
_atom_site_type_symbol
_atom_site_label
_atom_site_fract_x
_atom_site_fract_y
_atom_site_fract_z
Si Si1 0.443713 0.608338 0.144917
Si Si2 0.071613 0.391074 0.489704
Si Si3 0.108832 0.711501 0.080325
Si Si4 0.419251 0.893358 0.103452
Si Si5 0.661285 0.607074 0.930997
Si Si6 0.318864 0.890697 0.802195
Si Si7 0.048956 0.282948 0.723267
O O1 0.456947 0.500000 0.156991
O O2 0.373621 0.615654 0.150019
O O3 0.444631 0.676139 0.244733
O O4 0.500000 0.638334 0.000000
O O5 0.075435 0.500000 0.522168
O O6 0.131423 0.373914 0.346407
O O7 0.074260 0.319801 0.585141
O O8 0.000000 0.381059 0.500000
O O9 0.157282 0.669126 0.121150
O O10 0.031443 0.696542 0.192729
O O11 0.115490 0.659902 0.959842
O O12 0.125102 0.819197 0.043266
O O13 0.413659 0.840615 0.220604
O O14 0.396997 0.000000 0.131366
O O15 0.500000 0.892850 0.000000
O O16 0.650412 0.500000 0.975834
O O17 0.740960 0.626168 0.850509
O O18 0.326192 0.000000 0.822813
#
# Coordination Sequence:
#
# PCOD9174801 Si02
#       7
#     8   8   8   8   8   8   8
#     4  10  18  32  53  76 102 131 171 218 256 294
#     4  10  20  34  52  74 103 139 173 203 241 301
#     4  11  18  30  51  76 105 130 163 212 259 307
#     4   9  17  26  42  73 104 129 156 200 259 305
#     4  10  20  34  52  76 104 134 172 213 255 299
#     4  10  21  35  51  75 105 139 173 205 247 304
#     4  11  18  30  51  77 103 129 167 211 253 300
#
# _framework density 15.699871999999999
#
# number of rings (size 3 to 8) (size 9 to 14) (size 15 to 20)
#    0.000    1.857    4.286    1.714    0.000    1.143 
#    0.000    0.714    0.000    1.286    0.000    0.000 
#    0.000    0.000    0.000    0.000    0.000    0.000 
#
# Total GULP energy -156102.227917 kJ/mol
# GULP energy per Si atom -5575.079568 kJ/mol
# Density = 1.566414 g / cm^3
# Si number density = 15.699872 Si / 1000 Ang^3
#
#
#
# Elastic Constant Matrix: (Units=GPa)
#
#
# Indices 1 2 3 4 5 6 
#
# 1 85.6065 32.0965 28.2980 0.0000 8.9455 0.0000
# 2 32.0965 83.6729 39.3066 0.0000 14.5524 0.0000
# 3 28.2980 39.3066 59.0769 0.0000 14.4411 0.0000
# 4 0.0000 0.0000 0.0000 23.5713 0.0000 6.8090
# 5 8.9455 14.5524 14.4411 0.0000 18.6168 0.0000
# 6 0.0000 0.0000 0.0000 6.8090 0.0000 21.9854
#
#
#
# Elastic Compliance Matrix: (Units=1/GPa)
#
#
# Indices 1 2 3 4 5 6 
#
# 1 0.014506 -0.003271 -0.004558 0.000000 -0.000878 0.000000
# 2 -0.003271 0.018626 -0.009442 0.000000 -0.005664 0.000000
# 3 -0.004558 -0.009442 0.028447 0.000000 -0.012496 0.000000
# 4 0.000000 0.000000 0.000000 0.046593 0.000000 -0.014430
# 5 -0.000878 -0.005664 -0.012496 0.000000 0.068258 0.000000
# 6 0.000000 0.000000 0.000000 -0.014430 0.000000 0.049954
#
#
# Mechanical properties :
#
#
# Convention : Reuss Voigt Hill
#
# Bulk Modulus (GPa) = 36.98334 47.52871 42.25602
# Shear Modulus (GPa) = 18.52284 21.41170 19.96727
#
# Velocity S-wave (km/s) = 3.43856 3.69699 3.57011
# Velocity P-wave (km/s) = 6.27475 6.96869 6.63081
#
# Compressibility (1/GPa) = 0.02703920
#
# Stress axis : x y z
#
# Youngs Moduli (GPa) = 68.93721 53.68707 35.15334
#
# Poissons Ratio (x) = 0.17559 0.16021
# Poissons Ratio (y) = 0.22547 0.33191
# Poissons Ratio (z) = 0.31419 0.50690
#
# Static dielectric constant tensor:
#      x y z
#    x 1.527340 0.000000 -0.004080 
#    y 0.000000 1.545710 0.000000 
#    z -0.004080 0.000000 1.493120 
# 
# From -- ./inp_files/166632.got.cif
#   From: 2010.05.17/outbox.cif.g08.bks.cpg/sg12_84_cif.got.tgz:166632.got - 2010.06.03 13:09:07.
