data_PCOD9174435
_publ_section_title
;
Structure prediction by ZEFSAII (Michael W. Deem and Ramdas Pophale) SiO2 
 PCOD9174435
Probable space group: C 2/M
;
_chemical_formula_sum "Si O2"
_cell_formula_units_Z 64
_cell_length_a 15.045821
_cell_length_b 29.232487
_cell_length_c 12.476361
_cell_angle_alpha 90.000000
_cell_angle_beta 141.018543
_cell_angle_gamma 90.000000
_cell_volume 3451.975985
_symmetry_space_group_name_H-M "C 2/M"
_symmetry_group_IT_number 12
_symmetry_cell_setting 'monoclinic'
loop_
_space_group_symop_operation_xyz
x,y,z
-x,y,-z
-x,-y,-z
x,-y,z
1/2+x,1/2+y,z
1/2-x,1/2+y,-z
1/2-x,1/2-y,-z
1/2+x,1/2-y,z
loop_
_atom_site_type_symbol
_atom_site_label
_atom_site_fract_x
_atom_site_fract_y
_atom_site_fract_z
Si Si1 0.332489 0.278650 0.864761
Si Si2 0.151884 0.579348 0.593873
Si Si3 0.281446 0.669263 0.615938
Si Si4 0.298879 0.821320 0.895009
Si Si5 0.718844 0.550726 0.066437
Si Si6 0.969380 0.550389 0.740175
Si Si7 0.893249 0.147011 0.095952
Si Si8 0.609573 0.851710 0.246913
O O1 0.265066 0.290307 0.686624
O O2 0.272381 0.232701 0.859130
O O3 0.500000 0.271263 0.000000
O O4 0.323397 0.321588 0.937090
O O5 0.235940 0.623696 0.636353
O O6 0.234067 0.553891 0.765203
O O7 0.114285 0.551791 0.451345
O O8 0.000000 0.593479 0.500000
O O9 0.446116 0.663372 0.743810
O O10 0.188624 0.670182 0.422332
O O11 0.189023 0.844279 0.871507
O O12 0.305365 0.842750 0.782377
O O13 0.455904 0.829169 0.089176
O O14 0.660635 0.500000 0.990117
O O15 0.865124 0.556141 0.136076
O O16 0.620680 0.593848 0.948833
O O17 0.950971 0.500000 0.772418
O O18 0.916754 0.594295 0.756546
#
# Coordination Sequence:
#
# PCOD9174435 Si02
#       8
#     8   8   8   8   8   8   8   8
#     4  10  20  38  61  84 113 151 191 241 295 347
#     4   9  17  32  55  86 120 153 185 240 292 345
#     4  10  22  37  62  87 119 150 188 242 295 347
#     4  11  22  41  61  81 115 157 200 239 291 340
#     4  10  18  31  55  85 119 156 191 231 292 358
#     4   9  17  32  56  89 116 149 199 246 288 331
#     4  11  22  38  57  84 123 155 188 234 294 351
#     4  10  21  39  62  85 114 155 196 248 282 340
#
# _framework density 18.540106000000002
#
# number of rings (size 3 to 8) (size 9 to 14) (size 15 to 20)
#    0.000    2.000    3.750    0.750    0.000    2.500 
#    0.000    5.625    2.750    0.000    0.000    4.375 
#    0.000    0.000    0.000    0.000    0.000    0.000 
#
# Total GULP energy -178568.089148 kJ/mol
# GULP energy per Si atom -5580.252786 kJ/mol
# Density = 1.849791 g / cm^3
# Si number density = 18.540106 Si / 1000 Ang^3
#
#
#
# Elastic Constant Matrix: (Units=GPa)
#
#
# Indices 1 2 3 4 5 6 
#
# 1 62.6160 29.1105 22.4581 0.0000 -14.1502 0.0000
# 2 29.1105 100.2912 37.8949 0.0000 -15.1292 0.0000
# 3 22.4581 37.8949 75.9542 0.0000 -22.9043 0.0000
# 4 0.0000 0.0000 0.0000 15.9249 0.0000 2.5838
# 5 -14.1502 -15.1292 -22.9043 0.0000 14.2738 0.0000
# 6 0.0000 0.0000 0.0000 2.5838 0.0000 25.5699
#
#
#
# Elastic Compliance Matrix: (Units=1/GPa)
#
#
# Indices 1 2 3 4 5 6 
#
# 1 0.021715 -0.003877 0.001484 0.000000 0.019799 0.000000
# 2 -0.003877 0.013267 -0.004633 0.000000 0.002784 0.000000
# 3 0.001484 -0.004633 0.027128 0.000000 0.040091 0.000000
# 4 0.000000 0.000000 0.000000 0.063841 0.000000 -0.006451
# 5 0.019799 0.002784 0.040091 0.000000 0.156968 0.000000
# 6 0.000000 0.000000 0.000000 -0.006451 0.000000 0.039760
#
#
# Mechanical properties :
#
#
# Convention : Reuss Voigt Hill
#
# Bulk Modulus (GPa) = 20.80838 46.42096 33.61467
# Shear Modulus (GPa) = 14.17430 21.11359 17.64394
#
# Velocity S-wave (km/s) = 2.76800 3.37828 3.08825
# Velocity P-wave (km/s) = 4.63288 6.34898 5.55757
#
# Compressibility (1/GPa) = 0.04805756
#
# Stress axis : x y z
#
# Youngs Moduli (GPa) = 46.05174 75.37536 36.86190
#
# Poissons Ratio (x) = 0.29223 -0.05471
# Poissons Ratio (y) = 0.17854 0.17079
# Poissons Ratio (z) = -0.06835 0.34924
#
# Static dielectric constant tensor:
#      x y z
#    x 1.622240 0.000000 -0.009620 
#    y 0.000000 1.656530 0.000000 
#    z -0.009620 0.000000 1.634270 
# 
# From -- ./inp_files/150291.got.cif
#   From: 2010.05.17/outbox.cif.g08.bks.cpg/sg12_76_cif.got.tgz:150291.got - 2010.06.03 13:09:07.
