data_PCOD9174947
_publ_section_title
;
Structure prediction by ZEFSAII (Michael W. Deem and Ramdas Pophale) SiO2 
 PCOD9174947
Probable space group: C 2/M
;
_chemical_formula_sum "Si O2"
_cell_formula_units_Z 44
_cell_length_a 8.986357
_cell_length_b 25.104073
_cell_length_c 19.588571
_cell_angle_alpha 90.000000
_cell_angle_beta 31.717359
_cell_angle_gamma 90.000000
_cell_volume 2323.233574
_symmetry_space_group_name_H-M "C 2/M"
_symmetry_group_IT_number 12
_symmetry_cell_setting 'monoclinic'
loop_
_space_group_symop_operation_xyz
x,y,z
-x,y,-z
-x,-y,-z
x,-y,z
1/2+x,1/2+y,z
1/2-x,1/2+y,-z
1/2-x,1/2-y,-z
1/2+x,1/2-y,z
loop_
_atom_site_type_symbol
_atom_site_label
_atom_site_fract_x
_atom_site_fract_y
_atom_site_fract_z
Si Si1 0.834519 0.190438 0.859832
Si Si2 0.983708 0.000000 0.270016
Si Si3 0.682865 0.891046 0.368006
Si Si4 0.315088 0.296456 0.139856
Si Si5 0.587287 0.910832 0.256011
Si Si6 0.909988 0.500000 0.227203
Si Si7 0.067511 0.000000 0.081974
O O1 0.852574 0.241165 0.802373
O O2 0.034786 0.143065 0.756470
O O3 0.976671 0.205260 0.876705
O O4 0.500000 0.176836 0.000000
O O5 0.790744 0.051555 0.347555
O O6 0.176813 0.000000 0.260510
O O7 0.142939 0.000000 0.133477
O O8 0.500000 0.866518 0.500000
O O9 0.509756 0.900774 0.365366
O O10 0.142162 0.351454 0.207891
O O11 0.500000 0.297888 0.000000
O O12 0.400826 0.948026 0.279700
O O13 0.874603 0.947040 0.147482
O O14 0.195903 0.500000 0.068855
#
# Coordination Sequence:
#
# PCOD9174947 Si02
#       7
#     8   4   8   8   8   4   4
#     4  10  21  35  57  85 109 140 184 227 269 319
#     4  10  22  33  56  81 103 142 186 222 270 331
#     4  10  22  42  58  74 108 153 186 218 270 335
#     4  10  18  32  54  81 113 146 176 220 275 326
#     4   9  19  33  53  78 110 151 182 216 275 329
#     4  11  19  31  53  88 117 136 177 237 276 314
#     4   9  17  32  50  81 119 148 173 213 275 335
#
# _framework density 18.939121
#
# number of rings (size 3 to 8) (size 9 to 14) (size 15 to 20)
#    0.000    2.182    0.000    5.455    0.000    7.273 
#    0.000    5.455    0.000    0.000    0.000    0.000 
#    0.000    0.000    0.000    0.000    0.000    0.000 
#
# Total GULP energy -122594.974061 kJ/mol
# GULP energy per Si atom -5572.498821 kJ/mol
# Density = 1.889601 g / cm^3
# Si number density = 18.939121 Si / 1000 Ang^3
#
#
#
# Elastic Constant Matrix: (Units=GPa)
#
#
# Indices 1 2 3 4 5 6 
#
# 1 110.4513 46.9371 23.4273 0.0010 17.8426 0.0015
# 2 46.9371 113.8188 29.0166 -0.0001 -0.5333 0.0033
# 3 23.4273 29.0166 63.0740 0.0011 17.3041 -0.0195
# 4 0.0010 -0.0001 0.0011 15.8684 0.0013 -7.0520
# 5 17.8426 -0.5333 17.3041 0.0013 14.6953 0.0017
# 6 0.0015 0.0033 -0.0195 -7.0520 0.0017 16.8258
#
#
#
# Elastic Compliance Matrix: (Units=1/GPa)
#
#
# Indices 1 2 3 4 5 6 
#
# 1 0.015142 -0.007457 0.004320 0.000005 -0.023742 0.000010
# 2 -0.007457 0.014400 -0.009575 -0.000009 0.020851 -0.000019
# 3 0.004320 -0.009575 0.029824 0.000023 -0.040711 0.000050
# 4 0.000005 -0.000009 0.000023 0.077443 -0.000044 0.032458
# 5 -0.023742 0.020851 -0.040711 -0.000044 0.145570 -0.000082
# 6 0.000010 -0.000019 0.000050 0.032458 -0.000082 0.073036
#
#
# Mechanical properties :
#
#
# Convention : Reuss Voigt Hill
#
# Bulk Modulus (GPa) = 29.46319 54.01178 41.73749
# Shear Modulus (GPa) = 12.75016 22.00877 17.37947
#
# Velocity S-wave (km/s) = 2.59746 3.41263 3.03256
# Velocity P-wave (km/s) = 4.95846 6.64143 5.86067
#
# Compressibility (1/GPa) = 0.03394065
#
# Stress axis : x y z
#
# Youngs Moduli (GPa) = 66.04325 69.44578 33.53041
#
# Poissons Ratio (x) = 0.51784 -0.14485
# Poissons Ratio (y) = 0.49246 0.32107
# Poissons Ratio (z) = -0.28530 0.66497
#
# Static dielectric constant tensor:
#      x y z
#    x 1.680450 0.000000 0.015580 
#    y 0.000000 1.685610 0.000000 
#    z 0.015580 0.000000 1.680360 
# 
# From -- ./inp_files/259119.got.cif
#   From: 2010.05.17/outbox.cif.g08.bks.cpg/sg12_130_cif.got.tgz:259119.got - 2010.06.03 13:09:07.
