data_PCOD9174752
_publ_section_title
;
Structure prediction by ZEFSAII (Michael W. Deem and Ramdas Pophale) SiO2 
 PCOD9174752
Probable space group: C 2/M
;
_chemical_formula_sum "Si O2"
_cell_formula_units_Z 40
_cell_length_a 11.427758
_cell_length_b 22.538673
_cell_length_c 9.787269
_cell_angle_alpha 90.000000
_cell_angle_beta 41.532225
_cell_angle_gamma 90.000000
_cell_volume 1671.442362
_symmetry_space_group_name_H-M "C 2/M"
_symmetry_group_IT_number 12
_symmetry_cell_setting 'monoclinic'
loop_
_space_group_symop_operation_xyz
x,y,z
-x,y,-z
-x,-y,-z
x,-y,z
1/2+x,1/2+y,z
1/2-x,1/2+y,-z
1/2-x,1/2-y,-z
1/2+x,1/2-y,z
loop_
_atom_site_type_symbol
_atom_site_label
_atom_site_fract_x
_atom_site_fract_y
_atom_site_fract_z
Si Si1 0.878953 0.157846 0.374434
Si Si2 0.883998 0.736144 0.218562
Si Si3 0.801974 0.348595 0.725044
Si Si4 0.764613 0.931850 0.661442
Si Si5 0.638252 0.930781 0.077915
O O1 0.985893 0.214940 0.224457
O O2 0.716449 0.192666 0.592717
O O3 0.824399 0.125170 0.282384
O O4 0.908382 0.108170 0.459273
O O5 0.751195 0.779240 0.248924
O O6 0.000000 0.706572 0.000000
O O7 0.789514 0.382809 0.877714
O O8 0.000000 0.355253 0.500000
O O9 0.574516 0.926292 0.749625
O O10 0.815778 0.000000 0.606890
O O11 0.716410 0.918619 0.860009
O O12 0.677112 0.000000 0.079989
#
# Coordination Sequence:
#
# PCOD9174752 Si02
#       5
#     8   8   8   8   8
#     4   9  19  34  54  74 107 138 176 214 262 312
#     4   9  20  36  55  73 109 146 172 216 264 314
#     4  10  18  32  52  79 106 130 180 223 256 306
#     4   9  17  30  51  78 108 139 169 212 277 319
#     4   9  17  28  47  79 110 136 170 218 270 315
#
# _framework density 23.931426999999999
#
# number of rings (size 3 to 8) (size 9 to 14) (size 15 to 20)
#    1.200    1.600    2.000    1.200    2.800    1.200 
#    0.000    4.000    0.000    2.400    0.000    2.800 
#    0.000    0.000    0.000    0.000    0.000    0.000 
#
# Total GULP energy -111392.478110 kJ/mol
# GULP energy per Si atom -5569.623906 kJ/mol
# Density = 2.387696 g / cm^3
# Si number density = 23.931427 Si / 1000 Ang^3
#
#
#
# Elastic Constant Matrix: (Units=GPa)
#
#
# Indices 1 2 3 4 5 6 
#
# 1 87.9683 32.9014 14.2938 0.0000 26.4140 0.0000
# 2 32.9014 112.9305 38.0129 0.0000 26.9027 0.0000
# 3 14.2938 38.0129 63.3434 0.0000 23.8717 0.0000
# 4 0.0000 0.0000 0.0000 -40.2658 0.0000 76.6755
# 5 26.4140 26.9027 23.8717 0.0000 43.3161 0.0000
# 6 0.0000 0.0000 0.0000 76.6755 0.0000 -29.7378
#
#
#
# Elastic Compliance Matrix: (Units=1/GPa)
#
#
# Indices 1 2 3 4 5 6 
#
# 1 0.014571 -0.002832 0.001385 0.000000 -0.007890 0.000000
# 2 -0.002832 0.012245 -0.005672 0.000000 -0.002752 0.000000
# 3 0.001385 -0.005672 0.022553 0.000000 -0.009751 0.000000
# 4 0.000000 0.000000 0.000000 0.006352 0.000000 0.016378
# 5 -0.007890 -0.002752 -0.009751 0.000000 0.034980 0.000000
# 6 0.000000 0.000000 0.000000 0.016378 0.000000 0.008601
#
#
# Mechanical properties :
#
#
# Convention : Reuss Voigt Hill
#
# Bulk Modulus (GPa) = 28.46528 48.29537 38.38032
# Shear Modulus (GPa) = 39.92027 6.59812 23.25919
#
# Velocity S-wave (km/s) = 4.08868 1.66225 3.12093
# Velocity P-wave (km/s) = 5.84894 4.88965 5.39067
#
# Compressibility (1/GPa) = 0.03513052
#
# Stress axis : x y z
#
# Youngs Moduli (GPa) = 68.63034 81.66667 44.34011
#
# Poissons Ratio (x) = 0.23125 -0.06139
# Poissons Ratio (y) = 0.19434 0.25150
# Poissons Ratio (z) = -0.09503 0.46321
#
# Static dielectric constant tensor:
#      x y z
#    x 2.022020 0.000000 -0.008940 
#    y 0.000000 1.953020 0.000000 
#    z -0.008940 0.000000 1.907150 
# 
# From -- ./inp_files/50403.got.cif
#   From: 2010.05.17/outbox.cif.g08.bks.cpg/sg12_26_cif.got.tgz:50403.got - 2010.06.03 13:09:07.
