data_PCOD9174255
_publ_section_title
;
Structure prediction by ZEFSAII (Michael W. Deem and Ramdas Pophale) SiO2 
 PCOD9174255
Probable space group: C 2/M
;
_chemical_formula_sum "Si O2"
_cell_formula_units_Z 32
_cell_length_a 24.850070
_cell_length_b 7.699896
_cell_length_c 11.394564
_cell_angle_alpha 90.000000
_cell_angle_beta 60.161121
_cell_angle_gamma 90.000000
_cell_volume 1891.226900
_symmetry_space_group_name_H-M "C 2/M"
_symmetry_group_IT_number 12
_symmetry_cell_setting 'monoclinic'
loop_
_space_group_symop_operation_xyz
x,y,z
-x,y,-z
-x,-y,-z
x,-y,z
1/2+x,1/2+y,z
1/2-x,1/2+y,-z
1/2-x,1/2-y,-z
1/2+x,1/2-y,z
loop_
_atom_site_type_symbol
_atom_site_label
_atom_site_fract_x
_atom_site_fract_y
_atom_site_fract_z
Si Si1 0.965360 0.299291 0.416286
Si Si2 0.692051 0.799667 0.729082
Si Si3 0.171392 0.790760 0.481378
Si Si4 0.604496 0.500000 0.902431
Si Si5 0.005025 0.000000 0.798798
O O1 0.977719 0.500000 0.372425
O O2 0.891403 0.273371 0.509594
O O3 0.986568 0.168061 0.292072
O O4 0.000000 0.258626 0.500000
O O5 0.764621 0.747194 0.653830
O O6 0.675094 0.784370 0.609043
O O7 0.648079 0.668517 0.845425
O O8 0.685250 0.000000 0.772528
O O9 0.169390 0.000000 0.494444
O O10 0.559071 0.500000 0.838289
O O11 0.560028 0.500000 0.062804
#
# Coordination Sequence:
#
# PCOD9174255 Si02
#       5
#     8   8   8   4   4
#     4  11  22  36  57  84 106 142 186 227 271 317
#     4  10  19  31  52  81 111 139 173 224 271 321
#     4  10  18  31  53  82 111 134 176 228 276 315
#     4  11  22  36  54  82 113 150 178 208 274 340
#     4  11  23  38  54  78 119 145 179 219 262 336
#
# _framework density 16.920231999999999
#
# number of rings (size 3 to 8) (size 9 to 14) (size 15 to 20)
#    0.000    1.500    5.000    1.125    3.500    1.000 
#    0.000    2.500    0.000    1.500    0.000    0.000 
#    0.000    0.000    0.000    0.000    0.000    0.000 
#
# Total GULP energy -89328.811989 kJ/mol
# GULP energy per Si atom -5583.050749 kJ/mol
# Density = 1.688172 g / cm^3
# Si number density = 16.920232 Si / 1000 Ang^3
#
#
#
# Elastic Constant Matrix: (Units=GPa)
#
#
# Indices 1 2 3 4 5 6 
#
# 1 139.6018 43.9770 64.7031 0.0000 -17.3017 0.0000
# 2 43.9770 107.2771 62.8003 0.0000 -16.8250 0.0000
# 3 64.7031 62.8003 83.4549 0.0000 -23.7681 0.0000
# 4 0.0000 0.0000 0.0000 7.4549 0.0000 -2.4745
# 5 -17.3017 -16.8250 -23.7681 0.0000 30.8894 0.0000
# 6 0.0000 0.0000 0.0000 -2.4745 0.0000 25.5653
#
#
#
# Elastic Compliance Matrix: (Units=1/GPa)
#
#
# Indices 1 2 3 4 5 6 
#
# 1 0.011235 0.000892 -0.009543 0.000000 -0.000564 0.000000
# 2 0.000892 0.016745 -0.013514 0.000000 -0.000778 0.000000
# 3 -0.009543 -0.013514 0.033209 0.000000 0.012847 0.000000
# 4 0.000000 0.000000 0.000000 0.138592 0.000000 0.013415
# 5 -0.000564 -0.000778 0.012847 0.000000 0.041519 0.000000
# 6 0.000000 0.000000 0.000000 0.013415 0.000000 0.040414
#
#
# Mechanical properties :
#
#
# Convention : Reuss Voigt Hill
#
# Bulk Modulus (GPa) = 59.30995 74.81052 67.06023
# Shear Modulus (GPa) = 15.07550 23.37216 19.22383
#
# Velocity S-wave (km/s) = 2.98816 3.72064 3.37433
# Velocity P-wave (km/s) = 6.85815 7.92257 7.40950
#
# Compressibility (1/GPa) = 0.01686058
#
# Stress axis : x y z
#
# Youngs Moduli (GPa) = 89.00639 59.71927 30.11220
#
# Poissons Ratio (x) = -0.05327 0.28735
# Poissons Ratio (y) = -0.07940 0.40693
# Poissons Ratio (z) = 0.84934 0.80704
#
# Static dielectric constant tensor:
#      x y z
#    x 1.583500 0.000000 -0.019040 
#    y 0.000000 1.585200 0.000000 
#    z -0.019040 0.000000 1.529790 
# 
# From -- ./inp_files/92059.got.cif
#   From: 2010.05.17/outbox.cif.g08.bks.cpg/sg12_47_cif.got.tgz:92059.got - 2010.06.03 13:09:07.
