data_PCOD9174934
_publ_section_title
;
Structure prediction by ZEFSAII (Michael W. Deem and Ramdas Pophale) SiO2 
 PCOD9174934
Probable space group: C 2/M
;
_chemical_formula_sum "Si O2"
_cell_formula_units_Z 56
_cell_length_a 14.027789
_cell_length_b 20.155783
_cell_length_c 14.992182
_cell_angle_alpha 90.000000
_cell_angle_beta 44.469849
_cell_angle_gamma 90.000000
_cell_volume 2969.496774
_symmetry_space_group_name_H-M "C 2/M"
_symmetry_group_IT_number 12
_symmetry_cell_setting 'monoclinic'
loop_
_space_group_symop_operation_xyz
x,y,z
-x,y,-z
-x,-y,-z
x,-y,z
1/2+x,1/2+y,z
1/2-x,1/2+y,-z
1/2-x,1/2-y,-z
1/2+x,1/2-y,z
loop_
_atom_site_type_symbol
_atom_site_label
_atom_site_fract_x
_atom_site_fract_y
_atom_site_fract_z
Si Si1 0.374302 0.798933 0.896861
Si Si2 0.324548 0.772089 0.300630
Si Si3 0.553154 0.422648 0.739439
Si Si4 0.130052 0.817300 0.556842
Si Si5 0.800885 0.423834 0.710609
Si Si6 0.406698 0.214815 0.665073
Si Si7 0.286123 0.422628 0.027169
O O1 0.523499 0.784257 0.835922
O O2 0.396766 0.789118 0.777262
O O3 0.250000 0.750000 0.000000
O O4 0.323961 0.873911 0.942778
O O5 0.253565 0.831022 0.405980
O O6 0.327159 0.717234 0.378177
O O7 0.226392 0.747977 0.288350
O O8 0.535618 0.500000 0.730861
O O9 0.554797 0.380970 0.647111
O O10 0.692258 0.416503 0.703512
O O11 0.431061 0.402780 0.887981
O O12 0.035563 0.763592 0.568690
O O13 0.854715 0.500000 0.672647
O O14 0.905121 0.362347 0.636794
O O15 0.724082 0.416146 0.858184
O O16 0.262742 0.500000 0.023422
#
# Coordination Sequence:
#
# PCOD9174934 Si02
#       7
#     8   8   8   8   8   8   8
#     4  10  21  34  52  82 110 138 183 224 271 329
#     4  10  20  35  52  75 105 145 183 229 270 313
#     4  10  18  32  54  80 111 144 181 227 274 325
#     4  10  20  34  54  78 105 142 193 225 266 322
#     4   9  17  29  50  82 114 145 177 215 276 338
#     4  10  19  33  55  79 110 145 177 226 273 322
#     4   9  17  30  51  78 111 144 173 217 278 338
#
# _framework density 18.858414
#
# number of rings (size 3 to 8) (size 9 to 14) (size 15 to 20)
#    0.000    2.286    1.429    2.571    0.000    2.286 
#    0.000    0.714    0.000    9.429    0.000    3.000 
#    0.000    0.000    0.000    0.000    0.000    0.000 
#
# Total GULP energy -155880.547576 kJ/mol
# GULP energy per Si atom -5567.162413 kJ/mol
# Density = 1.881549 g / cm^3
# Si number density = 18.858414 Si / 1000 Ang^3
#
#
#
# Elastic Constant Matrix: (Units=GPa)
#
#
# Indices 1 2 3 4 5 6 
#
# 1 76.6235 29.6444 -1.7327 -0.0001 -15.7115 0.0001
# 2 29.6444 84.2558 37.3902 -0.0001 -9.3291 0.0001
# 3 -1.7327 37.3902 68.0085 -0.0003 -18.4861 0.0002
# 4 -0.0001 -0.0001 -0.0003 9.4565 0.0002 3.0512
# 5 -15.7115 -9.3291 -18.4861 0.0002 16.4280 -0.0001
# 6 0.0001 0.0001 0.0002 3.0512 -0.0001 26.5912
#
#
#
# Elastic Compliance Matrix: (Units=1/GPa)
#
#
# Indices 1 2 3 4 5 6 
#
# 1 0.026495 -0.013232 0.018433 0.000000 0.038568 0.000000
# 2 -0.013232 0.022322 -0.018158 0.000000 -0.020411 0.000000
# 3 0.018433 -0.018158 0.039108 0.000000 0.051326 0.000000
# 4 0.000000 0.000000 0.000000 0.109813 -0.000001 -0.012601
# 5 0.038568 -0.020411 0.051326 -0.000001 0.143923 0.000000
# 6 0.000000 0.000000 0.000000 -0.012601 0.000000 0.039052
#
#
# Mechanical properties :
#
#
# Convention : Reuss Voigt Hill
#
# Bulk Modulus (GPa) = 16.12562 39.94350 28.03456
# Shear Modulus (GPa) = 11.70149 21.40086 16.55117
#
# Velocity S-wave (km/s) = 2.49367 3.37236 2.96574
# Velocity P-wave (km/s) = 4.10617 6.03245 5.15999
#
# Compressibility (1/GPa) = 0.06201311
#
# Stress axis : x y z
#
# Youngs Moduli (GPa) = 37.74266 44.79912 25.57031
#
# Poissons Ratio (x) = 0.59277 -0.47135
# Poissons Ratio (y) = 0.49940 0.46429
# Poissons Ratio (z) = -0.69573 0.81344
#
# Static dielectric constant tensor:
#      x y z
#    x 1.650940 0.000000 -0.055080 
#    y 0.000000 1.716940 0.000000 
#    z -0.055080 0.000000 1.745960 
# 
# From -- ./inp_files/216319.got.cif
#   From: 2010.05.17/outbox.cif.g08.bks.cpg/sg12_109_cif.got.tgz:216319.got - 2010.06.03 13:09:07.
