data_PCOD9174692
_publ_section_title
;
Structure prediction by ZEFSAII (Michael W. Deem and Ramdas Pophale) SiO2 
 PCOD9174692
Probable space group: C 2/M
;
_chemical_formula_sum "Si O2"
_cell_formula_units_Z 56
_cell_length_a 15.924503
_cell_length_b 17.132094
_cell_length_c 12.843069
_cell_angle_alpha 90.000000
_cell_angle_beta 108.365915
_cell_angle_gamma 90.000000
_cell_volume 3325.373859
_symmetry_space_group_name_H-M "C 2/M"
_symmetry_group_IT_number 12
_symmetry_cell_setting 'monoclinic'
loop_
_space_group_symop_operation_xyz
x,y,z
-x,y,-z
-x,-y,-z
x,-y,z
1/2+x,1/2+y,z
1/2-x,1/2+y,-z
1/2-x,1/2-y,-z
1/2+x,1/2-y,z
loop_
_atom_site_type_symbol
_atom_site_label
_atom_site_fract_x
_atom_site_fract_y
_atom_site_fract_z
Si Si1 0.809409 0.192160 0.299319
Si Si2 0.390293 0.195034 0.747764
Si Si3 0.417618 0.731293 0.534724
Si Si4 0.495775 0.665861 0.881359
Si Si5 0.019693 0.910030 0.677035
Si Si6 0.835596 0.274353 0.098127
Si Si7 0.961376 0.408543 0.101271
O O1 0.707523 0.167563 0.260798
O O2 0.837291 0.223418 0.423501
O O3 0.881825 0.125293 0.302282
O O4 0.820751 0.257882 0.214594
O O5 0.396157 0.221750 0.630279
O O6 0.418014 0.271040 0.827845
O O7 0.464081 0.129946 0.796838
O O8 0.500000 0.765041 0.500000
O O9 0.453764 0.646752 0.587731
O O10 0.496124 0.603226 0.789274
O O11 0.584021 0.717399 0.901268
O O12 0.500000 0.635086 0.000000
O O13 0.013958 0.000000 0.645386
O O14 0.871724 0.359928 0.084508
O O15 0.750000 0.250000 0.000000
O O16 0.949526 0.500000 0.114090
O O17 0.000000 0.396628 0.000000
#
# Coordination Sequence:
#
# PCOD9174692 Si02
#       7
#     8   8   8   8   8   8   8
#     4  10  19  30  51  76  96 127 167 207 241 284
#     4  10  18  32  52  73  98 125 162 203 243 289
#     4   9  18  32  51  74  95 127 168 206 243 282
#     4   9  17  30  49  71  94 127 166 199 236 283
#     4   9  19  32  46  70 102 131 160 199 248 291
#     4  10  18  32  52  72  97 128 164 200 238 286
#     4  10  20  33  50  74 103 131 160 200 251 298
#
# _framework density 16.840212000000001
#
# number of rings (size 3 to 8) (size 9 to 14) (size 15 to 20)
#    0.000    2.429    0.000    6.429    0.000    3.429 
#    0.000    4.286    0.000   10.714    0.000    0.000 
#    0.000    0.000    0.000    0.000    0.000    0.000 
#
# Total GULP energy -156068.035169 kJ/mol
# GULP energy per Si atom -5573.858399 kJ/mol
# Density = 1.680188 g / cm^3
# Si number density = 16.840212 Si / 1000 Ang^3
#
#
#
# Elastic Constant Matrix: (Units=GPa)
#
#
# Indices 1 2 3 4 5 6 
#
# 1 70.4315 34.5508 36.5707 0.0000 14.5814 0.0000
# 2 34.5508 94.7408 38.4588 0.0000 -1.6938 0.0000
# 3 36.5707 38.4588 126.9090 0.0000 -5.1872 0.0000
# 4 0.0000 0.0000 0.0000 7.1511 0.0000 -3.0854
# 5 14.5814 -1.6938 -5.1872 0.0000 34.7778 0.0000
# 6 0.0000 0.0000 0.0000 -3.0854 0.0000 14.6224
#
#
#
# Elastic Compliance Matrix: (Units=1/GPa)
#
#
# Indices 1 2 3 4 5 6 
#
# 1 0.021855 -0.006188 -0.004839 0.000000 -0.010187 0.000000
# 2 -0.006188 0.013788 -0.002275 0.000000 0.002927 0.000000
# 3 -0.004839 -0.002275 0.010104 0.000000 0.003425 0.000000
# 4 0.000000 0.000000 0.000000 0.153844 0.000000 0.032461
# 5 -0.010187 0.002927 0.003425 0.000000 0.033678 0.000000
# 6 0.000000 0.000000 0.000000 0.032461 0.000000 0.075238
#
#
# Mechanical properties :
#
#
# Convention : Reuss Voigt Hill
#
# Bulk Modulus (GPa) = 52.24230 56.80465 54.52347
# Shear Modulus (GPa) = 14.64162 23.47700 19.05931
#
# Velocity S-wave (km/s) = 2.95183 3.73782 3.36783
# Velocity P-wave (km/s) = 6.53509 7.24108 6.89712
#
# Compressibility (1/GPa) = 0.01914158
#
# Stress axis : x y z
#
# Youngs Moduli (GPa) = 45.75539 72.52751 98.97406
#
# Poissons Ratio (x) = 0.44881 0.47894
# Poissons Ratio (y) = 0.28314 0.22521
# Poissons Ratio (z) = 0.22141 0.16504
#
# Static dielectric constant tensor:
#      x y z
#    x 1.580120 0.000000 -0.011510 
#    y 0.000000 1.543470 0.000000 
#    z -0.011510 0.000000 1.595720 
# 
# From -- ./inp_files/145688.got.cif
#   From: 2010.05.17/outbox.cif.g08.bks.cpg/sg12_73_cif.got.tgz:145688.got - 2010.06.03 13:09:07.
