data_PCOD9174309
_publ_section_title
;
Structure prediction by ZEFSAII (Michael W. Deem and Ramdas Pophale) SiO2 
 PCOD9174309
Probable space group: C 2/M
;
_chemical_formula_sum "Si O2"
_cell_formula_units_Z 40
_cell_length_a 8.119970
_cell_length_b 20.644958
_cell_length_c 15.232000
_cell_angle_alpha 90.000000
_cell_angle_beta 56.541092
_cell_angle_gamma 90.000000
_cell_volume 2130.286168
_symmetry_space_group_name_H-M "C 2/M"
_symmetry_group_IT_number 12
_symmetry_cell_setting 'monoclinic'
loop_
_space_group_symop_operation_xyz
x,y,z
-x,y,-z
-x,-y,-z
x,-y,z
1/2+x,1/2+y,z
1/2-x,1/2+y,-z
1/2-x,1/2-y,-z
1/2+x,1/2-y,z
loop_
_atom_site_type_symbol
_atom_site_label
_atom_site_fract_x
_atom_site_fract_y
_atom_site_fract_z
Si Si1 0.455575 0.576083 0.877834
Si Si2 0.002754 0.844671 0.695178
Si Si3 0.096740 0.293742 0.735134
Si Si4 0.671131 0.176176 0.521196
Si Si5 0.292122 0.345156 0.067084
O O1 0.430420 0.500000 0.894545
O O2 0.476894 0.598596 0.772148
O O3 0.645279 0.601411 0.877929
O O4 0.283052 0.616701 0.977749
O O5 0.104206 0.783284 0.714854
O O6 0.140568 0.862209 0.571755
O O7 0.794020 0.817045 0.724633
O O8 0.094220 0.331818 0.642523
O O9 0.900311 0.308371 0.847430
O O10 0.500000 0.169295 0.500000
O O11 0.750000 0.250000 0.500000
O O12 0.500000 0.304882 0.000000
#
# Coordination Sequence:
#
# PCOD9174309 Si02
#       5
#     8   8   8   8   8
#     4   9  19  38  58  76 107 145 186 219 262 322
#     4  11  21  33  56  83 112 144 175 223 272 321
#     4  11  20  35  54  85 114 137 177 224 276 323
#     4  10  18  31  54  79 110 140 173 215 271 329
#     4   8  19  36  57  79 101 143 178 222 270 316
#
# _framework density 18.776819
#
# number of rings (size 3 to 8) (size 9 to 14) (size 15 to 20)
#    1.200    0.800    0.000    9.000    0.000    1.600 
#    0.000    3.000    0.000    9.000    0.000    0.000 
#    0.000    0.000    0.000    0.000    0.000    0.000 
#
# Total GULP energy -111367.421960 kJ/mol
# GULP energy per Si atom -5568.371098 kJ/mol
# Density = 1.873408 g / cm^3
# Si number density = 18.776819 Si / 1000 Ang^3
#
#
#
# Elastic Constant Matrix: (Units=GPa)
#
#
# Indices 1 2 3 4 5 6 
#
# 1 53.3109 -9.7579 11.6659 0.0000 -11.6723 0.0000
# 2 -9.7579 22.6112 13.7645 0.0000 -0.2406 0.0000
# 3 11.6659 13.7645 109.6502 0.0000 -15.4896 0.0000
# 4 0.0000 0.0000 0.0000 8.9732 0.0000 9.0905
# 5 -11.6723 -0.2406 -15.4896 0.0000 33.6047 0.0000
# 6 0.0000 0.0000 0.0000 9.0905 0.0000 8.2578
#
#
#
# Elastic Compliance Matrix: (Units=1/GPa)
#
#
# Indices 1 2 3 4 5 6 
#
# 1 0.023049 0.011838 -0.002990 0.000000 0.006712 0.000000
# 2 0.011838 0.054178 -0.007942 0.000000 0.000839 0.000000
# 3 -0.002990 -0.007942 0.010996 0.000000 0.003973 0.000000
# 4 0.000000 0.000000 0.000000 -0.967056 0.000000 1.064581
# 5 0.006712 0.000839 0.003973 0.000000 0.033927 0.000000
# 6 0.000000 0.000000 0.000000 1.064581 0.000000 -1.050843
#
#
# Mechanical properties :
#
#
# Convention : Reuss Voigt Hill
#
# Bulk Modulus (GPa) = 11.10673 24.10193 17.60433
# Shear Modulus (GPa) = -2.67730 21.49378 9.40824
#
# Velocity S-wave (km/s) = -1.19539 3.38701 2.24086
# Velocity P-wave (km/s) = 2.00567 5.30657 4.01138
#
# Compressibility (1/GPa) = 0.09003552
#
# Stress axis : x y z
#
# Youngs Moduli (GPa) = 43.38647 18.45758 90.93996
#
# Poissons Ratio (x) = -0.21851 0.27192
# Poissons Ratio (y) = -0.51362 0.72225
# Poissons Ratio (z) = 0.12973 0.14659
#
# Static dielectric constant tensor:
#      x y z
#    x 1.668900 0.000000 0.014580 
#    y 0.000000 1.582740 0.000000 
#    z 0.014580 0.000000 1.747000 
# 
# From -- ./inp_files/256388.got.cif
#   From: 2010.05.17/outbox.cif.g08.bks.cpg/sg12_129_cif.got.tgz:256388.got - 2010.06.03 13:09:07.
