data_PCOD9175991
_publ_section_title
;
Structure prediction by ZEFSAII (Michael W. Deem and Ramdas Pophale) SiO2 
 PCOD9175991
Probable space group: C 2/M
;
_chemical_formula_sum "Si O2"
_cell_formula_units_Z 40
_cell_length_a 22.428669
_cell_length_b 14.111197
_cell_length_c 9.668253
_cell_angle_alpha 90.000000
_cell_angle_beta 144.404868
_cell_angle_gamma 90.000000
_cell_volume 1781.060022
_symmetry_space_group_name_H-M "C 2/M"
_symmetry_group_IT_number 12
_symmetry_cell_setting 'monoclinic'
loop_
_space_group_symop_operation_xyz
x,y,z
-x,y,-z
-x,-y,-z
x,-y,z
1/2+x,1/2+y,z
1/2-x,1/2+y,-z
1/2-x,1/2-y,-z
1/2+x,1/2-y,z
loop_
_atom_site_type_symbol
_atom_site_label
_atom_site_fract_x
_atom_site_fract_y
_atom_site_fract_z
Si Si1 0.226723 0.736633 0.618191
Si Si2 0.535044 0.890649 0.213060
Si Si3 0.880444 0.810958 0.141669
Si Si4 0.101775 0.602451 0.784689
Si Si5 0.391917 0.609544 0.449338
O O1 0.250000 0.750000 0.500000
O O2 0.129270 0.667866 0.448063
O O3 0.192321 0.837130 0.618048
O O4 0.315983 0.690293 0.879553
O O5 0.439798 0.890461 0.137102
O O6 0.566875 0.000000 0.254138
O O7 0.500000 0.850882 0.000000
O O8 0.857995 0.707400 0.167168
O O9 0.859212 0.882743 0.226736
O O10 0.000249 0.832885 0.335519
O O11 0.154998 0.500000 0.867944
O O12 0.000000 0.596669 0.500000
O O13 0.406692 0.500000 0.514885
#
# Coordination Sequence:
#
# PCOD9175991 Si02
#       5
#     8   8   8   8   8
#     4  12  26  40  68 100 137 179 226 281 343 415
#     4  10  21  39  61  86 123 166 208 263 329 396
#     4  11  21  43  70  97 134 182 227 285 339 407
#     4  10  18  33  62  93 120 155 206 267 330 384
#     4  11  25  46  69  98 139 186 231 283 342 410
#
# _framework density 22.458535999999999
#
# number of rings (size 3 to 8) (size 9 to 14) (size 15 to 20)
#    0.000    1.200    4.000    3.000    0.000    3.200 
#    0.000    3.000    0.000    0.000    0.000    0.000 
#    0.000    0.000    0.000    0.000    0.000    0.000 
#
# Total GULP energy -111774.663006 kJ/mol
# GULP energy per Si atom -5588.733150 kJ/mol
# Density = 2.240742 g / cm^3
# Si number density = 22.458536 Si / 1000 Ang^3
#
#
#
# Elastic Constant Matrix: (Units=GPa)
#
#
# Indices 1 2 3 4 5 6 
#
# 1 94.4171 19.8268 43.6937 0.0000 -8.6695 0.0000
# 2 19.8268 126.7857 40.6295 0.0000 18.2148 0.0000
# 3 43.6937 40.6295 149.0643 0.0000 -5.6431 0.0000
# 4 0.0000 0.0000 0.0000 26.5696 0.0000 3.9546
# 5 -8.6695 18.2148 -5.6431 0.0000 38.8150 0.0000
# 6 0.0000 0.0000 0.0000 3.9546 0.0000 32.1920
#
#
#
# Elastic Compliance Matrix: (Units=1/GPa)
#
#
# Indices 1 2 3 4 5 6 
#
# 1 0.012645 -0.001378 -0.003217 0.000000 0.003003 0.000000
# 2 -0.001378 0.009620 -0.002414 0.000000 -0.005173 0.000000
# 3 -0.003217 -0.002414 0.008371 0.000000 0.001631 0.000000
# 4 0.000000 0.000000 0.000000 0.038338 0.000000 -0.004710
# 5 0.003003 -0.005173 0.001631 0.000000 0.029099 0.000000
# 6 0.000000 0.000000 0.000000 -0.004710 0.000000 0.031642
#
#
# Mechanical properties :
#
#
# Convention : Reuss Voigt Hill
#
# Bulk Modulus (GPa) = 60.17624 64.28524 62.23074
# Shear Modulus (GPa) = 33.49580 37.25645 35.37612
#
# Velocity S-wave (km/s) = 3.86612 4.07738 3.97315
# Velocity P-wave (km/s) = 6.83972 7.13111 6.98693
#
# Compressibility (1/GPa) = 0.01661786
#
# Stress axis : x y z
#
# Youngs Moduli (GPa) = 79.08072 103.95528 119.45628
#
# Poissons Ratio (x) = 0.14324 0.38433
# Poissons Ratio (y) = 0.10897 0.28835
# Poissons Ratio (z) = 0.25443 0.25093
#
# Static dielectric constant tensor:
#      x y z
#    x 1.872270 0.000000 0.025420 
#    y 0.000000 1.858960 0.000000 
#    z 0.025420 0.000000 1.911880 
# 
# From -- ./inp_files/96645.got.cif
#   From: 2010.05.17/outbox.cif.g08.bks.cpg/sg12_49_cif.got.tgz:96645.got - 2010.06.03 13:09:07.
