data_PCOD9175342
_publ_section_title
;
Structure prediction by ZEFSAII (Michael W. Deem and Ramdas Pophale) SiO2 
 PCOD9175342
Probable space group: C 2/M
;
_chemical_formula_sum "Si O2"
_cell_formula_units_Z 40
_cell_length_a 14.269665
_cell_length_b 15.465268
_cell_length_c 13.699141
_cell_angle_alpha 90.000000
_cell_angle_beta 143.917059
_cell_angle_gamma 90.000000
_cell_volume 1780.521573
_symmetry_space_group_name_H-M "C 2/M"
_symmetry_group_IT_number 12
_symmetry_cell_setting 'monoclinic'
loop_
_space_group_symop_operation_xyz
x,y,z
-x,y,-z
-x,-y,-z
x,-y,z
1/2+x,1/2+y,z
1/2-x,1/2+y,-z
1/2-x,1/2-y,-z
1/2+x,1/2-y,z
loop_
_atom_site_type_symbol
_atom_site_label
_atom_site_fract_x
_atom_site_fract_y
_atom_site_fract_z
Si Si1 0.601721 0.906878 0.369729
Si Si2 0.132866 0.858806 0.546941
Si Si3 0.637902 0.601740 0.242214
Si Si4 0.435406 0.727504 0.204953
Si Si5 0.820727 0.246026 0.860696
O O1 0.731995 0.910998 0.393592
O O2 0.707395 0.891393 0.556540
O O3 0.492638 0.826602 0.249580
O O4 0.519778 0.000000 0.310459
O O5 0.040987 0.809374 0.384116
O O6 0.217730 0.791885 0.690409
O O7 0.000000 0.905225 0.500000
O O8 0.596182 0.500000 0.202504
O O9 0.499457 0.663086 0.173571
O O10 0.257581 0.729866 0.101611
O O11 0.678781 0.645565 0.172754
O O12 0.000000 0.278841 0.000000
#
# Coordination Sequence:
#
# PCOD9175342 Si02
#       5
#     8   8   8   8   8
#     4  10  18  32  59  87 108 141 190 237 281 327
#     4   9  17  34  56  80 109 145 185 231 278 332
#     4  10  20  37  60  86 115 146 188 237 283 335
#     4  10  19  37  61  82 112 146 191 236 283 326
#     4  11  22  35  58  83 114 153 188 226 284 339
#
# _framework density 22.465328
#
# number of rings (size 3 to 8) (size 9 to 14) (size 15 to 20)
#    0.000    2.000    4.000    1.200    0.000    2.400 
#    0.000    5.000    0.000    1.200    0.000    0.000 
#    0.000    0.000    0.000    0.000    0.000    0.000 
#
# Total GULP energy -111590.358173 kJ/mol
# GULP energy per Si atom -5579.517909 kJ/mol
# Density = 2.241420 g / cm^3
# Si number density = 22.465328 Si / 1000 Ang^3
#
#
#
# Elastic Constant Matrix: (Units=GPa)
#
#
# Indices 1 2 3 4 5 6 
#
# 1 115.1521 39.6496 38.4176 0.0001 -9.6482 0.0001
# 2 39.6496 156.8769 32.9023 0.0000 9.8930 0.0001
# 3 38.4176 32.9023 38.4684 0.0001 9.4124 0.0003
# 4 0.0001 0.0000 0.0001 12.0099 0.0000 -2.4050
# 5 -9.6482 9.8930 9.4124 0.0000 43.2408 0.0001
# 6 0.0001 0.0001 0.0003 -2.4050 0.0001 -3.6829
#
#
#
# Elastic Compliance Matrix: (Units=1/GPa)
#
#
# Indices 1 2 3 4 5 6 
#
# 1 0.014822 -0.000881 -0.015746 0.000000 0.006936 0.000000
# 2 -0.000881 0.007825 -0.005627 0.000000 -0.000762 0.000000
# 3 -0.015746 -0.005627 0.049726 0.000000 -0.013050 0.000002
# 4 0.000000 0.000000 0.000000 0.073635 0.000000 -0.048086
# 5 0.006936 -0.000762 -0.013050 0.000000 0.027689 0.000000
# 6 0.000000 0.000000 0.000002 -0.048086 0.000000 -0.240124
#
#
# Mechanical properties :
#
#
# Convention : Reuss Voigt Hill
#
# Bulk Modulus (GPa) = 35.88599 59.15963 47.52281
# Shear Modulus (GPa) = -395.87193 23.61541 -186.12826
#
# Velocity S-wave (km/s) = -13.28899 3.24573 -9.11215
# Velocity P-wave (km/s) = 14.81399 6.35903 9.46089
#
# Compressibility (1/GPa) = 0.02786603
#
# Stress axis : x y z
#
# Youngs Moduli (GPa) = 67.46746 127.79119 20.11021
#
# Poissons Ratio (x) = 0.11260 0.31665
# Poissons Ratio (y) = 0.05945 0.11315
# Poissons Ratio (z) = 1.06234 0.71902
#
# Static dielectric constant tensor:
#      x y z
#    x 1.885940 0.000000 -0.009060 
#    y 0.000000 1.801490 0.000000 
#    z -0.009060 0.000000 1.919010 
# 
# From -- ./inp_files/204687.got.cif
#   From: 2010.05.17/outbox.cif.g08.bks.cpg/sg12_103_cif.got.tgz:204687.got - 2010.06.03 13:09:07.
