data_PCOD9175221
_publ_section_title
;
Structure prediction by ZEFSAII (Michael W. Deem and Ramdas Pophale) SiO2 
 PCOD9175221
Probable space group: C 2/M
;
_chemical_formula_sum "Si O2"
_cell_formula_units_Z 64
_cell_length_a 17.483149
_cell_length_b 20.689482
_cell_length_c 9.661837
_cell_angle_alpha 90.000000
_cell_angle_beta 97.544888
_cell_angle_gamma 90.000000
_cell_volume 3464.596156
_symmetry_space_group_name_H-M "C 2/M"
_symmetry_group_IT_number 12
_symmetry_cell_setting 'monoclinic'
loop_
_space_group_symop_operation_xyz
x,y,z
-x,y,-z
-x,-y,-z
x,-y,z
1/2+x,1/2+y,z
1/2-x,1/2+y,-z
1/2-x,1/2-y,-z
1/2+x,1/2-y,z
loop_
_atom_site_type_symbol
_atom_site_label
_atom_site_fract_x
_atom_site_fract_y
_atom_site_fract_z
Si Si1 0.913775 0.888227 0.509682
Si Si2 0.077006 0.072215 0.948654
Si Si3 0.692425 0.574022 0.745739
Si Si4 0.554797 0.748655 0.143543
Si Si5 0.204915 0.312456 0.646082
Si Si6 0.846666 0.874593 0.795582
Si Si7 0.192080 0.681339 0.318438
Si Si8 0.445732 0.252645 0.371049
O O1 0.849321 0.926550 0.412282
O O2 0.892605 0.886959 0.664729
O O3 0.912377 0.815090 0.445747
O O4 0.000000 0.912313 0.500000
O O5 0.125032 0.100371 0.832565
O O6 0.053863 0.000000 0.897366
O O7 0.137151 0.071662 0.088243
O O8 0.000000 0.101652 0.000000
O O9 0.712312 0.500000 0.790465
O O10 0.762149 0.624262 0.748163
O O11 0.614833 0.690251 0.129401
O O12 0.610899 0.803126 0.224329
O O13 0.497361 0.727735 0.253728
O O14 0.500000 0.764633 0.000000
O O15 0.258122 0.363927 0.735578
O O16 0.188170 0.331877 0.482720
O O17 0.257213 0.247401 0.667821
O O18 0.123404 0.293096 0.690701
O O19 0.500000 0.220334 0.500000
#
# Coordination Sequence:
#
# PCOD9175221 Si02
#       8
#     8   8   8   8   8   8   8   8
#     4  11  19  31  54  80 108 146 181 223 260 326
#     4  10  23  39  52  73 114 157 187 227 276 325
#     4  11  23  38  57  78 108 155 196 229 271 323
#     4  11  23  33  54  88 115 144 183 226 285 344
#     4  10  18  32  57  82 108 147 177 228 295 329
#     4  11  20  33  53  80 110 143 181 226 276 331
#     4  10  19  37  55  79 116 142 185 234 277 334
#     4  11  18  33  54  79 112 149 176 213 279 343
#
# _framework density 18.472572
#
# number of rings (size 3 to 8) (size 9 to 14) (size 15 to 20)
#    0.000    1.375    6.250    1.875    1.750    1.750 
#    0.000    2.500    0.000    0.375    0.000    2.625 
#    0.000    0.000    0.000    0.000    0.000    0.000 
#
# Total GULP energy -178357.783464 kJ/mol
# GULP energy per Si atom -5573.680733 kJ/mol
# Density = 1.843053 g / cm^3
# Si number density = 18.472572 Si / 1000 Ang^3
#
#
#
# Elastic Constant Matrix: (Units=GPa)
#
#
# Indices 1 2 3 4 5 6 
#
# 1 67.0670 18.1760 22.3631 0.0000 16.5469 0.0000
# 2 18.1760 38.3086 11.4463 0.0000 1.9472 0.0000
# 3 22.3631 11.4463 84.5944 0.0000 18.0351 0.0000
# 4 0.0000 0.0000 0.0000 13.9172 0.0000 5.1898
# 5 16.5469 1.9472 18.0351 0.0000 36.3390 0.0000
# 6 0.0000 0.0000 0.0000 5.1898 0.0000 -1.4438
#
#
#
# Elastic Compliance Matrix: (Units=1/GPa)
#
#
# Indices 1 2 3 4 5 6 
#
# 1 0.019805 -0.008260 -0.002561 0.000000 -0.007305 0.000000
# 2 -0.008260 0.030654 -0.002702 0.000000 0.003460 0.000000
# 3 -0.002561 -0.002702 0.014073 0.000000 -0.005674 0.000000
# 4 0.000000 0.000000 0.000000 0.030702 0.000000 0.110355
# 5 -0.007305 0.003460 -0.005674 0.000000 0.033475 0.000000
# 6 0.000000 0.000000 0.000000 0.110355 0.000000 -0.295936
#
#
# Mechanical properties :
#
#
# Convention : Reuss Voigt Hill
#
# Bulk Modulus (GPa) = 26.67556 32.66008 29.66782
# Shear Modulus (GPa) = -39.15894 18.96145 -10.09874
#
# Velocity S-wave (km/s) = -4.60917 3.20733 -2.34067
# Velocity P-wave (km/s) = 3.72209 5.60666 2.96485
#
# Compressibility (1/GPa) = 0.03748750
#
# Stress axis : x y z
#
# Youngs Moduli (GPa) = 50.49176 32.62175 71.05703
#
# Poissons Ratio (x) = 0.26947 0.18195
# Poissons Ratio (y) = 0.41708 0.19197
# Poissons Ratio (z) = 0.12929 0.08813
#
# Static dielectric constant tensor:
#      x y z
#    x 1.666810 0.000000 0.009110 
#    y 0.000000 1.690690 0.000000 
#    z 0.009110 0.000000 1.661170 
# 
# From -- ./inp_files/78827.got.cif
#   From: 2010.05.17/outbox.cif.g08.bks.cpg/sg12_40_cif.got.tgz:78827.got - 2010.06.03 13:09:07.
