data_PCOD9175443
_publ_section_title
;
Structure prediction by ZEFSAII (Michael W. Deem and Ramdas Pophale) SiO2 
 PCOD9175443
Probable space group: C 2/M
;
_chemical_formula_sum "Si O2"
_cell_formula_units_Z 64
_cell_length_a 27.911517
_cell_length_b 13.675927
_cell_length_c 8.153590
_cell_angle_alpha 90.000000
_cell_angle_beta 81.678042
_cell_angle_gamma 90.000000
_cell_volume 3079.582821
_symmetry_space_group_name_H-M "C 2/M"
_symmetry_group_IT_number 12
_symmetry_cell_setting 'monoclinic'
loop_
_space_group_symop_operation_xyz
x,y,z
-x,y,-z
-x,-y,-z
x,-y,z
1/2+x,1/2+y,z
1/2-x,1/2+y,-z
1/2-x,1/2-y,-z
1/2+x,1/2-y,z
loop_
_atom_site_type_symbol
_atom_site_label
_atom_site_fract_x
_atom_site_fract_y
_atom_site_fract_z
Si Si1 0.136707 0.737779 0.056969
Si Si2 0.092088 0.201352 0.557275
Si Si3 0.974835 0.398083 0.189020
Si Si4 0.813962 0.723453 0.298458
Si Si5 0.926894 0.614427 0.661934
Si Si6 0.337014 0.391961 0.710222
Si Si7 0.052024 0.810879 0.890521
Si Si8 0.756244 0.891524 0.463616
O O1 0.108779 0.655905 0.177768
O O2 0.169013 0.804743 0.158858
O O3 0.168740 0.697472 0.891760
O O4 0.095358 0.810878 0.000105
O O5 0.139887 0.230458 0.634954
O O6 0.074639 0.302118 0.477667
O O7 0.111926 0.131490 0.404041
O O8 0.059828 0.142630 0.707307
O O9 0.948492 0.500000 0.237430
O O10 0.945219 0.301369 0.176030
O O11 0.018671 0.385473 0.293343
O O12 0.000000 0.406975 0.000000
O O13 0.772945 0.808223 0.328544
O O14 0.793474 0.637782 0.422899
O O15 0.915859 0.500000 0.627594
O O16 0.337118 0.500000 0.784723
O O17 0.295578 0.390141 0.591906
O O18 0.000000 0.828892 0.000000
O O19 0.754994 0.000000 0.393094
#
# Coordination Sequence:
#
# PCOD9175443 Si02
#       8
#     8   8   8   8   8   8   8   8
#     4  10  19  33  54  79 104 138 172 216 266 297
#     4   9  20  34  52  78 104 139 174 214 263 300
#     4   9  16  28  46  69  99 138 178 209 240 295
#     4   9  19  34  54  80 108 133 176 217 252 313
#     4  10  19  32  48  74 108 140 174 210 253 308
#     4   9  19  37  57  76 101 133 175 219 264 318
#     4  10  18  33  52  73 101 140 176 215 254 306
#     4   9  18  35  56  77 105 141 172 209 262 313
#
# _framework density 20.782036999999999
#
# number of rings (size 3 to 8) (size 9 to 14) (size 15 to 20)
#    0.000    2.625    2.500    0.000    0.000    3.000 
#    0.000    5.625    0.000    2.250    0.000    0.000 
#    0.000    0.000    0.000    0.000    0.000    0.000 
#
# Total GULP energy -178164.005748 kJ/mol
# GULP energy per Si atom -5567.625180 kJ/mol
# Density = 2.073474 g / cm^3
# Si number density = 20.782037 Si / 1000 Ang^3
#
#
#
# Elastic Constant Matrix: (Units=GPa)
#
#
# Indices 1 2 3 4 5 6 
#
# 1 30.2465 0.5058 16.5558 0.0000 -21.4183 0.0000
# 2 0.5058 39.4352 -10.3266 0.0000 1.0714 0.0000
# 3 16.5558 -10.3266 99.6902 0.0000 -18.1740 0.0000
# 4 0.0000 0.0000 0.0000 11.5135 0.0000 7.5446
# 5 -21.4183 1.0714 -18.1740 0.0000 22.5749 0.0000
# 6 0.0000 0.0000 0.0000 7.5446 0.0000 16.4195
#
#
#
# Elastic Compliance Matrix: (Units=1/GPa)
#
#
# Indices 1 2 3 4 5 6 
#
# 1 0.101364 -0.003823 0.000393 0.000000 0.096669 0.000000
# 2 -0.003823 0.026233 0.002888 0.000000 -0.002548 0.000000
# 3 0.000393 0.002888 0.012081 0.000000 0.009962 0.000000
# 4 0.000000 0.000000 0.000000 0.124272 0.000000 -0.057102
# 5 0.096669 -0.002548 0.009962 0.000000 0.144154 0.000000
# 6 0.000000 0.000000 0.000000 -0.057102 0.000000 0.087141
#
#
# Mechanical properties :
#
#
# Convention : Reuss Voigt Hill
#
# Bulk Modulus (GPa) = 7.21539 20.31578 13.76558
# Shear Modulus (GPa) = 9.21614 20.94403 15.08008
#
# Velocity S-wave (km/s) = 2.10815 3.17802 2.69668
# Velocity P-wave (km/s) = 3.06679 4.82320 4.04157
#
# Compressibility (1/GPa) = 0.13859270
#
# Stress axis : x y z
#
# Youngs Moduli (GPa) = 9.86547 38.12062 82.77442
#
# Poissons Ratio (x) = 0.14575 -0.03256
# Poissons Ratio (y) = 0.03772 -0.23904
# Poissons Ratio (z) = -0.00388 -0.11009
#
# Static dielectric constant tensor:
#      x y z
#    x 1.748880 0.000000 -0.033070 
#    y 0.000000 1.850440 0.000000 
#    z -0.033070 0.000000 1.873680 
# 
# From -- ./inp_files/111186.got.cif
#   From: 2010.05.17/outbox.cif.g08.bks.cpg/sg12_56_cif.got.tgz:111186.got - 2010.06.03 13:09:07.
