data_PCOD9175861
_publ_section_title
;
Structure prediction by ZEFSAII (Michael W. Deem and Ramdas Pophale) SiO2 
 PCOD9175861
Probable space group: C 2/M
;
_chemical_formula_sum "Si O2"
_cell_formula_units_Z 50
_cell_length_a 17.180919
_cell_length_b 15.368643
_cell_length_c 14.037295
_cell_angle_alpha 90.000000
_cell_angle_beta 142.230011
_cell_angle_gamma 90.000000
_cell_volume 2270.212631
_symmetry_space_group_name_H-M "C 2/M"
_symmetry_group_IT_number 12
_symmetry_cell_setting 'monoclinic'
loop_
_space_group_symop_operation_xyz
x,y,z
-x,y,-z
-x,-y,-z
x,-y,z
1/2+x,1/2+y,z
1/2-x,1/2+y,-z
1/2-x,1/2-y,-z
1/2+x,1/2-y,z
loop_
_atom_site_type_symbol
_atom_site_label
_atom_site_fract_x
_atom_site_fract_y
_atom_site_fract_z
Si Si1 0.044454 0.198572 0.282381
Si Si2 0.864705 0.137110 0.973101
Si Si3 0.108073 0.639008 0.836476
Si Si4 0.628039 0.840783 0.070841
Si Si5 0.500000 0.500000 0.000000
Si Si6 0.399497 0.094963 0.489266
Si Si7 0.764153 0.780894 0.372520
O O1 0.137262 0.176480 0.458317
O O2 0.131299 0.260150 0.298003
O O3 0.979655 0.122315 0.159993
O O4 0.926026 0.257736 0.202424
O O5 0.730771 0.120049 0.892373
O O6 0.877694 0.236912 0.955092
O O7 0.893036 0.075354 0.914480
O O8 0.983794 0.598879 0.667492
O O9 0.135417 0.617656 0.973305
O O10 0.739793 0.840685 0.257252
O O11 0.500000 0.869796 0.000000
O O12 0.500000 0.098317 0.500000
O O13 0.319045 0.183837 0.405049
O O14 0.336048 0.000000 0.426578
#
# Coordination Sequence:
#
# PCOD9175861 Si02
#       7
#     8   8   8   8   2   8   8
#     4   9  18  35  55  85 118 156 206 257 304 355
#     4  11  21  37  53  89 121 159 198 247 314 376
#     4  10  21  36  61  83 120 164 206 257 301 358
#     4  11  18  35  59  89 118 151 213 257 296 355
#     4  12  24  36  60  88 130 164 196 244 324 396
#     4  10  22  38  54  85 126 167 203 244 319 389
#     4  10  18  33  58  86 119 157 203 259 312 360
#
# _framework density 22.024369
#
# number of rings (size 3 to 8) (size 9 to 14) (size 15 to 20)
#    0.000    1.760    4.000    2.880    1.120    1.280 
#    8.640    0.000    0.000    0.480    2.080    1.120 
#    0.000    0.000    0.000    0.000    0.000    0.000 
#
# Total GULP energy -139279.624921 kJ/mol
# GULP energy per Si atom -5571.184997 kJ/mol
# Density = 2.197424 g / cm^3
# Si number density = 22.024369 Si / 1000 Ang^3
#
#
#
# Elastic Constant Matrix: (Units=GPa)
#
#
# Indices 1 2 3 4 5 6 
#
# 1 107.4336 2.9113 15.7567 0.0000 7.1069 0.0000
# 2 2.9113 29.6629 -4.2162 0.0000 3.6194 0.0000
# 3 15.7567 -4.2162 154.8913 0.0000 -17.6821 0.0000
# 4 0.0000 0.0000 0.0000 25.8629 0.0000 -21.6817
# 5 7.1069 3.6194 -17.6821 0.0000 35.6787 0.0000
# 6 0.0000 0.0000 0.0000 -21.6817 0.0000 61.6641
#
#
#
# Elastic Compliance Matrix: (Units=1/GPa)
#
#
# Indices 1 2 3 4 5 6 
#
# 1 0.009684 -0.000831 -0.001291 0.000000 -0.002485 0.000000
# 2 -0.000831 0.034253 0.000677 0.000000 -0.002974 0.000000
# 3 -0.001291 0.000677 0.007025 0.000000 0.003670 0.000000
# 4 0.000000 0.000000 0.000000 0.054826 0.000000 0.019277
# 5 -0.002485 -0.002974 0.003670 0.000000 0.030643 0.000000
# 6 0.000000 0.000000 0.000000 0.019277 0.000000 0.022995
#
#
# Mechanical properties :
#
#
# Convention : Reuss Voigt Hill
#
# Bulk Modulus (GPa) = 20.80195 35.65460 28.22828
# Shear Modulus (GPa) = 28.03622 43.14353 35.58988
#
# Velocity S-wave (km/s) = 3.57173 4.43075 4.02423
# Velocity P-wave (km/s) = 5.14540 6.51147 5.86832
#
# Compressibility (1/GPa) = 0.04807241
#
# Stress axis : x y z
#
# Youngs Moduli (GPa) = 103.25917 29.19465 142.35036
#
# Poissons Ratio (x) = 0.02426 0.18384
# Poissons Ratio (y) = 0.08579 -0.09643
# Poissons Ratio (z) = 0.13335 -0.01978
#
# Static dielectric constant tensor:
#      x y z
#    x 1.854490 0.000000 -0.061570 
#    y 0.000000 1.337710 0.000000 
#    z -0.061570 0.000000 1.944280 
# 
# From -- ./inp_files/226378.got.cif
#   From: 2010.05.17/outbox.cif.g08.bks.cpg/sg12_114_cif.got.tgz:226378.got - 2010.06.03 13:09:07.
