data_PCOD9175415
_publ_section_title
;
Structure prediction by ZEFSAII (Michael W. Deem and Ramdas Pophale) SiO2 
 PCOD9175415
Probable space group: C 2/M
;
_chemical_formula_sum "Si O2"
_cell_formula_units_Z 56
_cell_length_a 18.399963
_cell_length_b 21.180602
_cell_length_c 13.088166
_cell_angle_alpha 90.000000
_cell_angle_beta 41.985066
_cell_angle_gamma 90.000000
_cell_volume 3412.079860
_symmetry_space_group_name_H-M "C 2/M"
_symmetry_group_IT_number 12
_symmetry_cell_setting 'monoclinic'
loop_
_space_group_symop_operation_xyz
x,y,z
-x,y,-z
-x,-y,-z
x,-y,z
1/2+x,1/2+y,z
1/2-x,1/2+y,-z
1/2-x,1/2-y,-z
1/2+x,1/2-y,z
loop_
_atom_site_type_symbol
_atom_site_label
_atom_site_fract_x
_atom_site_fract_y
_atom_site_fract_z
Si Si1 0.694303 0.073936 0.535321
Si Si2 0.761699 0.239899 0.651655
Si Si3 0.869764 0.571917 0.634675
Si Si4 0.684869 0.200597 0.206043
Si Si5 0.870425 0.827521 0.350006
Si Si6 0.933862 0.651009 0.162269
Si Si7 0.578802 0.258340 0.119070
O O1 0.664426 0.082908 0.447399
O O2 0.811974 0.106138 0.428853
O O3 0.608227 0.108346 0.700062
O O4 0.695531 0.000000 0.555816
O O5 0.834324 0.261244 0.669412
O O6 0.833482 0.217584 0.481670
O O7 0.687426 0.297700 0.689359
O O8 0.675806 0.184482 0.764811
O O9 0.836665 0.500000 0.697463
O O10 0.827103 0.626992 0.753327
O O11 0.000000 0.574732 0.500000
O O12 0.608018 0.225184 0.196051
O O13 0.808029 0.219248 0.047231
O O14 0.998499 0.818371 0.210019
O O15 0.012069 0.706322 0.123916
O O16 0.000000 0.619731 0.000000
#
# Coordination Sequence:
#
# PCOD9175415 Si02
#       7
#     8   8   8   8   8   8   8
#     4  10  20  34  53  77 103 137 183 216 246 314
#     4   9  17  29  51  73 100 135 163 213 260 307
#     4  10  21  35  53  77 107 142 173 210 259 313
#     4  11  20  33  50  80 108 134 174 218 261 319
#     4   9  18  33  49  74 102 135 172 210 261 306
#     4  10  18  33  50  74 106 136 166 212 273 309
#     4  10  22  32  50  79 108 134 170 219 269 312
#
# _framework density 16.412277
#
# number of rings (size 3 to 8) (size 9 to 14) (size 15 to 20)
#    0.000    2.143    2.857    1.714    2.000    0.286 
#    0.000    0.714    0.000    1.714    0.000    8.000 
#    0.000    0.000    0.000    0.000    0.000    0.000 
#
# Total GULP energy -155985.411635 kJ/mol
# GULP energy per Si atom -5570.907558 kJ/mol
# Density = 1.637492 g / cm^3
# Si number density = 16.412277 Si / 1000 Ang^3
#
#
#
# Elastic Constant Matrix: (Units=GPa)
#
#
# Indices 1 2 3 4 5 6 
#
# 1 59.4228 23.7513 13.5991 0.0000 2.2191 0.0000
# 2 23.7513 92.9100 27.7276 0.0000 2.6429 0.0000
# 3 13.5991 27.7276 43.7236 0.0000 2.8273 0.0000
# 4 0.0000 0.0000 0.0000 23.0429 0.0000 1.8699
# 5 2.2191 2.6429 2.8273 0.0000 25.2328 0.0000
# 6 0.0000 0.0000 0.0000 1.8699 0.0000 18.9667
#
#
#
# Elastic Compliance Matrix: (Units=1/GPa)
#
#
# Indices 1 2 3 4 5 6 
#
# 1 0.019194 -0.003844 -0.003474 0.000000 -0.000896 0.000000
# 2 -0.003844 0.014051 -0.007697 0.000000 -0.000271 0.000000
# 3 -0.003474 -0.007697 0.028971 0.000000 -0.002134 0.000000
# 4 0.000000 0.000000 0.000000 0.043747 0.000000 -0.004313
# 5 -0.000896 -0.000271 -0.002134 0.000000 0.039977 0.000000
# 6 0.000000 0.000000 0.000000 -0.004313 0.000000 0.053149
#
#
# Mechanical properties :
#
#
# Convention : Reuss Voigt Hill
#
# Bulk Modulus (GPa) = 31.07110 36.24583 33.65847
# Shear Modulus (GPa) = 20.84657 22.18034 21.51346
#
# Velocity S-wave (km/s) = 3.56783 3.68019 3.62445
# Velocity P-wave (km/s) = 5.99544 6.33963 6.16994
#
# Compressibility (1/GPa) = 0.03218425
#
# Stress axis : x y z
#
# Youngs Moduli (GPa) = 52.10060 71.17094 34.51784
#
# Poissons Ratio (x) = 0.27361 0.11991
# Poissons Ratio (y) = 0.20030 0.26569
# Poissons Ratio (z) = 0.18099 0.54781
#
# Static dielectric constant tensor:
#      x y z
#    x 1.552340 0.000000 0.012080 
#    y 0.000000 1.551010 0.000000 
#    z 0.012080 0.000000 1.578720 
# 
# From -- ./inp_files/159172.got.cif
#   From: 2010.05.17/outbox.cif.g08.bks.cpg/sg12_80_cif.got.tgz:159172.got - 2010.06.03 13:09:07.
