data_PCOD9175551
_publ_section_title
;
Structure prediction by ZEFSAII (Michael W. Deem and Ramdas Pophale) SiO2 
 PCOD9175551
Probable space group: C 2/M
;
_chemical_formula_sum "Si O2"
_cell_formula_units_Z 64
_cell_length_a 20.786865
_cell_length_b 8.533516
_cell_length_c 25.222816
_cell_angle_alpha 90.000000
_cell_angle_beta 53.372382
_cell_angle_gamma 90.000000
_cell_volume 3590.639823
_symmetry_space_group_name_H-M "C 2/M"
_symmetry_group_IT_number 12
_symmetry_cell_setting 'monoclinic'
loop_
_space_group_symop_operation_xyz
x,y,z
-x,y,-z
-x,-y,-z
x,-y,z
1/2+x,1/2+y,z
1/2-x,1/2+y,-z
1/2-x,1/2-y,-z
1/2+x,1/2-y,z
loop_
_atom_site_type_symbol
_atom_site_label
_atom_site_fract_x
_atom_site_fract_y
_atom_site_fract_z
Si Si1 0.467018 0.312643 0.850988
Si Si2 0.970862 0.687153 0.071943
Si Si3 0.503381 0.689643 0.330831
Si Si4 0.292138 0.689034 0.174841
Si Si5 0.273158 0.810661 0.676611
Si Si6 0.859188 0.312331 0.814908
Si Si7 0.112019 0.190453 0.702074
Si Si8 0.548952 0.310730 0.424767
O O1 0.465343 0.500000 0.850955
O O2 0.476461 0.254133 0.905883
O O3 0.391661 0.249898 0.854829
O O4 0.546756 0.261908 0.778717
O O5 0.976120 0.500000 0.070797
O O6 0.879242 0.738221 0.125892
O O7 0.000000 0.742968 0.000000
O O8 0.505725 0.500000 0.328869
O O9 0.579094 0.749629 0.259898
O O10 0.424864 0.739320 0.336206
O O11 0.510336 0.742716 0.387937
O O12 0.300665 0.500000 0.170552
O O13 0.252698 0.732068 0.250746
O O14 0.229749 0.735178 0.159495
O O15 0.200531 0.756914 0.674325
O O16 0.359027 0.742205 0.620016
O O17 0.278076 0.000000 0.672184
O O18 0.862720 0.500000 0.813016
O O19 0.113577 0.000000 0.702184
O O20 0.500000 0.254532 0.500000
O O21 0.547006 0.500000 0.425859
#
# Coordination Sequence:
#
# PCOD9175551 Si02
#       8
#     8   8   8   8   8   8   8   8
#     4  10  19  35  57  81 110 146 183 218 270 331
#     4  11  24  39  56  82 115 147 182 227 274 322
#     4   9  17  31  51  74 101 141 183 218 269 328
#     4  10  20  35  56  82 111 143 181 228 275 328
#     4  10  18  33  54  78 105 133 176 226 271 321
#     4  10  19  32  53  83 113 137 174 231 279 317
#     4   8  15  29  51  76 100 128 170 221 262 312
#     4  10  21  35  50  73 108 145 181 223 272 326
#
# _framework density 17.824121999999999
#
# number of rings (size 3 to 8) (size 9 to 14) (size 15 to 20)
#    0.000    2.250    2.500    1.875    0.000    2.750 
#    0.000    1.875    0.000    0.000    0.000    0.000 
#    0.000    0.000    0.000    0.000    0.000    0.000 
#
# Total GULP energy -178505.186186 kJ/mol
# GULP energy per Si atom -5578.287068 kJ/mol
# Density = 1.778355 g / cm^3
# Si number density = 17.824122 Si / 1000 Ang^3
#
#
#
# Elastic Constant Matrix: (Units=GPa)
#
#
# Indices 1 2 3 4 5 6 
#
# 1 123.6801 20.9588 18.9805 0.0000 20.9110 0.0002
# 2 20.9588 15.7083 11.6749 -0.0001 6.2501 0.0001
# 3 18.9805 11.6749 47.1173 0.0001 12.8953 0.0001
# 4 0.0000 -0.0001 0.0001 20.1214 0.0000 -2.5836
# 5 20.9110 6.2501 12.8953 0.0000 26.4279 0.0000
# 6 0.0002 0.0001 0.0001 -2.5836 0.0000 27.0687
#
#
#
# Elastic Compliance Matrix: (Units=1/GPa)
#
#
# Indices 1 2 3 4 5 6 
#
# 1 0.011225 -0.012809 0.000293 0.000000 -0.005995 0.000000
# 2 -0.012809 0.095211 -0.017361 0.000001 -0.003911 0.000000
# 3 0.000293 -0.017361 0.028100 0.000000 -0.009837 0.000000
# 4 0.000000 0.000001 0.000000 0.050315 0.000000 0.004802
# 5 -0.005995 -0.003911 -0.009837 0.000000 0.048307 0.000000
# 6 0.000000 0.000000 0.000000 0.004802 0.000000 0.037401
#
#
# Mechanical properties :
#
#
# Convention : Reuss Voigt Hill
#
# Bulk Modulus (GPa) = 13.37252 32.19267 22.78259
# Shear Modulus (GPa) = 14.07501 23.71638 18.89569
#
# Velocity S-wave (km/s) = 2.81314 3.65167 3.25948
# Velocity P-wave (km/s) = 4.25093 5.99000 5.19377
#
# Compressibility (1/GPa) = 0.07478025
#
# Stress axis : x y z
#
# Youngs Moduli (GPa) = 89.08991 10.50304 35.58751
#
# Poissons Ratio (x) = 0.13453 -0.01042
# Poissons Ratio (y) = 1.14113 0.61785
# Poissons Ratio (z) = -0.02610 0.18235
#
# Static dielectric constant tensor:
#      x y z
#    x 1.627500 0.000000 0.022370 
#    y 0.000000 1.608740 0.000000 
#    z 0.022370 0.000000 1.581530 
# 
# From -- ./inp_files/345951.got.cif
#   From: 2010.05.17/outbox.cif.g08.bks.cpg/sg12_173_cif.got.tgz:345951.got - 2010.06.03 13:09:07.
