data_PCOD9175301
_publ_section_title
;
Structure prediction by ZEFSAII (Michael W. Deem and Ramdas Pophale) SiO2 
 PCOD9175301
Probable space group: C 2/M
;
_chemical_formula_sum "Si O2"
_cell_formula_units_Z 36
_cell_length_a 23.541605
_cell_length_b 17.233074
_cell_length_c 15.688446
_cell_angle_alpha 90.000000
_cell_angle_beta 161.352926
_cell_angle_gamma 90.000000
_cell_volume 2035.039512
_symmetry_space_group_name_H-M "C 2/M"
_symmetry_group_IT_number 12
_symmetry_cell_setting 'monoclinic'
loop_
_space_group_symop_operation_xyz
x,y,z
-x,y,-z
-x,-y,-z
x,-y,z
1/2+x,1/2+y,z
1/2-x,1/2+y,-z
1/2-x,1/2-y,-z
1/2+x,1/2-y,z
loop_
_atom_site_type_symbol
_atom_site_label
_atom_site_fract_x
_atom_site_fract_y
_atom_site_fract_z
Si Si1 0.750986 0.656939 0.514631
Si Si2 0.887269 0.703014 0.256195
Si Si3 0.238568 0.656105 0.661585
Si Si4 0.500000 0.202157 0.000000
Si Si5 0.617323 0.410508 0.966342
O O1 0.750000 0.750000 0.500000
O O2 0.756757 0.624412 0.427639
O O3 0.575811 0.629042 0.314101
O O4 0.922713 0.647990 0.816632
O O5 0.765636 0.636037 0.124796
O O6 0.000000 0.736802 0.500000
O O7 0.040756 0.672718 0.411912
O O8 0.750000 0.750000 0.000000
O O9 0.349998 0.737495 0.820915
O O10 0.328878 0.600293 0.858298
O O11 0.610654 0.500000 0.932908
#
# Coordination Sequence:
#
# PCOD9175301 Si02
#       5
#     8   8   8   4   8
#     4  10  18  34  57  83 114 148 193 233 279 335
#     4  10  22  36  58  89 116 152 197 237 286 338
#     4  10  19  32  55  83 113 147 191 231 285 326
#     4  10  18  32  58  86 116 142 194 242 272 336
#     4  11  22  38  56  84 119 150 184 239 295 338
#
# _framework density 17.690073999999999
#
# number of rings (size 3 to 8) (size 9 to 14) (size 15 to 20)
#    0.000    1.778    4.444    2.667    3.111    5.778 
#    0.000    0.556    0.000    0.667    0.000    0.000 
#    0.000    0.000    0.000    0.000    0.000    0.000 
#
# Total GULP energy -100205.222982 kJ/mol
# GULP energy per Si atom -5566.956832 kJ/mol
# Density = 1.764981 g / cm^3
# Si number density = 17.690074 Si / 1000 Ang^3
#
#
#
# Elastic Constant Matrix: (Units=GPa)
#
#
# Indices 1 2 3 4 5 6 
#
# 1 77.7126 23.5687 56.5370 0.0000 16.9232 0.0000
# 2 23.5687 63.7937 34.4478 0.0000 -0.4981 0.0000
# 3 56.5370 34.4478 125.7836 0.0000 -0.6728 0.0000
# 4 0.0000 0.0000 0.0000 13.8560 0.0000 0.0517
# 5 16.9232 -0.4981 -0.6728 0.0000 37.0258 0.0000
# 6 0.0000 0.0000 0.0000 0.0517 0.0000 13.3842
#
#
#
# Elastic Compliance Matrix: (Units=1/GPa)
#
#
# Indices 1 2 3 4 5 6 
#
# 1 0.023235 -0.003518 -0.009538 0.000000 -0.010840 0.000000
# 2 -0.003518 0.018930 -0.003593 0.000000 0.001797 0.000000
# 3 -0.009538 -0.003593 0.013246 0.000000 0.004552 0.000000
# 4 0.000000 0.000000 0.000000 0.072172 0.000000 -0.000279
# 5 -0.010840 0.001797 0.004552 0.000000 0.032070 0.000000
# 6 0.000000 0.000000 0.000000 -0.000279 0.000000 0.074716
#
#
# Mechanical properties :
#
#
# Convention : Reuss Voigt Hill
#
# Bulk Modulus (GPa) = 45.22612 55.15521 50.19067
# Shear Modulus (GPa) = 18.17941 23.03564 20.60753
#
# Velocity S-wave (km/s) = 3.20919 3.61249 3.41680
# Velocity P-wave (km/s) = 6.27321 6.97470 6.63323
#
# Compressibility (1/GPa) = 0.02211112
#
# Stress axis : x y z
#
# Youngs Moduli (GPa) = 43.03929 52.82712 75.49664
#
# Poissons Ratio (x) = 0.18586 0.72008
# Poissons Ratio (y) = 0.15143 0.27127
# Poissons Ratio (z) = 0.41050 0.18982
#
# Static dielectric constant tensor:
#      x y z
#    x 1.660190 0.000000 -0.056450 
#    y 0.000000 1.626190 0.000000 
#    z -0.056450 0.000000 1.662760 
# 
# From -- ./inp_files/46575.got.cif
#   From: 2010.05.17/outbox.cif.g08.bks.cpg/sg12_24_cif.got.tgz:46575.got - 2010.06.03 13:09:07.
