data_PCOD9175771
_publ_section_title
;
Structure prediction by ZEFSAII (Michael W. Deem and Ramdas Pophale) SiO2 
 PCOD9175771
Probable space group: C 2/M
;
_chemical_formula_sum "Si O2"
_cell_formula_units_Z 40
_cell_length_a 23.444896
_cell_length_b 10.760919
_cell_length_c 7.932831
_cell_angle_alpha 90.000000
_cell_angle_beta 69.470175
_cell_angle_gamma 90.000000
_cell_volume 1874.256000
_symmetry_space_group_name_H-M "C 2/M"
_symmetry_group_IT_number 12
_symmetry_cell_setting 'monoclinic'
loop_
_space_group_symop_operation_xyz
x,y,z
-x,y,-z
-x,-y,-z
x,-y,z
1/2+x,1/2+y,z
1/2-x,1/2+y,-z
1/2-x,1/2-y,-z
1/2+x,1/2-y,z
loop_
_atom_site_type_symbol
_atom_site_label
_atom_site_fract_x
_atom_site_fract_y
_atom_site_fract_z
Si Si1 0.104089 0.142355 0.646322
Si Si2 0.824143 0.364893 0.309628
Si Si3 0.438332 0.785527 0.004192
Si Si4 0.725217 0.361045 0.139393
Si Si5 0.421669 0.358679 0.691622
O O1 0.156234 0.247869 0.598927
O O2 0.068845 0.169082 0.857281
O O3 0.064160 0.163461 0.519972
O O4 0.125765 0.000000 0.618315
O O5 0.826787 0.500000 0.391919
O O6 0.876912 0.359857 0.110044
O O7 0.760844 0.351742 0.279009
O O8 0.500000 0.850469 0.000000
O O9 0.441423 0.738566 0.811411
O O10 0.739521 0.500000 0.056154
O O11 0.652510 0.355027 0.228790
O O12 0.750000 0.250000 0.000000
O O13 0.440218 0.500000 0.716454
#
# Coordination Sequence:
#
# PCOD9175771 Si02
#       5
#     8   8   8   8   8
#     4   9  20  37  56  82 114 145 183 229 278 325
#     4   9  20  37  55  80 113 146 184 226 273 329
#     4  10  21  36  58  80 112 148 187 228 280 322
#     4  10  18  33  57  83 113 145 181 225 274 332
#     4  10  20  35  57  86 114 143 182 229 280 334
#
# _framework density 21.341802999999999
#
# number of rings (size 3 to 8) (size 9 to 14) (size 15 to 20)
#    1.200    1.200    2.000    0.600    0.000    4.400 
#    0.000    4.000    0.000    1.200    0.000    0.000 
#    0.000    0.000    0.000    0.000    0.000    0.000 
#
# Total GULP energy -111450.875499 kJ/mol
# GULP energy per Si atom -5572.543775 kJ/mol
# Density = 2.129323 g / cm^3
# Si number density = 21.341803 Si / 1000 Ang^3
#
#
#
# Elastic Constant Matrix: (Units=GPa)
#
#
# Indices 1 2 3 4 5 6 
#
# 1 87.5452 25.8106 5.6960 0.0000 2.6500 0.0000
# 2 25.8106 124.0886 44.9172 0.0000 16.4253 0.0000
# 3 5.6960 44.9172 73.1561 0.0000 3.9787 0.0000
# 4 0.0000 0.0000 0.0000 20.7108 0.0000 5.9742
# 5 2.6500 16.4253 3.9787 0.0000 36.8130 0.0000
# 6 0.0000 0.0000 0.0000 5.9742 0.0000 14.7246
#
#
#
# Elastic Compliance Matrix: (Units=1/GPa)
#
#
# Indices 1 2 3 4 5 6 
#
# 1 0.012207 -0.002868 0.000793 0.000000 0.000315 0.000000
# 2 -0.002868 0.011643 -0.006693 0.000000 -0.004265 0.000000
# 3 0.000793 -0.006693 0.017662 0.000000 0.001020 0.000000
# 4 0.000000 0.000000 0.000000 0.054684 0.000000 -0.022187
# 5 0.000315 -0.004265 0.001020 0.000000 0.028934 0.000000
# 6 0.000000 0.000000 0.000000 -0.022187 0.000000 0.076915
#
#
# Mechanical properties :
#
#
# Convention : Reuss Voigt Hill
#
# Bulk Modulus (GPa) = 41.70896 48.62638 45.16767
# Shear Modulus (GPa) = 21.97101 28.34076 25.15589
#
# Velocity S-wave (km/s) = 3.21204 3.64805 3.43697
# Velocity P-wave (km/s) = 5.77425 6.37012 6.07949
#
# Compressibility (1/GPa) = 0.02397567
#
# Stress axis : x y z
#
# Youngs Moduli (GPa) = 81.91981 85.89143 56.61968
#
# Poissons Ratio (x) = 0.24633 -0.04492
# Poissons Ratio (y) = 0.23494 0.37897
# Poissons Ratio (z) = -0.06499 0.57489
#
# Static dielectric constant tensor:
#      x y z
#    x 1.823410 0.000000 -0.053370 
#    y 0.000000 1.745530 0.000000 
#    z -0.053370 0.000000 1.785630 
# 
# From -- ./inp_files/93727.got.cif
#   From: 2010.05.17/outbox.cif.g08.bks.cpg/sg12_47_cif.got.tgz:93727.got - 2010.06.03 13:09:07.
