data_PCOD9175498
_publ_section_title
;
Structure prediction by ZEFSAII (Michael W. Deem and Ramdas Pophale) SiO2 
 PCOD9175498
Probable space group: C 2/M
;
_chemical_formula_sum "Si O2"
_cell_formula_units_Z 64
_cell_length_a 21.995224
_cell_length_b 18.678992
_cell_length_c 9.027747
_cell_angle_alpha 90.000000
_cell_angle_beta 69.717081
_cell_angle_gamma 90.000000
_cell_volume 3479.048539
_symmetry_space_group_name_H-M "C 2/M"
_symmetry_group_IT_number 12
_symmetry_cell_setting 'monoclinic'
loop_
_space_group_symop_operation_xyz
x,y,z
-x,y,-z
-x,-y,-z
x,-y,z
1/2+x,1/2+y,z
1/2-x,1/2+y,-z
1/2-x,1/2-y,-z
1/2+x,1/2-y,z
loop_
_atom_site_type_symbol
_atom_site_label
_atom_site_fract_x
_atom_site_fract_y
_atom_site_fract_z
Si Si1 0.751546 0.835686 0.717251
Si Si2 0.074277 0.683787 0.699402
Si Si3 0.461127 0.921271 0.745105
Si Si4 0.148093 0.790630 0.811392
Si Si5 0.774467 0.915349 0.386486
Si Si6 0.365906 0.919363 0.106204
Si Si7 0.824007 0.761455 0.885334
Si Si8 0.857534 0.636489 0.642395
O O1 0.709812 0.762730 0.721254
O O2 0.764321 0.878670 0.556150
O O3 0.703058 0.882248 0.860411
O O4 0.815170 0.817211 0.757915
O O5 0.086992 0.757899 0.774431
O O6 0.102025 0.625317 0.790201
O O7 0.118122 0.682675 0.516742
O O8 0.005567 0.649326 0.715154
O O9 0.415193 0.916026 0.641021
O O10 0.494300 0.000000 0.720505
O O11 0.414097 0.919493 0.927495
O O12 0.170142 0.868782 0.741893
O O13 0.139174 0.783543 0.996319
O O14 0.708260 0.902254 0.349527
O O15 0.786957 0.000000 0.387600
O O16 0.354870 0.000000 0.164058
O O17 0.847766 0.689161 0.788998
O O18 0.750000 0.750000 0.000000
#
# Coordination Sequence:
#
# PCOD9175498 Si02
#       8
#     8   8   8   8   8   8   8   8
#     4  10  18  33  53  77 108 148 188 233 276 334
#     4  11  22  35  56  70 105 151 197 235 270 316
#     4  11  24  37  50  77 118 159 195 229 267 324
#     4  10  20  37  56  78 103 147 193 240 281 332
#     4  12  22  33  54  84 118 151 183 229 291 346
#     4  10  20  33  51  75 108 149 190 228 275 325
#     4  10  19  33  58  76 103 145 189 238 282 325
#     4  12  21  35  53  79 113 151 191 228 275 327
#
# _framework density 18.395835000000002
#
# number of rings (size 3 to 8) (size 9 to 14) (size 15 to 20)
#    0.000    1.250    5.000    5.250    0.000    3.000 
#    0.000    0.625    0.000    0.000    0.000    0.000 
#    0.000   27.000    0.000    0.000    0.000    0.500 
#
# Total GULP energy -178513.794453 kJ/mol
# GULP energy per Si atom -5578.556077 kJ/mol
# Density = 1.835396 g / cm^3
# Si number density = 18.395835 Si / 1000 Ang^3
#
#
#
# Elastic Constant Matrix: (Units=GPa)
#
#
# Indices 1 2 3 4 5 6 
#
# 1 53.9412 30.4415 10.0975 0.0000 15.9313 0.0000
# 2 30.4415 107.5345 32.6958 0.0000 8.5452 0.0000
# 3 10.0975 32.6958 88.7097 0.0000 15.7365 0.0000
# 4 0.0000 0.0000 0.0000 20.5052 0.0000 -0.8012
# 5 15.9313 8.5452 15.7365 0.0000 19.4453 0.0000
# 6 0.0000 0.0000 0.0000 -0.8012 0.0000 21.2263
#
#
#
# Elastic Compliance Matrix: (Units=1/GPa)
#
#
# Indices 1 2 3 4 5 6 
#
# 1 0.028963 -0.007433 0.003588 0.000000 -0.023366 0.000000
# 2 -0.007433 0.012431 -0.004492 0.000000 0.004262 0.000000
# 3 0.003588 -0.004492 0.014818 0.000000 -0.012958 0.000000
# 4 0.000000 0.000000 0.000000 0.048840 0.000000 0.001844
# 5 -0.023366 0.004262 -0.012958 0.000000 0.079183 0.000000
# 6 0.000000 0.000000 0.000000 0.001844 0.000000 0.047181
#
#
# Mechanical properties :
#
#
# Convention : Reuss Voigt Hill
#
# Bulk Modulus (GPa) = 25.29187 44.07277 34.68232
# Shear Modulus (GPa) = 19.13733 24.03205 21.58469
#
# Velocity S-wave (km/s) = 3.22888 3.61832 3.42913
# Velocity P-wave (km/s) = 5.26112 6.43943 5.87987
#
# Compressibility (1/GPa) = 0.03953839
#
# Stress axis : x y z
#
# Youngs Moduli (GPa) = 34.52680 80.44719 67.48362
#
# Poissons Ratio (x) = 0.59798 -0.24212
# Poissons Ratio (y) = 0.25664 0.30310
# Poissons Ratio (z) = -0.12388 0.36133
#
# Static dielectric constant tensor:
#      x y z
#    x 1.685810 0.000000 0.006250 
#    y 0.000000 1.652040 0.000000 
#    z 0.006250 0.000000 1.695150 
# 
# From -- ./inp_files/97722.got.cif
#   From: 2010.05.17/outbox.cif.g08.bks.cpg/sg12_49_cif.got.tgz:97722.got - 2010.06.03 13:09:07.
