data_PCOD9175070
_publ_section_title
;
Structure prediction by ZEFSAII (Michael W. Deem and Ramdas Pophale) SiO2 
 PCOD9175070
Probable space group: C 2/M
;
_chemical_formula_sum "Si O2"
_cell_formula_units_Z 56
_cell_length_a 32.796137
_cell_length_b 7.719239
_cell_length_c 20.934433
_cell_angle_alpha 90.000000
_cell_angle_beta 150.056557
_cell_angle_gamma 90.000000
_cell_volume 2645.361438
_symmetry_space_group_name_H-M "C 2/M"
_symmetry_group_IT_number 12
_symmetry_cell_setting 'monoclinic'
loop_
_space_group_symop_operation_xyz
x,y,z
-x,y,-z
-x,-y,-z
x,-y,z
1/2+x,1/2+y,z
1/2-x,1/2+y,-z
1/2-x,1/2-y,-z
1/2+x,1/2-y,z
loop_
_atom_site_type_symbol
_atom_site_label
_atom_site_fract_x
_atom_site_fract_y
_atom_site_fract_z
Si Si1 0.303381 0.708657 0.134487
Si Si2 0.728236 0.796029 0.164988
Si Si3 0.486001 0.288704 0.407451
Si Si4 0.349588 0.713537 0.440735
Si Si5 0.944283 0.203491 0.022281
Si Si6 0.390375 0.706399 0.802110
Si Si7 0.721443 0.688880 0.530282
O O1 0.306271 0.500000 0.142204
O O2 0.261558 0.774860 0.143171
O O3 0.397629 0.769140 0.262063
O O4 0.250000 0.750000 0.000000
O O5 0.778747 0.727385 0.294939
O O6 0.630991 0.776343 0.040212
O O7 0.746452 0.000000 0.189322
O O8 0.500000 0.234859 0.500000
O O9 0.485982 0.500000 0.407680
O O10 0.563331 0.235917 0.470077
O O11 0.346213 0.500000 0.438907
O O12 0.335045 0.778731 0.493286
O O13 0.918851 0.222797 0.913649
O O14 0.948468 0.000000 0.042421
O O15 0.037823 0.267755 0.148383
O O16 0.375833 0.500000 0.771444
O O17 0.308162 0.810944 0.683754
O O18 0.685287 0.500000 0.470213
O O19 0.750000 0.750000 0.500000
#
# Coordination Sequence:
#
# PCOD9175070 Si02
#       7
#     8   8   8   8   8   8   8
#     4  10  21  36  57  82 114 148 178 225 280 335
#     4  10  18  32  55  82 107 136 180 231 273 321
#     4   9  15  30  58  86 107 136 184 232 271 319
#     4   9  17  31  54  82 105 132 182 233 270 318
#     4   9  18  32  53  79 105 135 172 221 271 320
#     4   9  18  34  53  75 104 136 176 221 267 322
#     4  11  22  36  54  76 108 147 183 229 281 329
#
# _framework density 21.169131
#
# number of rings (size 3 to 8) (size 9 to 14) (size 15 to 20)
#    0.000    2.429    2.857    1.286    0.000    1.143 
#    2.571    1.429    0.000    2.143    0.000    0.000 
#    0.000    0.000    0.000    0.000    0.000    0.000 
#
# Total GULP energy -156033.258453 kJ/mol
# GULP energy per Si atom -5572.616373 kJ/mol
# Density = 2.112095 g / cm^3
# Si number density = 21.169131 Si / 1000 Ang^3
#
#
#
# Elastic Constant Matrix: (Units=GPa)
#
#
# Indices 1 2 3 4 5 6 
#
# 1 194.8138 8.3367 51.8979 0.0000 19.2060 0.0000
# 2 8.3367 23.2996 -4.3184 0.0000 -3.2345 0.0000
# 3 51.8979 -4.3184 69.7708 0.0000 18.3190 0.0000
# 4 0.0000 0.0000 0.0000 37.2056 0.0000 7.2360
# 5 19.2060 -3.2345 18.3190 0.0000 37.0699 0.0000
# 6 0.0000 0.0000 0.0000 7.2360 0.0000 20.9455
#
#
#
# Elastic Compliance Matrix: (Units=1/GPa)
#
#
# Indices 1 2 3 4 5 6 
#
# 1 0.006709 -0.003491 -0.004842 0.000000 -0.001388 0.000000
# 2 -0.003491 0.045493 0.004476 0.000000 0.003566 0.000000
# 3 -0.004842 0.004476 0.020052 0.000000 -0.007010 0.000000
# 4 0.000000 0.000000 0.000000 0.028814 0.000000 -0.009954
# 5 -0.001388 0.003566 -0.007010 0.000000 0.031470 0.000000
# 6 0.000000 0.000000 0.000000 -0.009954 0.000000 0.051182
#
#
# Mechanical properties :
#
#
# Convention : Reuss Voigt Hill
#
# Bulk Modulus (GPa) = 15.49426 44.41293 29.95360
# Shear Modulus (GPa) = 23.47997 34.50872 28.99434
#
# Velocity S-wave (km/s) = 3.33402 4.04188 3.70490
# Velocity P-wave (km/s) = 4.70702 6.54278 5.69930
#
# Compressibility (1/GPa) = 0.06454004
#
# Stress axis : x y z
#
# Youngs Moduli (GPa) = 149.04754 21.98150 49.87022
#
# Poissons Ratio (x) = 0.07673 0.24149
# Poissons Ratio (y) = 0.52028 -0.22322
# Poissons Ratio (z) = 0.72173 -0.09839
#
# Static dielectric constant tensor:
#      x y z
#    x 1.779800 0.000000 0.007600 
#    y 0.000000 1.832370 0.000000 
#    z 0.007600 0.000000 1.759320 
# 
# From -- ./inp_files/277083.got.cif
#   From: 2010.05.17/outbox.cif.g08.bks.cpg/sg12_139_cif.got.tgz:277083.got - 2010.06.03 13:09:07.
