data_PCOD9175256
_publ_section_title
;
Structure prediction by ZEFSAII (Michael W. Deem and Ramdas Pophale) SiO2 
 PCOD9175256
Probable space group: C 2/M
;
_chemical_formula_sum "Si O2"
_cell_formula_units_Z 56
_cell_length_a 16.577815
_cell_length_b 31.407498
_cell_length_c 5.476912
_cell_angle_alpha 90.000000
_cell_angle_beta 116.719000
_cell_angle_gamma 90.000000
_cell_volume 2547.158491
_symmetry_space_group_name_H-M "C 2/M"
_symmetry_group_IT_number 12
_symmetry_cell_setting 'monoclinic'
loop_
_space_group_symop_operation_xyz
x,y,z
-x,y,-z
-x,-y,-z
x,-y,z
1/2+x,1/2+y,z
1/2-x,1/2+y,-z
1/2-x,1/2-y,-z
1/2+x,1/2-y,z
loop_
_atom_site_type_symbol
_atom_site_label
_atom_site_fract_x
_atom_site_fract_y
_atom_site_fract_z
Si Si1 0.025125 0.088282 0.794719
Si Si2 0.200008 0.127450 0.887381
Si Si3 0.793665 0.671683 0.413394
Si Si4 0.547943 0.769294 0.315207
Si Si5 0.401506 0.326018 0.612410
Si Si6 0.603925 0.949319 0.695109
Si Si7 0.325754 0.910022 0.706490
O O1 0.130711 0.099718 0.947395
O O2 0.000000 0.069147 0.500000
O O3 0.965548 0.132537 0.724496
O O4 0.000000 0.062760 0.000000
O O5 0.143032 0.167250 0.712946
O O6 0.226898 0.098441 0.691050
O O7 0.285083 0.146922 0.144005
O O8 0.849222 0.714594 0.512494
O O9 0.688074 0.675850 0.340947
O O10 0.846865 0.638642 0.660421
O O11 0.500000 0.783749 0.500000
O O12 0.547535 0.718101 0.304277
O O13 0.500000 0.784266 0.000000
O O14 0.500000 0.938518 0.500000
O O15 0.660382 0.934973 0.529424
O O16 0.613751 0.000000 0.729212
O O17 0.625457 0.930096 0.992283
#
# Coordination Sequence:
#
# PCOD9175256 Si02
#       7
#     8   8   8   8   8   8   8
#     4  10  18  32  57  86 115 155 201 273 330 367
#     4  10  21  38  64  92 128 163 212 267 337 392
#     4  11  24  42  64  90 126 173 219 268 335 391
#     4  12  29  43  58  85 124 171 229 278 333 393
#     4  10  22  40  64  87 119 166 224 289 329 371
#     4  11  24  44  71 100 129 170 218 258 305 374
#     4  11  23  41  64  96 134 166 205 265 320 380
#
# _framework density 21.985285000000001
#
# number of rings (size 3 to 8) (size 9 to 14) (size 15 to 20)
#    0.000    1.286    2.857    3.000    6.000    3.429 
#    0.000    0.000    0.000    0.000    0.000    0.000 
#    0.000  112.000    0.000    0.000    0.000    0.000 
#
# Total GULP energy -155954.451141 kJ/mol
# GULP energy per Si atom -5569.801826 kJ/mol
# Density = 2.193525 g / cm^3
# Si number density = 21.985285 Si / 1000 Ang^3
#
#
#
# Elastic Constant Matrix: (Units=GPa)
#
#
# Indices 1 2 3 4 5 6 
#
# 1 73.6299 10.7518 32.4949 0.0000 -11.8752 0.0000
# 2 10.7518 19.8232 22.0144 0.0000 1.2489 0.0000
# 3 32.4949 22.0144 163.3656 0.0000 -22.1107 0.0000
# 4 0.0000 0.0000 0.0000 17.2013 0.0000 -7.3603
# 5 -11.8752 1.2489 -22.1107 0.0000 39.4819 0.0000
# 6 0.0000 0.0000 0.0000 -7.3603 0.0000 14.3496
#
#
#
# Elastic Compliance Matrix: (Units=1/GPa)
#
#
# Indices 1 2 3 4 5 6 
#
# 1 0.016017 -0.007085 -0.001676 0.000000 0.004103 0.000000
# 2 -0.007085 0.064234 -0.008451 0.000000 -0.008895 0.000000
# 3 -0.001676 -0.008451 0.008181 0.000000 0.004345 0.000000
# 4 0.000000 0.000000 0.000000 0.074482 0.000000 0.038204
# 5 0.004103 -0.008895 0.004345 0.000000 0.029277 0.000000
# 6 0.000000 0.000000 0.000000 0.038204 0.000000 0.089284
#
#
# Mechanical properties :
#
#
# Convention : Reuss Voigt Hill
#
# Bulk Modulus (GPa) = 18.51513 43.03787 30.77650
# Shear Modulus (GPa) = 14.97447 26.97708 20.97577
#
# Velocity S-wave (km/s) = 2.61265 3.50673 3.09217
# Velocity P-wave (km/s) = 4.18821 6.00121 5.17473
#
# Compressibility (1/GPa) = 0.05400988
#
# Stress axis : x y z
#
# Youngs Moduli (GPa) = 62.43198 15.56813 122.22817
#
# Poissons Ratio (x) = 0.11030 0.20485
# Poissons Ratio (y) = 0.44233 1.03289
# Poissons Ratio (z) = 0.10463 0.13156
#
# Static dielectric constant tensor:
#      x y z
#    x 1.912250 0.000000 -0.047750 
#    y 0.000000 1.785410 0.000000 
#    z -0.047750 0.000000 1.911090 
# 
# From -- ./inp_files/18392.got.cif
#   From: 2010.05.17/outbox.cif.g08.bks.cpg/sg12_10_cif.got.tgz:18392.got - 2010.06.03 13:09:07.
