data_PCOD9175745
_publ_section_title
;
Structure prediction by ZEFSAII (Michael W. Deem and Ramdas Pophale) SiO2 
 PCOD9175745
Probable space group: C 2/M
;
_chemical_formula_sum "Si O2"
_cell_formula_units_Z 56
_cell_length_a 29.365166
_cell_length_b 7.892734
_cell_length_c 19.618897
_cell_angle_alpha 90.000000
_cell_angle_beta 146.853703
_cell_angle_gamma 90.000000
_cell_volume 2486.257425
_symmetry_space_group_name_H-M "C 2/M"
_symmetry_group_IT_number 12
_symmetry_cell_setting 'monoclinic'
loop_
_space_group_symop_operation_xyz
x,y,z
-x,y,-z
-x,-y,-z
x,-y,z
1/2+x,1/2+y,z
1/2-x,1/2+y,-z
1/2-x,1/2-y,-z
1/2+x,1/2-y,z
loop_
_atom_site_type_symbol
_atom_site_label
_atom_site_fract_x
_atom_site_fract_y
_atom_site_fract_z
Si Si1 0.646871 0.794603 0.537108
Si Si2 0.069023 0.702332 0.306157
Si Si3 0.263677 0.704178 0.095749
Si Si4 0.102030 0.292006 0.975768
Si Si5 0.595067 0.298184 0.623103
Si Si6 0.298655 0.310693 0.634766
Si Si7 0.598407 0.807109 0.121977
O O1 0.574907 0.744374 0.392693
O O2 0.635966 0.729270 0.599717
O O3 0.728242 0.735039 0.596897
O O4 0.650063 0.000000 0.545399
O O5 0.061582 0.500000 0.296713
O O6 0.156206 0.739023 0.375971
O O7 0.986961 0.767923 0.164888
O O8 0.266539 0.500000 0.103615
O O9 0.344568 0.767070 0.240249
O O10 0.250000 0.750000 0.000000
O O11 0.179302 0.761091 0.027166
O O12 0.098304 0.500000 0.973441
O O13 0.121483 0.239448 0.077076
O O14 0.500000 0.229030 0.500000
O O15 0.588110 0.500000 0.625196
O O16 0.272544 0.500000 0.584906
O O17 0.374459 0.307962 0.782624
O O18 0.630434 0.000000 0.172520
O O19 0.500000 0.820282 0.000000
#
# Coordination Sequence:
#
# PCOD9175745 Si02
#       7
#     8   8   8   8   8   8   8
#     4  10  23  39  59  86 118 155 199 246 292 350
#     4  10  20  37  58  82 113 156 203 242 282 345
#     4  10  22  40  63  91 120 152 194 246 299 353
#     4   9  18  34  57  83 110 145 197 244 283 339
#     4  10  23  43  65  90 123 159 198 245 303 367
#     4  11  22  35  52  84 123 153 190 243 302 349
#     4  10  18  33  57  80 105 149 199 236 280 349
#
# _framework density 22.523814999999999
#
# number of rings (size 3 to 8) (size 9 to 14) (size 15 to 20)
#    0.000    2.000    1.429    1.714    2.000    4.000 
#    0.000    1.429    0.000    0.000    0.000    0.000 
#    0.000    0.000    0.000    0.000    0.000    0.000 
#
# Total GULP energy -156159.648007 kJ/mol
# GULP energy per Si atom -5577.130286 kJ/mol
# Density = 2.247255 g / cm^3
# Si number density = 22.523815 Si / 1000 Ang^3
#
#
#
# Elastic Constant Matrix: (Units=GPa)
#
#
# Indices 1 2 3 4 5 6 
#
# 1 148.0907 -0.2327 63.7522 0.0000 -18.0755 0.0000
# 2 -0.2327 23.6079 20.3149 0.0000 -2.1592 0.0000
# 3 63.7522 20.3149 108.1843 0.0000 -4.2530 0.0000
# 4 0.0000 0.0000 0.0000 71.5199 0.0000 -28.5785
# 5 -18.0755 -2.1592 -4.2530 0.0000 38.0103 0.0000
# 6 0.0000 0.0000 0.0000 -28.5785 0.0000 32.2764
#
#
#
# Elastic Compliance Matrix: (Units=1/GPa)
#
#
# Indices 1 2 3 4 5 6 
#
# 1 0.010431 0.006743 -0.007235 0.000000 0.004534 0.000000
# 2 0.006743 0.055007 -0.014116 0.000000 0.004752 0.000000
# 3 -0.007235 -0.014116 0.016062 0.000000 -0.002445 0.000000
# 4 0.000000 0.000000 0.000000 0.021638 0.000000 0.019159
# 5 0.004534 0.004752 -0.002445 0.000000 0.028461 0.000000
# 6 0.000000 0.000000 0.000000 0.019159 0.000000 0.047946
#
#
# Mechanical properties :
#
#
# Convention : Reuss Voigt Hill
#
# Bulk Modulus (GPa) = 19.12625 49.72799 34.42712
# Shear Modulus (GPa) = 22.10538 41.43120 31.76829
#
# Velocity S-wave (km/s) = 3.13617 4.29352 3.75965
# Velocity P-wave (km/s) = 4.65017 6.83411 5.84504
#
# Compressibility (1/GPa) = 0.05228417
#
# Stress axis : x y z
#
# Youngs Moduli (GPa) = 95.86522 18.17944 62.25974
#
# Poissons Ratio (x) = -0.12259 0.45046
# Poissons Ratio (y) = -0.64646 0.87888
# Poissons Ratio (z) = 0.69360 0.25663
#
# Static dielectric constant tensor:
#      x y z
#    x 2.060090 0.000000 -0.130510 
#    y 0.000000 1.915900 0.000000 
#    z -0.130510 0.000000 1.991400 
# 
# From -- ./inp_files/329645.got.cif
#   From: 2010.05.17/outbox.cif.g08.bks.cpg/sg12_165_cif.got.tgz:329645.got - 2010.06.03 13:09:07.
