data_PCOD9175429
_publ_section_title
;
Structure prediction by ZEFSAII (Michael W. Deem and Ramdas Pophale) SiO2 
 PCOD9175429
Probable space group: C 2/M
;
_chemical_formula_sum "Si O2"
_cell_formula_units_Z 48
_cell_length_a 19.873865
_cell_length_b 12.435155
_cell_length_c 13.928875
_cell_angle_alpha 90.000000
_cell_angle_beta 121.339789
_cell_angle_gamma 90.000000
_cell_volume 2940.066849
_symmetry_space_group_name_H-M "C 2/M"
_symmetry_group_IT_number 12
_symmetry_cell_setting 'monoclinic'
loop_
_space_group_symop_operation_xyz
x,y,z
-x,y,-z
-x,-y,-z
x,-y,z
1/2+x,1/2+y,z
1/2-x,1/2+y,-z
1/2-x,1/2-y,-z
1/2+x,1/2-y,z
loop_
_atom_site_type_symbol
_atom_site_label
_atom_site_fract_x
_atom_site_fract_y
_atom_site_fract_z
Si Si1 0.647947 0.127625 0.940244
Si Si2 0.628899 0.374642 0.619144
Si Si3 0.027975 0.125254 0.366183
Si Si4 0.509717 0.277398 0.863460
Si Si5 0.736370 0.756549 0.835768
Si Si6 0.111590 0.878097 0.089196
O O1 0.560084 0.167993 0.901855
O O2 0.674271 0.190143 0.863043
O O3 0.652597 0.000000 0.933288
O O4 0.710252 0.170658 0.065738
O O5 0.653329 0.500000 0.633792
O O6 0.552302 0.369707 0.631519
O O7 0.597921 0.342507 0.490691
O O8 0.693890 0.300637 0.715965
O O9 0.017174 0.193461 0.262807
O O10 0.040139 0.000000 0.349030
O O11 0.435336 0.294514 0.878124
O O12 0.573316 0.361979 0.955223
O O13 0.797713 0.847501 0.848652
O O14 0.098401 0.000000 0.111830
#
# Coordination Sequence:
#
# PCOD9175429 Si02
#       6
#     8   8   8   8   8   8
#     4  10  20  32  50  73  98 132 165 200 247 292
#     4   9  17  29  48  75  99 125 165 205 243 282
#     4   9  16  28  50  74  97 126 163 206 241 280
#     4  10  18  33  51  73  98 128 165 202 242 287
#     4  10  19  33  48  73 103 129 160 203 248 289
#     4  10  20  32  51  77 102 129 160 199 246 296
#
# _framework density 16.326160000000002
#
# number of rings (size 3 to 8) (size 9 to 14) (size 15 to 20)
#    0.000    2.333    1.667    4.000    0.000    0.000 
#    0.000    8.333    0.000    3.000    0.000    0.000 
#    0.000    0.000    0.000    0.000    0.000    0.000 
#
# Total GULP energy -133694.491791 kJ/mol
# GULP energy per Si atom -5570.603825 kJ/mol
# Density = 1.628900 g / cm^3
# Si number density = 16.326160 Si / 1000 Ang^3
#
#
#
# Elastic Constant Matrix: (Units=GPa)
#
#
# Indices 1 2 3 4 5 6 
#
# 1 47.6589 17.2536 16.3167 0.0000 1.6847 0.0000
# 2 17.2536 71.3907 38.5875 0.0000 -1.7456 0.0000
# 3 16.3167 38.5875 112.4519 0.0000 -5.2794 0.0000
# 4 0.0000 0.0000 0.0000 17.3813 0.0000 1.2067
# 5 1.6847 -1.7456 -5.2794 0.0000 18.7706 0.0000
# 6 0.0000 0.0000 0.0000 1.2067 0.0000 16.0107
#
#
#
# Elastic Compliance Matrix: (Units=1/GPa)
#
#
# Indices 1 2 3 4 5 6 
#
# 1 0.023455 -0.004697 -0.001936 0.000000 -0.003087 0.000000
# 2 -0.004697 0.018138 -0.005516 0.000000 0.000557 0.000000
# 3 -0.001936 -0.005516 0.011198 0.000000 0.002810 0.000000
# 4 0.000000 0.000000 0.000000 0.057836 0.000000 -0.004359
# 5 -0.003087 0.000557 0.002810 0.000000 0.054394 0.000000
# 6 0.000000 0.000000 0.000000 -0.004359 0.000000 0.062787
#
#
# Mechanical properties :
#
#
# Convention : Reuss Voigt Hill
#
# Bulk Modulus (GPa) = 35.09828 41.75749 38.42788
# Shear Modulus (GPa) = 19.11277 21.05542 20.08410
#
# Velocity S-wave (km/s) = 3.42524 3.59510 3.51120
# Velocity P-wave (km/s) = 6.09818 6.54718 6.32667
#
# Compressibility (1/GPa) = 0.02849143
#
# Stress axis : x y z
#
# Youngs Moduli (GPa) = 42.63475 55.13319 89.29786
#
# Poissons Ratio (x) = 0.25899 0.17291
# Poissons Ratio (y) = 0.20027 0.49259
# Poissons Ratio (z) = 0.08255 0.30413
#
# Static dielectric constant tensor:
#      x y z
#    x 1.564700 0.000000 -0.005190 
#    y 0.000000 1.532880 0.000000 
#    z -0.005190 0.000000 1.546840 
# 
# From -- ./inp_files/231673.got.cif
#   From: 2010.05.17/outbox.cif.g08.bks.cpg/sg12_116_cif.got.tgz:231673.got - 2010.06.03 13:09:07.
