data_PCOD9175912
_publ_section_title
;
Structure prediction by ZEFSAII (Michael W. Deem and Ramdas Pophale) SiO2 
 PCOD9175912
Probable space group: C 2/M
;
_chemical_formula_sum "Si O2"
_cell_formula_units_Z 56
_cell_length_a 17.801348
_cell_length_b 16.295255
_cell_length_c 10.784118
_cell_angle_alpha 90.000000
_cell_angle_beta 118.036641
_cell_angle_gamma 90.000000
_cell_volume 2761.123433
_symmetry_space_group_name_H-M "C 2/M"
_symmetry_group_IT_number 12
_symmetry_cell_setting 'monoclinic'
loop_
_space_group_symop_operation_xyz
x,y,z
-x,y,-z
-x,-y,-z
x,-y,z
1/2+x,1/2+y,z
1/2-x,1/2+y,-z
1/2-x,1/2-y,-z
1/2+x,1/2-y,z
loop_
_atom_site_type_symbol
_atom_site_label
_atom_site_fract_x
_atom_site_fract_y
_atom_site_fract_z
Si Si1 0.054976 0.641412 0.158917
Si Si2 0.793069 0.400009 0.115710
Si Si3 0.025569 0.596363 0.654341
Si Si4 0.233047 0.598514 0.189212
Si Si5 0.575537 0.406574 0.656972
Si Si6 0.002875 0.824547 0.830435
Si Si7 0.370163 0.402166 0.869901
O O1 0.153450 0.639541 0.196185
O O2 0.040002 0.601392 0.282025
O O3 0.018040 0.732124 0.151110
O O4 0.000000 0.605039 0.000000
O O5 0.793574 0.500000 0.112789
O O6 0.885759 0.368904 0.224818
O O7 0.724202 0.375720 0.165436
O O8 0.768584 0.375156 0.957038
O O9 0.041965 0.500000 0.645202
O O10 0.000000 0.631704 0.500000
O O11 0.217293 0.500000 0.182144
O O12 0.328615 0.612583 0.313159
O O13 0.500000 0.409621 0.500000
O O14 0.581665 0.500000 0.717794
O O15 0.545147 0.340492 0.732428
O O16 0.913226 0.872321 0.776740
O O17 0.069743 0.863745 0.978045
O O18 0.374974 0.500000 0.879344
#
# Coordination Sequence:
#
# PCOD9175912 Si02
#       7
#     8   8   8   8   8   8   8
#     4  12  23  38  59  92 127 161 205 248 305 374
#     4   9  17  32  59  89 112 146 202 257 307 351
#     4  10  22  41  62  85 119 162 207 254 304 363
#     4  10  20  37  63  91 117 156 209 261 304 358
#     4  10  21  41  66  89 118 159 209 261 311 364
#     4  11  21  36  55  89 123 153 195 243 311 368
#     4  10  18  33  59  87 116 151 197 260 304 348
#
# _framework density 20.281599
#
# number of rings (size 3 to 8) (size 9 to 14) (size 15 to 20)
#    0.000    1.714    4.286    2.143    0.000    1.143 
#    5.143    2.857    0.000    0.000    0.000    0.000 
#    0.000    0.000    0.000    0.000    0.000    0.000 
#
# Total GULP energy -156136.406377 kJ/mol
# GULP energy per Si atom -5576.300228 kJ/mol
# Density = 2.023544 g / cm^3
# Si number density = 20.281599 Si / 1000 Ang^3
#
#
#
# Elastic Constant Matrix: (Units=GPa)
#
#
# Indices 1 2 3 4 5 6 
#
# 1 152.8887 8.8697 33.3929 0.0000 15.6115 0.0000
# 2 8.8697 30.9407 3.0489 0.0000 0.3231 0.0000
# 3 33.3929 3.0489 73.6158 0.0000 9.8567 0.0000
# 4 0.0000 0.0000 0.0000 24.3440 0.0000 26.6979
# 5 15.6115 0.3231 9.8567 0.0000 25.1352 0.0000
# 6 0.0000 0.0000 0.0000 26.6979 0.0000 87.5970
#
#
#
# Elastic Compliance Matrix: (Units=1/GPa)
#
#
# Indices 1 2 3 4 5 6 
#
# 1 0.007652 -0.001869 -0.002913 0.000000 -0.003586 0.000000
# 2 -0.001869 0.032909 -0.000648 0.000000 0.000992 0.000000
# 3 -0.002913 -0.000648 0.015503 0.000000 -0.004262 0.000000
# 4 0.000000 0.000000 0.000000 0.061702 0.000000 -0.018806
# 5 -0.003586 0.000992 -0.004262 0.000000 0.043670 0.000000
# 6 0.000000 0.000000 0.000000 -0.018806 0.000000 0.017147
#
#
# Mechanical properties :
#
#
# Convention : Reuss Voigt Hill
#
# Bulk Modulus (GPa) = 22.12228 38.67422 30.39825
# Shear Modulus (GPa) = 24.44849 41.55750 33.00299
#
# Velocity S-wave (km/s) = 3.47573 4.53153 4.03828
# Velocity P-wave (km/s) = 5.19989 6.81833 6.06335
#
# Compressibility (1/GPa) = 0.04520330
#
# Stress axis : x y z
#
# Youngs Moduli (GPa) = 130.69177 30.38665 64.50367
#
# Poissons Ratio (x) = 0.05679 0.18792
# Poissons Ratio (y) = 0.24425 0.04180
# Poissons Ratio (z) = 0.38074 0.01969
#
# Static dielectric constant tensor:
#      x y z
#    x 1.750070 0.000000 -0.015780 
#    y 0.000000 1.751940 0.000000 
#    z -0.015780 0.000000 1.734120 
# 
# From -- ./inp_files/156696.got.cif
#   From: 2010.05.17/outbox.cif.g08.bks.cpg/sg12_79_cif.got.tgz:156696.got - 2010.06.03 13:09:07.
