data_PCOD9175409
_publ_section_title
;
Structure prediction by ZEFSAII (Michael W. Deem and Ramdas Pophale) SiO2 
 PCOD9175409
Probable space group: C 2/M
;
_chemical_formula_sum "Si O2"
_cell_formula_units_Z 58
_cell_length_a 13.116467
_cell_length_b 18.669549
_cell_length_c 18.784976
_cell_angle_alpha 90.000000
_cell_angle_beta 138.620444
_cell_angle_gamma 90.000000
_cell_volume 3040.827773
_symmetry_space_group_name_H-M "C 2/M"
_symmetry_group_IT_number 12
_symmetry_cell_setting 'monoclinic'
loop_
_space_group_symop_operation_xyz
x,y,z
-x,y,-z
-x,-y,-z
x,-y,z
1/2+x,1/2+y,z
1/2-x,1/2+y,-z
1/2-x,1/2-y,-z
1/2+x,1/2-y,z
loop_
_atom_site_type_symbol
_atom_site_label
_atom_site_fract_x
_atom_site_fract_y
_atom_site_fract_z
Si Si1 0.899297 0.226823 0.385943
Si Si2 0.923298 0.683730 0.785583
Si Si3 0.232800 0.632245 0.598309
Si Si4 0.062234 0.331939 0.374205
Si Si5 0.297420 0.915347 0.048214
Si Si6 0.000000 0.500000 0.500000
Si Si7 0.997344 0.152724 0.833899
Si Si8 0.249082 0.584422 0.808532
O O1 0.751434 0.185995 0.278381
O O2 0.833110 0.297796 0.393472
O O3 0.000818 0.257916 0.375295
O O4 0.000000 0.189049 0.500000
O O5 0.999715 0.761325 0.837945
O O6 0.901241 0.674544 0.689015
O O7 0.038721 0.623683 0.873913
O O8 0.134298 0.563159 0.567908
O O9 0.407986 0.628341 0.715850
O O10 0.199226 0.643963 0.497523
O O11 0.918384 0.387143 0.303804
O O12 0.246606 0.903787 0.104350
O O13 0.308933 0.000000 0.042894
O O14 0.164366 0.880680 0.931142
O O15 0.883904 0.124876 0.837512
O O16 0.261792 0.500000 0.801420
#
# Coordination Sequence:
#
# PCOD9175409 Si02
#       8
#     8   8   8   8   8   2   8   8
#     4   9  17  33  48  78 106 139 183 222 272 316
#     4  10  21  35  57  78 112 148 185 227 272 331
#     4  10  20  26  47  77 113 150 173 203 270 333
#     4  10  18  33  49  81 115 146 178 218 268 334
#     4  10  22  37  53  78 112 148 184 231 283 329
#     4  12  16  28  44  80 118 156 172 194 268 362
#     4  11  20  33  50  79 111 147 189 222 265 331
#     4  10  19  31  52  79 115 150 174 219 282 343
#
# _framework density 19.073754000000001
#
# number of rings (size 3 to 8) (size 9 to 14) (size 15 to 20)
#    0.000    1.931    4.828    1.241    4.828    6.069 
#    0.000    0.000    0.000    0.414    0.000    2.897 
#    0.000    0.000    0.000    0.000    0.000    0.000 
#
# Total GULP energy -161624.495993 kJ/mol
# GULP energy per Si atom -5573.258483 kJ/mol
# Density = 1.903034 g / cm^3
# Si number density = 19.073754 Si / 1000 Ang^3
#
#
#
# Elastic Constant Matrix: (Units=GPa)
#
#
# Indices 1 2 3 4 5 6 
#
# 1 7.7687 7.0472 13.8865 0.0000 3.5770 0.0000
# 2 7.0472 71.8851 39.8819 0.0000 11.1923 0.0000
# 3 13.8865 39.8819 154.2996 0.0000 22.6577 0.0000
# 4 0.0000 0.0000 0.0000 10.7004 0.0000 5.3904
# 5 3.5770 11.1923 22.6577 0.0000 18.4769 0.0000
# 6 0.0000 0.0000 0.0000 5.3904 0.0000 20.7467
#
#
#
# Elastic Compliance Matrix: (Units=1/GPa)
#
#
# Indices 1 2 3 4 5 6 
#
# 1 0.160762 -0.007853 -0.010448 0.000000 -0.013553 0.000000
# 2 -0.007853 0.017135 -0.002953 0.000000 -0.005238 0.000000
# 3 -0.010448 -0.002953 0.009299 0.000000 -0.007592 0.000000
# 4 0.000000 0.000000 0.000000 0.107528 0.000000 -0.027938
# 5 -0.013553 -0.005238 -0.007592 0.000000 0.069228 0.000000
# 6 0.000000 0.000000 0.000000 -0.027938 0.000000 0.055459
#
#
# Mechanical properties :
#
#
# Convention : Reuss Voigt Hill
#
# Bulk Modulus (GPa) = 6.91146 39.50941 23.21043
# Shear Modulus (GPa) = 9.80104 21.52731 15.66418
#
# Velocity S-wave (km/s) = 2.26928 3.36316 2.86884
# Velocity P-wave (km/s) = 3.24000 5.98666 4.81340
#
# Compressibility (1/GPa) = 0.14468730
#
# Stress axis : x y z
#
# Youngs Moduli (GPa) = 6.22037 58.36073 107.53522
#
# Poissons Ratio (x) = 0.45833 1.12354
# Poissons Ratio (y) = 0.04885 0.31754
# Poissons Ratio (z) = 0.06499 0.17233
#
# Static dielectric constant tensor:
#      x y z
#    x 1.683870 0.000000 -0.004420 
#    y 0.000000 1.653970 0.000000 
#    z -0.004420 0.000000 1.722840 
# 
# From -- ./inp_files/311359.got.cif
#   From: 2010.05.17/outbox.cif.g08.bks.cpg/sg12_156_cif.got.tgz:311359.got - 2010.06.03 13:09:07.
