data_PCOD9175713
_publ_section_title
;
Structure prediction by ZEFSAII (Michael W. Deem and Ramdas Pophale) SiO2 
 PCOD9175713
Probable space group: C 2/M
;
_chemical_formula_sum "Si O2"
_cell_formula_units_Z 56
_cell_length_a 21.900854
_cell_length_b 14.580963
_cell_length_c 23.909118
_cell_angle_alpha 90.000000
_cell_angle_beta 161.195267
_cell_angle_gamma 90.000000
_cell_volume 2461.105668
_symmetry_space_group_name_H-M "C 2/M"
_symmetry_group_IT_number 12
_symmetry_cell_setting 'monoclinic'
loop_
_space_group_symop_operation_xyz
x,y,z
-x,y,-z
-x,-y,-z
x,-y,z
1/2+x,1/2+y,z
1/2-x,1/2+y,-z
1/2-x,1/2-y,-z
1/2+x,1/2-y,z
loop_
_atom_site_type_symbol
_atom_site_label
_atom_site_fract_x
_atom_site_fract_y
_atom_site_fract_z
Si Si1 0.561108 0.316018 0.668443
Si Si2 0.869645 0.333335 0.433304
Si Si3 0.525788 0.606999 0.207013
Si Si4 0.621272 0.891603 0.848494
Si Si5 0.711100 0.611282 0.480278
Si Si6 0.133424 0.602651 0.992112
Si Si7 0.168092 0.328537 0.189338
O O1 0.504525 0.216829 0.595488
O O2 0.375512 0.358118 0.535907
O O3 0.720658 0.326318 0.854182
O O4 0.662386 0.365717 0.703067
O O5 0.704434 0.385749 0.321586
O O6 0.760505 0.253598 0.304383
O O7 0.000000 0.382272 0.500000
O O8 0.485805 0.500000 0.181702
O O9 0.584823 0.643986 0.318712
O O10 0.328242 0.647144 0.013321
O O11 0.424241 0.853619 0.655115
O O12 0.619044 0.000000 0.830943
O O13 0.606064 0.884460 0.902691
O O14 0.714186 0.500000 0.482706
O O15 0.215323 0.500000 0.070934
O O16 0.939235 0.609204 0.858691
O O17 0.000000 0.300246 0.000000
#
# Coordination Sequence:
#
# PCOD9175713 Si02
#       7
#     8   8   8   8   8   8   8
#     4  10  19  33  54  80 116 152 185 231 280 332
#     4  10  22  41  58  80 113 148 191 241 291 344
#     4  10  21  40  63  84 111 147 190 243 295 344
#     4   9  18  34  54  82 117 147 182 234 285 335
#     4  10  19  34  58  87 118 151 187 232 284 338
#     4  10  18  33  56  84 120 159 197 231 273 332
#     4   9  20  36  55  78 115 156 193 233 282 333
#
# _framework density 22.754000000000001
#
# number of rings (size 3 to 8) (size 9 to 14) (size 15 to 20)
#    0.000    2.286    1.429    1.286    0.000    4.000 
#    7.714    2.143    0.000   13.714    0.000    0.000 
#    0.000    0.000    0.000    0.000    0.000    0.000 
#
# Total GULP energy -156254.657945 kJ/mol
# GULP energy per Si atom -5580.523498 kJ/mol
# Density = 2.270221 g / cm^3
# Si number density = 22.754000 Si / 1000 Ang^3
#
#
#
# Elastic Constant Matrix: (Units=GPa)
#
#
# Indices 1 2 3 4 5 6 
#
# 1 83.0378 5.7597 33.3564 0.0045 34.6138 -0.0128
# 2 5.7597 42.8723 15.5173 0.0397 -4.8627 0.0181
# 3 33.3564 15.5173 112.1119 0.0226 32.9811 0.0247
# 4 0.0045 0.0397 0.0226 25.1486 0.0067 8.6952
# 5 34.6138 -4.8627 32.9811 0.0067 48.7386 -0.0015
# 6 -0.0128 0.0181 0.0247 8.6952 -0.0015 24.4368
#
#
#
# Elastic Compliance Matrix: (Units=1/GPa)
#
#
# Indices 1 2 3 4 5 6 
#
# 1 0.017847 -0.003311 -0.001281 0.000002 -0.012138 0.000011
# 2 -0.003311 0.026624 -0.005210 -0.000038 0.008533 -0.000002
# 3 -0.001281 -0.005210 0.012370 0.000003 -0.007981 -0.000011
# 4 0.000002 -0.000038 0.000003 0.045342 -0.000015 -0.016134
# 5 -0.012138 0.008533 -0.007981 -0.000015 0.035390 0.000003
# 6 0.000011 -0.000002 -0.000011 -0.016134 0.000003 0.046663
#
#
# Mechanical properties :
#
#
# Convention : Reuss Voigt Hill
#
# Bulk Modulus (GPa) = 26.85560 38.58765 32.72162
# Shear Modulus (GPa) = 23.12138 31.89070 27.50604
#
# Velocity S-wave (km/s) = 3.19116 3.74778 3.48062
# Velocity P-wave (km/s) = 5.04046 5.97689 5.52854
#
# Compressibility (1/GPa) = 0.03723619
#
# Stress axis : x y z
#
# Youngs Moduli (GPa) = 56.03319 37.56068 80.84327
#
# Poissons Ratio (x) = 0.12435 0.10355
# Poissons Ratio (y) = 0.18551 0.42121
# Poissons Ratio (z) = 0.07177 0.19570
#
# Static dielectric constant tensor:
#      x y z
#    x 1.850520 0.000010 0.029740 
#    y 0.000010 1.823600 -0.000020 
#    z 0.029740 -0.000020 1.895510 
# 
# From -- ./inp_files/347818.got.cif
#   From: 2010.05.17/outbox.cif.g08.bks.cpg/sg12_174_cif.got.tgz:347818.got - 2010.06.03 13:09:07.
