data_PCOD9175129
_publ_section_title
;
Structure prediction by ZEFSAII (Michael W. Deem and Ramdas Pophale) SiO2 
 PCOD9175129
Probable space group: C 2/M
;
_chemical_formula_sum "Si O2"
_cell_formula_units_Z 56
_cell_length_a 15.878020
_cell_length_b 16.171759
_cell_length_c 20.090118
_cell_angle_alpha 90.000000
_cell_angle_beta 32.322438
_cell_angle_gamma 90.000000
_cell_volume 2758.244335
_symmetry_space_group_name_H-M "C 2/M"
_symmetry_group_IT_number 12
_symmetry_cell_setting 'monoclinic'
loop_
_space_group_symop_operation_xyz
x,y,z
-x,y,-z
-x,-y,-z
x,-y,z
1/2+x,1/2+y,z
1/2-x,1/2+y,-z
1/2-x,1/2-y,-z
1/2+x,1/2-y,z
loop_
_atom_site_type_symbol
_atom_site_label
_atom_site_fract_x
_atom_site_fract_y
_atom_site_fract_z
Si Si1 0.438473 0.198759 0.249848
Si Si2 0.829982 0.906737 0.518441
Si Si3 0.759947 0.407149 0.953180
Si Si4 0.094995 0.873295 0.782556
Si Si5 0.483722 0.749919 0.650245
Si Si6 0.174109 0.837774 0.869042
Si Si7 0.651667 0.911865 0.496008
O O1 0.299627 0.131626 0.345278
O O2 0.604274 0.157642 0.119476
O O3 0.399612 0.274379 0.228526
O O4 0.453167 0.237280 0.315643
O O5 0.736192 0.912240 0.511132
O O6 0.960206 0.836088 0.418355
O O7 0.882178 0.000000 0.500656
O O8 0.817103 0.500000 0.925631
O O9 0.730015 0.390894 0.894787
O O10 0.588828 0.396808 0.101383
O O11 0.156623 0.892661 0.814852
O O12 0.211704 0.907897 0.649803
O O13 0.298605 0.764858 0.777088
O O14 0.550296 0.828250 0.563747
O O15 0.000000 0.805410 0.000000
O O16 0.564293 0.000000 0.547271
#
# Coordination Sequence:
#
# PCOD9175129 Si02
#       7
#     8   8   8   8   8   8   8
#     4  10  18  34  55  78 107 140 183 222 266 314
#     4  10  18  32  56  80 105 138 176 223 272 318
#     4  10  21  35  53  79 110 147 185 218 266 328
#     4  11  19  34  52  78 110 147 176 224 263 313
#     4  10  18  36  54  75 108 141 179 220 265 325
#     4   9  22  36  54  74 103 150 180 212 269 325
#     4  10  19  31  52  84 112 137 172 216 272 324
#
# _framework density 20.302769999999999
#
# number of rings (size 3 to 8) (size 9 to 14) (size 15 to 20)
#    0.000    2.000    2.857    2.143    0.000    7.143 
#    0.000    0.714    0.000    3.000    0.000    0.000 
#    0.000    0.000    0.000    0.000    0.000    0.000 
#
# Total GULP energy -156283.159102 kJ/mol
# GULP energy per Si atom -5581.541397 kJ/mol
# Density = 2.025656 g / cm^3
# Si number density = 20.302770 Si / 1000 Ang^3
#
#
#
# Elastic Constant Matrix: (Units=GPa)
#
#
# Indices 1 2 3 4 5 6 
#
# 1 11.6688 6.5374 3.1054 0.0001 1.9762 -0.0013
# 2 6.5374 142.9620 29.7677 -0.0016 -10.7891 -0.0033
# 3 3.1054 29.7677 67.6528 -0.0024 -0.9562 -0.0020
# 4 0.0001 -0.0016 -0.0024 69.3974 0.0006 59.3456
# 5 1.9762 -10.7891 -0.9562 0.0006 16.0117 0.0011
# 6 -0.0013 -0.0033 -0.0020 59.3456 0.0011 64.3737
#
#
#
# Elastic Compliance Matrix: (Units=1/GPa)
#
#
# Indices 1 2 3 4 5 6 
#
# 1 0.091490 -0.004815 -0.002288 -0.000008 -0.014673 0.000009
# 2 -0.004815 0.008374 -0.003378 0.000000 0.006035 0.000000
# 3 -0.002288 -0.003378 0.016358 0.000001 -0.001017 -0.000001
# 4 -0.000008 0.000000 0.000001 0.068087 0.000003 -0.062769
# 5 -0.014673 0.006035 -0.001017 0.000003 0.068271 -0.000004
# 6 0.000009 0.000000 -0.000001 -0.062769 -0.000004 0.073400
#
#
# Mechanical properties :
#
#
# Convention : Reuss Voigt Hill
#
# Bulk Modulus (GPa) = 10.49761 33.45606 21.97683
# Shear Modulus (GPa) = 13.20320 42.14812 27.67566
#
# Velocity S-wave (km/s) = 2.55289 4.56123 3.69609
# Velocity P-wave (km/s) = 3.72444 6.65238 5.39099
#
# Compressibility (1/GPa) = 0.09525980
#
# Stress axis : x y z
#
# Youngs Moduli (GPa) = 10.93016 119.41849 61.13035
#
# Poissons Ratio (x) = 0.57494 0.13990
# Poissons Ratio (y) = 0.05262 0.20652
# Poissons Ratio (z) = 0.02501 0.40343
#
# Static dielectric constant tensor:
#      x y z
#    x 1.719790 0.000000 0.006540 
#    y 0.000000 1.739700 0.000000 
#    z 0.006540 0.000000 1.739050 
# 
# From -- ./inp_files/189591.got.cif
#   From: 2010.05.17/outbox.cif.g08.bks.cpg/sg12_95_cif.got.tgz:189591.got - 2010.06.03 13:09:07.
