data_PCOD9175663
_publ_section_title
;
Structure prediction by ZEFSAII (Michael W. Deem and Ramdas Pophale) SiO2 
 PCOD9175663
Probable space group: C 2/M
;
_chemical_formula_sum "Si O2"
_cell_formula_units_Z 40
_cell_length_a 12.833977
_cell_length_b 19.979008
_cell_length_c 7.145761
_cell_angle_alpha 90.000000
_cell_angle_beta 83.174766
_cell_angle_gamma 90.000000
_cell_volume 1819.260862
_symmetry_space_group_name_H-M "C 2/M"
_symmetry_group_IT_number 12
_symmetry_cell_setting 'monoclinic'
loop_
_space_group_symop_operation_xyz
x,y,z
-x,y,-z
-x,-y,-z
x,-y,z
1/2+x,1/2+y,z
1/2-x,1/2+y,-z
1/2-x,1/2-y,-z
1/2+x,1/2-y,z
loop_
_atom_site_type_symbol
_atom_site_label
_atom_site_fract_x
_atom_site_fract_y
_atom_site_fract_z
Si Si1 0.586774 0.577058 0.249245
Si Si2 0.837732 0.675872 0.834066
Si Si3 0.119528 0.129007 0.815267
Si Si4 0.453406 0.767257 0.319654
Si Si5 0.247795 0.680288 0.743942
O O1 0.611731 0.500000 0.271630
O O2 0.461978 0.588839 0.296832
O O3 0.667570 0.626168 0.334396
O O4 0.606988 0.598969 0.026711
O O5 0.744436 0.633656 0.754910
O O6 0.961065 0.678138 0.763329
O O7 0.807977 0.753387 0.799220
O O8 0.818406 0.660091 0.056941
O O9 0.075088 0.205612 0.810913
O O10 0.500000 0.737853 0.500000
O O11 0.341355 0.800864 0.384383
#
# Coordination Sequence:
#
# PCOD9175663 Si02
#       5
#     8   8   8   8   8
#     4  10  18  33  56  79 103 133 176 214 253 302
#     4   9  17  31  51  75 107 130 166 218 262 303
#     4   9  18  30  49  79 104 130 166 208 262 304
#     4  11  21  31  50  79 113 139 163 209 266 316
#     4   9  18  30  52  78 103 136 170 211 260 305
#
# _framework density 21.986951999999999
#
# number of rings (size 3 to 8) (size 9 to 14) (size 15 to 20)
#    0.000    2.400    2.000    3.000    5.600    3.200 
#    0.000    0.000    0.000   13.800    0.000    0.000 
#    0.000    0.000    0.000    0.000    0.000    0.000 
#
# Total GULP energy -111573.855052 kJ/mol
# GULP energy per Si atom -5578.692753 kJ/mol
# Density = 2.193691 g / cm^3
# Si number density = 21.986952 Si / 1000 Ang^3
#
#
#
# Elastic Constant Matrix: (Units=GPa)
#
#
# Indices 1 2 3 4 5 6 
#
# 1 133.9824 43.2899 21.1124 0.0000 13.9683 0.0000
# 2 43.2899 86.9155 2.8337 0.0000 7.2035 0.0000
# 3 21.1124 2.8337 55.6510 0.0000 -3.9360 0.0000
# 4 0.0000 0.0000 0.0000 11.9741 0.0000 1.5386
# 5 13.9683 7.2035 -3.9360 0.0000 42.6333 0.0000
# 6 0.0000 0.0000 0.0000 1.5386 0.0000 25.1764
#
#
#
# Elastic Compliance Matrix: (Units=1/GPa)
#
#
# Indices 1 2 3 4 5 6 
#
# 1 0.009798 -0.004529 -0.003683 0.000000 -0.002785 0.000000
# 2 -0.004529 0.013793 0.000962 0.000000 -0.000758 0.000000
# 3 -0.003683 0.000962 0.019519 0.000000 0.002846 0.000000
# 4 0.000000 0.000000 0.000000 0.084174 0.000000 -0.005144
# 5 -0.002785 -0.000758 0.002846 0.000000 0.024759 0.000000
# 6 0.000000 0.000000 0.000000 -0.005144 0.000000 0.040034
#
#
# Mechanical properties :
#
#
# Convention : Reuss Voigt Hill
#
# Bulk Modulus (GPa) = 34.95408 45.66900 40.31154
# Shear Modulus (GPa) = 23.13599 29.91094 26.52347
#
# Velocity S-wave (km/s) = 3.24738 3.69235 3.47699
# Velocity P-wave (km/s) = 5.47656 6.24452 5.87311
#
# Compressibility (1/GPa) = 0.02860897
#
# Stress axis : x y z
#
# Youngs Moduli (GPa) = 102.06410 72.50241 51.23268
#
# Poissons Ratio (x) = 0.32837 0.18871
# Poissons Ratio (y) = 0.46225 -0.04930
# Poissons Ratio (z) = 0.37594 -0.06977
#
# Static dielectric constant tensor:
#      x y z
#    x 1.879630 0.000000 -0.005270 
#    y 0.000000 1.754150 0.000000 
#    z -0.005270 0.000000 1.945140 
# 
# From -- ./inp_files/48600.got.cif
#   From: 2010.05.17/outbox.cif.g08.bks.cpg/sg12_25_cif.got.tgz:48600.got - 2010.06.03 13:09:07.
