data_PCOD9175169
_publ_section_title
;
Structure prediction by ZEFSAII (Michael W. Deem and Ramdas Pophale) SiO2 
 PCOD9175169
Probable space group: C 2/M
;
_chemical_formula_sum "Si O2"
_cell_formula_units_Z 56
_cell_length_a 18.577148
_cell_length_b 14.254176
_cell_length_c 17.518133
_cell_angle_alpha 90.000000
_cell_angle_beta 36.821925
_cell_angle_gamma 90.000000
_cell_volume 2780.193151
_symmetry_space_group_name_H-M "C 2/M"
_symmetry_group_IT_number 12
_symmetry_cell_setting 'monoclinic'
loop_
_space_group_symop_operation_xyz
x,y,z
-x,y,-z
-x,-y,-z
x,-y,z
1/2+x,1/2+y,z
1/2-x,1/2+y,-z
1/2-x,1/2-y,-z
1/2+x,1/2-y,z
loop_
_atom_site_type_symbol
_atom_site_label
_atom_site_fract_x
_atom_site_fract_y
_atom_site_fract_z
Si Si1 0.241132 0.109395 0.344610
Si Si2 0.161403 0.730228 0.301920
Si Si3 0.983240 0.602458 0.921947
Si Si4 0.815987 0.607192 0.570388
Si Si5 0.901027 0.800512 0.015513
Si Si6 0.961356 0.105012 0.229782
Si Si7 0.425435 0.728860 0.404261
O O1 0.207527 0.172666 0.300212
O O2 0.385519 0.115271 0.227266
O O3 0.165986 0.156777 0.476373
O O4 0.210129 0.000000 0.362482
O O5 0.140615 0.659504 0.390081
O O6 0.044229 0.754145 0.353516
O O7 0.269154 0.687496 0.160942
O O8 0.934501 0.500000 0.940334
O O9 0.908252 0.696087 0.972866
O O10 0.000000 0.598502 0.000000
O O11 0.856177 0.500000 0.531253
O O12 0.671498 0.609467 0.694293
O O13 0.859068 0.670733 0.462926
O O14 0.942273 0.873308 0.916936
O O15 0.000000 0.803881 0.000000
O O16 0.961752 0.184030 0.293895
O O17 0.976657 0.000000 0.248778
#
# Coordination Sequence:
#
# PCOD9175169 Si02
#       7
#     8   8   8   8   8   8   8
#     4  10  18  32  56  83 116 160 201 241 294 356
#     4  11  22  36  60  91 120 160 201 254 304 359
#     4   9  16  29  53  84 114 146 194 250 294 338
#     4  10  21  40  66  91 118 160 208 251 296 356
#     4  11  19  38  63  85 117 156 208 259 304 354
#     4  11  24  41  63  89 121 161 205 255 305 362
#     4  11  24  39  56  88 131 159 195 247 311 367
#
# _framework density 20.142484
#
# number of rings (size 3 to 8) (size 9 to 14) (size 15 to 20)
#    0.000    1.571    4.286    3.429    0.000    4.286 
#    0.000    2.143    0.000    0.000    0.000    0.000 
#    0.000    0.000    0.000    0.000    0.000    0.000 
#
# Total GULP energy -156349.488746 kJ/mol
# GULP energy per Si atom -5583.910312 kJ/mol
# Density = 2.009664 g / cm^3
# Si number density = 20.142484 Si / 1000 Ang^3
#
#
#
# Elastic Constant Matrix: (Units=GPa)
#
#
# Indices 1 2 3 4 5 6 
#
# 1 46.7094 24.9021 24.0641 0.0000 7.9492 0.0000
# 2 24.9021 133.2650 35.0261 0.0000 9.0336 0.0000
# 3 24.0641 35.0261 115.1759 0.0000 13.7828 0.0000
# 4 0.0000 0.0000 0.0000 13.1985 0.0000 -0.7465
# 5 7.9492 9.0336 13.7828 0.0000 15.0877 0.0000
# 6 0.0000 0.0000 0.0000 -0.7465 0.0000 2.8787
#
#
#
# Elastic Compliance Matrix: (Units=1/GPa)
#
#
# Indices 1 2 3 4 5 6 
#
# 1 0.026515 -0.003457 -0.003441 0.000000 -0.008757 0.000000
# 2 -0.003457 0.008724 -0.001711 0.000000 -0.001839 0.000000
# 3 -0.003441 -0.001711 0.010758 0.000000 -0.006990 0.000000
# 4 0.000000 0.000000 0.000000 0.076894 0.000000 0.019940
# 5 -0.008757 -0.001839 -0.006990 0.000000 0.078380 0.000000
# 6 0.000000 0.000000 0.000000 0.019940 0.000000 0.352554
#
#
# Mechanical properties :
#
#
# Convention : Reuss Voigt Hill
#
# Bulk Modulus (GPa) = 34.74558 51.45945 43.10251
# Shear Modulus (GPa) = 8.61127 20.31018 14.46072
#
# Velocity S-wave (km/s) = 2.06989 3.17886 2.68231
# Velocity P-wave (km/s) = 4.79583 6.25114 5.57121
#
# Compressibility (1/GPa) = 0.02878064
#
# Stress axis : x y z
#
# Youngs Moduli (GPa) = 37.71492 114.62518 92.95380
#
# Poissons Ratio (x) = 0.39622 0.31983
# Poissons Ratio (y) = 0.13037 0.15902
# Poissons Ratio (z) = 0.12977 0.19609
#
# Static dielectric constant tensor:
#      x y z
#    x 1.709130 0.000000 0.006830 
#    y 0.000000 1.727560 0.000000 
#    z 0.006830 0.000000 1.724400 
# 
# From -- ./inp_files/284507.got.cif
#   From: 2010.05.17/outbox.cif.g08.bks.cpg/sg12_143_cif.got.tgz:284507.got - 2010.06.03 13:09:07.
