data_PCOD9175046
_publ_section_title
;
Structure prediction by ZEFSAII (Michael W. Deem and Ramdas Pophale) SiO2 
 PCOD9175046
Probable space group: C 2/M
;
_chemical_formula_sum "Si O2"
_cell_formula_units_Z 40
_cell_length_a 21.028543
_cell_length_b 8.440818
_cell_length_c 22.192275
_cell_angle_alpha 90.000000
_cell_angle_beta 35.589630
_cell_angle_gamma 90.000000
_cell_volume 2292.453146
_symmetry_space_group_name_H-M "C 2/M"
_symmetry_group_IT_number 12
_symmetry_cell_setting 'monoclinic'
loop_
_space_group_symop_operation_xyz
x,y,z
-x,y,-z
-x,-y,-z
x,-y,z
1/2+x,1/2+y,z
1/2-x,1/2+y,-z
1/2-x,1/2-y,-z
1/2+x,1/2-y,z
loop_
_atom_site_type_symbol
_atom_site_label
_atom_site_fract_x
_atom_site_fract_y
_atom_site_fract_z
Si Si1 0.507388 0.308453 0.064806
Si Si2 0.766903 0.687563 0.054133
Si Si3 0.129185 0.308160 0.269567
Si Si4 0.731807 0.306222 0.719961
Si Si5 0.427205 0.815660 0.494743
O O1 0.514055 0.500000 0.062033
O O2 0.394043 0.257868 0.183459
O O3 0.500000 0.264417 0.000000
O O4 0.615301 0.240768 0.011701
O O5 0.760720 0.500000 0.058680
O O6 0.676187 0.752641 0.170268
O O7 0.750000 0.750000 0.000000
O O8 0.126192 0.500000 0.272559
O O9 0.212569 0.260744 0.259126
O O10 0.008448 0.248187 0.381656
O O11 0.734458 0.500000 0.716587
O O12 0.810927 0.247535 0.605361
O O13 0.500000 0.815171 0.500000
O O14 0.408232 0.000000 0.493532
#
# Coordination Sequence:
#
# PCOD9175046 Si02
#       5
#     8   8   8   8   8
#     4  10  18  32  55  80 107 137 169 208 255 305
#     4  12  25  38  52  72 102 138 178 217 260 307
#     4   9  15  29  51  75 103 134 170 208 250 299
#     4   8  13  24  47  79 108 133 163 201 248 302
#     4   7  11  20  42  75 104 130 163 202 242 295
#
# _framework density 17.448556
#
# number of rings (size 3 to 8) (size 9 to 14) (size 15 to 20)
#    0.000    2.800    2.000    4.200    0.000    0.400 
#    0.000    0.000    0.000    7.800    0.000    0.000 
#    0.000    0.000    0.000    0.000    0.000    0.000 
#
# Total GULP energy -111384.237768 kJ/mol
# GULP energy per Si atom -5569.211888 kJ/mol
# Density = 1.740884 g / cm^3
# Si number density = 17.448556 Si / 1000 Ang^3
#
#
#
# Elastic Constant Matrix: (Units=GPa)
#
#
# Indices 1 2 3 4 5 6 
#
# 1 74.7362 20.0375 63.5815 0.0000 11.0479 0.0000
# 2 20.0375 20.8068 29.5125 -0.0001 0.8826 0.0002
# 3 63.5815 29.5125 211.0403 0.0000 9.7609 0.0001
# 4 0.0000 -0.0001 0.0000 11.9718 0.0000 3.1217
# 5 11.0479 0.8826 9.7609 0.0000 18.1479 0.0000
# 6 0.0000 0.0002 0.0001 3.1217 0.0000 16.3367
#
#
#
# Elastic Compliance Matrix: (Units=1/GPa)
#
#
# Indices 1 2 3 4 5 6 
#
# 1 0.022669 -0.015461 -0.004168 0.000000 -0.010806 0.000000
# 2 -0.015461 0.070545 -0.005624 0.000001 0.009006 -0.000001
# 3 -0.004168 -0.005624 0.006820 0.000000 -0.000858 0.000000
# 4 0.000000 0.000001 0.000000 0.087910 0.000000 -0.016798
# 5 -0.010806 0.009006 -0.000858 0.000000 0.061705 0.000000
# 6 0.000000 -0.000001 0.000000 -0.016798 0.000000 0.064422
#
#
# Mechanical properties :
#
#
# Convention : Reuss Voigt Hill
#
# Bulk Modulus (GPa) = 20.18994 59.20515 39.69755
# Shear Modulus (GPa) = 13.12045 22.18807 17.65426
#
# Velocity S-wave (km/s) = 2.74515 3.56986 3.18431
# Velocity P-wave (km/s) = 4.65231 7.14120 6.02664
#
# Compressibility (1/GPa) = 0.04952961
#
# Stress axis : x y z
#
# Youngs Moduli (GPa) = 44.11383 14.17532 146.62418
#
# Poissons Ratio (x) = 0.21916 0.61108
# Poissons Ratio (y) = 0.68203 0.82459
# Poissons Ratio (z) = 0.18385 0.07972
#
# Static dielectric constant tensor:
#      x y z
#    x 1.555300 0.000000 0.004030 
#    y 0.000000 1.599490 0.000000 
#    z 0.004030 0.000000 1.668610 
# 
# From -- ./inp_files/273945.got.cif
#   From: 2010.05.17/outbox.cif.g08.bks.cpg/sg12_137_cif.got.tgz:273945.got - 2010.06.03 13:09:07.
