data_PCOD9175591
_publ_section_title
;
Structure prediction by ZEFSAII (Michael W. Deem and Ramdas Pophale) SiO2 
 PCOD9175591
Probable space group: C 2/M
;
_chemical_formula_sum "Si O2"
_cell_formula_units_Z 56
_cell_length_a 27.609717
_cell_length_b 13.447591
_cell_length_c 10.723732
_cell_angle_alpha 90.000000
_cell_angle_beta 125.923643
_cell_angle_gamma 90.000000
_cell_volume 3224.259291
_symmetry_space_group_name_H-M "C 2/M"
_symmetry_group_IT_number 12
_symmetry_cell_setting 'monoclinic'
loop_
_space_group_symop_operation_xyz
x,y,z
-x,y,-z
-x,-y,-z
x,-y,z
1/2+x,1/2+y,z
1/2-x,1/2+y,-z
1/2-x,1/2-y,-z
1/2+x,1/2-y,z
loop_
_atom_site_type_symbol
_atom_site_label
_atom_site_fract_x
_atom_site_fract_y
_atom_site_fract_z
Si Si1 0.071237 0.883576 0.878583
Si Si2 0.661094 0.240919 0.158400
Si Si3 0.320252 0.612746 0.603786
Si Si4 0.441364 0.697673 0.678766
Si Si5 0.603478 0.382745 0.639478
Si Si6 0.235027 0.885624 0.754178
Si Si7 0.435288 0.116106 0.834937
O O1 0.080221 0.870565 0.743606
O O2 0.005218 0.846144 0.812175
O O3 0.077902 0.000000 0.917493
O O4 0.119453 0.817730 0.022486
O O5 0.694383 0.305462 0.315182
O O6 0.709367 0.186555 0.145363
O O7 0.617394 0.160123 0.157340
O O8 0.315054 0.500000 0.642931
O O9 0.388495 0.636672 0.666689
O O10 0.282710 0.619670 0.419521
O O11 0.430426 0.681114 0.515591
O O12 0.436624 0.810926 0.717897
O O13 0.596265 0.500000 0.593639
O O14 0.674202 0.360456 0.735467
O O15 0.250507 0.000000 0.805984
O O16 0.424977 0.000000 0.791714
O O17 0.500000 0.124842 0.000000
#
# Coordination Sequence:
#
# PCOD9175591 Si02
#       7
#     8   8   8   8   8   8   8
#     4  11  21  32  50  79 108 135 167 206 255 306
#     4  11  20  31  50  77 103 136 167 206 257 305
#     4   9  18  31  50  76 105 130 162 210 257 308
#     4  10  18  33  55  78 100 136 168 202 254 305
#     4   9  19  35  55  76 102 134 171 212 251 298
#     4   9  18  34  52  70  94 133 178 211 247 296
#     4  10  20  35  51  73 103 133 168 207 248 298
#
# _framework density 17.36833
#
# number of rings (size 3 to 8) (size 9 to 14) (size 15 to 20)
#    0.000    2.143    1.429    3.857    0.000    1.714 
#    0.000    2.143    0.000    6.857    0.000    0.000 
#    0.000    0.000    0.000    0.000    0.000    0.000 
#
# Total GULP energy -156244.482343 kJ/mol
# GULP energy per Si atom -5580.160084 kJ/mol
# Density = 1.732880 g / cm^3
# Si number density = 17.368330 Si / 1000 Ang^3
#
#
#
# Elastic Constant Matrix: (Units=GPa)
#
#
# Indices 1 2 3 4 5 6 
#
# 1 33.7262 36.2140 7.5016 0.0000 6.0918 0.0000
# 2 36.2140 111.5887 32.4138 0.0000 8.8202 0.0000
# 3 7.5016 32.4138 32.7856 0.0000 5.9422 0.0000
# 4 0.0000 0.0000 0.0000 20.9241 0.0000 -0.2806
# 5 6.0918 8.8202 5.9422 0.0000 20.5397 0.0000
# 6 0.0000 0.0000 0.0000 -0.2806 0.0000 22.6167
#
#
#
# Elastic Compliance Matrix: (Units=1/GPa)
#
#
# Indices 1 2 3 4 5 6 
#
# 1 0.047871 -0.016995 0.007493 0.000000 -0.009067 0.000000
# 2 -0.016995 0.018677 -0.014813 0.000000 0.001306 0.000000
# 3 0.007493 -0.014813 0.045043 0.000000 -0.008892 0.000000
# 4 0.000000 0.000000 0.000000 0.047800 0.000000 0.000593
# 5 -0.009067 0.001306 -0.008892 0.000000 0.053387 0.000000
# 6 0.000000 0.000000 0.000000 0.000593 0.000000 0.044222
#
#
# Mechanical properties :
#
#
# Convention : Reuss Voigt Hill
#
# Bulk Modulus (GPa) = 15.88314 36.70660 26.29487
# Shear Modulus (GPa) = 15.30845 19.61418 17.46131
#
# Velocity S-wave (km/s) = 2.97206 3.36416 3.17417
# Velocity P-wave (km/s) = 4.57627 6.02248 5.34848
#
# Compressibility (1/GPa) = 0.06295984
#
# Stress axis : x y z
#
# Youngs Moduli (GPa) = 20.88960 53.54319 22.20092
#
# Poissons Ratio (x) = 0.90998 -0.16635
# Poissons Ratio (y) = 0.35503 0.32886
# Poissons Ratio (z) = -0.15652 0.79312
#
# Static dielectric constant tensor:
#      x y z
#    x 1.588090 0.000000 0.002930 
#    y 0.000000 1.574890 0.000000 
#    z 0.002930 0.000000 1.597570 
# 
# From -- ./inp_files/182438.got.cif
#   From: 2010.05.17/outbox.cif.g08.bks.cpg/sg12_92_cif.got.tgz:182438.got - 2010.06.03 13:09:07.
