data_PCOD9175639
_publ_section_title
;
Structure prediction by ZEFSAII (Michael W. Deem and Ramdas Pophale) SiO2 
 PCOD9175639
Probable space group: C 2/M
;
_chemical_formula_sum "Si O2"
_cell_formula_units_Z 44
_cell_length_a 18.637957
_cell_length_b 11.725694
_cell_length_c 12.910811
_cell_angle_alpha 90.000000
_cell_angle_beta 148.047224
_cell_angle_gamma 90.000000
_cell_volume 1493.230063
_symmetry_space_group_name_H-M "C 2/M"
_symmetry_group_IT_number 12
_symmetry_cell_setting 'monoclinic'
loop_
_space_group_symop_operation_xyz
x,y,z
-x,y,-z
-x,-y,-z
x,-y,z
1/2+x,1/2+y,z
1/2-x,1/2+y,-z
1/2-x,1/2-y,-z
1/2+x,1/2-y,z
loop_
_atom_site_type_symbol
_atom_site_label
_atom_site_fract_x
_atom_site_fract_y
_atom_site_fract_z
Si Si1 0.663514 0.000000 0.723027
Si Si2 0.061755 0.281102 0.333072
Si Si3 0.308160 0.867287 0.711524
Si Si4 0.389480 0.500000 0.271187
Si Si5 0.800784 0.500000 0.439688
Si Si6 0.632897 0.748480 0.743022
Si Si7 0.000000 0.811731 0.000000
Si Si8 0.038504 0.000000 0.225024
O O1 0.500000 0.000000 0.500000
O O2 0.690600 0.124066 0.803649
O O3 0.769980 0.000000 0.756984
O O4 0.165234 0.181401 0.494757
O O5 0.087852 0.337836 0.254742
O O6 0.110295 0.388971 0.458843
O O7 0.918817 0.248525 0.201241
O O8 0.367952 0.768674 0.858800
O O9 0.313426 0.000000 0.749778
O O10 0.500000 0.500000 0.500000
O O11 0.310940 0.618882 0.196286
O O12 0.461856 0.500000 0.243176
O O13 0.705471 0.500000 0.421932
O O14 0.500000 0.745457 0.500000
O O15 0.017505 0.888550 0.125307
#
# Coordination Sequence:
#
# PCOD9175639 Si02
#       8
#     4   8   8   4   4   8   4   4
#     4  10  18  33  55  86 133 174 207 255 327 406
#     4  11  21  35  59  94 130 167 217 282 333 386
#     4  11  24  36  57  90 135 177 215 274 337 394
#     4  10  23  39  62  94 139 165 215 282 340 393
#     4  12  19  38  62  93 136 162 218 279 332 393
#     4  10  19  33  52  88 132 164 207 258 334 391
#     4  11  23  42  60  90 133 181 230 262 330 417
#     4  11  24  42  67  94 129 181 225 271 337 406
#
# _framework density 29.466322000000002
#
# number of rings (size 3 to 8) (size 9 to 14) (size 15 to 20)
#    0.000    1.273    6.364    1.364    3.818    0.000 
#    1.636    0.000    0.000    0.000    0.000   48.364 
#    0.000    0.000    0.000    0.000    0.000    0.000 
#
# Total GULP energy -122812.337326 kJ/mol
# GULP energy per Si atom -5582.378969 kJ/mol
# Density = 2.939925 g / cm^3
# Si number density = 29.466322 Si / 1000 Ang^3
#
#
#
# Elastic Constant Matrix: (Units=GPa)
#
#
# Indices 1 2 3 4 5 6 
#
# 1 147.7967 57.2890 2.1772 0.0000 -23.2193 0.0000
# 2 57.2890 357.7177 28.9266 0.0000 -2.3915 0.0000
# 3 2.1772 28.9266 90.2299 0.0000 -10.6491 0.0000
# 4 0.0000 0.0000 0.0000 926.9025 0.0000 1481.9212
# 5 -23.2193 -2.3915 -10.6491 0.0000 27.5737 0.0000
# 6 0.0000 0.0000 0.0000 1481.9212 0.0000 2531.4021
#
#
#
# Elastic Compliance Matrix: (Units=1/GPa)
#
#
# Indices 1 2 3 4 5 6 
#
# 1 0.008458 -0.001396 0.001121 0.000000 0.007435 0.000000
# 2 -0.001396 0.003100 -0.001118 0.000000 -0.001338 0.000000
# 3 0.001121 -0.001118 0.012064 0.000000 0.005506 0.000000
# 4 0.000000 0.000000 0.000000 0.016845 0.000000 -0.009862
# 5 0.007435 -0.001338 0.005506 0.000000 0.044537 0.000000
# 6 0.000000 0.000000 0.000000 -0.009862 0.000000 0.006168
#
#
# Mechanical properties :
#
#
# Convention : Reuss Voigt Hill
#
# Bulk Modulus (GPa) = 47.99174 85.83666 66.91420
# Shear Modulus (GPa) = 49.55121 730.99908 390.27514
#
# Velocity S-wave (km/s) = 4.10521 15.76763 11.52108
# Velocity P-wave (km/s) = 6.22837 18.99169 14.13289
#
# Compressibility (1/GPa) = 0.02083692
#
# Stress axis : x y z
#
# Youngs Moduli (GPa) = 118.22450 322.53058 82.89078
#
# Poissons Ratio (x) = 0.45011 -0.09290
# Poissons Ratio (y) = 0.16499 0.09269
# Poissons Ratio (z) = -0.13250 0.36066
#
# Static dielectric constant tensor:
#      x y z
#    x 2.355470 0.000000 -0.118030 
#    y 0.000000 2.343740 0.000000 
#    z -0.118030 0.000000 2.644600 
# 
# From -- ./inp_files/232708.got.cif
#   From: 2010.05.17/outbox.cif.g08.bks.cpg/sg12_117_cif.got.tgz:232708.got - 2010.06.03 13:09:07.
