data_PCOD9175826
_publ_section_title
;
Structure prediction by ZEFSAII (Michael W. Deem and Ramdas Pophale) SiO2 
 PCOD9175826
Probable space group: C 2/M
;
_chemical_formula_sum "Si O2"
_cell_formula_units_Z 64
_cell_length_a 28.699076
_cell_length_b 7.787053
_cell_length_c 14.535218
_cell_angle_alpha 90.000000
_cell_angle_beta 62.260122
_cell_angle_gamma 90.000000
_cell_volume 2875.015273
_symmetry_space_group_name_H-M "C 2/M"
_symmetry_group_IT_number 12
_symmetry_cell_setting 'monoclinic'
loop_
_space_group_symop_operation_xyz
x,y,z
-x,y,-z
-x,-y,-z
x,-y,z
1/2+x,1/2+y,z
1/2-x,1/2+y,-z
1/2-x,1/2-y,-z
1/2+x,1/2-y,z
loop_
_atom_site_type_symbol
_atom_site_label
_atom_site_fract_x
_atom_site_fract_y
_atom_site_fract_z
Si Si1 0.454962 0.289360 0.469208
Si Si2 0.984093 0.195983 0.754399
Si Si3 0.702871 0.205163 0.974871
Si Si4 0.658592 0.704186 0.354571
Si Si5 0.377294 0.799478 0.802056
Si Si6 0.050611 0.792212 0.016588
Si Si7 0.158893 0.800045 0.829620
Si Si8 0.741523 0.704092 0.613839
O O1 0.500000 0.234723 0.500000
O O2 0.455652 0.500000 0.466919
O O3 0.471294 0.228380 0.352140
O O4 0.396891 0.233760 0.552065
O O5 0.931314 0.198014 0.740669
O O6 0.999933 0.000000 0.760614
O O7 0.965235 0.275942 0.867744
O O8 0.651350 0.261250 0.079352
O O9 0.702057 0.000000 0.963937
O O10 0.750000 0.250000 0.000000
O O11 0.699598 0.287216 0.877747
O O12 0.655594 0.500000 0.347858
O O13 0.660852 0.776752 0.249479
O O14 0.707598 0.745338 0.373598
O O15 0.389800 0.000000 0.798907
O O16 0.103977 0.724719 0.919176
O O17 0.057987 0.000000 0.019520
O O18 0.000000 0.762878 0.000000
O O19 0.189149 0.724709 0.713395
O O20 0.147699 0.000000 0.819973
O O21 0.736976 0.500000 0.622797
O O22 0.750000 0.750000 0.500000
#
# Coordination Sequence:
#
# PCOD9175826 Si02
#       8
#     8   8   8   8   8   8   8   8
#     4   9  17  31  54  86 116 149 197 247 292 347
#     4  10  18  33  58  82 111 153 197 241 292 353
#     4  11  23  36  55  84 119 157 196 241 294 355
#     4  11  22  38  62  89 120 158 203 251 300 350
#     4  11  22  35  53  83 122 156 192 241 297 358
#     4   9  18  33  58  90 116 144 190 244 294 345
#     4  10  21  39  63  89 117 150 194 247 295 345
#     4  11  25  44  64  88 120 157 201 248 296 351
#
# _framework density 22.260749000000001
#
# number of rings (size 3 to 8) (size 9 to 14) (size 15 to 20)
#    0.000    1.750    2.500    2.250    0.000    6.500 
#    0.000    5.625    0.000    1.500    0.000    0.000 
#    0.000    0.000    0.000    0.000    0.000    0.000 
#
# Total GULP energy -178713.326043 kJ/mol
# GULP energy per Si atom -5584.791439 kJ/mol
# Density = 2.221008 g / cm^3
# Si number density = 22.260749 Si / 1000 Ang^3
#
#
#
# Elastic Constant Matrix: (Units=GPa)
#
#
# Indices 1 2 3 4 5 6 
#
# 1 65.8715 -2.3179 44.4967 0.0000 0.3394 0.0000
# 2 -2.3179 40.1201 7.3679 0.0000 -4.1095 0.0000
# 3 44.4967 7.3679 187.7990 0.0000 -3.6934 0.0000
# 4 0.0000 0.0000 0.0000 15.0928 0.0000 3.7476
# 5 0.3394 -4.1095 -3.6934 0.0000 31.8401 0.0000
# 6 0.0000 0.0000 0.0000 3.7476 0.0000 17.8285
#
#
#
# Elastic Compliance Matrix: (Units=1/GPa)
#
#
# Indices 1 2 3 4 5 6 
#
# 1 0.018217 0.001812 -0.004397 0.000000 -0.000470 0.000000
# 2 0.001812 0.025602 -0.001372 0.000000 0.003126 0.000000
# 3 -0.004397 -0.001372 0.006433 0.000000 0.000616 0.000000
# 4 0.000000 0.000000 0.000000 0.069905 0.000000 -0.014694
# 5 -0.000470 0.003126 0.000616 0.000000 0.031887 0.000000
# 6 0.000000 0.000000 0.000000 -0.014694 0.000000 0.059179
#
#
# Mechanical properties :
#
#
# Convention : Reuss Voigt Hill
#
# Bulk Modulus (GPa) = 23.61976 43.65377 33.63677
# Shear Modulus (GPa) = 21.43628 29.23521 25.33574
#
# Velocity S-wave (km/s) = 3.10653 3.62789 3.37729
# Velocity P-wave (km/s) = 4.84777 6.09931 5.50920
#
# Compressibility (1/GPa) = 0.04233743
#
# Stress axis : x y z
#
# Youngs Moduli (GPa) = 54.89299 39.05944 155.45966
#
# Poissons Ratio (x) = -0.07077 0.68351
# Poissons Ratio (y) = -0.09945 0.21333
# Poissons Ratio (z) = 0.24135 0.05360
#
# Static dielectric constant tensor:
#      x y z
#    x 1.808020 0.000000 -0.028180 
#    y 0.000000 1.844150 0.000000 
#    z -0.028180 0.000000 1.856240 
# 
# From -- ./inp_files/249102.got.cif
#   From: 2010.05.17/outbox.cif.g08.bks.cpg/sg12_125_cif.got.tgz:249102.got - 2010.06.03 13:09:07.
