data_PCOD9175237
_publ_section_title
;
Structure prediction by ZEFSAII (Michael W. Deem and Ramdas Pophale) SiO2 
 PCOD9175237
Probable space group: C 2/M
;
_chemical_formula_sum "Si O2"
_cell_formula_units_Z 56
_cell_length_a 13.525517
_cell_length_b 13.403859
_cell_length_c 15.539254
_cell_angle_alpha 90.000000
_cell_angle_beta 92.715833
_cell_angle_gamma 90.000000
_cell_volume 2814.011226
_symmetry_space_group_name_H-M "C 2/M"
_symmetry_group_IT_number 12
_symmetry_cell_setting 'monoclinic'
loop_
_space_group_symop_operation_xyz
x,y,z
-x,y,-z
-x,-y,-z
x,-y,z
1/2+x,1/2+y,z
1/2-x,1/2+y,-z
1/2-x,1/2-y,-z
1/2+x,1/2-y,z
loop_
_atom_site_type_symbol
_atom_site_label
_atom_site_fract_x
_atom_site_fract_y
_atom_site_fract_z
Si Si1 0.410359 0.121809 0.610920
Si Si2 0.038707 0.883470 0.148259
Si Si3 0.736373 0.381103 0.256818
Si Si4 0.635840 0.878987 0.578462
Si Si5 0.090853 0.302810 0.849185
Si Si6 0.643014 0.234567 0.035219
Si Si7 0.111986 0.385922 0.204728
O O1 0.357238 0.153771 0.520640
O O2 0.526286 0.151983 0.607336
O O3 0.362714 0.154228 0.699197
O O4 0.410558 0.000000 0.613448
O O5 0.121868 0.869817 0.226205
O O6 0.090869 0.836550 0.065205
O O7 0.946888 0.810947 0.164576
O O8 0.015797 0.000000 0.138263
O O9 0.755923 0.500000 0.249124
O O10 0.777916 0.350297 0.351918
O O11 0.805548 0.326552 0.189990
O O12 0.634310 0.000000 0.576280
O O13 0.007155 0.373580 0.805445
O O14 0.089673 0.316800 0.951934
O O15 0.648287 0.170382 0.121956
O O16 0.750000 0.250000 0.000000
O O17 0.142102 0.500000 0.200576
#
# Coordination Sequence:
#
# PCOD9175237 Si02
#       7
#     8   8   8   8   8   8   8
#     4   8  13  23  42  74 111 139 165 206 265 324
#     4  10  22  38  56  75 103 144 188 223 265 322
#     4  10  18  32  57  84 109 141 177 220 270 324
#     4   8  13  23  44  76 109 137 167 206 260 323
#     4  11  21  35  55  75 109 141 177 225 271 316
#     4  11  23  37  51  74 103 144 183 225 268 316
#     4  10  19  31  51  80 109 136 169 217 273 321
#
# _framework density 19.900417000000001
#
# number of rings (size 3 to 8) (size 9 to 14) (size 15 to 20)
#    0.000    2.286    2.857    3.000    0.000    3.429 
#    0.000    0.000    0.000    3.429    3.714    0.000 
#    0.000    9.143    0.000    0.571    0.000    0.429 
#
# Total GULP energy -156095.840357 kJ/mol
# GULP energy per Si atom -5574.851441 kJ/mol
# Density = 1.985512 g / cm^3
# Si number density = 19.900417 Si / 1000 Ang^3
#
#
#
# Elastic Constant Matrix: (Units=GPa)
#
#
# Indices 1 2 3 4 5 6 
#
# 1 35.4772 11.6433 28.1420 0.0000 3.3151 0.0000
# 2 11.6433 78.7445 31.9815 0.0000 -9.1679 0.0000
# 3 28.1420 31.9815 188.0331 0.0000 11.2820 0.0000
# 4 0.0000 0.0000 0.0000 19.6294 0.0000 7.4991
# 5 3.3151 -9.1679 11.2820 0.0000 22.8744 0.0000
# 6 0.0000 0.0000 0.0000 7.4991 0.0000 17.4132
#
#
#
# Elastic Compliance Matrix: (Units=1/GPa)
#
#
# Indices 1 2 3 4 5 6 
#
# 1 0.033027 -0.003738 -0.004050 0.000000 -0.004287 0.000000
# 2 -0.003738 0.015179 -0.002494 0.000000 0.007855 0.000000
# 3 -0.004050 -0.002494 0.006568 0.000000 -0.003652 0.000000
# 4 0.000000 0.000000 0.000000 0.060976 0.000000 -0.026260
# 5 -0.004287 0.007855 -0.003652 0.000000 0.049288 0.000000
# 6 0.000000 0.000000 0.000000 -0.026260 0.000000 0.068737
#
#
# Mechanical properties :
#
#
# Convention : Reuss Voigt Hill
#
# Bulk Modulus (GPa) = 29.23022 49.53204 39.38113
# Shear Modulus (GPa) = 18.81531 27.34927 23.08229
#
# Velocity S-wave (km/s) = 3.07819 3.71119 3.40941
# Velocity P-wave (km/s) = 5.23009 6.58087 5.94397
#
# Compressibility (1/GPa) = 0.03421117
#
# Stress axis : x y z
#
# Youngs Moduli (GPa) = 30.27824 65.87907 152.26238
#
# Poissons Ratio (x) = 0.24623 0.61667
# Poissons Ratio (y) = 0.11317 0.37970
# Poissons Ratio (z) = 0.12263 0.16428
#
# Static dielectric constant tensor:
#      x y z
#    x 1.742180 0.000000 0.048410 
#    y 0.000000 1.716700 0.000000 
#    z 0.048410 0.000000 1.755680 
# 
# From -- ./inp_files/214244.got.cif
#   From: 2010.05.17/outbox.cif.g08.bks.cpg/sg12_108_cif.got.tgz:214244.got - 2010.06.03 13:09:07.
