data_PCOD9175291
_publ_section_title
;
Structure prediction by ZEFSAII (Michael W. Deem and Ramdas Pophale) SiO2 
 PCOD9175291
Probable space group: C 2/M
;
_chemical_formula_sum "Si O2"
_cell_formula_units_Z 56
_cell_length_a 14.985186
_cell_length_b 18.915709
_cell_length_c 12.129604
_cell_angle_alpha 90.000000
_cell_angle_beta 65.133799
_cell_angle_gamma 90.000000
_cell_volume 3119.453921
_symmetry_space_group_name_H-M "C 2/M"
_symmetry_group_IT_number 12
_symmetry_cell_setting 'monoclinic'
loop_
_space_group_symop_operation_xyz
x,y,z
-x,y,-z
-x,-y,-z
x,-y,z
1/2+x,1/2+y,z
1/2-x,1/2+y,-z
1/2-x,1/2-y,-z
1/2+x,1/2-y,z
loop_
_atom_site_type_symbol
_atom_site_label
_atom_site_fract_x
_atom_site_fract_y
_atom_site_fract_z
Si Si1 0.263035 0.213007 0.703029
Si Si2 0.734790 0.580904 0.556364
Si Si3 0.401096 0.686043 0.484693
Si Si4 0.843150 0.709828 0.904574
Si Si5 0.382366 0.079017 0.038190
Si Si6 0.611213 0.078356 0.722528
Si Si7 0.446374 0.233634 0.236297
O O1 0.257320 0.139219 0.638440
O O2 0.319839 0.270908 0.597951
O O3 0.321737 0.201946 0.785522
O O4 0.151358 0.242440 0.779220
O O5 0.721879 0.500000 0.601591
O O6 0.642230 0.613177 0.539170
O O7 0.819665 0.580776 0.419492
O O8 0.500000 0.675372 0.500000
O O9 0.427639 0.733066 0.365014
O O10 0.946503 0.751575 0.866158
O O11 0.750000 0.750000 0.000000
O O12 0.850007 0.637650 0.969970
O O13 0.336097 0.084816 0.185189
O O14 0.363464 0.000000 0.007219
O O15 0.500000 0.086141 0.000000
O O16 0.547889 0.148994 0.751391
O O17 0.563338 0.000000 0.748904
#
# Coordination Sequence:
#
# PCOD9175291 Si02
#       7
#     8   8   8   8   8   8   8
#     4  11  22  39  59  89 119 158 195 240 301 350
#     4  10  21  37  60  88 118 155 193 240 297 356
#     4  11  20  35  61  89 119 153 197 245 299 348
#     4  12  26  36  60  90 119 156 207 242 287 356
#     4  10  21  36  56  82 117 158 194 241 297 346
#     4  10  18  32  58  84 113 153 194 237 294 355
#     4  11  20  38  59  83 124 155 192 247 300 349
#
# _framework density 17.95186
#
# number of rings (size 3 to 8) (size 9 to 14) (size 15 to 20)
#    0.000    1.286    5.714    1.714    0.000    0.857 
#    0.000    0.000    0.000    6.000    0.000    5.000 
#    0.000    0.000    0.000    0.000    0.000    0.000 
#
# Total GULP energy -156099.280134 kJ/mol
# GULP energy per Si atom -5574.974290 kJ/mol
# Density = 1.791100 g / cm^3
# Si number density = 17.951860 Si / 1000 Ang^3
#
#
#
# Elastic Constant Matrix: (Units=GPa)
#
#
# Indices 1 2 3 4 5 6 
#
# 1 75.6614 25.9940 14.3634 0.0000 -13.7180 0.0000
# 2 25.9940 102.2261 29.3554 0.0000 -8.5837 0.0000
# 3 14.3634 29.3554 58.7892 0.0000 -9.8775 0.0000
# 4 0.0000 0.0000 0.0000 24.2979 0.0000 4.2025
# 5 -13.7180 -8.5837 -9.8775 0.0000 28.7936 0.0000
# 6 0.0000 0.0000 0.0000 4.2025 0.0000 18.6035
#
#
#
# Elastic Compliance Matrix: (Units=1/GPa)
#
#
# Indices 1 2 3 4 5 6 
#
# 1 0.015624 -0.003104 -0.001244 0.000000 0.006092 0.000000
# 2 -0.003104 0.012101 -0.005228 0.000000 0.000335 0.000000
# 3 -0.001244 -0.005228 0.020759 0.000000 0.004970 0.000000
# 4 0.000000 0.000000 0.000000 0.042829 0.000000 -0.009675
# 5 0.006092 0.000335 0.004970 0.000000 0.039437 0.000000
# 6 0.000000 0.000000 0.000000 -0.009675 0.000000 0.055939
#
#
# Mechanical properties :
#
#
# Convention : Reuss Voigt Hill
#
# Bulk Modulus (GPa) = 34.09149 41.78914 37.94032
# Shear Modulus (GPa) = 23.18919 25.46993 24.32956
#
# Velocity S-wave (km/s) = 3.59798 3.77077 3.68539
# Velocity P-wave (km/s) = 6.02431 6.50287 6.26816
#
# Compressibility (1/GPa) = 0.02933283
#
# Stress axis : x y z
#
# Youngs Moduli (GPa) = 64.00497 82.63855 48.17140
#
# Poissons Ratio (x) = 0.25652 0.05991
# Poissons Ratio (y) = 0.19868 0.25182
# Poissons Ratio (z) = 0.07960 0.43200
#
# Static dielectric constant tensor:
#      x y z
#    x 1.640770 0.000000 -0.016380 
#    y 0.000000 1.623660 0.000000 
#    z -0.016380 0.000000 1.656050 
# 
# From -- ./inp_files/145490.got.cif
#   From: 2010.05.17/outbox.cif.g08.bks.cpg/sg12_73_cif.got.tgz:145490.got - 2010.06.03 13:09:07.
