data_PCOD9175750
_publ_section_title
;
Structure prediction by ZEFSAII (Michael W. Deem and Ramdas Pophale) SiO2 
 PCOD9175750
Probable space group: C 2/M
;
_chemical_formula_sum "Si O2"
_cell_formula_units_Z 58
_cell_length_a 24.743163
_cell_length_b 7.498069
_cell_length_c 12.545950
_cell_angle_alpha 90.000000
_cell_angle_beta 96.432866
_cell_angle_gamma 90.000000
_cell_volume 2312.944215
_symmetry_space_group_name_H-M "C 2/M"
_symmetry_group_IT_number 12
_symmetry_cell_setting 'monoclinic'
loop_
_space_group_symop_operation_xyz
x,y,z
-x,y,-z
-x,-y,-z
x,-y,z
1/2+x,1/2+y,z
1/2-x,1/2+y,-z
1/2-x,1/2-y,-z
1/2+x,1/2-y,z
loop_
_atom_site_type_symbol
_atom_site_label
_atom_site_fract_x
_atom_site_fract_y
_atom_site_fract_z
Si Si1 0.369965 0.710216 0.004261
Si Si2 0.500216 0.794422 0.347504
Si Si3 0.186145 0.212354 0.461450
Si Si4 0.671778 0.281496 0.219447
Si Si5 0.020271 0.785374 0.886605
Si Si6 0.289105 0.215167 0.158462
Si Si7 0.877966 0.293011 0.342692
Si Si8 0.500000 0.500000 0.500000
O O1 0.380872 0.500000 0.998108
O O2 0.417063 0.780271 0.092263
O O3 0.311971 0.732375 0.048412
O O4 0.368912 0.778954 0.883082
O O5 0.510488 0.785288 0.223576
O O6 0.438115 0.716092 0.344627
O O7 0.529307 0.657477 0.431410
O O8 0.505097 0.000000 0.381727
O O9 0.250000 0.250000 0.500000
O O10 0.168379 0.279054 0.340447
O O11 0.148919 0.284162 0.547617
O O12 0.180647 0.000000 0.460203
O O13 0.669950 0.500000 0.220923
O O14 0.730779 0.226565 0.187170
O O15 0.017350 0.000000 0.875657
O O16 0.000000 0.739001 0.000000
O O17 0.333986 0.284480 0.251862
O O18 0.288182 0.000000 0.161668
O O19 0.885595 0.500000 0.316797
#
# Coordination Sequence:
#
# PCOD9175750 Si02
#       8
#     8   8   8   8   8   8   8   2
#     4  10  20  35  57  85 118 153 209 262 312 380
#     4  11  24  45  72 101 134 172 220 279 342 410
#     4  11  21  35  56  82 121 169 218 259 316 380
#     4   9  19  35  51  81 120 163 203 257 313 368
#     4  10  21  40  65  96 129 172 221 275 338 412
#     4  10  18  33  57  80 119 159 198 251 314 368
#     4  10  21  38  61  89 122 162 211 264 313 385
#     4  12  26  48  74 102 136 168 222 282 340 414
#
# _framework density 25.076263999999998
#
# number of rings (size 3 to 8) (size 9 to 14) (size 15 to 20)
#    0.000    1.793    3.448    1.034    0.966    0.828 
#    2.483    1.379    0.000    0.000    0.000    0.000 
#    0.000    0.000    0.000    0.000    0.000    0.000 
#
# Total GULP energy -161917.136636 kJ/mol
# GULP energy per Si atom -5583.349539 kJ/mol
# Density = 2.501919 g / cm^3
# Si number density = 25.076264 Si / 1000 Ang^3
#
#
#
# Elastic Constant Matrix: (Units=GPa)
#
#
# Indices 1 2 3 4 5 6 
#
# 1 32.5013 -2.3112 3.9379 0.0000 -12.1038 0.0000
# 2 -2.3112 115.1126 17.0097 0.0000 4.7681 0.0000
# 3 3.9379 17.0097 196.8816 0.0000 -4.2983 0.0000
# 4 0.0000 0.0000 0.0000 6.2716 0.0000 -7.0710
# 5 -12.1038 4.7681 -4.2983 0.0000 37.0417 0.0000
# 6 0.0000 0.0000 0.0000 -7.0710 0.0000 -8.0255
#
#
#
# Elastic Compliance Matrix: (Units=1/GPa)
#
#
# Indices 1 2 3 4 5 6 
#
# 1 0.035081 0.000304 -0.000480 0.000000 0.011368 0.000000
# 2 0.000304 0.008858 -0.000796 0.000000 -0.001133 0.000000
# 3 -0.000480 -0.000796 0.005169 0.000000 0.000546 0.000000
# 4 0.000000 0.000000 0.000000 0.079990 0.000000 -0.070476
# 5 0.011368 -0.001133 0.000546 0.000000 0.030920 0.000000
# 6 0.000000 0.000000 0.000000 -0.070476 0.000000 -0.062509
#
#
# Mechanical properties :
#
#
# Convention : Reuss Voigt Hill
#
# Bulk Modulus (GPa) = 21.20185 42.41870 31.81028
# Shear Modulus (GPa) = 43.41201 28.78150 36.09675
#
# Velocity S-wave (km/s) = 4.16528 3.39153 3.79816
# Velocity P-wave (km/s) = 5.62193 5.68237 5.65223
#
# Compressibility (1/GPa) = 0.04716569
#
# Stress axis : x y z
#
# Youngs Moduli (GPa) = 28.50512 112.89446 193.44304
#
# Poissons Ratio (x) = -0.03436 0.09281
# Poissons Ratio (y) = -0.00868 0.15400
# Poissons Ratio (z) = 0.01368 0.08988
#
# Static dielectric constant tensor:
#      x y z
#    x 2.069600 0.000000 0.066660 
#    y 0.000000 1.932210 0.000000 
#    z 0.066660 0.000000 2.052390 
# 
# From -- ./inp_files/180945.got.cif
#   From: 2010.05.17/outbox.cif.g08.bks.cpg/sg12_91_cif.got.tgz:180945.got - 2010.06.03 13:09:07.
