data_PCOD9175030
_publ_section_title
;
Structure prediction by ZEFSAII (Michael W. Deem and Ramdas Pophale) SiO2 
 PCOD9175030
Probable space group: C 2/M
;
_chemical_formula_sum "Si O2"
_cell_formula_units_Z 64
_cell_length_a 14.885116
_cell_length_b 8.515037
_cell_length_c 26.293679
_cell_angle_alpha 90.000000
_cell_angle_beta 94.387458
_cell_angle_gamma 90.000000
_cell_volume 3322.886908
_symmetry_space_group_name_H-M "C 2/M"
_symmetry_group_IT_number 12
_symmetry_cell_setting 'monoclinic'
loop_
_space_group_symop_operation_xyz
x,y,z
-x,y,-z
-x,-y,-z
x,-y,z
1/2+x,1/2+y,z
1/2-x,1/2+y,-z
1/2-x,1/2-y,-z
1/2+x,1/2-y,z
loop_
_atom_site_type_symbol
_atom_site_label
_atom_site_fract_x
_atom_site_fract_y
_atom_site_fract_z
Si Si1 0.885058 0.688609 0.863039
Si Si2 0.889252 0.190749 0.403362
Si Si3 0.649203 0.310146 0.488033
Si Si4 0.423992 0.689653 0.625278
Si Si5 0.253276 0.310936 0.057175
Si Si6 0.588213 0.311572 0.860265
Si Si7 0.726402 0.813447 0.785641
Si Si8 0.735461 0.812560 0.322879
O O1 0.886526 0.500000 0.861414
O O2 0.833647 0.737831 0.912952
O O3 0.817178 0.748553 0.816429
O O4 0.986819 0.749368 0.861999
O O5 0.900617 0.241859 0.462276
O O6 0.797012 0.241756 0.373146
O O7 0.971940 0.236563 0.371371
O O8 0.888895 0.000000 0.405034
O O9 0.647028 0.500000 0.487140
O O10 0.750000 0.250000 0.500000
O O11 0.612125 0.258861 0.431970
O O12 0.417274 0.500000 0.628081
O O13 0.365152 0.763163 0.667024
O O14 0.253830 0.500000 0.056413
O O15 0.343895 0.260457 0.091215
O O16 0.250000 0.250000 0.000000
O O17 0.585366 0.500000 0.859826
O O18 0.640255 0.255291 0.811867
O O19 0.729978 0.762495 0.727377
O O20 0.725120 0.000000 0.790203
O O21 0.742038 0.000000 0.319053
#
# Coordination Sequence:
#
# PCOD9175030 Si02
#       8
#     8   8   8   8   8   8   8   8
#     4  10  21  39  61  88 118 154 199 244 292 345
#     4   9  19  35  55  78 106 142 179 216 271 332
#     4  10  18  32  55  79 105 139 178 220 269 330
#     4  10  20  35  56  80 106 140 183 225 268 335
#     4   9  20  36  56  85 124 162 200 243 286 336
#     4  10  21  39  61  88 119 156 199 242 290 345
#     4  11  23  40  61  84 112 149 193 243 295 347
#     4  11  22  38  57  79 111 143 178 230 287 343
#
# _framework density 19.260359999999999
#
# number of rings (size 3 to 8) (size 9 to 14) (size 15 to 20)
#    0.000    2.000    1.250    3.375    0.000    6.000 
#    0.000    8.125    0.000    1.500    0.000    0.000 
#    0.000    0.000    0.000    0.000    0.000    0.000 
#
# Total GULP energy -178600.062860 kJ/mol
# GULP energy per Si atom -5581.251964 kJ/mol
# Density = 1.921652 g / cm^3
# Si number density = 19.260360 Si / 1000 Ang^3
#
#
#
# Elastic Constant Matrix: (Units=GPa)
#
#
# Indices 1 2 3 4 5 6 
#
# 1 130.9531 28.2859 31.1457 0.0000 -13.7661 0.0000
# 2 28.2859 47.7669 21.4408 0.0000 -4.3567 0.0000
# 3 31.1457 21.4408 89.6815 0.0000 -20.2852 0.0000
# 4 0.0000 0.0000 0.0000 26.8408 0.0000 -2.2821
# 5 -13.7661 -4.3567 -20.2852 0.0000 15.9447 0.0000
# 6 0.0000 0.0000 0.0000 -2.2821 0.0000 28.5988
#
#
#
# Elastic Compliance Matrix: (Units=1/GPa)
#
#
# Indices 1 2 3 4 5 6 
#
# 1 0.009462 -0.004692 -0.000852 0.000000 0.005804 0.000000
# 2 -0.004692 0.025790 -0.005418 0.000000 -0.003896 0.000000
# 3 -0.000852 -0.005418 0.017186 0.000000 0.019649 0.000000
# 4 0.000000 0.000000 0.000000 0.037511 0.000000 0.002993
# 5 0.005804 -0.003896 0.019649 0.000000 0.091660 0.000000
# 6 0.000000 0.000000 0.000000 0.002993 0.000000 0.035205
#
#
# Mechanical properties :
#
#
# Convention : Reuss Voigt Hill
#
# Bulk Modulus (GPa) = 32.76979 47.79404 40.28192
# Shear Modulus (GPa) = 20.08765 26.77881 23.43323
#
# Velocity S-wave (km/s) = 3.23298 3.73280 3.49184
# Velocity P-wave (km/s) = 5.56662 6.59143 6.10058
#
# Compressibility (1/GPa) = 0.03051591
#
# Stress axis : x y z
#
# Youngs Moduli (GPa) = 105.68123 38.77521 58.18685
#
# Poissons Ratio (x) = 0.18192 0.04956
# Poissons Ratio (y) = 0.49582 0.31524
# Poissons Ratio (z) = 0.09001 0.21007
#
# Static dielectric constant tensor:
#      x y z
#    x 2.079900 0.000000 -0.234710 
#    y 0.000000 1.661440 0.000000 
#    z -0.234710 0.000000 1.799920 
# 
# From -- ./inp_files/359906.got.cif
#   From: 2010.05.17/outbox.cif.g08.bks.cpg/sg12_180_cif.got.tgz:359906.got - 2010.06.03 13:09:07.
