data_PCOD9175015
_publ_section_title
;
Structure prediction by ZEFSAII (Michael W. Deem and Ramdas Pophale) SiO2 
 PCOD9175015
Probable space group: C 2/M
;
_chemical_formula_sum "Si O2"
_cell_formula_units_Z 48
_cell_length_a 15.207890
_cell_length_b 7.720410
_cell_length_c 19.142596
_cell_angle_alpha 90.000000
_cell_angle_beta 93.778407
_cell_angle_gamma 90.000000
_cell_volume 2242.668792
_symmetry_space_group_name_H-M "C 2/M"
_symmetry_group_IT_number 12
_symmetry_cell_setting 'monoclinic'
loop_
_space_group_symop_operation_xyz
x,y,z
-x,y,-z
-x,-y,-z
x,-y,z
1/2+x,1/2+y,z
1/2-x,1/2+y,-z
1/2-x,1/2-y,-z
1/2+x,1/2-y,z
loop_
_atom_site_type_symbol
_atom_site_label
_atom_site_fract_x
_atom_site_fract_y
_atom_site_fract_z
Si Si1 0.740126 0.796965 0.754466
Si Si2 0.733991 0.201516 0.401242
Si Si3 0.077844 0.209416 0.832515
Si Si4 0.647497 0.292234 0.985870
Si Si5 0.109565 0.211454 0.135977
Si Si6 0.099329 0.201848 0.504659
O O1 0.761286 0.715563 0.681361
O O2 0.640519 0.772300 0.774531
O O3 0.802665 0.728947 0.820145
O O4 0.758351 0.000000 0.748063
O O5 0.825298 0.274690 0.439075
O O6 0.648536 0.286316 0.432500
O O7 0.729111 0.000000 0.421035
O O8 0.976162 0.261454 0.824858
O O9 0.081760 0.000000 0.832246
O O10 0.113655 0.273241 0.909723
O O11 0.635327 0.500000 0.983245
O O12 0.603052 0.228995 0.055340
O O13 0.750000 0.250000 0.000000
O O14 0.111996 0.000000 0.132781
O O15 0.000000 0.276388 0.500000
O O16 0.089298 0.000000 0.524106
#
# Coordination Sequence:
#
# PCOD9175015 Si02
#       6
#     8   8   8   8   8   8
#     4  11  22  37  55  77 112 148 179 220 270 325
#     4  10  21  37  58  85 115 143 178 221 262 314
#     4  10  20  35  56  78 102 139 186 232 272 320
#     4  10  18  32  55  78 102 135 180 230 278 324
#     4   9  19  35  54  76 104 142 184 223 272 328
#     4   9  19  38  63  87 111 143 180 217 261 314
#
# _framework density 21.40307
#
# number of rings (size 3 to 8) (size 9 to 14) (size 15 to 20)
#    0.000    2.167    1.667    1.500    0.000    4.333 
#    0.000    9.167    0.000    2.000    0.000    0.000 
#    0.000    0.000    0.000    0.000    0.000    0.000 
#
# Total GULP energy -133958.991269 kJ/mol
# GULP energy per Si atom -5581.624636 kJ/mol
# Density = 2.135436 g / cm^3
# Si number density = 21.403070 Si / 1000 Ang^3
#
#
#
# Elastic Constant Matrix: (Units=GPa)
#
#
# Indices 1 2 3 4 5 6 
#
# 1 113.9315 -4.5389 15.1165 0.0000 -21.7670 0.0000
# 2 -4.5389 36.3408 -2.8372 0.0000 6.8140 0.0000
# 3 15.1165 -2.8372 86.6048 0.0000 -21.0493 0.0000
# 4 0.0000 0.0000 0.0000 -11.7173 0.0000 29.7627
# 5 -21.7670 6.8140 -21.0493 0.0000 19.0780 0.0000
# 6 0.0000 0.0000 0.0000 29.7627 0.0000 -20.7044
#
#
#
# Elastic Compliance Matrix: (Units=1/GPa)
#
#
# Indices 1 2 3 4 5 6 
#
# 1 0.011442 -0.001327 0.001705 0.000000 0.015410 0.000000
# 2 -0.001327 0.029950 -0.002398 0.000000 -0.014857 0.000000
# 3 0.001705 -0.002398 0.016194 0.000000 0.020669 0.000000
# 4 0.000000 0.000000 0.000000 0.032189 0.000000 0.046271
# 5 0.015410 -0.014857 0.020669 0.000000 0.098110 0.000000
# 6 0.000000 0.000000 0.000000 0.046271 0.000000 0.018217
#
#
# Mechanical properties :
#
#
# Convention : Reuss Voigt Hill
#
# Bulk Modulus (GPa) = 18.67584 28.03976 23.35780
# Shear Modulus (GPa) = 21.93068 12.60705 17.26887
#
# Velocity S-wave (km/s) = 3.20449 2.42963 2.84358
# Velocity P-wave (km/s) = 4.73671 4.58258 4.66028
#
# Compressibility (1/GPa) = 0.05354510
#
# Stress axis : x y z
#
# Youngs Moduli (GPa) = 87.39532 33.38896 61.75038
#
# Poissons Ratio (x) = 0.04431 -0.10527
# Poissons Ratio (y) = 0.11599 0.14809
# Poissons Ratio (z) = -0.14898 0.08007
#
# Static dielectric constant tensor:
#      x y z
#    x 1.777840 0.000000 0.019140 
#    y 0.000000 1.825720 0.000000 
#    z 0.019140 0.000000 1.754580 
# 
# From -- ./inp_files/267627.got.cif
#   From: 2010.05.17/outbox.cif.g08.bks.cpg/sg12_134_cif.got.tgz:267627.got - 2010.06.03 13:09:07.
