data_PCOD9175610
_publ_section_title
;
Structure prediction by ZEFSAII (Michael W. Deem and Ramdas Pophale) SiO2 
 PCOD9175610
Probable space group: C 2/M
;
_chemical_formula_sum "Si O2"
_cell_formula_units_Z 48
_cell_length_a 19.906141
_cell_length_b 18.256694
_cell_length_c 19.771210
_cell_angle_alpha 90.000000
_cell_angle_beta 20.642806
_cell_angle_gamma 90.000000
_cell_volume 2533.097769
_symmetry_space_group_name_H-M "C 2/M"
_symmetry_group_IT_number 12
_symmetry_cell_setting 'monoclinic'
loop_
_space_group_symop_operation_xyz
x,y,z
-x,y,-z
-x,-y,-z
x,-y,z
1/2+x,1/2+y,z
1/2-x,1/2+y,-z
1/2-x,1/2-y,-z
1/2+x,1/2-y,z
loop_
_atom_site_type_symbol
_atom_site_label
_atom_site_fract_x
_atom_site_fract_y
_atom_site_fract_z
Si Si1 0.622313 0.586105 0.541357
Si Si2 0.259343 0.416862 0.790688
Si Si3 0.275527 0.738265 0.718443
Si Si4 0.045508 0.631767 0.124838
Si Si5 0.126861 0.085302 0.091909
Si Si6 0.062312 0.785342 0.052629
O O1 0.666636 0.500000 0.502269
O O2 0.469102 0.595241 0.625532
O O3 0.512904 0.605276 0.713723
O O4 0.820219 0.626500 0.345770
O O5 0.246438 0.500000 0.775686
O O6 0.227063 0.348523 0.771943
O O7 0.117841 0.408313 0.988131
O O8 0.500000 0.747343 0.500000
O O9 0.149591 0.772349 0.777437
O O10 0.200899 0.774969 0.857937
O O11 0.103153 0.716506 0.062727
O O12 0.161763 0.596740 0.076914
O O13 0.088821 0.139232 0.066123
O O14 0.098553 0.000000 0.102312
#
# Coordination Sequence:
#
# PCOD9175610 Si02
#       6
#     8   8   8   8   8   8
#     4   9  17  30  52  82 110 135 164 200 250 312
#     4   9  18  32  51  78 110 139 167 203 250 306
#     4  10  21  38  54  73 103 138 178 219 254 297
#     4  10  18  33  55  80 110 137 164 203 254 312
#     4  10  21  36  54  78 106 134 169 214 260 305
#     4  10  22  37  54  77 103 136 175 213 256 304
#
# _framework density 18.949131000000001
#
# number of rings (size 3 to 8) (size 9 to 14) (size 15 to 20)
#    0.000    2.333    0.000    4.000    0.000    2.333 
#    0.000   10.000    0.000    1.000    0.000    0.000 
#    0.000    0.000    0.000    0.000    0.000    0.000 
#
# Total GULP energy -134131.551014 kJ/mol
# GULP energy per Si atom -5588.814626 kJ/mol
# Density = 1.890600 g / cm^3
# Si number density = 18.949131 Si / 1000 Ang^3
#
#
#
# Elastic Constant Matrix: (Units=GPa)
#
#
# Indices 1 2 3 4 5 6 
#
# 1 79.1083 52.4229 32.9056 -0.0130 -9.8047 -0.0033
# 2 52.4229 82.7494 32.7759 -0.0536 -2.0648 0.0195
# 3 32.9056 32.7759 107.1842 -0.0421 -21.6256 -0.0026
# 4 -0.0130 -0.0536 -0.0421 9.0563 0.0348 -1.8637
# 5 -9.8047 -2.0648 -21.6256 0.0348 18.9944 0.0026
# 6 -0.0033 0.0195 -0.0026 -1.8637 0.0026 22.4892
#
#
#
# Elastic Compliance Matrix: (Units=1/GPa)
#
#
# Indices 1 2 3 4 5 6 
#
# 1 0.023823 -0.014480 -0.000938 -0.000092 0.009656 0.000007
# 2 -0.014480 0.022824 -0.004597 0.000130 -0.010228 -0.000010
# 3 -0.000938 -0.004597 0.014053 -0.000021 0.015016 0.000002
# 4 -0.000092 0.000130 -0.000021 0.112338 -0.000264 0.009310
# 5 0.009656 -0.010228 0.015016 -0.000264 0.073616 -0.000018
# 6 0.000007 -0.000010 0.000002 0.009310 -0.000018 0.045237
#
#
# Mechanical properties :
#
#
# Convention : Reuss Voigt Hill
#
# Bulk Modulus (GPa) = 48.38021 56.13898 52.25959
# Shear Modulus (GPa) = 14.75746 20.17047 17.46397
#
# Velocity S-wave (km/s) = 2.79371 3.26614 3.03912
# Velocity P-wave (km/s) = 5.99946 6.62676 6.32090
#
# Compressibility (1/GPa) = 0.02066961
#
# Stress axis : x y z
#
# Youngs Moduli (GPa) = 41.97589 43.81382 71.15840
#
# Poissons Ratio (x) = 0.63442 0.06673
# Poissons Ratio (y) = 0.60781 0.32715
# Poissons Ratio (z) = 0.03937 0.20143
#
# Static dielectric constant tensor:
#      x y z
#    x 1.665600 0.000000 -0.004220 
#    y 0.000000 1.641940 0.000010 
#    z -0.004220 0.000010 1.687020 
# 
# From -- ./inp_files/317477.got.cif
#   From: 2010.05.17/outbox.cif.g08.bks.cpg/sg12_159_cif.got.tgz:317477.got - 2010.06.03 13:09:07.
