data_PCOD9175320
_publ_section_title
;
Structure prediction by ZEFSAII (Michael W. Deem and Ramdas Pophale) SiO2 
 PCOD9175320
Probable space group: C 2/M
;
_chemical_formula_sum "Si O2"
_cell_formula_units_Z 48
_cell_length_a 12.482576
_cell_length_b 15.681412
_cell_length_c 11.053632
_cell_angle_alpha 90.000000
_cell_angle_beta 72.399189
_cell_angle_gamma 90.000000
_cell_volume 2062.396760
_symmetry_space_group_name_H-M "C 2/M"
_symmetry_group_IT_number 12
_symmetry_cell_setting 'monoclinic'
loop_
_space_group_symop_operation_xyz
x,y,z
-x,y,-z
-x,-y,-z
x,-y,z
1/2+x,1/2+y,z
1/2-x,1/2+y,-z
1/2-x,1/2-y,-z
1/2+x,1/2-y,z
loop_
_atom_site_type_symbol
_atom_site_label
_atom_site_fract_x
_atom_site_fract_y
_atom_site_fract_z
Si Si1 0.628459 0.255682 0.097755
Si Si2 0.518178 0.903210 0.195840
Si Si3 0.966815 0.098795 0.181797
Si Si4 0.077210 0.825795 0.367221
Si Si5 0.275914 0.098893 0.688915
Si Si6 0.201263 0.397441 0.587457
O O1 0.564493 0.168371 0.091045
O O2 0.559763 0.340809 0.088652
O O3 0.626728 0.264291 0.246050
O O4 0.750000 0.250000 0.000000
O O5 0.615626 0.908117 0.264468
O O6 0.404578 0.869086 0.296425
O O7 0.502109 0.000000 0.154945
O O8 0.839295 0.132757 0.212693
O O9 0.998877 0.111165 0.313541
O O10 0.978400 0.000000 0.143826
O O11 0.182466 0.872648 0.390596
O O12 0.000000 0.788417 0.500000
O O13 0.301316 0.137405 0.548695
O O14 0.242278 0.000000 0.675577
O O15 0.188733 0.500000 0.587644
#
# Coordination Sequence:
#
# PCOD9175320 Si02
#       6
#     8   8   8   8   8   8
#     4  10  24  43  61  88 123 161 201 254 309 365
#     4  10  22  39  57  81 119 167 208 240 292 366
#     4   9  19  36  63  91 119 152 198 254 308 356
#     4  10  20  36  62  96 121 152 199 254 311 359
#     4   9  17  33  58  89 123 159 199 248 300 359
#     4  10  18  32  58  91 126 158 193 248 307 362
#
# _framework density 23.273890999999999
#
# number of rings (size 3 to 8) (size 9 to 14) (size 15 to 20)
#    1.000    1.333    1.667    1.000    0.000    6.000 
#    0.000    5.833    0.000    5.000    0.000    0.000 
#    0.000    0.000    0.000    0.000    0.000    0.000 
#
# Total GULP energy -133945.003990 kJ/mol
# GULP energy per Si atom -5581.041833 kJ/mol
# Density = 2.322092 g / cm^3
# Si number density = 23.273891 Si / 1000 Ang^3
#
#
#
# Elastic Constant Matrix: (Units=GPa)
#
#
# Indices 1 2 3 4 5 6 
#
# 1 119.0124 -5.8327 54.2577 0.0000 -26.7078 0.0000
# 2 -5.8327 76.2108 32.1023 0.0000 -26.1977 0.0000
# 3 54.2577 32.1023 131.9685 0.0000 -31.1092 0.0000
# 4 0.0000 0.0000 0.0000 -555.8899 0.0000 -473.2330
# 5 -26.7078 -26.1977 -31.1092 0.0000 61.5654 0.0000
# 6 0.0000 0.0000 0.0000 -473.2330 0.0000 -342.6631
#
#
#
# Elastic Compliance Matrix: (Units=1/GPa)
#
#
# Indices 1 2 3 4 5 6 
#
# 1 0.011906 0.004573 -0.004917 0.000000 0.004626 0.000000
# 2 0.004573 0.017885 -0.004506 0.000000 0.007317 0.000000
# 3 -0.004917 -0.004506 0.011058 0.000000 0.001537 0.000000
# 4 0.000000 0.000000 0.000000 0.010239 0.000000 -0.014140
# 5 0.004626 0.007317 0.001537 0.000000 0.022140 0.000000
# 6 0.000000 0.000000 0.000000 -0.014140 0.000000 0.016610
#
#
# Mechanical properties :
#
#
# Convention : Reuss Voigt Hill
#
# Bulk Modulus (GPa) = 32.10382 54.24959 43.17671
# Shear Modulus (GPa) = 45.48709 -150.95323 -52.73307
#
# Velocity S-wave (km/s) = 4.42568 -8.06227 -4.76516
# Velocity P-wave (km/s) = 6.31977 7.95658 3.41817
#
# Compressibility (1/GPa) = 0.03114894
#
# Stress axis : x y z
#
# Youngs Moduli (GPa) = 83.98785 55.91341 90.43611
#
# Poissons Ratio (x) = -0.25568 0.44468
# Poissons Ratio (y) = -0.38406 0.40748
# Poissons Ratio (z) = 0.41297 0.25193
#
# Static dielectric constant tensor:
#      x y z
#    x 1.835240 0.000000 0.028950 
#    y 0.000000 1.943700 0.000000 
#    z 0.028950 0.000000 1.940210 
# 
# From -- ./inp_files/131682.got.cif
#   From: 2010.05.17/outbox.cif.g08.bks.cpg/sg12_66_cif.got.tgz:131682.got - 2010.06.03 13:09:07.
