data_PCOD9175680
_publ_section_title
;
Structure prediction by ZEFSAII (Michael W. Deem and Ramdas Pophale) SiO2 
 PCOD9175680
Probable space group: C 2/M
;
_chemical_formula_sum "Si O2"
_cell_formula_units_Z 40
_cell_length_a 18.339055
_cell_length_b 20.159189
_cell_length_c 25.225383
_cell_angle_alpha 90.000000
_cell_angle_beta 166.450562
_cell_angle_gamma 90.000000
_cell_volume 2184.896907
_symmetry_space_group_name_H-M "C 2/M"
_symmetry_group_IT_number 12
_symmetry_cell_setting 'monoclinic'
loop_
_space_group_symop_operation_xyz
x,y,z
-x,y,-z
-x,-y,-z
x,-y,z
1/2+x,1/2+y,z
1/2-x,1/2+y,-z
1/2-x,1/2-y,-z
1/2+x,1/2-y,z
loop_
_atom_site_type_symbol
_atom_site_label
_atom_site_fract_x
_atom_site_fract_y
_atom_site_fract_z
Si Si1 0.795015 0.500000 0.489781
Si Si2 0.836271 0.000000 0.072943
Si Si3 0.059859 0.387045 0.739756
Si Si4 0.500000 0.284875 0.000000
Si Si5 0.626958 0.144710 0.898216
Si Si6 0.565829 0.500000 0.124416
Si Si7 0.156551 0.758733 0.232080
O O1 0.502335 0.500000 0.245831
O O2 0.813073 0.433852 0.537252
O O3 0.112529 0.500000 0.679088
O O4 0.656997 0.069042 0.938391
O O5 0.090412 0.000000 0.204948
O O6 0.201801 0.330012 0.804059
O O7 0.941681 0.358290 0.711731
O O8 0.352367 0.436700 0.958526
O O9 0.601556 0.253930 0.129211
O O10 0.951777 0.178968 0.109109
O O11 0.481877 0.192643 0.838958
O O12 0.500000 0.767028 0.500000
#
# Coordination Sequence:
#
# PCOD9175680 Si02
#       7
#     4   4   8   4   8   4   8
#     4  11  17  25  47  89 108 146 181 213 298 358
#     4  10  21  30  53  78 117 145 177 245 277 326
#     4   9  16  29  48  74 116 145 171 225 278 339
#     4  10  18  33  56  81 108 144 194 232 264 342
#     4   9  21  40  54  83 118 144 188 239 277 338
#     4   9  15  27  43  72 117 145 169 215 287 347
#     4  10  22  40  61  82 113 156 189 230 288 337
#
# _framework density 18.307499
#
# number of rings (size 3 to 8) (size 9 to 14) (size 15 to 20)
#    0.000    2.400    2.000    1.500    2.800    0.000 
#    3.600    3.500    0.000    0.600    0.000    0.000 
#    0.000    0.000    0.000    0.000    0.000    0.000 
#
# Total GULP energy -111352.844631 kJ/mol
# GULP energy per Si atom -5567.642232 kJ/mol
# Density = 1.826583 g / cm^3
# Si number density = 18.307499 Si / 1000 Ang^3
#
#
#
# Elastic Constant Matrix: (Units=GPa)
#
#
# Indices 1 2 3 4 5 6 
#
# 1 140.2455 62.5958 36.3965 0.0535 -34.8730 -0.1124
# 2 62.5958 107.7462 13.8334 0.1801 -8.7354 -0.2238
# 3 36.3965 13.8334 45.4329 0.5025 -19.5638 -0.2268
# 4 0.0535 0.1801 0.5025 5.7978 -0.0923 -11.7978
# 5 -34.8730 -8.7354 -19.5638 -0.0923 20.6721 -0.0149
# 6 -0.1124 -0.2238 -0.2268 -11.7978 -0.0149 37.6097
#
#
#
# Elastic Compliance Matrix: (Units=1/GPa)
#
#
# Indices 1 2 3 4 5 6 
#
# 1 0.016846 -0.007720 -0.000546 0.001510 0.024647 0.000485
# 2 -0.007720 0.013256 -0.001759 -0.000686 -0.009090 -0.000174
# 3 -0.000546 -0.001759 0.037661 -0.006081 0.033949 -0.001679
# 4 0.001510 -0.000686 -0.006081 0.478093 -0.001255 0.149936
# 5 0.024647 -0.009090 0.033949 -0.001255 0.118235 -0.000122
# 6 0.000485 -0.000174 -0.001679 0.149936 -0.000122 0.073613
#
#
# Mechanical properties :
#
#
# Convention : Reuss Voigt Hill
#
# Bulk Modulus (GPa) = 20.95863 57.67510 39.31687
# Shear Modulus (GPa) = 6.46280 24.85586 15.65933
#
# Velocity S-wave (km/s) = 1.88090 3.68868 2.92781
# Velocity P-wave (km/s) = 4.02368 7.05080 5.74037
#
# Compressibility (1/GPa) = 0.04771303
#
# Stress axis : x y z
#
# Youngs Moduli (GPa) = 59.36060 75.43890 26.55244
#
# Poissons Ratio (x) = 0.58239 0.01450
# Poissons Ratio (y) = 0.45827 0.04670
# Poissons Ratio (z) = 0.03242 0.13269
#
# Static dielectric constant tensor:
#      x y z
#    x 1.672030 0.000230 -0.025400 
#    y 0.000230 1.651990 -0.000750 
#    z -0.025400 -0.000750 1.620290 
# 
# From -- ./inp_files/63219.got.cif
#   From: 2010.05.17/outbox.cif.g08.bks.cpg/sg12_32_cif.got.tgz:63219.got - 2010.06.03 13:09:07.
