data_PCOD9175504
_publ_section_title
;
Structure prediction by ZEFSAII (Michael W. Deem and Ramdas Pophale) SiO2 
 PCOD9175504
Probable space group: C 2/M
;
_chemical_formula_sum "Si O2"
_cell_formula_units_Z 46
_cell_length_a 19.768156
_cell_length_b 12.418106
_cell_length_c 7.422303
_cell_angle_alpha 90.000000
_cell_angle_beta 104.316526
_cell_angle_gamma 90.000000
_cell_volume 1765.464871
_symmetry_space_group_name_H-M "C 2/M"
_symmetry_group_IT_number 12
_symmetry_cell_setting 'monoclinic'
loop_
_space_group_symop_operation_xyz
x,y,z
-x,y,-z
-x,-y,-z
x,-y,z
1/2+x,1/2+y,z
1/2-x,1/2+y,-z
1/2-x,1/2-y,-z
1/2+x,1/2-y,z
loop_
_atom_site_type_symbol
_atom_site_label
_atom_site_fract_x
_atom_site_fract_y
_atom_site_fract_z
Si Si1 0.164744 0.126798 0.614916
Si Si2 0.051690 0.266113 0.361897
Si Si3 0.409120 0.753000 0.127735
Si Si4 0.500000 0.000000 0.000000
Si Si5 0.111108 0.500000 0.863789
Si Si6 0.385485 0.000000 0.661008
Si Si7 0.735585 0.000000 0.719101
Si Si8 0.284960 0.267008 0.824653
O O1 0.112743 0.180927 0.437278
O O2 0.124728 0.158854 0.775384
O O3 0.240011 0.184685 0.675512
O O4 0.171004 0.000000 0.599742
O O5 0.085132 0.383195 0.366936
O O6 0.000000 0.261216 0.500000
O O7 0.992247 0.245475 0.173912
O O8 0.392318 0.870154 0.200762
O O9 0.366192 0.757523 0.913270
O O10 0.478092 0.000000 0.183105
O O11 0.593114 0.000000 0.095909
O O12 0.195886 0.500000 0.887336
O O13 0.315872 0.000000 0.488854
O O14 0.776268 0.887909 0.749637
O O15 0.250000 0.250000 0.000000
#
# Coordination Sequence:
#
# PCOD9175504 Si02
#       8
#     8   8   8   2   4   4   4   8
#     4  10  20  30  47  83 124 154 190 233 296 365
#     4  10  18  33  53  79 117 156 182 242 302 352
#     4  10  20  30  53  77 125 150 189 239 308 346
#     4  12  28  34  64  92 122 148 212 264 306 362
#     4  12  20  39  55  94 116 162 188 258 310 349
#     4  12  21  38  59  92 117 151 201 256 316 359
#     4  12  20  37  64  88 130 152 200 242 328 354
#     4  10  20  30  52  90 119 158 187 247 295 373
#
# _framework density 26.055461000000001
#
# number of rings (size 3 to 8) (size 9 to 14) (size 15 to 20)
#    0.000    1.391    6.957    1.304    6.087    3.130 
#    0.000    0.000    0.000    1.043    0.000    2.435 
#    0.000    0.000    0.000    0.000    0.000    0.000 
#
# Total GULP energy -128047.370637 kJ/mol
# GULP energy per Si atom -5567.276984 kJ/mol
# Density = 2.599616 g / cm^3
# Si number density = 26.055461 Si / 1000 Ang^3
#
#
#
# Elastic Constant Matrix: (Units=GPa)
#
#
# Indices 1 2 3 4 5 6 
#
# 1 145.4581 75.5176 72.3032 0.0000 40.4576 0.0000
# 2 75.5176 244.8895 79.0324 0.0000 39.5654 0.0000
# 3 72.3032 79.0324 177.1897 0.0000 37.8426 0.0000
# 4 0.0000 0.0000 0.0000 25.1984 0.0000 10.4858
# 5 40.4576 39.5654 37.8426 0.0000 78.0061 0.0000
# 6 0.0000 0.0000 0.0000 10.4858 0.0000 44.5072
#
#
#
# Elastic Compliance Matrix: (Units=1/GPa)
#
#
# Indices 1 2 3 4 5 6 
#
# 1 0.009911 -0.001722 -0.002638 0.000000 -0.002987 0.000000
# 2 -0.001722 0.005243 -0.001404 0.000000 -0.001085 0.000000
# 3 -0.002638 -0.001404 0.007700 0.000000 -0.001655 0.000000
# 4 0.000000 0.000000 0.000000 0.043999 0.000000 -0.010366
# 5 -0.002987 -0.001085 -0.001655 0.000000 0.015722 0.000000
# 6 0.000000 0.000000 0.000000 -0.010366 0.000000 0.024910
#
#
# Mechanical properties :
#
#
# Convention : Reuss Voigt Hill
#
# Bulk Modulus (GPa) = 88.30044 113.47154 100.88599
# Shear Modulus (GPa) = 40.72022 52.25460 46.48741
#
# Velocity S-wave (km/s) = 3.95755 4.48316 4.22853
# Velocity P-wave (km/s) = 7.40580 8.39302 7.91482
#
# Compressibility (1/GPa) = 0.01132497
#
# Stress axis : x y z
#
# Youngs Moduli (GPa) = 100.89624 190.73041 129.87208
#
# Poissons Ratio (x) = 0.32851 0.34262
# Poissons Ratio (y) = 0.17378 0.18234
# Poissons Ratio (z) = 0.26618 0.26779
#
# Static dielectric constant tensor:
#      x y z
#    x 2.492820 0.000000 0.095070 
#    y 0.000000 2.165230 0.000000 
#    z 0.095070 0.000000 2.313540 
# 
# From -- ./inp_files/102849.got.cif
#   From: 2010.05.17/outbox.cif.g08.bks.cpg/sg12_52_cif.got.tgz:102849.got - 2010.06.03 13:09:07.
