data_PCOD9175376
_publ_section_title
;
Structure prediction by ZEFSAII (Michael W. Deem and Ramdas Pophale) SiO2 
 PCOD9175376
Probable space group: C 2/M
;
_chemical_formula_sum "Si O2"
_cell_formula_units_Z 56
_cell_length_a 16.460985
_cell_length_b 22.418912
_cell_length_c 15.488856
_cell_angle_alpha 90.000000
_cell_angle_beta 26.348796
_cell_angle_gamma 90.000000
_cell_volume 2536.943377
_symmetry_space_group_name_H-M "C 2/M"
_symmetry_group_IT_number 12
_symmetry_cell_setting 'monoclinic'
loop_
_space_group_symop_operation_xyz
x,y,z
-x,y,-z
-x,-y,-z
x,-y,z
1/2+x,1/2+y,z
1/2-x,1/2+y,-z
1/2-x,1/2-y,-z
1/2+x,1/2-y,z
loop_
_atom_site_type_symbol
_atom_site_label
_atom_site_fract_x
_atom_site_fract_y
_atom_site_fract_z
Si Si1 0.451969 0.431476 0.839795
Si Si2 0.105839 0.182730 0.989622
Si Si3 0.344989 0.571170 0.753839
Si Si4 0.246650 0.619681 0.676696
Si Si5 0.620271 0.067958 0.627485
Si Si6 0.702005 0.749598 0.646356
Si Si7 0.996691 0.653414 0.408748
O O1 0.418181 0.500000 0.898883
O O2 0.420778 0.382067 0.941620
O O3 0.330532 0.418085 0.870098
O O4 0.665516 0.428363 0.606652
O O5 0.008612 0.231824 0.141289
O O6 0.320208 0.192014 0.774309
O O7 0.000000 0.184711 0.000000
O O8 0.329271 0.500000 0.754549
O O9 0.220424 0.605312 0.802660
O O10 0.553204 0.591871 0.534736
O O11 0.115042 0.589126 0.731562
O O12 0.245326 0.689092 0.653474
O O13 0.514957 0.108699 0.659995
O O14 0.560675 0.000000 0.678549
O O15 0.750000 0.750000 0.500000
O O16 0.823078 0.696412 0.569632
O O17 0.000000 0.623202 0.500000
#
# Coordination Sequence:
#
# PCOD9175376 Si02
#       7
#     8   8   8   8   8   8   8
#     4   9  18  37  64  95 134 171 214 276 338 399
#     4  12  25  44  68  97 135 177 224 276 333 399
#     4   9  17  31  59 101 133 169 223 266 326 400
#     4  10  18  32  61  91 134 174 215 273 324 392
#     4  10  19  38  65  94 129 171 220 277 338 396
#     4  12  24  45  65  97 140 174 225 271 331 398
#     4  12  25  44  69  97 133 175 221 281 336 391
#
# _framework density 22.073808
#
# number of rings (size 3 to 8) (size 9 to 14) (size 15 to 20)
#    0.000    1.429    4.286    3.429    2.000    1.714 
#    0.000    1.429    0.000    0.000    0.000    3.000 
#    0.000    0.143    0.000    0.000    0.000    1.000 
#
# Total GULP energy -156555.707001 kJ/mol
# GULP energy per Si atom -5591.275250 kJ/mol
# Density = 2.202357 g / cm^3
# Si number density = 22.073808 Si / 1000 Ang^3
#
#
#
# Elastic Constant Matrix: (Units=GPa)
#
#
# Indices 1 2 3 4 5 6 
#
# 1 127.1890 36.3578 18.6388 -0.0014 -0.2487 0.0056
# 2 36.3578 76.4657 -11.8943 -0.0485 6.1458 0.0361
# 3 18.6388 -11.8943 57.7950 -0.0131 -0.9959 0.0037
# 4 -0.0014 -0.0485 -0.0131 18.4340 0.0074 8.0036
# 5 -0.2487 6.1458 -0.9959 0.0074 30.7379 0.0043
# 6 0.0056 0.0361 0.0037 8.0036 0.0043 31.2891
#
#
#
# Elastic Compliance Matrix: (Units=1/GPa)
#
#
# Indices 1 2 3 4 5 6 
#
# 1 0.010099 -0.005568 -0.004385 -0.000022 0.001053 0.000011
# 2 -0.005568 0.016794 0.005196 0.000064 -0.003234 -0.000035
# 3 -0.004385 0.005196 0.019779 0.000035 -0.000434 -0.000016
# 4 -0.000022 0.000064 0.000035 0.061025 -0.000024 -0.015610
# 5 0.001053 -0.003234 -0.000434 -0.000024 0.033174 0.000005
# 6 0.000011 -0.000035 -0.000016 -0.015610 0.000005 0.035953
#
#
# Mechanical properties :
#
#
# Convention : Reuss Voigt Hill
#
# Bulk Modulus (GPa) = 26.91260 38.62825 32.77043
# Shear Modulus (GPa) = 25.16068 30.64871 27.90469
#
# Velocity S-wave (km/s) = 3.37982 3.73025 3.55935
# Velocity P-wave (km/s) = 5.23922 6.00755 5.63649
#
# Compressibility (1/GPa) = 0.03715732
#
# Stress axis : x y z
#
# Youngs Moduli (GPa) = 99.02293 59.54615 50.55990
#
# Poissons Ratio (x) = 0.33158 0.22169
# Poissons Ratio (y) = 0.55140 -0.26272
# Poissons Ratio (z) = 0.43418 -0.30942
#
# Static dielectric constant tensor:
#      x y z
#    x 1.820670 -0.000010 0.002820 
#    y -0.000010 1.750480 0.000030 
#    z 0.002820 0.000030 1.872550 
# 
# From -- ./inp_files/218641.got.cif
#   From: 2010.05.17/outbox.cif.g08.bks.cpg/sg12_110_cif.got.tgz:218641.got - 2010.06.03 13:09:07.
