data_PCOD9175098
_publ_section_title
;
Structure prediction by ZEFSAII (Michael W. Deem and Ramdas Pophale) SiO2 
 PCOD9175098
Probable space group: C 2/M
;
_chemical_formula_sum "Si O2"
_cell_formula_units_Z 52
_cell_length_a 18.846399
_cell_length_b 26.868183
_cell_length_c 6.650022
_cell_angle_alpha 90.000000
_cell_angle_beta 51.961016
_cell_angle_gamma 90.000000
_cell_volume 2652.106002
_symmetry_space_group_name_H-M "C 2/M"
_symmetry_group_IT_number 12
_symmetry_cell_setting 'monoclinic'
loop_
_space_group_symop_operation_xyz
x,y,z
-x,y,-z
-x,-y,-z
x,-y,z
1/2+x,1/2+y,z
1/2-x,1/2+y,-z
1/2-x,1/2-y,-z
1/2+x,1/2-y,z
loop_
_atom_site_type_symbol
_atom_site_label
_atom_site_fract_x
_atom_site_fract_y
_atom_site_fract_z
Si Si1 0.701526 0.633404 0.850374
Si Si2 0.854563 0.294852 0.455859
Si Si3 0.913288 0.193905 0.254409
Si Si4 0.000000 0.330593 0.500000
Si Si5 0.092953 0.892498 0.430702
Si Si6 0.758177 0.058755 0.557068
Si Si7 0.090496 0.624086 0.964330
O O1 0.777096 0.675967 0.709610
O O2 0.623542 0.656587 0.848826
O O3 0.736396 0.584973 0.670787
O O4 0.662120 0.620440 0.132948
O O5 0.842742 0.236997 0.429208
O O6 0.874405 0.327114 0.219957
O O7 0.940429 0.298266 0.452904
O O8 0.931590 0.158887 0.412230
O O9 0.000000 0.218652 0.000000
O O10 0.061625 0.363103 0.241646
O O11 0.150291 0.926697 0.483013
O O12 0.000000 0.913440 0.500000
O O13 0.671329 0.084639 0.811791
O O14 0.748525 0.000000 0.562472
O O15 0.000000 0.608151 0.000000
#
# Coordination Sequence:
#
# PCOD9175098 Si02
#       7
#     8   8   8   4   8   8   8
#     4  10  22  41  58  82 117 151 188 242 292 331
#     4  10  21  34  57  86 119 156 193 226 272 341
#     4  11  21  35  57  84 116 154 193 230 277 339
#     4  10  18  32  55  84 120 156 183 222 278 334
#     4  11  23  39  60  83 117 154 190 244 292 339
#     4  10  23  41  62  85 111 147 197 246 295 350
#     4   9  19  37  57  86 121 154 186 234 286 339
#
# _framework density 19.607060000000001
#
# number of rings (size 3 to 8) (size 9 to 14) (size 15 to 20)
#    0.000    1.846    1.538    2.769    1.077    3.077 
#    0.000    1.154    0.000    0.000    0.000    0.000 
#    0.000    0.000    0.000    0.000    0.000    0.000 
#
# Total GULP energy -145096.859988 kJ/mol
# GULP energy per Si atom -5580.648461 kJ/mol
# Density = 1.956243 g / cm^3
# Si number density = 19.607060 Si / 1000 Ang^3
#
#
#
# Elastic Constant Matrix: (Units=GPa)
#
#
# Indices 1 2 3 4 5 6 
#
# 1 40.5739 3.6352 -2.6146 0.0000 -2.2653 0.0000
# 2 3.6352 75.9067 10.2145 0.0000 9.5514 0.0000
# 3 -2.6146 10.2145 100.8229 0.0000 3.9137 0.0000
# 4 0.0000 0.0000 0.0000 5.5583 0.0000 -5.8344
# 5 -2.2653 9.5514 3.9137 0.0000 26.9469 0.0000
# 6 0.0000 0.0000 0.0000 -5.8344 0.0000 13.9050
#
#
#
# Elastic Compliance Matrix: (Units=1/GPa)
#
#
# Indices 1 2 3 4 5 6 
#
# 1 0.024980 -0.001615 0.000712 0.000000 0.002569 0.000000
# 2 -0.001615 0.014043 -0.001273 0.000000 -0.004928 0.000000
# 3 0.000712 -0.001273 0.010103 0.000000 -0.000956 0.000000
# 4 0.000000 0.000000 0.000000 0.321511 0.000000 0.134902
# 5 0.002569 -0.004928 -0.000956 0.000000 0.039212 0.000000
# 6 0.000000 0.000000 0.000000 0.134902 0.000000 0.128520
#
#
# Mechanical properties :
#
#
# Convention : Reuss Voigt Hill
#
# Bulk Modulus (GPa) = 22.33517 26.64151 24.48834
# Shear Modulus (GPa) = 8.96624 23.01993 15.99308
#
# Velocity S-wave (km/s) = 2.14077 3.43018 2.85911
# Velocity P-wave (km/s) = 4.18648 5.41344 4.83901
#
# Compressibility (1/GPa) = 0.04477244
#
# Stress axis : x y z
#
# Youngs Moduli (GPa) = 40.03134 71.21028 98.98092
#
# Poissons Ratio (x) = 0.11503 -0.07045
# Poissons Ratio (y) = 0.06467 0.12603
# Poissons Ratio (z) = -0.02849 0.09067
#
# Static dielectric constant tensor:
#      x y z
#    x 1.746340 0.000000 -0.029940 
#    y 0.000000 1.649910 0.000000 
#    z -0.029940 0.000000 1.695690 
# 
# From -- ./inp_files/22425.got.cif
#   From: 2010.05.17/outbox.cif.g08.bks.cpg/sg12_12_cif.got.tgz:22425.got - 2010.06.03 13:09:07.
