data_PCOD9175481
_publ_section_title
;
Structure prediction by ZEFSAII (Michael W. Deem and Ramdas Pophale) SiO2 
 PCOD9175481
Probable space group: C 2/M
;
_chemical_formula_sum "Si O2"
_cell_formula_units_Z 64
_cell_length_a 30.688864
_cell_length_b 14.905675
_cell_length_c 12.599536
_cell_angle_alpha 90.000000
_cell_angle_beta 144.292309
_cell_angle_gamma 90.000000
_cell_volume 3363.873547
_symmetry_space_group_name_H-M "C 2/M"
_symmetry_group_IT_number 12
_symmetry_cell_setting 'monoclinic'
loop_
_space_group_symop_operation_xyz
x,y,z
-x,y,-z
-x,-y,-z
x,-y,z
1/2+x,1/2+y,z
1/2-x,1/2+y,-z
1/2-x,1/2-y,-z
1/2+x,1/2-y,z
loop_
_atom_site_type_symbol
_atom_site_label
_atom_site_fract_x
_atom_site_fract_y
_atom_site_fract_z
Si Si1 0.909733 0.104347 0.304693
Si Si2 0.818096 0.151748 0.549548
Si Si3 0.561070 0.898694 0.933191
Si Si4 0.567663 0.400555 0.064498
Si Si5 0.931128 0.212000 0.139812
Si Si6 0.389030 0.292604 0.474687
Si Si7 0.840726 0.647094 0.680551
Si Si8 0.883773 0.402812 0.539634
O O1 0.896745 0.160717 0.171838
O O2 0.876159 0.157701 0.338291
O O3 0.000000 0.103377 0.500000
O O4 0.886212 0.000000 0.251469
O O5 0.865860 0.091188 0.721554
O O6 0.848211 0.156233 0.489997
O O7 0.835219 0.249596 0.634322
O O8 0.731760 0.128836 0.391527
O O9 0.589049 0.816549 0.915084
O O10 0.471373 0.896877 0.744998
O O11 0.585463 0.000000 0.953957
O O12 0.588854 0.876855 0.107158
O O13 0.544051 0.500000 0.980028
O O14 0.500000 0.360236 0.000000
O O15 0.588469 0.339715 0.006749
O O16 0.021423 0.205332 0.328327
O O17 0.366593 0.187240 0.439258
O O18 0.841271 0.599323 0.567985
O O19 0.871261 0.500000 0.462491
#
# Coordination Sequence:
#
# PCOD9175481 Si02
#       8
#     8   8   8   8   8   8   8   8
#     4   9  18  32  52  76 100 134 177 216 253 298
#     4  10  20  33  48  75 107 140 171 208 257 308
#     4  10  19  31  52  77 101 134 173 211 256 309
#     4  11  21  31  48  74 105 139 169 203 257 314
#     4  10  18  33  53  73 105 134 168 215 258 298
#     4   9  18  32  52  74 103 135 170 213 259 298
#     4  10  19  31  50  74 106 140 173 207 255 308
#     4   9  18  31  50  77 105 135 173 210 258 313
#
# _framework density 19.025683999999998
#
# number of rings (size 3 to 8) (size 9 to 14) (size 15 to 20)
#    0.000    2.250    2.500    1.125    0.000    3.000 
#    0.000    0.625    0.000    4.500    0.000    0.000 
#    0.000    0.000    0.000    0.000    0.000    0.000 
#
# Total GULP energy -178357.440465 kJ/mol
# GULP energy per Si atom -5573.670015 kJ/mol
# Density = 1.898238 g / cm^3
# Si number density = 19.025684 Si / 1000 Ang^3
#
#
#
# Elastic Constant Matrix: (Units=GPa)
#
#
# Indices 1 2 3 4 5 6 
#
# 1 115.0380 68.8214 31.8805 0.0000 -35.9128 0.0000
# 2 68.8214 152.0881 28.0228 0.0000 -28.6232 0.0000
# 3 31.8805 28.0228 19.6048 0.0000 -16.3985 0.0000
# 4 0.0000 0.0000 0.0000 16.3832 0.0000 -3.6956
# 5 -35.9128 -28.6232 -16.3985 0.0000 26.3002 0.0000
# 6 0.0000 0.0000 0.0000 -3.6956 0.0000 10.0263
#
#
#
# Elastic Compliance Matrix: (Units=1/GPa)
#
#
# Indices 1 2 3 4 5 6 
#
# 1 0.018882 -0.003341 -0.015476 0.000000 0.012498 0.000000
# 2 -0.003341 0.009690 -0.007133 0.000000 0.001537 0.000000
# 3 -0.015476 -0.007133 0.130001 0.000000 0.052161 0.000000
# 4 0.000000 0.000000 0.000000 0.066573 0.000000 0.024538
# 5 0.012498 0.001537 0.052161 0.000000 0.089284 0.000000
# 6 0.000000 0.000000 0.000000 0.024538 0.000000 0.108783
#
#
# Mechanical properties :
#
#
# Convention : Reuss Voigt Hill
#
# Bulk Modulus (GPa) = 9.37439 60.46448 34.91944
# Shear Modulus (GPa) = 9.79106 21.07569 15.43338
#
# Velocity S-wave (km/s) = 2.27099 3.33190 2.85122
# Velocity P-wave (km/s) = 3.43722 6.83019 5.40675
#
# Compressibility (1/GPa) = 0.10667357
#
# Stress axis : x y z
#
# Youngs Moduli (GPa) = 52.96140 103.19499 7.69226
#
# Poissons Ratio (x) = 0.34473 0.11904
# Poissons Ratio (y) = 0.17692 0.05487
# Poissons Ratio (z) = 0.81962 0.73612
#
# Static dielectric constant tensor:
#      x y z
#    x 1.664130 0.000000 0.036370 
#    y 0.000000 1.736400 0.000000 
#    z 0.036370 0.000000 1.658150 
# 
# From -- ./inp_files/189494.got.cif
#   From: 2010.05.17/outbox.cif.g08.bks.cpg/sg12_95_cif.got.tgz:189494.got - 2010.06.03 13:09:07.
