data_PCOD9175378
_publ_section_title
;
Structure prediction by ZEFSAII (Michael W. Deem and Ramdas Pophale) SiO2 
 PCOD9175378
Probable space group: C 2/M
;
_chemical_formula_sum "Si O2"
_cell_formula_units_Z 52
_cell_length_a 27.275164
_cell_length_b 12.268331
_cell_length_c 12.431435
_cell_angle_alpha 90.000000
_cell_angle_beta 134.448971
_cell_angle_gamma 90.000000
_cell_volume 2969.586190
_symmetry_space_group_name_H-M "C 2/M"
_symmetry_group_IT_number 12
_symmetry_cell_setting 'monoclinic'
loop_
_space_group_symop_operation_xyz
x,y,z
-x,y,-z
-x,-y,-z
x,-y,z
1/2+x,1/2+y,z
1/2-x,1/2+y,-z
1/2-x,1/2-y,-z
1/2+x,1/2-y,z
loop_
_atom_site_type_symbol
_atom_site_label
_atom_site_fract_x
_atom_site_fract_y
_atom_site_fract_z
Si Si1 0.062493 0.626108 0.829526
Si Si2 0.101056 0.627389 0.468048
Si Si3 0.618750 0.500000 0.421721
Si Si4 0.973038 0.000000 0.081068
Si Si5 0.328821 0.723930 0.599689
Si Si6 0.928145 0.227310 0.954614
Si Si7 0.417667 0.741264 0.348403
Si Si8 0.083239 0.000000 0.617708
O O1 0.081816 0.500000 0.853984
O O2 0.093631 0.692275 0.777707
O O3 0.979888 0.633865 0.686053
O O4 0.080179 0.678573 0.970931
O O5 0.117958 0.500000 0.508758
O O6 0.140985 0.683594 0.432225
O O7 0.112728 0.696266 0.594945
O O8 0.540433 0.500000 0.257436
O O9 0.655903 0.607931 0.434209
O O10 0.609211 0.500000 0.534763
O O11 0.932751 0.886922 0.027116
O O12 0.000000 0.000000 0.000000
O O13 0.250000 0.750000 0.500000
O O14 0.370001 0.722916 0.775179
O O15 0.000000 0.241025 0.000000
O O16 0.500000 0.739283 0.500000
O O17 0.394365 0.616244 0.300592
O O18 0.000000 0.000000 0.500000
#
# Coordination Sequence:
#
# PCOD9175378 Si02
#       8
#     8   8   4   4   8   8   8   4
#     4  10  20  33  55  81 117 151 185 233 286 350
#     4  10  19  34  53  79 111 149 188 232 281 341
#     4  12  20  40  58  88 125 153 192 255 304 346
#     4  10  18  32  62  82 106 148 184 248 310 335
#     4  12  25  38  56  84 118 158 196 237 294 359
#     4  11  20  36  57  84 113 151 196 243 300 349
#     4   9  18  31  50  84 113 144 184 233 296 344
#     4  10  20  28  56  90 118 143 184 249 315 358
#
# _framework density 17.510857000000001
#
# number of rings (size 3 to 8) (size 9 to 14) (size 15 to 20)
#    0.000    1.538    6.154    0.462    5.385    2.769 
#    0.000    0.000    0.000    0.923    0.000    0.000 
#    0.000    0.000    0.000    0.000    0.000    0.000 
#
# Total GULP energy -145060.028389 kJ/mol
# GULP energy per Si atom -5579.231861 kJ/mol
# Density = 1.747100 g / cm^3
# Si number density = 17.510857 Si / 1000 Ang^3
#
#
#
# Elastic Constant Matrix: (Units=GPa)
#
#
# Indices 1 2 3 4 5 6 
#
# 1 75.9990 69.1856 43.0805 0.0000 -12.8766 0.0000
# 2 69.1856 176.8683 40.4066 0.0000 -15.4633 0.0000
# 3 43.0805 40.4066 51.6592 0.0000 0.9445 0.0000
# 4 0.0000 0.0000 0.0000 19.6941 0.0000 -13.2974
# 5 -12.8766 -15.4633 0.9445 0.0000 23.2038 0.0000
# 6 0.0000 0.0000 0.0000 -13.2974 0.0000 24.1953
#
#
#
# Elastic Compliance Matrix: (Units=1/GPa)
#
#
# Indices 1 2 3 4 5 6 
#
# 1 0.037043 -0.007174 -0.025587 0.000000 0.016817 0.000000
# 2 -0.007174 0.008855 -0.000980 0.000000 0.001960 0.000000
# 3 -0.025587 -0.000980 0.041765 0.000000 -0.016552 0.000000
# 4 0.000000 0.000000 0.000000 0.080736 0.000000 0.044372
# 5 0.016817 0.001960 -0.016552 0.000000 0.054409 0.000000
# 6 0.000000 0.000000 0.000000 0.044372 0.000000 0.065716
#
#
# Mechanical properties :
#
#
# Convention : Reuss Voigt Hill
#
# Bulk Modulus (GPa) = 49.55211 67.76353 58.65782
# Shear Modulus (GPa) = 13.78426 23.54222 18.66324
#
# Velocity S-wave (km/s) = 2.80872 3.67063 3.26822
# Velocity P-wave (km/s) = 6.23522 7.53304 6.91465
#
# Compressibility (1/GPa) = 0.02018078
#
# Stress axis : x y z
#
# Youngs Moduli (GPa) = 26.99589 112.92583 23.94372
#
# Poissons Ratio (x) = 0.81015 0.61265
# Poissons Ratio (y) = 0.19367 0.02345
# Poissons Ratio (z) = 0.69075 0.11061
#
# Static dielectric constant tensor:
#      x y z
#    x 1.565300 0.000000 0.005660 
#    y 0.000000 1.631620 0.000000 
#    z 0.005660 0.000000 1.502510 
# 
# From -- ./inp_files/164820.got.cif
#   From: 2010.05.17/outbox.cif.g08.bks.cpg/sg12_83_cif.got.tgz:164820.got - 2010.06.03 13:09:07.
