data_PCOD9175774
_publ_section_title
;
Structure prediction by ZEFSAII (Michael W. Deem and Ramdas Pophale) SiO2 
 PCOD9175774
Probable space group: C 2/M
;
_chemical_formula_sum "Si O2"
_cell_formula_units_Z 42
_cell_length_a 18.602741
_cell_length_b 7.809195
_cell_length_c 13.730057
_cell_angle_alpha 90.000000
_cell_angle_beta 66.388055
_cell_angle_gamma 90.000000
_cell_volume 1827.609457
_symmetry_space_group_name_H-M "C 2/M"
_symmetry_group_IT_number 12
_symmetry_cell_setting 'monoclinic'
loop_
_space_group_symop_operation_xyz
x,y,z
-x,y,-z
-x,-y,-z
x,-y,z
1/2+x,1/2+y,z
1/2-x,1/2+y,-z
1/2-x,1/2-y,-z
1/2+x,1/2-y,z
loop_
_atom_site_type_symbol
_atom_site_label
_atom_site_fract_x
_atom_site_fract_y
_atom_site_fract_z
Si Si1 0.910311 0.702659 0.050306
Si Si2 0.108113 0.797419 0.145409
Si Si3 0.427425 0.705315 0.247996
Si Si4 0.410204 0.189669 0.643261
Si Si5 0.836679 0.793311 0.486366
Si Si6 0.500000 0.500000 0.500000
O O1 0.916050 0.500000 0.039787
O O2 0.881880 0.745519 0.174082
O O3 0.863603 0.760334 0.979704
O O4 0.000000 0.778157 0.000000
O O5 0.137277 0.716614 0.230202
O O6 0.017155 0.733765 0.192796
O O7 0.110991 0.000000 0.155993
O O8 0.428499 0.500000 0.250920
O O9 0.388910 0.768017 0.367809
O O10 0.355864 0.206665 0.577826
O O11 0.470109 0.347174 0.592651
O O12 0.446003 0.000000 0.625539
O O13 0.750000 0.750000 0.500000
O O14 0.851725 0.000000 0.493030
#
# Coordination Sequence:
#
# PCOD9175774 Si02
#       6
#     8   8   8   8   8   2
#     4   9  17  29  48  79 115 147 188 235 290 359
#     4  10  18  33  57  83 120 152 187 240 300 362
#     4   9  19  33  54  79 112 154 193 239 294 354
#     4  12  24  38  60  88 120 160 200 248 307 363
#     4  11  23  41  61  83 118 159 211 255 296 355
#     4  12  22  40  56  90 126 152 194 250 302 368
#
# _framework density 22.980839
#
# number of rings (size 3 to 8) (size 9 to 14) (size 15 to 20)
#    0.000    1.714    1.905    3.143    2.667    4.571 
#    0.000    0.000    0.000    1.143    0.000    0.000 
#    0.000    0.000    0.000    0.000    0.000    0.000 
#
# Total GULP energy -117014.768516 kJ/mol
# GULP energy per Si atom -5572.131834 kJ/mol
# Density = 2.292853 g / cm^3
# Si number density = 22.980839 Si / 1000 Ang^3
#
#
#
# Elastic Constant Matrix: (Units=GPa)
#
#
# Indices 1 2 3 4 5 6 
#
# 1 31.4398 10.9252 47.2162 0.0000 23.9991 0.0000
# 2 10.9252 129.1448 22.6455 0.0000 17.9141 0.0000
# 3 47.2162 22.6455 157.6655 0.0000 74.4540 0.0000
# 4 0.0000 0.0000 0.0000 -57.9258 0.0000 -0.5609
# 5 23.9991 17.9141 74.4540 0.0000 32.3237 0.0000
# 6 0.0000 0.0000 0.0000 -0.5609 0.0000 16.1953
#
#
#
# Elastic Compliance Matrix: (Units=1/GPa)
#
#
# Indices 1 2 3 4 5 6 
#
# 1 0.056105 -0.003297 -0.028270 0.000000 0.025287 0.000000
# 2 -0.003297 0.007125 -0.007669 0.000000 0.016163 0.000000
# 3 -0.028270 -0.007669 -0.045499 0.000000 0.130041 0.000000
# 4 0.000000 0.000000 0.000000 -0.017258 0.000000 -0.000598
# 5 0.025287 0.016163 0.130041 0.000000 -0.296329 0.000000
# 6 0.000000 0.000000 0.000000 -0.000598 0.000000 0.061725
#
#
# Mechanical properties :
#
#
# Convention : Reuss Voigt Hill
#
# Bulk Modulus (GPa) = -16.46385 53.31377 18.42496
# Shear Modulus (GPa) = -28.42417 13.94952 -7.23733
#
# Velocity S-wave (km/s) = -3.52072 2.46642 -1.77655
# Velocity P-wave (km/s) = 4.86899 5.60005 1.95621
#
# Compressibility (1/GPa) = -0.06073914
#
# Stress axis : x y z
#
# Youngs Moduli (GPa) = 17.82368 140.35410 -21.97853
#
# Poissons Ratio (x) = 0.46273 -0.62132
# Poissons Ratio (y) = 0.05876 -0.16854
# Poissons Ratio (z) = 0.50387 1.07632
#
# Static dielectric constant tensor:
#      x y z
#    x 1.900290 0.000000 0.020180 
#    y 0.000000 1.830910 0.000000 
#    z 0.020180 0.000000 1.938480 
# 
# From -- ./inp_files/162978.got.cif
#   From: 2010.05.17/outbox.cif.g08.bks.cpg/sg12_82_cif.got.tgz:162978.got - 2010.06.03 13:09:07.
