data_PCOD9175449
_publ_section_title
;
Structure prediction by ZEFSAII (Michael W. Deem and Ramdas Pophale) SiO2 
 PCOD9175449
Probable space group: C 2/M
;
_chemical_formula_sum "Si O2"
_cell_formula_units_Z 52
_cell_length_a 20.968914
_cell_length_b 13.665941
_cell_length_c 25.310701
_cell_angle_alpha 90.000000
_cell_angle_beta 156.629747
_cell_angle_gamma 90.000000
_cell_volume 2877.070424
_symmetry_space_group_name_H-M "C 2/M"
_symmetry_group_IT_number 12
_symmetry_cell_setting 'monoclinic'
loop_
_space_group_symop_operation_xyz
x,y,z
-x,y,-z
-x,-y,-z
x,-y,z
1/2+x,1/2+y,z
1/2-x,1/2+y,-z
1/2-x,1/2-y,-z
1/2+x,1/2-y,z
loop_
_atom_site_type_symbol
_atom_site_label
_atom_site_fract_x
_atom_site_fract_y
_atom_site_fract_z
Si Si1 0.174540 0.612330 0.159295
Si Si2 0.835806 0.388009 0.650979
Si Si3 0.000000 0.259276 0.500000
Si Si4 0.846386 0.755811 0.757789
Si Si5 0.434076 0.614391 0.007422
Si Si6 0.999492 0.190836 0.615417
Si Si7 0.949845 0.610686 0.289142
O O1 0.209042 0.500000 0.198120
O O2 0.165159 0.675033 0.205082
O O3 0.323644 0.649920 0.236810
O O4 0.000000 0.618412 0.000000
O O5 0.839789 0.500000 0.675171
O O6 0.863746 0.304178 0.716479
O O7 0.659564 0.368966 0.491126
O O8 0.967149 0.380298 0.704769
O O9 0.826976 0.311428 0.371135
O O10 0.002517 0.193628 0.449677
O O11 0.986514 0.826703 0.884139
O O12 0.477644 0.500000 0.045039
O O13 0.500000 0.648757 0.000000
O O14 0.242110 0.622120 0.861096
O O15 0.987297 0.301685 0.626648
O O16 0.982444 0.500000 0.333810
#
# Coordination Sequence:
#
# PCOD9175449 Si02
#       7
#     8   8   4   8   8   8   8
#     4  10  19  30  49  78 106 132 168 214 259 305
#     4  10  21  35  52  75 104 140 176 211 256 310
#     4   8  18  30  48  76  98 122 160 202 250 302
#     4  10  18  33  52  74 104 136 168 208 257 307
#     4  10  20  35  56  79 103 135 175 218 262 307
#     4  10  18  34  54  74 103 137 170 211 262 312
#     4  10  21  36  54  76 101 134 178 219 256 308
#
# _framework density 18.07394
#
# number of rings (size 3 to 8) (size 9 to 14) (size 15 to 20)
#    0.000    2.154    0.000    4.615    0.000    0.615 
#    0.000    8.462    0.000    1.846    0.000    0.000 
#    0.000    0.000    0.000    0.000    0.000    0.000 
#
# Total GULP energy -144802.808010 kJ/mol
# GULP energy per Si atom -5569.338770 kJ/mol
# Density = 1.803280 g / cm^3
# Si number density = 18.073940 Si / 1000 Ang^3
#
#
#
# Elastic Constant Matrix: (Units=GPa)
#
#
# Indices 1 2 3 4 5 6 
#
# 1 62.8052 32.2907 37.4186 -0.0002 16.8510 0.0006
# 2 32.2907 96.5824 20.5933 -0.0010 -4.1828 -0.0007
# 3 37.4186 20.5933 68.2400 0.0006 11.9663 0.0017
# 4 -0.0002 -0.0010 0.0006 21.3141 0.0010 -15.4856
# 5 16.8510 -4.1828 11.9663 0.0010 26.5921 -0.0008
# 6 0.0006 -0.0007 0.0017 -15.4856 -0.0008 -21.0518
#
#
#
# Elastic Compliance Matrix: (Units=1/GPa)
#
#
# Indices 1 2 3 4 5 6 
#
# 1 0.031989 -0.008835 -0.012025 0.000001 -0.016249 0.000000
# 2 -0.008835 0.013818 -0.000747 0.000000 0.008108 -0.000001
# 3 -0.012025 -0.000747 0.021885 0.000000 -0.002345 0.000001
# 4 0.000001 0.000000 0.000000 0.030576 -0.000003 -0.022492
# 5 -0.016249 0.008108 -0.002345 -0.000003 0.050233 -0.000001
# 6 0.000000 -0.000001 0.000001 -0.022492 -0.000001 -0.030957
#
#
# Mechanical properties :
#
#
# Convention : Reuss Voigt Hill
#
# Bulk Modulus (GPa) = 40.85433 45.35920 43.10677
# Shear Modulus (GPa) = 29.60038 14.52589 22.06313
#
# Velocity S-wave (km/s) = 4.05129 2.83802 3.49766
# Velocity P-wave (km/s) = 6.67360 5.99084 6.34142
#
# Compressibility (1/GPa) = 0.02447721
#
# Stress axis : x y z
#
# Youngs Moduli (GPa) = 31.26110 72.36898 45.69370
#
# Poissons Ratio (x) = 0.63935 0.54947
# Poissons Ratio (y) = 0.27618 0.03415
# Poissons Ratio (z) = 0.37592 0.05409
#
# Static dielectric constant tensor:
#      x y z
#    x 1.601530 0.000000 0.012520 
#    y 0.000000 1.632700 0.000000 
#    z 0.012520 0.000000 1.688280 
# 
# From -- ./inp_files/366479.got.cif
#   From: 2010.05.17/outbox.cif.g08.bks.cpg/sg12_184_cif.got.tgz:366479.got - 2010.06.03 13:09:07.
