data_PCOD9175210
_publ_section_title
;
Structure prediction by ZEFSAII (Michael W. Deem and Ramdas Pophale) SiO2 
 PCOD9175210
Probable space group: C 2/M
;
_chemical_formula_sum "Si O2"
_cell_formula_units_Z 36
_cell_length_a 12.197385
_cell_length_b 21.372764
_cell_length_c 10.482801
_cell_angle_alpha 90.000000
_cell_angle_beta 143.148622
_cell_angle_gamma 90.000000
_cell_volume 1638.961616
_symmetry_space_group_name_H-M "C 2/M"
_symmetry_group_IT_number 12
_symmetry_cell_setting 'monoclinic'
loop_
_space_group_symop_operation_xyz
x,y,z
-x,y,-z
-x,-y,-z
x,-y,z
1/2+x,1/2+y,z
1/2-x,1/2+y,-z
1/2-x,1/2-y,-z
1/2+x,1/2-y,z
loop_
_atom_site_type_symbol
_atom_site_label
_atom_site_fract_x
_atom_site_fract_y
_atom_site_fract_z
Si Si1 0.705299 0.000000 0.834333
Si Si2 0.003059 0.277040 0.645077
Si Si3 0.902192 0.217356 0.024325
Si Si4 0.897885 0.401405 0.639027
Si Si5 0.872742 0.000000 0.702482
Si Si6 0.000000 0.341430 0.000000
O O1 0.571019 0.942214 0.748057
O O2 0.770738 0.000000 0.747029
O O3 0.906890 0.000000 0.087870
O O4 0.982390 0.228341 0.740995
O O5 0.877346 0.337250 0.541222
O O6 0.000000 0.252022 0.500000
O O7 0.202219 0.306901 0.860063
O O8 0.865167 0.288217 0.933090
O O9 0.000000 0.182660 0.000000
O O10 0.714323 0.440778 0.450078
O O11 0.930444 0.381601 0.816730
#
# Coordination Sequence:
#
# PCOD9175210 Si02
#       6
#     4   8   8   8   4   4
#     4  10  21  37  57  82 113 135 179 240 272 318
#     4  10  18  32  57  78 102 149 184 214 273 325
#     4   8  18  36  49  76 115 137 175 228 263 317
#     4  10  19  38  58  78 111 146 180 225 278 327
#     4  10  21  37  55  84 107 139 183 230 276 324
#     4   8  18  37  56  76 112 151 168 222 284 320
#
# _framework density 21.965126999999999
#
# number of rings (size 3 to 8) (size 9 to 14) (size 15 to 20)
#    0.667    2.000    0.000    2.667    0.000    2.667 
#    8.000    6.667    0.000    0.000    0.000    0.000 
#    0.000    0.000    0.000    0.000    0.000    0.000 
#
# Total GULP energy -100211.600437 kJ/mol
# GULP energy per Si atom -5567.311135 kJ/mol
# Density = 2.191513 g / cm^3
# Si number density = 21.965127 Si / 1000 Ang^3
#
#
#
# Elastic Constant Matrix: (Units=GPa)
#
#
# Indices 1 2 3 4 5 6 
#
# 1 87.4960 5.3285 29.6703 0.0000 -14.2292 0.0000
# 2 5.3285 32.0290 31.6179 0.0000 4.9576 0.0000
# 3 29.6703 31.6179 107.3271 0.0000 1.2111 0.0000
# 4 0.0000 0.0000 0.0000 330.7892 0.0000 -105.5010
# 5 -14.2292 4.9576 1.2111 0.0000 52.3211 0.0000
# 6 0.0000 0.0000 0.0000 -105.5010 0.0000 51.9743
#
#
#
# Elastic Compliance Matrix: (Units=1/GPa)
#
#
# Indices 1 2 3 4 5 6 
#
# 1 0.013327 0.001273 -0.004100 0.000000 0.003599 0.000000
# 2 0.001273 0.044945 -0.013552 0.000000 -0.003599 0.000000
# 3 -0.004100 -0.013552 0.014445 0.000000 -0.000165 0.000000
# 4 0.000000 0.000000 0.000000 0.008574 0.000000 0.017403
# 5 0.003599 -0.003599 -0.000165 0.000000 0.020436 0.000000
# 6 0.000000 0.000000 0.000000 0.017403 0.000000 0.054567
#
#
# Mechanical properties :
#
#
# Convention : Reuss Voigt Hill
#
# Bulk Modulus (GPa) = 25.02529 40.00951 32.51740
# Shear Modulus (GPa) = 24.70712 97.69928 61.20320
#
# Velocity S-wave (km/s) = 3.35749 6.67651 5.28434
# Velocity P-wave (km/s) = 5.14279 8.81414 7.21586
#
# Compressibility (1/GPa) = 0.03995958
#
# Stress axis : x y z
#
# Youngs Moduli (GPa) = 75.03500 22.24946 69.22869
#
# Poissons Ratio (x) = -0.02833 0.28383
# Poissons Ratio (y) = -0.09553 0.93818
# Poissons Ratio (z) = 0.30764 0.30152
#
# Static dielectric constant tensor:
#      x y z
#    x 1.922100 0.000000 -0.006920 
#    y 0.000000 1.797940 0.000000 
#    z -0.006920 0.000000 1.823760 
# 
# From -- ./inp_files/148775.got.cif
#   From: 2010.05.17/outbox.cif.g08.bks.cpg/sg12_75_cif.got.tgz:148775.got - 2010.06.03 13:09:07.
