data_PCOD9175432
_publ_section_title
;
Structure prediction by ZEFSAII (Michael W. Deem and Ramdas Pophale) SiO2 
 PCOD9175432
Probable space group: C 2/M
;
_chemical_formula_sum "Si O2"
_cell_formula_units_Z 64
_cell_length_a 22.563194
_cell_length_b 13.792500
_cell_length_c 13.065239
_cell_angle_alpha 90.000000
_cell_angle_beta 70.971411
_cell_angle_gamma 90.000000
_cell_volume 3843.760483
_symmetry_space_group_name_H-M "C 2/M"
_symmetry_group_IT_number 12
_symmetry_cell_setting 'monoclinic'
loop_
_space_group_symop_operation_xyz
x,y,z
-x,y,-z
-x,-y,-z
x,-y,z
1/2+x,1/2+y,z
1/2-x,1/2+y,-z
1/2-x,1/2-y,-z
1/2+x,1/2-y,z
loop_
_atom_site_type_symbol
_atom_site_label
_atom_site_fract_x
_atom_site_fract_y
_atom_site_fract_z
Si Si1 0.633441 0.698074 0.250963
Si Si2 0.500996 0.383662 0.376925
Si Si3 0.227354 0.889358 0.708482
Si Si4 0.739345 0.115963 0.899326
Si Si5 0.380981 0.294996 0.334171
Si Si6 0.185988 0.612811 0.150079
Si Si7 0.326101 0.112993 0.276681
Si Si8 0.295590 0.295313 0.581806
O O1 0.566011 0.649453 0.287954
O O2 0.690341 0.656220 0.150553
O O3 0.635211 0.812407 0.223429
O O4 0.658324 0.679861 0.351588
O O5 0.500000 0.357062 0.500000
O O6 0.494339 0.500000 0.376325
O O7 0.445505 0.333987 0.343141
O O8 0.155200 0.860994 0.729314
O O9 0.253311 0.879721 0.809494
O O10 0.268447 0.810969 0.623538
O O11 0.238006 0.000000 0.670059
O O12 0.697923 0.144131 0.823334
O O13 0.744170 0.000000 0.892112
O O14 0.706276 0.140764 0.024297
O O15 0.378366 0.186443 0.289432
O O16 0.334055 0.297260 0.457301
O O17 0.166114 0.500000 0.162549
O O18 0.263472 0.132410 0.379371
O O19 0.342975 0.000000 0.267390
#
# Coordination Sequence:
#
# PCOD9175432 Si02
#       8
#     8   8   8   8   8   8   8   8
#     4  10  18  33  51  74 103 132 171 212 246 290
#     4  11  23  37  53  70  96 139 177 205 238 285
#     4   9  17  29  47  72 100 130 159 201 259 305
#     4   9  17  31  54  83 104 126 165 212 260 303
#     4  11  20  32  46  69 101 134 171 206 240 293
#     4   9  18  32  54  80 105 130 161 208 263 310
#     4   9  18  30  49  75 102 128 160 208 259 299
#     4   9  18  29  45  70 100 127 164 208 247 295
#
# _framework density 16.650361
#
# number of rings (size 3 to 8) (size 9 to 14) (size 15 to 20)
#    0.000    2.375    1.250    3.375    0.000    3.000 
#    0.000    0.625    0.000    3.750    0.000    8.750 
#    0.000    0.000    0.000    0.000    0.000    0.000 
#
# Total GULP energy -178218.230355 kJ/mol
# GULP energy per Si atom -5569.319699 kJ/mol
# Density = 1.661246 g / cm^3
# Si number density = 16.650361 Si / 1000 Ang^3
#
#
#
# Elastic Constant Matrix: (Units=GPa)
#
#
# Indices 1 2 3 4 5 6 
#
# 1 107.6719 43.7870 20.8579 0.0000 9.7003 0.0000
# 2 43.7870 80.9677 14.3742 0.0000 4.0806 0.0000
# 3 20.8579 14.3742 53.0396 0.0000 6.6528 0.0000
# 4 0.0000 0.0000 0.0000 16.9601 0.0000 8.0914
# 5 9.7003 4.0806 6.6528 0.0000 10.4091 0.0000
# 6 0.0000 0.0000 0.0000 8.0914 0.0000 22.6312
#
#
#
# Elastic Compliance Matrix: (Units=1/GPa)
#
#
# Indices 1 2 3 4 5 6 
#
# 1 0.013009 -0.006196 -0.002414 0.000000 -0.008151 0.000000
# 2 -0.006196 0.016018 -0.002001 0.000000 0.000774 0.000000
# 3 -0.002414 -0.002001 0.021705 0.000000 -0.010838 0.000000
# 4 0.000000 0.000000 0.000000 0.071087 0.000000 -0.025416
# 5 -0.008151 0.000774 -0.010838 0.000000 0.110289 0.000000
# 6 0.000000 0.000000 0.000000 -0.025416 0.000000 0.053274
#
#
# Mechanical properties :
#
#
# Convention : Reuss Voigt Hill
#
# Bulk Modulus (GPa) = 33.88844 44.41305 39.15074
# Shear Modulus (GPa) = 15.80069 20.84411 18.32240
#
# Velocity S-wave (km/s) = 3.08388 3.54202 3.32086
# Velocity P-wave (km/s) = 5.75131 6.59240 6.18616
#
# Compressibility (1/GPa) = 0.02950859
#
# Stress axis : x y z
#
# Youngs Moduli (GPa) = 76.86860 62.43121 46.07215
#
# Poissons Ratio (x) = 0.38682 0.11123
# Poissons Ratio (y) = 0.47627 0.09221
# Poissons Ratio (z) = 0.18559 0.12495
#
# Static dielectric constant tensor:
#      x y z
#    x 1.567560 0.000000 0.037750 
#    y 0.000000 1.597470 0.000000 
#    z 0.037750 0.000000 1.578510 
# 
# From -- ./inp_files/176114.got.cif
#   From: 2010.05.17/outbox.cif.g08.bks.cpg/sg12_89_cif.got.tgz:176114.got - 2010.06.03 13:09:07.
