data_PCOD9175491
_publ_section_title
;
Structure prediction by ZEFSAII (Michael W. Deem and Ramdas Pophale) SiO2 
 PCOD9175491
Probable space group: C 2/M
;
_chemical_formula_sum "Si O2"
_cell_formula_units_Z 56
_cell_length_a 11.979554
_cell_length_b 20.844578
_cell_length_c 13.906239
_cell_angle_alpha 90.000000
_cell_angle_beta 120.988922
_cell_angle_gamma 90.000000
_cell_volume 2976.867359
_symmetry_space_group_name_H-M "C 2/M"
_symmetry_group_IT_number 12
_symmetry_cell_setting 'monoclinic'
loop_
_space_group_symop_operation_xyz
x,y,z
-x,y,-z
-x,-y,-z
x,-y,z
1/2+x,1/2+y,z
1/2-x,1/2+y,-z
1/2-x,1/2-y,-z
1/2+x,1/2-y,z
loop_
_atom_site_type_symbol
_atom_site_label
_atom_site_fract_x
_atom_site_fract_y
_atom_site_fract_z
Si Si1 0.280673 0.839254 0.602392
Si Si2 0.271803 0.675539 0.986481
Si Si3 0.153295 0.568345 0.063787
Si Si4 0.992153 0.166801 0.222260
Si Si5 0.141588 0.926625 0.684320
Si Si6 0.217022 0.691232 0.616113
Si Si7 0.569870 0.188276 0.737700
O O1 0.179675 0.888929 0.604483
O O2 0.229548 0.768015 0.606178
O O3 0.289998 0.840916 0.491355
O O4 0.431606 0.843603 0.704377
O O5 0.197221 0.665484 0.853051
O O6 0.250000 0.750000 0.000000
O O7 0.194282 0.630510 0.024913
O O8 0.419126 0.660592 0.086765
O O9 0.198518 0.500000 0.039308
O O10 0.221726 0.571224 0.197033
O O11 0.000000 0.567318 0.000000
O O12 0.948748 0.113568 0.281589
O O13 0.949910 0.235860 0.248375
O O14 0.145948 0.168724 0.278817
O O15 0.097370 0.000000 0.649954
O O16 0.102115 0.679304 0.640086
#
# Coordination Sequence:
#
# PCOD9175491 Si02
#       7
#     8   8   8   8   8   8   8
#     4  10  20  33  52  78 100 134 178 212 258 303
#     4   9  18  31  47  76 107 135 166 212 260 307
#     4   9  17  30  51  77 105 137 170 212 265 314
#     4   9  19  34  49  78 107 132 172 207 262 315
#     4  10  19  34  55  77 107 137 171 220 260 307
#     4  10  20  33  53  73 105 138 168 218 255 305
#     4  10  18  33  53  76 106 134 168 217 259 305
#
# _framework density 18.811722
#
# number of rings (size 3 to 8) (size 9 to 14) (size 15 to 20)
#    0.000    2.429    1.429    1.286    0.000    1.143 
#    0.000    1.429    0.000    4.286    0.000    4.000 
#    0.000    0.000    0.000    0.000    0.000    0.000 
#
# Total GULP energy -155902.550377 kJ/mol
# GULP energy per Si atom -5567.948228 kJ/mol
# Density = 1.876891 g / cm^3
# Si number density = 18.811722 Si / 1000 Ang^3
#
#
#
# Elastic Constant Matrix: (Units=GPa)
#
#
# Indices 1 2 3 4 5 6 
#
# 1 34.3856 18.7900 -1.5389 0.0000 -3.9138 0.0000
# 2 18.7900 83.8959 9.3834 0.0000 -8.3364 0.0000
# 3 -1.5389 9.3834 56.9141 0.0000 -3.3501 0.0000
# 4 0.0000 0.0000 0.0000 15.5331 0.0000 -11.9377
# 5 -3.9138 -8.3364 -3.3501 0.0000 28.2143 0.0000
# 6 0.0000 0.0000 0.0000 -11.9377 0.0000 -21.7218
#
#
#
# Elastic Compliance Matrix: (Units=1/GPa)
#
#
# Indices 1 2 3 4 5 6 
#
# 1 0.033600 -0.007514 0.002307 0.000000 0.002715 0.000000
# 2 -0.007514 0.014151 -0.002368 0.000000 0.002858 0.000000
# 3 0.002307 -0.002368 0.018127 0.000000 0.001773 0.000000
# 4 0.000000 0.000000 0.000000 0.045262 0.000000 -0.024874
# 5 0.002715 0.002858 0.001773 0.000000 0.036875 0.000000
# 6 0.000000 0.000000 0.000000 -0.024874 0.000000 -0.032366
#
#
# Mechanical properties :
#
#
# Convention : Reuss Voigt Hill
#
# Bulk Modulus (GPa) = 19.71240 25.38494 22.54867
# Shear Modulus (GPa) = 33.85072 14.30920 24.07996
#
# Velocity S-wave (km/s) = 4.24659 2.76099 3.58166
# Velocity P-wave (km/s) = 5.87761 4.86699 5.39601
#
# Compressibility (1/GPa) = 0.05072949
#
# Stress axis : x y z
#
# Youngs Moduli (GPa) = 29.76195 70.66563 55.16488
#
# Poissons Ratio (x) = 0.53095 -0.12727
# Poissons Ratio (y) = 0.22362 0.13063
# Poissons Ratio (z) = -0.06866 0.16734
#
# Static dielectric constant tensor:
#      x y z
#    x 1.630770 0.000000 0.049460 
#    y 0.000000 1.655240 0.000000 
#    z 0.049460 0.000000 1.769330 
# 
# From -- ./inp_files/133981.got.cif
#   From: 2010.05.17/outbox.cif.g08.bks.cpg/sg12_67_cif.got.tgz:133981.got - 2010.06.03 13:09:07.
