data_PCOD9175842
_publ_section_title
;
Structure prediction by ZEFSAII (Michael W. Deem and Ramdas Pophale) SiO2 
 PCOD9175842
Probable space group: C 2/M
;
_chemical_formula_sum "Si O2"
_cell_formula_units_Z 64
_cell_length_a 34.447052
_cell_length_b 8.498719
_cell_length_c 18.498254
_cell_angle_alpha 90.000000
_cell_angle_beta 143.394150
_cell_angle_gamma 90.000000
_cell_volume 3229.282662
_symmetry_space_group_name_H-M "C 2/M"
_symmetry_group_IT_number 12
_symmetry_cell_setting 'monoclinic'
loop_
_space_group_symop_operation_xyz
x,y,z
-x,y,-z
-x,-y,-z
x,-y,z
1/2+x,1/2+y,z
1/2-x,1/2+y,-z
1/2-x,1/2-y,-z
1/2+x,1/2-y,z
loop_
_atom_site_type_symbol
_atom_site_label
_atom_site_fract_x
_atom_site_fract_y
_atom_site_fract_z
Si Si1 0.414610 0.817028 0.579942
Si Si2 0.447559 0.684044 0.229306
Si Si3 0.293703 0.685897 0.630564
Si Si4 0.930984 0.313169 0.046479
Si Si5 0.078136 0.686224 0.240604
Si Si6 0.930010 0.808433 0.363035
Si Si7 0.204118 0.812848 0.205576
Si Si8 0.174419 0.187332 0.673637
O O1 0.474582 0.706473 0.647842
O O2 0.401120 0.794333 0.644417
O O3 0.355602 0.775448 0.440302
O O4 0.433870 0.000000 0.599846
O O5 0.431815 0.500000 0.195849
O O6 0.429023 0.776538 0.129314
O O7 0.420715 0.741970 0.266127
O O8 0.283986 0.500000 0.617569
O O9 0.250000 0.750000 0.500000
O O10 0.369155 0.724686 0.727778
O O11 0.277782 0.747591 0.686920
O O12 0.925916 0.500000 0.027786
O O13 0.002580 0.263225 0.124952
O O14 0.870957 0.227182 0.920189
O O15 0.080950 0.500000 0.227925
O O16 0.870255 0.763759 0.325342
O O17 0.000000 0.755126 0.500000
O O18 0.932911 0.000000 0.365732
O O19 0.250098 0.733227 0.214485
O O20 0.213463 0.000000 0.216706
O O21 0.167699 0.000000 0.655368
#
# Coordination Sequence:
#
# PCOD9175842 Si02
#       8
#     8   8   8   8   8   8   8   8
#     4  10  19  32  51  82 120 153 187 234 286 341
#     4  10  18  33  58  84 115 153 189 235 288 338
#     4  11  24  40  61  88 120 152 188 234 286 343
#     4  10  22  41  62  86 115 151 197 242 284 339
#     4   9  20  37  58  84 116 150 189 237 285 335
#     4   9  17  32  54  86 121 149 187 237 287 343
#     4  11  25  43  59  82 116 153 193 241 289 341
#     4  11  21  35  57  83 113 153 196 237 290 349
#
# _framework density 19.818645
#
# number of rings (size 3 to 8) (size 9 to 14) (size 15 to 20)
#    0.000    1.875    1.250    3.750    0.000    8.500 
#    0.000    6.250    0.000    0.000    0.000    0.000 
#    0.000    0.000    0.000    0.000    0.000    0.000 
#
# Total GULP energy -178674.487897 kJ/mol
# GULP energy per Si atom -5583.577747 kJ/mol
# Density = 1.977354 g / cm^3
# Si number density = 19.818645 Si / 1000 Ang^3
#
#
#
# Elastic Constant Matrix: (Units=GPa)
#
#
# Indices 1 2 3 4 5 6 
#
# 1 114.6226 17.7080 32.7405 0.0000 13.6666 0.0000
# 2 17.7080 23.7628 -4.3242 0.0000 1.1246 0.0000
# 3 32.7405 -4.3242 56.0507 0.0000 4.5431 0.0000
# 4 0.0000 0.0000 0.0000 30.6532 0.0000 4.8144
# 5 13.6666 1.1246 4.5431 0.0000 14.3922 0.0000
# 6 0.0000 0.0000 0.0000 4.8144 0.0000 19.8466
#
#
#
# Elastic Compliance Matrix: (Units=1/GPa)
#
#
# Indices 1 2 3 4 5 6 
#
# 1 0.014042 -0.011509 -0.008294 0.000000 -0.009816 0.000000
# 2 -0.011509 0.052399 0.010479 0.000000 0.003526 0.000000
# 3 -0.008294 0.010479 0.023524 0.000000 -0.000368 0.000000
# 4 0.000000 0.000000 0.000000 0.033915 0.000000 -0.008227
# 5 -0.009816 0.003526 -0.000368 0.000000 0.078645 0.000000
# 6 0.000000 0.000000 0.000000 -0.008227 0.000000 0.052382
#
#
# Mechanical properties :
#
#
# Convention : Reuss Voigt Hill
#
# Bulk Modulus (GPa) = 14.02188 31.85385 22.93786
# Shear Modulus (GPa) = 16.81648 22.86584 19.84116
#
# Velocity S-wave (km/s) = 2.91609 3.40038 3.16751
# Velocity P-wave (km/s) = 4.29285 5.61465 4.99765
#
# Compressibility (1/GPa) = 0.07131711
#
# Stress axis : x y z
#
# Youngs Moduli (GPa) = 71.21543 19.08436 42.50928
#
# Poissons Ratio (x) = 0.21964 0.35259
# Poissons Ratio (y) = 0.81960 -0.44546
# Poissons Ratio (z) = 0.59069 -0.19999
#
# Static dielectric constant tensor:
#      x y z
#    x 1.720620 0.000000 -0.007160 
#    y 0.000000 1.671140 0.000000 
#    z -0.007160 0.000000 1.712410 
# 
# From -- ./inp_files/295819.got.cif
#   From: 2010.05.17/outbox.cif.g08.bks.cpg/sg12_148_cif.got.tgz:295819.got - 2010.06.03 13:09:07.
