data_PCOD9175536
_publ_section_title
;
Structure prediction by ZEFSAII (Michael W. Deem and Ramdas Pophale) SiO2 
 PCOD9175536
Probable space group: C 2/M
;
_chemical_formula_sum "Si O2"
_cell_formula_units_Z 32
_cell_length_a 16.049009
_cell_length_b 13.502122
_cell_length_c 7.067125
_cell_angle_alpha 90.000000
_cell_angle_beta 116.786979
_cell_angle_gamma 90.000000
_cell_volume 1367.076587
_symmetry_space_group_name_H-M "C 2/M"
_symmetry_group_IT_number 12
_symmetry_cell_setting 'monoclinic'
loop_
_space_group_symop_operation_xyz
x,y,z
-x,y,-z
-x,-y,-z
x,-y,z
1/2+x,1/2+y,z
1/2-x,1/2+y,-z
1/2-x,1/2-y,-z
1/2+x,1/2-y,z
loop_
_atom_site_type_symbol
_atom_site_label
_atom_site_fract_x
_atom_site_fract_y
_atom_site_fract_z
Si Si1 0.319039 0.500000 0.689218
Si Si2 0.608152 0.391118 0.555977
Si Si3 0.407004 0.798915 0.279203
Si Si4 0.000000 0.670565 0.000000
Si Si5 0.133759 0.500000 0.255725
Si Si6 0.202736 0.500000 0.899455
O O1 0.371065 0.405885 0.645856
O O2 0.214861 0.500000 0.492159
O O3 0.301887 0.500000 0.892786
O O4 0.500000 0.383277 0.500000
O O5 0.635669 0.500000 0.656407
O O6 0.650222 0.293148 0.690101
O O7 0.500000 0.815066 0.500000
O O8 0.441100 0.774338 0.100456
O O9 0.348844 0.899191 0.217092
O O10 0.931861 0.596471 0.812936
O O11 0.182392 0.500000 0.101248
#
# Coordination Sequence:
#
# PCOD9175536 Si02
#       6
#     4   8   8   4   4   4
#     4  10  18  35  53  71 104 142 162 205 258 288
#     4   8  18  36  55  70 100 135 175 212 240 293
#     4  10  18  33  54  76 102 132 168 208 253 301
#     4   9  18  32  51  78 104 132 163 209 254 296
#     4   9  18  33  51  76 110 128 163 210 251 308
#     4  10  20  30  51  83 102 126 166 207 259 309
#
# _framework density 23.407613000000001
#
# number of rings (size 3 to 8) (size 9 to 14) (size 15 to 20)
#    0.750    2.000    0.000    2.625    0.000    1.000 
#    0.000   10.625    0.000    0.000    0.000    0.000 
#    0.000    0.000    0.000    0.000    0.000    0.000 
#
# Total GULP energy -89175.328182 kJ/mol
# GULP energy per Si atom -5573.458011 kJ/mol
# Density = 2.335434 g / cm^3
# Si number density = 23.407613 Si / 1000 Ang^3
#
#
#
# Elastic Constant Matrix: (Units=GPa)
#
#
# Indices 1 2 3 4 5 6 
#
# 1 76.6197 9.0161 10.6717 0.0000 -33.1017 0.0000
# 2 9.0161 122.0875 17.3448 0.0000 -26.3115 0.0000
# 3 10.6717 17.3448 77.5370 0.0000 -42.8485 0.0000
# 4 0.0000 0.0000 0.0000 -129.1301 0.0000 3.0704
# 5 -33.1017 -26.3115 -42.8485 0.0000 57.9780 0.0000
# 6 0.0000 0.0000 0.0000 3.0704 0.0000 -35.8011
#
#
#
# Elastic Compliance Matrix: (Units=1/GPa)
#
#
# Indices 1 2 3 4 5 6 
#
# 1 0.018806 0.001134 0.005707 0.000000 0.015469 0.000000
# 2 0.001134 0.009155 0.000760 0.000000 0.005364 0.000000
# 3 0.005707 0.000760 0.023551 0.000000 0.021009 0.000000
# 4 0.000000 0.000000 0.000000 -0.007760 0.000000 -0.000666
# 5 0.015469 0.005364 0.021009 0.000000 0.044041 0.000000
# 6 0.000000 0.000000 0.000000 -0.000666 0.000000 -0.027989
#
#
# Mechanical properties :
#
#
# Convention : Reuss Voigt Hill
#
# Bulk Modulus (GPa) = 14.98903 38.92325 26.95614
# Shear Modulus (GPa) = 74.80470 -5.44321 34.68074
#
# Velocity S-wave (km/s) = 5.65922 -1.52658 3.85333
# Velocity P-wave (km/s) = 7.00855 3.68202 5.59808
#
# Compressibility (1/GPa) = 0.06671545
#
# Stress axis : x y z
#
# Youngs Moduli (GPa) = 53.17340 109.22815 42.46030
#
# Poissons Ratio (x) = -0.12390 -0.24230
# Poissons Ratio (y) = -0.06032 -0.03228
# Poissons Ratio (z) = -0.30344 -0.08305
#
# Static dielectric constant tensor:
#      x y z
#    x 1.909990 0.000000 0.029320 
#    y 0.000000 1.921920 0.000000 
#    z 0.029320 0.000000 1.942150 
# 
# From -- ./inp_files/57938.got.cif
#   From: 2010.05.17/outbox.cif.g08.bks.cpg/sg12_29_cif.got.tgz:57938.got - 2010.06.03 13:09:07.
