data_PCOD9175486
_publ_section_title
;
Structure prediction by ZEFSAII (Michael W. Deem and Ramdas Pophale) SiO2 
 PCOD9175486
Probable space group: C 2/M
;
_chemical_formula_sum "Si O2"
_cell_formula_units_Z 56
_cell_length_a 12.239381
_cell_length_b 29.293464
_cell_length_c 13.838439
_cell_angle_alpha 90.000000
_cell_angle_beta 144.797522
_cell_angle_gamma 90.000000
_cell_volume 2860.172550
_symmetry_space_group_name_H-M "C 2/M"
_symmetry_group_IT_number 12
_symmetry_cell_setting 'monoclinic'
loop_
_space_group_symop_operation_xyz
x,y,z
-x,y,-z
-x,-y,-z
x,-y,z
1/2+x,1/2+y,z
1/2-x,1/2+y,-z
1/2-x,1/2-y,-z
1/2+x,1/2-y,z
loop_
_atom_site_type_symbol
_atom_site_label
_atom_site_fract_x
_atom_site_fract_y
_atom_site_fract_z
Si Si1 0.472736 0.553078 0.807055
Si Si2 0.794026 0.599650 0.528667
Si Si3 0.193521 0.767830 0.603341
Si Si4 0.899129 0.188922 0.672111
Si Si5 0.756682 0.123930 0.084404
Si Si6 0.808735 0.365725 0.748289
Si Si7 0.631838 0.052186 0.691558
O O1 0.519009 0.500000 0.849805
O O2 0.337940 0.561499 0.615956
O O3 0.653126 0.584484 0.916586
O O4 0.338544 0.565988 0.801335
O O5 0.742934 0.645396 0.430982
O O6 0.741748 0.610286 0.601414
O O7 0.011957 0.584703 0.674531
O O8 0.141705 0.787914 0.460679
O O9 0.350698 0.728834 0.711613
O O10 0.247278 0.812709 0.702380
O O11 0.000000 0.745965 0.500000
O O12 0.106761 0.167506 0.831533
O O13 0.765491 0.112693 0.205842
O O14 0.536672 0.133019 0.908268
O O15 0.500000 0.051150 0.500000
O O16 0.642699 0.000000 0.735977
#
# Coordination Sequence:
#
# PCOD9175486 Si02
#       7
#     8   8   8   8   8   8   8
#     4   9  18  33  55  79 105 135 172 218 260 308
#     4   9  17  31  53  79 104 133 174 210 260 306
#     4  10  18  33  53  76 100 125 169 219 258 302
#     4   9  19  30  52  78  98 128 169 213 255 302
#     4  10  20  37  53  73 104 146 178 202 263 312
#     4  10  21  35  53  72 104 144 173 215 256 310
#     4   8  14  28  51  78 104 130 162 208 259 305
#
# _framework density 19.579236999999999
#
# number of rings (size 3 to 8) (size 9 to 14) (size 15 to 20)
#    0.000    2.714    1.429    1.286    0.000    3.429 
#    0.000    5.714    0.000    1.714    0.000    0.000 
#    0.000    0.000    0.000    0.000    0.000    0.000 
#
# Total GULP energy -156017.842288 kJ/mol
# GULP energy per Si atom -5572.065796 kJ/mol
# Density = 1.953467 g / cm^3
# Si number density = 19.579237 Si / 1000 Ang^3
#
#
#
# Elastic Constant Matrix: (Units=GPa)
#
#
# Indices 1 2 3 4 5 6 
#
# 1 53.7641 15.6541 6.5040 0.0000 28.7841 0.0000
# 2 15.6541 35.3005 -1.5735 0.0000 13.7770 0.0000
# 3 6.5040 -1.5735 58.6472 0.0000 16.7161 0.0000
# 4 0.0000 0.0000 0.0000 1.6535 0.0000 11.2755
# 5 28.7841 13.7770 16.7161 0.0000 32.0994 0.0000
# 6 0.0000 0.0000 0.0000 11.2755 0.0000 29.9913
#
#
#
# Elastic Compliance Matrix: (Units=1/GPa)
#
#
# Indices 1 2 3 4 5 6 
#
# 1 0.037889 -0.002467 0.006006 0.000000 -0.036044 0.000000
# 2 -0.002467 0.036061 0.005897 0.000000 -0.016336 0.000000
# 3 0.006006 0.005897 0.022077 0.000000 -0.019413 0.000000
# 4 0.000000 0.000000 0.000000 -0.386750 0.000000 0.145403
# 5 -0.036044 -0.016336 -0.019413 0.000000 0.080596 0.000000
# 6 0.000000 0.000000 0.000000 0.145403 0.000000 -0.021323
#
#
# Mechanical properties :
#
#
# Convention : Reuss Voigt Hill
#
# Bulk Modulus (GPa) = 8.70338 20.98678 14.84508
# Shear Modulus (GPa) = -23.58233 21.22398 -1.17917
#
# Velocity S-wave (km/s) = -3.47429 3.29599 -0.77689
# Velocity P-wave (km/s) = 3.41166 5.02264 2.60648
#
# Compressibility (1/GPa) = 0.11489783
#
# Stress axis : x y z
#
# Youngs Moduli (GPa) = 26.39296 27.73108 45.29684
#
# Poissons Ratio (x) = 0.06841 -0.27203
# Poissons Ratio (y) = 0.06511 -0.26713
# Poissons Ratio (z) = -0.15850 -0.16354
#
# Static dielectric constant tensor:
#      x y z
#    x 1.712860 0.000000 0.000480 
#    y 0.000000 1.676290 0.000000 
#    z 0.000480 0.000000 1.717420 
# 
# From -- ./inp_files/209708.got.cif
#   From: 2010.05.17/outbox.cif.g08.bks.cpg/sg12_105_cif.got.tgz:209708.got - 2010.06.03 13:09:07.
