data_PCOD9175336
_publ_section_title
;
Structure prediction by ZEFSAII (Michael W. Deem and Ramdas Pophale) SiO2 
 PCOD9175336
Probable space group: C 2/M
;
_chemical_formula_sum "Si O2"
_cell_formula_units_Z 40
_cell_length_a 14.112683
_cell_length_b 14.997436
_cell_length_c 17.561179
_cell_angle_alpha 90.000000
_cell_angle_beta 148.791918
_cell_angle_gamma 90.000000
_cell_volume 1925.900360
_symmetry_space_group_name_H-M "C 2/M"
_symmetry_group_IT_number 12
_symmetry_cell_setting 'monoclinic'
loop_
_space_group_symop_operation_xyz
x,y,z
-x,y,-z
-x,-y,-z
x,-y,z
1/2+x,1/2+y,z
1/2-x,1/2+y,-z
1/2-x,1/2-y,-z
1/2+x,1/2-y,z
loop_
_atom_site_type_symbol
_atom_site_label
_atom_site_fract_x
_atom_site_fract_y
_atom_site_fract_z
Si Si1 0.289258 0.500000 0.733373
Si Si2 0.000000 0.778230 0.500000
Si Si3 0.626575 0.000000 0.792695
Si Si4 0.625820 0.307349 0.193991
Si Si5 0.244543 0.698841 0.892882
Si Si6 0.751226 0.000000 0.541661
Si Si7 0.923390 0.183983 0.616818
O O1 0.198348 0.500000 0.754102
O O2 0.405205 0.410761 0.810195
O O3 0.175968 0.500000 0.576743
O O4 0.192813 0.724241 0.636749
O O5 0.011905 0.826721 0.426714
O O6 0.685608 0.095701 0.868645
O O7 0.409185 0.000000 0.630718
O O8 0.689108 0.303105 0.149813
O O9 0.423655 0.265723 0.060670
O O10 0.076583 0.766674 0.772041
O O11 0.866963 0.088801 0.609615
O O12 0.750000 0.250000 0.500000
#
# Coordination Sequence:
#
# PCOD9175336 Si02
#       7
#     4   4   4   8   8   4   8
#     4  10  20  30  53  90 116 141 187 235 295 346
#     4  10  22  38  60  84 110 156 198 231 282 335
#     4  10  18  32  59  84 119 148 182 231 295 347
#     4   9  18  32  58  87 114 146 187 231 293 349
#     4   9  18  34  57  86 118 149 179 233 293 345
#     4  12  23  35  56  84 116 152 196 236 275 333
#     4  11  22  39  60  85 116 152 194 235 284 335
#
# _framework density 20.769506
#
# number of rings (size 3 to 8) (size 9 to 14) (size 15 to 20)
#    0.000    2.000    2.000    2.100    5.600    2.800 
#    0.000    4.000    0.000    9.600    0.000    0.000 
#    0.000    0.000    0.000    0.000    0.000    0.000 
#
# Total GULP energy -111454.198376 kJ/mol
# GULP energy per Si atom -5572.709919 kJ/mol
# Density = 2.072223 g / cm^3
# Si number density = 20.769506 Si / 1000 Ang^3
#
#
#
# Elastic Constant Matrix: (Units=GPa)
#
#
# Indices 1 2 3 4 5 6 
#
# 1 80.0701 32.4879 21.1817 0.0005 -11.1867 0.0001
# 2 32.4879 126.3472 51.8804 0.0016 22.5620 0.0003
# 3 21.1817 51.8804 153.7600 0.0052 32.0631 0.0010
# 4 0.0005 0.0016 0.0052 13.1524 0.0018 3.2441
# 5 -11.1867 22.5620 32.0631 0.0018 44.6560 0.0004
# 6 0.0001 0.0003 0.0010 3.2441 0.0004 21.7160
#
#
#
# Elastic Compliance Matrix: (Units=1/GPa)
#
#
# Indices 1 2 3 4 5 6 
#
# 1 0.016106 -0.004618 -0.002339 0.000000 0.008047 0.000000
# 2 -0.004618 0.010829 -0.001923 0.000000 -0.005247 0.000000
# 3 -0.002339 -0.001923 0.008696 -0.000002 -0.005858 0.000000
# 4 0.000000 0.000000 -0.000002 0.078940 -0.000002 -0.011793
# 5 0.008047 -0.005247 -0.005858 -0.000002 0.031266 0.000000
# 6 0.000000 0.000000 0.000000 -0.011793 0.000000 0.047811
#
#
# Mechanical properties :
#
#
# Convention : Reuss Voigt Hill
#
# Bulk Modulus (GPa) = 55.95685 63.47526 59.71606
# Shear Modulus (GPa) = 23.00277 32.88004 27.94140
#
# Velocity S-wave (km/s) = 3.33156 3.98313 3.67182
# Velocity P-wave (km/s) = 6.46524 7.19596 6.84037
#
# Compressibility (1/GPa) = 0.01787091
#
# Stress axis : x y z
#
# Youngs Moduli (GPa) = 62.09007 92.34540 114.99086
#
# Poissons Ratio (x) = 0.42645 0.26891
# Poissons Ratio (y) = 0.28673 0.22118
# Poissons Ratio (z) = 0.14520 0.17763
#
# Static dielectric constant tensor:
#      x y z
#    x 1.786200 0.000000 -0.026570 
#    y 0.000000 1.691510 0.000000 
#    z -0.026570 0.000000 1.828590 
# 
# From -- ./inp_files/270839.got.cif
#   From: 2010.05.17/outbox.cif.g08.bks.cpg/sg12_136_cif.got.tgz:270839.got - 2010.06.03 13:09:07.
