data_PCOD9175522
_publ_section_title
;
Structure prediction by ZEFSAII (Michael W. Deem and Ramdas Pophale) SiO2 
 PCOD9175522
Probable space group: C 2/M
;
_chemical_formula_sum "Si O2"
_cell_formula_units_Z 64
_cell_length_a 25.987685
_cell_length_b 7.335110
_cell_length_c 12.626905
_cell_angle_alpha 90.000000
_cell_angle_beta 82.466107
_cell_angle_gamma 90.000000
_cell_volume 2386.194305
_symmetry_space_group_name_H-M "C 2/M"
_symmetry_group_IT_number 12
_symmetry_cell_setting 'monoclinic'
loop_
_space_group_symop_operation_xyz
x,y,z
-x,y,-z
-x,-y,-z
x,-y,z
1/2+x,1/2+y,z
1/2-x,1/2+y,-z
1/2-x,1/2-y,-z
1/2+x,1/2-y,z
loop_
_atom_site_type_symbol
_atom_site_label
_atom_site_fract_x
_atom_site_fract_y
_atom_site_fract_z
Si Si1 0.836065 0.210789 0.969425
Si Si2 0.836691 0.776720 0.288535
Si Si3 0.876876 0.792538 0.666122
Si Si4 0.559645 0.276161 0.149826
Si Si5 0.191755 0.782012 0.479045
Si Si6 0.052191 0.281843 0.549127
Si Si7 0.249272 0.780400 0.840691
Si Si8 0.554451 0.293439 0.795284
O O1 0.894596 0.281215 0.942799
O O2 0.806090 0.220680 0.864083
O O3 0.841532 0.000000 0.997967
O O4 0.793036 0.287737 0.059981
O O5 0.839590 0.714271 0.408708
O O6 0.781622 0.720981 0.255069
O O7 0.887335 0.715740 0.208718
O O8 0.838153 0.000000 0.287866
O O9 0.915689 0.715122 0.743808
O O10 0.824231 0.705871 0.632299
O O11 0.906500 0.792114 0.545631
O O12 0.868081 0.000000 0.702086
O O13 0.557125 0.500000 0.150352
O O14 0.500417 0.213393 0.150698
O O15 0.250000 0.750000 0.500000
O O16 0.186196 0.000000 0.473289
O O17 0.056874 0.500000 0.557532
O O18 0.049589 0.203187 0.668044
O O19 0.000000 0.240624 0.500000
O O20 0.250822 0.000000 0.842724
O O21 0.556531 0.500000 0.837023
#
# Coordination Sequence:
#
# PCOD9175522 Si02
#       8
#     8   8   8   8   8   8   8   8
#     4   9  18  34  54  78 103 125 162 211 250 297
#     4   9  18  33  52  74  99 131 170 204 241 301
#     4  10  19  33  51  69  94 135 175 204 241 294
#     4   9  18  30  51  78  99 125 167 211 248 288
#     4  10  21  34  48  70 101 134 170 207 247 295
#     4  11  21  31  45  70 102 130 164 209 250 285
#     4   9  18  34  55  76 101 132 162 202 255 300
#     4  10  18  33  54  71  96 136 173 203 245 303
#
# _framework density 26.820952999999999
#
# number of rings (size 3 to 8) (size 9 to 14) (size 15 to 20)
#    0.000    2.375    2.500    0.375    1.750    1.000 
#    0.000    2.500    0.000    3.750    0.000    0.000 
#    0.000    5.000    0.000    0.000    0.000    0.000 
#
# Total GULP energy -178704.143194 kJ/mol
# GULP energy per Si atom -5584.504475 kJ/mol
# Density = 2.675991 g / cm^3
# Si number density = 26.820953 Si / 1000 Ang^3
#
#
#
# Elastic Constant Matrix: (Units=GPa)
#
#
# Indices 1 2 3 4 5 6 
#
# 1 157.8781 -0.5938 -5.6467 0.0000 -30.2583 0.0000
# 2 -0.5938 105.6417 -3.7884 0.0000 -0.0989 0.0000
# 3 -5.6467 -3.7884 58.3684 0.0000 -6.7432 0.0000
# 4 0.0000 0.0000 0.0000 -26.5251 0.0000 11.3511
# 5 -30.2583 -0.0989 -6.7432 0.0000 43.7022 0.0000
# 6 0.0000 0.0000 0.0000 11.3511 0.0000 14.9427
#
#
#
# Elastic Compliance Matrix: (Units=1/GPa)
#
#
# Indices 1 2 3 4 5 6 
#
# 1 0.007404 0.000095 0.001339 0.000000 0.005333 0.000000
# 2 0.000095 0.009490 0.000647 0.000000 0.000187 0.000000
# 3 0.001339 0.000647 0.017727 0.000000 0.003664 0.000000
# 4 0.000000 0.000000 0.000000 -0.028451 0.000000 0.021613
# 5 0.005333 0.000187 0.003664 0.000000 0.027141 0.000000
# 6 0.000000 0.000000 0.000000 0.021613 0.000000 0.050504
#
#
# Mechanical properties :
#
#
# Convention : Reuss Voigt Hill
#
# Bulk Modulus (GPa) = 25.78559 33.53671 29.66115
# Shear Modulus (GPa) = 54.00591 28.55178 41.27885
#
# Velocity S-wave (km/s) = 4.49215 3.26626 3.92733
# Velocity P-wave (km/s) = 6.04489 5.17259 5.62567
#
# Compressibility (1/GPa) = 0.03878136
#
# Stress axis : x y z
#
# Youngs Moduli (GPa) = 135.05466 105.37567 56.41025
#
# Poissons Ratio (x) = -0.00997 -0.07551
# Poissons Ratio (y) = -0.01278 -0.03648
# Poissons Ratio (z) = -0.18079 -0.06814
#
# Static dielectric constant tensor:
#      x y z
#    x 2.268730 0.000000 -0.042890 
#    y 0.000000 2.652610 0.000000 
#    z -0.042890 0.000000 2.172170 
# 
# From -- ./inp_files/243987.got.cif
#   From: 2010.05.17/outbox.cif.g08.bks.cpg/sg12_122_cif.got.tgz:243987.got - 2010.06.03 13:09:07.
