data_PCOD9175073
_publ_section_title
;
Structure prediction by ZEFSAII (Michael W. Deem and Ramdas Pophale) SiO2 
 PCOD9175073
Probable space group: C 2/M
;
_chemical_formula_sum "Si O2"
_cell_formula_units_Z 48
_cell_length_a 16.607444
_cell_length_b 14.365439
_cell_length_c 10.080739
_cell_angle_alpha 90.000000
_cell_angle_beta 86.497369
_cell_angle_gamma 90.000000
_cell_volume 2400.501857
_symmetry_space_group_name_H-M "C 2/M"
_symmetry_group_IT_number 12
_symmetry_cell_setting 'monoclinic'
loop_
_space_group_symop_operation_xyz
x,y,z
-x,y,-z
-x,-y,-z
x,-y,z
1/2+x,1/2+y,z
1/2-x,1/2+y,-z
1/2-x,1/2-y,-z
1/2+x,1/2-y,z
loop_
_atom_site_type_symbol
_atom_site_label
_atom_site_fract_x
_atom_site_fract_y
_atom_site_fract_z
Si Si1 0.622859 0.218891 0.758609
Si Si2 0.587696 0.394501 0.426203
Si Si3 0.381661 0.892508 0.515391
Si Si4 0.937750 0.725272 0.738833
Si Si5 0.597237 0.894561 0.014234
Si Si6 0.293293 0.396069 0.335123
O O1 0.630765 0.165540 0.617616
O O2 0.528685 0.249090 0.774257
O O3 0.679044 0.309414 0.755670
O O4 0.635861 0.148657 0.878721
O O5 0.500000 0.375160 0.500000
O O6 0.586852 0.500000 0.374471
O O7 0.603314 0.317484 0.314171
O O8 0.651294 0.388924 0.538513
O O9 0.442407 0.845894 0.614283
O O10 0.297556 0.889178 0.604550
O O11 0.400903 0.000000 0.484068
O O12 0.892874 0.673322 0.862139
O O13 0.624289 0.000000 0.038870
O O14 0.500000 0.898736 0.000000
O O15 0.306228 0.500000 0.276779
#
# Coordination Sequence:
#
# PCOD9175073 Si02
#       6
#     8   8   8   8   8   8
#     4  11  20  35  56  82 107 143 186 222 271 324
#     4  10  18  32  55  82 109 141 181 226 273 315
#     4  11  22  34  55  83 111 141 181 227 271 323
#     4  11  20  34  56  83 107 141 183 227 271 317
#     4   9  20  36  53  76 113 148 176 220 276 324
#     4  10  21  36  55  81 114 145 175 224 279 321
#
# _framework density 19.995819000000001
#
# number of rings (size 3 to 8) (size 9 to 14) (size 15 to 20)
#    0.000    1.667    3.333    2.000    0.000    2.667 
#    0.000    1.667    0.000    3.000    0.000    0.000 
#    0.000    0.000    0.000    0.000    0.000    0.000 
#
# Total GULP energy -134077.614844 kJ/mol
# GULP energy per Si atom -5586.567285 kJ/mol
# Density = 1.995031 g / cm^3
# Si number density = 19.995819 Si / 1000 Ang^3
#
#
#
# Elastic Constant Matrix: (Units=GPa)
#
#
# Indices 1 2 3 4 5 6 
#
# 1 43.0934 1.6100 -8.2255 0.0000 -2.2362 0.0000
# 2 1.6100 151.3021 45.8742 0.0000 -17.4534 0.0000
# 3 -8.2255 45.8742 79.5804 0.0000 -11.4253 0.0000
# 4 0.0000 0.0000 0.0000 32.0033 0.0000 -8.0936
# 5 -2.2362 -17.4534 -11.4253 0.0000 15.5220 0.0000
# 6 0.0000 0.0000 0.0000 -8.0936 0.0000 21.2061
#
#
#
# Elastic Compliance Matrix: (Units=1/GPa)
#
#
# Indices 1 2 3 4 5 6 
#
# 1 0.024221 -0.000765 0.003715 0.000000 0.005363 0.000000
# 2 -0.000765 0.008619 -0.004106 0.000000 0.006559 0.000000
# 3 0.003715 -0.004106 0.016471 0.000000 0.008043 0.000000
# 4 0.000000 0.000000 0.000000 0.034585 0.000000 0.013200
# 5 0.005363 0.006559 0.008043 0.000000 0.078492 0.000000
# 6 0.000000 0.000000 0.000000 0.013200 0.000000 0.052194
#
#
# Mechanical properties :
#
#
# Convention : Reuss Voigt Hill
#
# Bulk Modulus (GPa) = 21.27716 39.16593 30.22155
# Shear Modulus (GPa) = 21.49960 29.39408 25.44684
#
# Velocity S-wave (km/s) = 3.28259 3.83823 3.57123
# Velocity P-wave (km/s) = 5.00311 6.26676 5.67025
#
# Compressibility (1/GPa) = 0.04699874
#
# Stress axis : x y z
#
# Youngs Moduli (GPa) = 41.28582 116.02386 60.71144
#
# Poissons Ratio (x) = 0.08880 -0.22553
# Poissons Ratio (y) = 0.03160 0.24927
# Poissons Ratio (z) = -0.15337 0.47637
#
# Static dielectric constant tensor:
#      x y z
#    x 1.752690 0.000000 0.008160 
#    y 0.000000 1.722810 0.000000 
#    z 0.008160 0.000000 1.680420 
# 
# From -- ./inp_files/73643.got.cif
#   From: 2010.05.17/outbox.cif.g08.bks.cpg/sg12_37_cif.got.tgz:73643.got - 2010.06.03 13:09:07.
