data_PCOD9175293
_publ_section_title
;
Structure prediction by ZEFSAII (Michael W. Deem and Ramdas Pophale) SiO2 
 PCOD9175293
Probable space group: C 2/M
;
_chemical_formula_sum "Si O2"
_cell_formula_units_Z 56
_cell_length_a 17.125954
_cell_length_b 31.838088
_cell_length_c 5.778068
_cell_angle_alpha 90.000000
_cell_angle_beta 110.909203
_cell_angle_gamma 90.000000
_cell_volume 2943.063952
_symmetry_space_group_name_H-M "C 2/M"
_symmetry_group_IT_number 12
_symmetry_cell_setting 'monoclinic'
loop_
_space_group_symop_operation_xyz
x,y,z
-x,y,-z
-x,-y,-z
x,-y,z
1/2+x,1/2+y,z
1/2-x,1/2+y,-z
1/2-x,1/2-y,-z
1/2+x,1/2-y,z
loop_
_atom_site_type_symbol
_atom_site_label
_atom_site_fract_x
_atom_site_fract_y
_atom_site_fract_z
Si Si1 0.819409 0.739113 0.385571
Si Si2 0.709798 0.317929 0.933895
Si Si3 0.739865 0.547203 0.858190
Si Si4 0.803926 0.377775 0.679190
Si Si5 0.838996 0.894188 0.844138
Si Si6 0.546492 0.177375 0.300641
Si Si7 0.569799 0.547815 0.381519
O O1 0.750000 0.750000 0.500000
O O2 0.836435 0.780624 0.251855
O O3 0.898534 0.719102 0.595099
O O4 0.773858 0.704740 0.176142
O O5 0.768915 0.344117 0.824872
O O6 0.649456 0.352307 0.989856
O O7 0.768147 0.500000 0.932285
O O8 0.807339 0.577549 0.811549
O O9 0.659384 0.545950 0.604202
O O10 0.704045 0.570013 0.045770
O O11 0.731161 0.380829 0.413440
O O12 0.889040 0.361007 0.664072
O O13 0.915705 0.916703 0.796128
O O14 0.500000 0.171360 0.500000
O O15 0.500000 0.180917 0.000000
O O16 0.500000 0.558169 0.500000
O O17 0.552453 0.500000 0.278794
#
# Coordination Sequence:
#
# PCOD9175293 Si02
#       7
#     8   8   8   8   8   8   8
#     4  11  21  37  65  90 119 161 205 257 318 385
#     4  10  19  34  63  90 115 155 220 252 309 375
#     4   9  19  33  58  89 118 157 213 260 306 375
#     4  10  20  38  59  91 119 161 203 261 309 377
#     4  10  18  32  58  84 117 162 217 248 315 371
#     4  12  26  41  65 100 131 161 214 271 331 379
#     4   9  18  32  51  84 124 161 208 263 316 370
#
# _framework density 19.02779
#
# number of rings (size 3 to 8) (size 9 to 14) (size 15 to 20)
#    0.000    1.857    2.857    1.286    4.000    1.143 
#    0.000    2.143    0.000   21.429    0.000    0.000 
#    0.000    0.000    0.000    0.000    0.000    0.000 
#
# Total GULP energy -156144.897030 kJ/mol
# GULP energy per Si atom -5576.603465 kJ/mol
# Density = 1.898448 g / cm^3
# Si number density = 19.027790 Si / 1000 Ang^3
#
#
#
# Elastic Constant Matrix: (Units=GPa)
#
#
# Indices 1 2 3 4 5 6 
#
# 1 113.9791 69.4156 53.0723 0.0000 -20.8734 0.0000
# 2 69.4156 166.5832 56.3820 0.0000 -24.0812 0.0000
# 3 53.0723 56.3820 109.4784 0.0000 -12.9343 0.0000
# 4 0.0000 0.0000 0.0000 9.6444 0.0000 -5.2418
# 5 -20.8734 -24.0812 -12.9343 0.0000 26.6452 0.0000
# 6 0.0000 0.0000 0.0000 -5.2418 0.0000 23.9680
#
#
#
# Elastic Compliance Matrix: (Units=1/GPa)
#
#
# Indices 1 2 3 4 5 6 
#
# 1 0.013962 -0.003556 -0.004269 0.000000 0.005651 0.000000
# 2 -0.003556 0.008876 -0.002364 0.000000 0.004089 0.000000
# 3 -0.004269 -0.002364 0.012490 0.000000 0.000582 0.000000
# 4 0.000000 0.000000 0.000000 0.117674 0.000000 0.025735
# 5 0.005651 0.004089 0.000582 0.000000 0.045935 0.000000
# 6 0.000000 0.000000 0.000000 0.025735 0.000000 0.047350
#
#
# Mechanical properties :
#
#
# Convention : Reuss Voigt Hill
#
# Bulk Modulus (GPa) = 66.89431 83.08671 74.99051
# Shear Modulus (GPa) = 18.40601 26.12958 22.26779
#
# Velocity S-wave (km/s) = 3.11355 3.70974 3.42464
# Velocity P-wave (km/s) = 6.93960 7.88101 7.42524
#
# Compressibility (1/GPa) = 0.01494895
#
# Stress axis : x y z
#
# Youngs Moduli (GPa) = 71.62189 112.66214 80.06213
#
# Poissons Ratio (x) = 0.40064 0.34182
# Poissons Ratio (y) = 0.25469 0.18929
# Poissons Ratio (z) = 0.30579 0.26637
#
# Static dielectric constant tensor:
#      x y z
#    x 1.647730 0.000000 -0.025460 
#    y 0.000000 1.692610 0.000000 
#    z -0.025460 0.000000 1.763170 
# 
# From -- ./inp_files/18166.got.cif
#   From: 2010.05.17/outbox.cif.g08.bks.cpg/sg12_10_cif.got.tgz:18166.got - 2010.06.03 13:09:07.
