data_PCOD9175934
_publ_section_title
;
Structure prediction by ZEFSAII (Michael W. Deem and Ramdas Pophale) SiO2 
 PCOD9175934
Probable space group: C 2/M
;
_chemical_formula_sum "Si O2"
_cell_formula_units_Z 56
_cell_length_a 17.835329
_cell_length_b 17.769213
_cell_length_c 9.360352
_cell_angle_alpha 90.000000
_cell_angle_beta 74.401716
_cell_angle_gamma 90.000000
_cell_volume 2857.226872
_symmetry_space_group_name_H-M "C 2/M"
_symmetry_group_IT_number 12
_symmetry_cell_setting 'monoclinic'
loop_
_space_group_symop_operation_xyz
x,y,z
-x,y,-z
-x,-y,-z
x,-y,z
1/2+x,1/2+y,z
1/2-x,1/2+y,-z
1/2-x,1/2-y,-z
1/2+x,1/2-y,z
loop_
_atom_site_type_symbol
_atom_site_label
_atom_site_fract_x
_atom_site_fract_y
_atom_site_fract_z
Si Si1 0.337198 0.911833 0.596940
Si Si2 0.891887 0.698554 0.352555
Si Si3 0.677761 0.641506 0.528981
Si Si4 0.741199 0.174106 0.793645
Si Si5 0.463707 0.724690 0.861733
Si Si6 0.312011 0.178955 0.879413
Si Si7 0.510238 0.413134 0.660113
O O1 0.396520 0.862959 0.473001
O O2 0.253659 0.887477 0.572401
O O3 0.339918 0.884881 0.758317
O O4 0.348151 0.000000 0.575946
O O5 0.843328 0.771069 0.433130
O O6 0.840890 0.668061 0.246409
O O7 0.974994 0.727040 0.260917
O O8 0.697337 0.637673 0.348814
O O9 0.603342 0.597211 0.627530
O O10 0.761459 0.262116 0.811292
O O11 0.733001 0.146153 0.960276
O O12 0.382427 0.768476 0.900260
O O13 0.463979 0.643284 0.786044
O O14 0.500000 0.717202 0.000000
O O15 0.500000 0.390324 0.500000
O O16 0.487976 0.500000 0.689591
#
# Coordination Sequence:
#
# PCOD9175934 Si02
#       7
#     8   8   8   8   8   8   8
#     4  11  22  37  59  88 116 147 196 249 301 344
#     4  10  19  38  59  86 113 151 194 237 283 355
#     4  10  18  37  61  88 114 156 192 239 284 352
#     4  10  18  33  60  83 115 145 197 236 281 333
#     4  11  23  38  61  85 115 156 202 237 295 352
#     4  11  21  35  57  90 115 152 194 248 283 345
#     4  10  22  37  58  91 126 156 190 237 292 355
#
# _framework density 19.599423999999999
#
# number of rings (size 3 to 8) (size 9 to 14) (size 15 to 20)
#    0.000    1.571    4.286    2.143    2.000    0.286 
#    0.000    5.000    0.000    7.714    0.000    0.000 
#    0.000    0.000    0.000    0.000    0.000    0.000 
#
# Total GULP energy -156278.677725 kJ/mol
# GULP energy per Si atom -5581.381347 kJ/mol
# Density = 1.955481 g / cm^3
# Si number density = 19.599424 Si / 1000 Ang^3
#
#
#
# Elastic Constant Matrix: (Units=GPa)
#
#
# Indices 1 2 3 4 5 6 
#
# 1 35.8014 -2.7795 8.0227 0.0000 -1.3434 0.0000
# 2 -2.7795 88.8180 44.8513 0.0000 7.4336 0.0000
# 3 8.0227 44.8513 108.3675 0.0000 10.4469 0.0000
# 4 0.0000 0.0000 0.0000 19.0746 0.0000 2.0322
# 5 -1.3434 7.4336 10.4469 0.0000 25.3972 0.0000
# 6 0.0000 0.0000 0.0000 2.0322 0.0000 8.6193
#
#
#
# Elastic Compliance Matrix: (Units=1/GPa)
#
#
# Indices 1 2 3 4 5 6 
#
# 1 0.028954 0.002416 -0.003356 0.000000 0.002205 0.000000
# 2 0.002416 0.014516 -0.006029 0.000000 -0.001641 0.000000
# 3 -0.003356 -0.006029 0.012307 0.000000 -0.003475 0.000000
# 4 0.000000 0.000000 0.000000 0.053776 0.000000 -0.012679
# 5 0.002205 -0.001641 -0.003475 0.000000 0.041401 0.000000
# 6 0.000000 0.000000 0.000000 -0.012679 0.000000 0.119007
#
#
# Mechanical properties :
#
#
# Convention : Reuss Voigt Hill
#
# Bulk Modulus (GPa) = 23.90055 37.01956 30.46005
# Shear Modulus (GPa) = 16.78721 22.81105 19.79913
#
# Velocity S-wave (km/s) = 2.92980 3.41525 3.18180
# Velocity P-wave (km/s) = 4.86477 5.87205 5.39198
#
# Compressibility (1/GPa) = 0.04184004
#
# Stress axis : x y z
#
# Youngs Moduli (GPa) = 34.53718 68.88791 81.25773
#
# Poissons Ratio (x) = -0.16646 0.27272
# Poissons Ratio (y) = -0.08346 0.48988
# Poissons Ratio (z) = 0.11591 0.41531
#
# Static dielectric constant tensor:
#      x y z
#    x 1.734720 0.000000 -0.007360 
#    y 0.000000 1.671000 0.000000 
#    z -0.007360 0.000000 1.706800 
# 
# From -- ./inp_files/75846.got.cif
#   From: 2010.05.17/outbox.cif.g08.bks.cpg/sg12_38_cif.got.tgz:75846.got - 2010.06.03 13:09:07.
