data_PCOD9175924
_publ_section_title
;
Structure prediction by ZEFSAII (Michael W. Deem and Ramdas Pophale) SiO2 
 PCOD9175924
Probable space group: C 2/M
;
_chemical_formula_sum "Si O2"
_cell_formula_units_Z 64
_cell_length_a 22.096087
_cell_length_b 12.247472
_cell_length_c 12.969134
_cell_angle_alpha 90.000000
_cell_angle_beta 113.619607
_cell_angle_gamma 90.000000
_cell_volume 3215.698041
_symmetry_space_group_name_H-M "C 2/M"
_symmetry_group_IT_number 12
_symmetry_cell_setting 'monoclinic'
loop_
_space_group_symop_operation_xyz
x,y,z
-x,y,-z
-x,-y,-z
x,-y,z
1/2+x,1/2+y,z
1/2-x,1/2+y,-z
1/2-x,1/2-y,-z
1/2+x,1/2-y,z
loop_
_atom_site_type_symbol
_atom_site_label
_atom_site_fract_x
_atom_site_fract_y
_atom_site_fract_z
Si Si1 0.433178 0.873359 0.312198
Si Si2 0.934035 0.717419 0.685779
Si Si3 0.429829 0.674844 0.469213
Si Si4 0.142665 0.764477 0.904992
Si Si5 0.712697 0.669864 0.628449
Si Si6 0.730986 0.128458 0.114353
Si Si7 0.694196 0.881073 0.486634
Si Si8 0.994464 0.126217 0.119303
O O1 0.503975 0.858013 0.303783
O O2 0.433732 0.790222 0.409236
O O3 0.379700 0.823758 0.196487
O O4 0.422973 0.000000 0.331118
O O5 0.926912 0.803560 0.588095
O O6 0.865989 0.652715 0.629944
O O7 0.953344 0.787886 0.797736
O O8 0.500000 0.619148 0.500000
O O9 0.359713 0.625656 0.391090
O O10 0.200847 0.838189 0.896816
O O11 0.077649 0.833151 0.891200
O O12 0.173694 0.699925 0.022631
O O13 0.758682 0.655475 0.758250
O O14 0.702991 0.795026 0.584609
O O15 0.742738 0.619348 0.545284
O O16 0.718368 0.000000 0.093722
O O17 0.681445 0.000000 0.521030
O O18 0.005167 0.000000 0.159501
O O19 0.000000 0.129703 0.000000
#
# Coordination Sequence:
#
# PCOD9175924 Si02
#       8
#     8   8   8   8   8   8   8   8
#     4  10  18  33  59  89 121 153 190 240 301 353
#     4   9  20  35  59  88 120 147 196 243 292 356
#     4   9  18  34  56  85 119 148 187 242 294 346
#     4  10  22  39  60  88 121 153 202 256 288 362
#     4  10  21  38  58  88 120 159 204 244 296 368
#     4  11  22  39  62  86 119 162 200 249 311 354
#     4  10  21  39  61  86 122 161 199 249 301 348
#     4  10  22  42  65  87 118 161 200 244 298 350
#
# _framework density 19.902367000000002
#
# number of rings (size 3 to 8) (size 9 to 14) (size 15 to 20)
#    0.000    2.125    1.250    1.500    1.750    4.250 
#    0.000    9.375    0.000    5.625    0.000    0.000 
#    0.000    0.000    0.000    0.000    0.000    0.000 
#
# Total GULP energy -178491.878108 kJ/mol
# GULP energy per Si atom -5577.871191 kJ/mol
# Density = 1.985707 g / cm^3
# Si number density = 19.902367 Si / 1000 Ang^3
#
#
#
# Elastic Constant Matrix: (Units=GPa)
#
#
# Indices 1 2 3 4 5 6 
#
# 1 50.5709 6.3020 -14.8978 0.0000 0.5564 0.0000
# 2 6.3020 123.3758 16.1727 0.0000 -4.1023 0.0000
# 3 -14.8978 16.1727 73.2955 0.0000 0.5350 0.0000
# 4 0.0000 0.0000 0.0000 -3.4990 0.0000 -2.8175
# 5 0.5564 -4.1023 0.5350 0.0000 25.9029 0.0000
# 6 0.0000 0.0000 0.0000 -2.8175 0.0000 5.0897
#
#
#
# Elastic Compliance Matrix: (Units=1/GPa)
#
#
# Indices 1 2 3 4 5 6 
#
# 1 0.021397 -0.001742 0.004739 0.000000 -0.000833 0.000000
# 2 -0.001742 0.008537 -0.002248 0.000000 0.001436 0.000000
# 3 0.004739 -0.002248 0.015108 0.000000 -0.000770 0.000000
# 4 0.000000 0.000000 0.000000 -0.197679 0.000000 -0.109430
# 5 -0.000833 0.001436 -0.000770 0.000000 0.038867 0.000000
# 6 0.000000 0.000000 0.000000 -0.109430 0.000000 0.135898
#
#
# Mechanical properties :
#
#
# Convention : Reuss Voigt Hill
#
# Bulk Modulus (GPa) = 21.48664 29.15511 25.32088
# Shear Modulus (GPa) = 138.34135 21.47640 79.90888
#
# Velocity S-wave (km/s) = 8.34631 3.28851 6.34331
# Velocity P-wave (km/s) = 10.18335 5.39444 8.14864
#
# Compressibility (1/GPa) = 0.04654055
#
# Stress axis : x y z
#
# Youngs Moduli (GPa) = 46.73625 117.14076 66.18833
#
# Poissons Ratio (x) = 0.20405 -0.31370
# Poissons Ratio (y) = 0.08141 0.14880
# Poissons Ratio (z) = -0.22150 0.26335
#
# Static dielectric constant tensor:
#      x y z
#    x 1.758510 0.000000 0.022390 
#    y 0.000000 1.716960 0.000000 
#    z 0.022390 0.000000 1.686100 
# 
# From -- ./inp_files/175313.got.cif
#   From: 2010.05.17/outbox.cif.g08.bks.cpg/sg12_88_cif.got.tgz:175313.got - 2010.06.03 13:09:07.
