data_PCOD9175755
_publ_section_title
;
Structure prediction by ZEFSAII (Michael W. Deem and Ramdas Pophale) SiO2 
 PCOD9175755
Probable space group: C 2/M
;
_chemical_formula_sum "Si O2"
_cell_formula_units_Z 56
_cell_length_a 21.973010
_cell_length_b 18.858005
_cell_length_c 7.242106
_cell_angle_alpha 90.000000
_cell_angle_beta 121.793119
_cell_angle_gamma 90.000000
_cell_volume 2550.624969
_symmetry_space_group_name_H-M "C 2/M"
_symmetry_group_IT_number 12
_symmetry_cell_setting 'monoclinic'
loop_
_space_group_symop_operation_xyz
x,y,z
-x,y,-z
-x,-y,-z
x,-y,z
1/2+x,1/2+y,z
1/2-x,1/2+y,-z
1/2-x,1/2-y,-z
1/2+x,1/2-y,z
loop_
_atom_site_type_symbol
_atom_site_label
_atom_site_fract_x
_atom_site_fract_y
_atom_site_fract_z
Si Si1 0.073203 0.303379 0.716252
Si Si2 0.275810 0.172556 0.101083
Si Si3 0.079367 0.581003 0.041889
Si Si4 0.975965 0.168541 0.152180
Si Si5 0.111726 0.917957 0.501236
Si Si6 0.733301 0.915919 0.292165
Si Si7 0.652195 0.580413 0.004523
O O1 0.143175 0.315292 0.703789
O O2 0.065371 0.224592 0.786380
O O3 0.000000 0.318712 0.500000
O O4 0.078556 0.358473 0.889640
O O5 0.250000 0.250000 0.000000
O O6 0.277101 0.124138 0.918993
O O7 0.218926 0.132981 0.138178
O O8 0.086003 0.500000 0.978805
O O9 0.156180 0.592717 0.271062
O O10 0.000000 0.583964 0.000000
O O11 0.919136 0.107549 0.010399
O O12 0.045109 0.133360 0.356982
O O13 0.000000 0.204708 0.000000
O O14 0.186005 0.894918 0.518452
O O15 0.130094 0.917463 0.750472
O O16 0.093682 0.000000 0.425372
O O17 0.741661 0.000000 0.273593
O O18 0.671234 0.500000 0.083060
#
# Coordination Sequence:
#
# PCOD9175755 Si02
#       7
#     8   8   8   8   8   8   8
#     4  11  23  38  59  84 115 148 192 239 283 330
#     4  10  18  33  57  81 107 138 184 239 282 319
#     4   9  18  36  61  85 114 150 189 233 286 341
#     4  12  24  36  53  82 121 158 185 224 284 348
#     4   9  18  34  57  82 110 145 189 233 276 334
#     4   8  16  31  55  83 108 143 184 228 278 336
#     4  10  20  37  61  85 109 147 192 234 281 340
#
# _framework density 21.955401999999999
#
# number of rings (size 3 to 8) (size 9 to 14) (size 15 to 20)
#    0.000    2.143    1.429    3.429    2.000    3.143 
#    0.000    1.429    0.000    7.714    0.000    0.000 
#    0.000    0.000    0.000    0.000    0.000    0.000 
#
# Total GULP energy -156086.097375 kJ/mol
# GULP energy per Si atom -5574.503478 kJ/mol
# Density = 2.190543 g / cm^3
# Si number density = 21.955402 Si / 1000 Ang^3
#
#
#
# Elastic Constant Matrix: (Units=GPa)
#
#
# Indices 1 2 3 4 5 6 
#
# 1 98.2773 27.2922 21.3767 0.0000 34.4239 0.0000
# 2 27.2922 81.1723 18.1161 0.0000 16.2975 0.0000
# 3 21.3767 18.1161 43.2692 0.0000 25.6593 0.0000
# 4 0.0000 0.0000 0.0000 13.6718 0.0000 -15.4059
# 5 34.4239 16.2975 25.6593 0.0000 38.6020 0.0000
# 6 0.0000 0.0000 0.0000 -15.4059 0.0000 -35.6036
#
#
#
# Elastic Compliance Matrix: (Units=1/GPa)
#
#
# Indices 1 2 3 4 5 6 
#
# 1 0.015363 -0.002801 0.001661 0.000000 -0.013622 0.000000
# 2 -0.002801 0.014348 -0.004147 0.000000 -0.000803 0.000000
# 3 0.001661 -0.004147 0.039396 0.000000 -0.025917 0.000000
# 4 0.000000 0.000000 0.000000 0.049169 0.000000 -0.021276
# 5 -0.013622 -0.000803 -0.025917 0.000000 0.055619 0.000000
# 6 0.000000 0.000000 0.000000 -0.021276 0.000000 -0.018881
#
#
# Mechanical properties :
#
#
# Convention : Reuss Voigt Hill
#
# Bulk Modulus (GPa) = 17.08468 39.58764 28.33616
# Shear Modulus (GPa) = 27.01218 13.72962 20.37090
#
# Velocity S-wave (km/s) = 3.51140 2.50340 3.04934
# Velocity P-wave (km/s) = 4.92324 5.14063 5.03311
#
# Compressibility (1/GPa) = 0.05853196
#
# Stress axis : x y z
#
# Youngs Moduli (GPa) = 65.09028 69.69562 25.38297
#
# Poissons Ratio (x) = 0.19523 -0.04215
# Poissons Ratio (y) = 0.18233 0.10527
# Poissons Ratio (z) = -0.10809 0.28905
#
# Static dielectric constant tensor:
#      x y z
#    x 1.940510 0.000000 -0.015650 
#    y 0.000000 1.779560 0.000000 
#    z -0.015650 0.000000 1.919290 
# 
# From -- ./inp_files/98209.got.cif
#   From: 2010.05.17/outbox.cif.g08.bks.cpg/sg12_50_cif.got.tgz:98209.got - 2010.06.03 13:09:07.
