data_PCOD9175709
_publ_section_title
;
Structure prediction by ZEFSAII (Michael W. Deem and Ramdas Pophale) SiO2 
 PCOD9175709
Probable space group: C 2/M
;
_chemical_formula_sum "Si O2"
_cell_formula_units_Z 64
_cell_length_a 8.666624
_cell_length_b 20.588020
_cell_length_c 25.410669
_cell_angle_alpha 90.000000
_cell_angle_beta 129.836304
_cell_angle_gamma 90.000000
_cell_volume 3481.550801
_symmetry_space_group_name_H-M "C 2/M"
_symmetry_group_IT_number 12
_symmetry_cell_setting 'monoclinic'
loop_
_space_group_symop_operation_xyz
x,y,z
-x,y,-z
-x,-y,-z
x,-y,z
1/2+x,1/2+y,z
1/2-x,1/2+y,-z
1/2-x,1/2-y,-z
1/2+x,1/2-y,z
loop_
_atom_site_type_symbol
_atom_site_label
_atom_site_fract_x
_atom_site_fract_y
_atom_site_fract_z
Si Si1 0.569206 0.210647 0.261555
Si Si2 0.221503 0.184422 0.523228
Si Si3 0.367389 0.688002 0.139339
Si Si4 0.532966 0.576248 0.247533
Si Si5 0.024178 0.775628 0.948830
Si Si6 0.242284 0.926797 0.709589
Si Si7 0.056623 0.931342 0.450096
Si Si8 0.126626 0.317329 0.674535
O O1 0.478041 0.254822 0.195911
O O2 0.627695 0.138326 0.256556
O O3 0.755317 0.254941 0.323433
O O4 0.411549 0.202401 0.273659
O O5 0.250000 0.250000 0.500000
O O6 0.209345 0.126704 0.478544
O O7 0.407885 0.172546 0.602122
O O8 0.000000 0.188170 0.500000
O O9 0.401469 0.620693 0.178291
O O10 0.139099 0.716568 0.087385
O O11 0.473428 0.684863 0.105221
O O12 0.559593 0.500000 0.238149
O O13 0.420536 0.576203 0.279222
O O14 0.737450 0.618147 0.298284
O O15 0.000000 0.811031 0.000000
O O16 0.250000 0.750000 0.000000
O O17 0.133736 0.921336 0.629052
O O18 0.334650 0.000000 0.732113
O O19 0.000000 0.934876 0.500000
O O20 0.146683 0.000000 0.454354
#
# Coordination Sequence:
#
# PCOD9175709 Si02
#       8
#     8   8   8   8   8   8   8   8
#     4  11  20  34  55  81 109 139 180 223 277 332
#     4  11  22  34  50  72  98 132 174 223 281 339
#     4  10  18  33  56  84 112 145 179 220 269 315
#     4  10  22  38  56  81 112 146 185 233 285 333
#     4   9  18  32  55  85 115 143 177 217 253 304
#     4  10  20  35  54  77 107 140 178 226 279 335
#     4   9  18  33  51  69  93 130 175 220 267 326
#     4  11  22  35  54  77 107 142 180 235 287 339
#
# _framework density 18.382612000000002
#
# number of rings (size 3 to 8) (size 9 to 14) (size 15 to 20)
#    0.000    1.875    0.000    6.750    0.000    2.000 
#    0.000    0.000    0.000    6.375    0.000    3.500 
#    0.000    0.000    0.000    0.000    0.000    0.000 
#
# Total GULP energy -178166.861483 kJ/mol
# GULP energy per Si atom -5567.714421 kJ/mol
# Density = 1.834077 g / cm^3
# Si number density = 18.382612 Si / 1000 Ang^3
#
#
#
# Elastic Constant Matrix: (Units=GPa)
#
#
# Indices 1 2 3 4 5 6 
#
# 1 75.4543 37.3337 18.5343 0.0000 4.1556 0.0000
# 2 37.3337 162.8904 33.6132 0.0000 7.9696 0.0000
# 3 18.5343 33.6132 66.0560 0.0000 6.5956 0.0000
# 4 0.0000 0.0000 0.0000 14.7598 0.0000 0.0175
# 5 4.1556 7.9696 6.5956 0.0000 37.3106 0.0000
# 6 0.0000 0.0000 0.0000 0.0175 0.0000 26.1249
#
#
#
# Elastic Compliance Matrix: (Units=1/GPa)
#
#
# Indices 1 2 3 4 5 6 
#
# 1 0.015418 -0.002932 -0.002774 0.000000 -0.000601 0.000000
# 2 -0.002932 0.007444 -0.002890 0.000000 -0.000753 0.000000
# 3 -0.002774 -0.002890 0.017606 0.000000 -0.002186 0.000000
# 4 0.000000 0.000000 0.000000 0.067752 0.000000 -0.000045
# 5 -0.000601 -0.000753 -0.002186 0.000000 0.027416 0.000000
# 6 0.000000 0.000000 0.000000 -0.000045 0.000000 0.038278
#
#
# Mechanical properties :
#
#
# Convention : Reuss Voigt Hill
#
# Bulk Modulus (GPa) = 42.96315 53.70700 48.33508
# Shear Modulus (GPa) = 25.14261 29.96703 27.55482
#
# Velocity S-wave (km/s) = 3.70231 4.04193 3.87584
# Velocity P-wave (km/s) = 6.45744 7.14581 6.81033
#
# Compressibility (1/GPa) = 0.02327576
#
# Stress axis : x y z
#
# Youngs Moduli (GPa) = 64.85819 134.33035 56.79853
#
# Poissons Ratio (x) = 0.39385 0.15757
# Poissons Ratio (y) = 0.19016 0.16417
# Poissons Ratio (z) = 0.17993 0.38826
#
# Static dielectric constant tensor:
#      x y z
#    x 1.678620 0.000000 -0.023970 
#    y 0.000000 1.673180 0.000000 
#    z -0.023970 0.000000 1.714140 
# 
# From -- ./inp_files/333762.got.cif
#   From: 2010.05.17/outbox.cif.g08.bks.cpg/sg12_167_cif.got.tgz:333762.got - 2010.06.03 13:09:07.
