data_PCOD9175661
_publ_section_title
;
Structure prediction by ZEFSAII (Michael W. Deem and Ramdas Pophale) SiO2 
 PCOD9175661
Probable space group: C 2/M
;
_chemical_formula_sum "Si O2"
_cell_formula_units_Z 56
_cell_length_a 26.250282
_cell_length_b 13.907690
_cell_length_c 11.808500
_cell_angle_alpha 90.000000
_cell_angle_beta 38.912706
_cell_angle_gamma 90.000000
_cell_volume 2707.928140
_symmetry_space_group_name_H-M "C 2/M"
_symmetry_group_IT_number 12
_symmetry_cell_setting 'monoclinic'
loop_
_space_group_symop_operation_xyz
x,y,z
-x,y,-z
-x,-y,-z
x,-y,z
1/2+x,1/2+y,z
1/2-x,1/2+y,-z
1/2-x,1/2-y,-z
1/2+x,1/2-y,z
loop_
_atom_site_type_symbol
_atom_site_label
_atom_site_fract_x
_atom_site_fract_y
_atom_site_fract_z
Si Si1 0.467927 0.107157 0.429101
Si Si2 0.536445 0.178968 0.102635
Si Si3 0.781536 0.163020 0.330255
Si Si4 0.811837 0.268101 0.720141
Si Si5 0.694376 0.611466 0.084042
Si Si6 0.581209 0.604683 0.068147
Si Si7 0.133802 0.661108 0.721674
O O1 0.500000 0.107122 0.500000
O O2 0.540412 0.134654 0.219500
O O3 0.398005 0.186040 0.541392
O O4 0.436962 0.000000 0.455007
O O5 0.539059 0.295245 0.106470
O O6 0.448531 0.150799 0.206037
O O7 0.605066 0.139592 0.899323
O O8 0.738947 0.231002 0.308350
O O9 0.835856 0.228295 0.319279
O O10 0.709800 0.114435 0.526255
O O11 0.842001 0.101122 0.150047
O O12 0.818020 0.169326 0.778426
O O13 0.766220 0.339293 0.887257
O O14 0.711823 0.500000 0.073389
O O15 0.617026 0.617471 0.132947
O O16 0.539047 0.500000 0.134140
#
# Coordination Sequence:
#
# PCOD9175661 Si02
#       7
#     8   8   8   8   8   8   8
#     4  11  23  37  55  80 108 142 186 228 275 339
#     4  10  19  36  57  81 115 150 180 226 285 326
#     4   9  17  33  56  80 106 147 189 227 276 322
#     4  10  18  33  56  78 109 150 182 228 279 328
#     4   9  18  32  54  84 112 143 186 229 276 330
#     4   9  18  33  56  85 114 147 187 228 274 339
#     4   9  18  34  57  81 110 148 185 231 273 324
#
# _framework density 20.680018
#
# number of rings (size 3 to 8) (size 9 to 14) (size 15 to 20)
#    0.000    2.429    1.429    1.286    0.000    1.714 
#    0.000    8.571    0.000   11.143    0.000    0.000 
#    0.000    0.000    0.000    0.000    0.000    0.000 
#
# Total GULP energy -156043.521496 kJ/mol
# GULP energy per Si atom -5572.982911 kJ/mol
# Density = 2.063295 g / cm^3
# Si number density = 20.680018 Si / 1000 Ang^3
#
#
#
# Elastic Constant Matrix: (Units=GPa)
#
#
# Indices 1 2 3 4 5 6 
#
# 1 28.3193 10.4998 19.6506 0.0000 16.1973 0.0000
# 2 10.4998 69.2926 9.4929 0.0000 17.9622 0.0000
# 3 19.6506 9.4929 110.0510 0.0000 26.0592 0.0000
# 4 0.0000 0.0000 0.0000 1.5379 0.0000 -12.8161
# 5 16.1973 17.9622 26.0592 0.0000 33.8846 0.0000
# 6 0.0000 0.0000 0.0000 -12.8161 0.0000 -9.9899
#
#
#
# Elastic Compliance Matrix: (Units=1/GPa)
#
#
# Indices 1 2 3 4 5 6 
#
# 1 0.050210 -0.001904 -0.004104 0.000000 -0.019835 0.000000
# 2 -0.001904 0.016861 0.000962 0.000000 -0.008767 0.000000
# 3 -0.004104 0.000962 0.011484 0.000000 -0.007380 0.000000
# 4 0.000000 0.000000 0.000000 0.055618 0.000000 -0.071353
# 5 -0.019835 -0.008767 -0.007380 0.000000 0.049317 0.000000
# 6 0.000000 0.000000 0.000000 -0.071353 0.000000 -0.008562
#
#
# Mechanical properties :
#
#
# Convention : Reuss Voigt Hill
#
# Bulk Modulus (GPa) = 14.60674 31.88328 23.24501
# Shear Modulus (GPa) = 24.05665 16.28782 20.17223
#
# Velocity S-wave (km/s) = 3.41439 2.80949 3.12660
# Velocity P-wave (km/s) = 4.75632 5.09659 4.92939
#
# Compressibility (1/GPa) = 0.06846152
#
# Stress axis : x y z
#
# Youngs Moduli (GPa) = 19.91620 59.30823 87.07705
#
# Poissons Ratio (x) = 0.11294 0.35740
# Poissons Ratio (y) = 0.03793 -0.08374
# Poissons Ratio (z) = 0.08174 -0.05703
#
# Static dielectric constant tensor:
#      x y z
#    x 1.749490 0.000000 0.013150 
#    y 0.000000 1.731800 0.000000 
#    z 0.013150 0.000000 1.774660 
# 
# From -- ./inp_files/183479.got.cif
#   From: 2010.05.17/outbox.cif.g08.bks.cpg/sg12_92_cif.got.tgz:183479.got - 2010.06.03 13:09:07.
