data_PCOD9175624
_publ_section_title
;
Structure prediction by ZEFSAII (Michael W. Deem and Ramdas Pophale) SiO2 
 PCOD9175624
Probable space group: C 2/M
;
_chemical_formula_sum "Si O2"
_cell_formula_units_Z 56
_cell_length_a 19.967935
_cell_length_b 7.597579
_cell_length_c 30.042044
_cell_angle_alpha 90.000000
_cell_angle_beta 146.635127
_cell_angle_gamma 90.000000
_cell_volume 2506.547358
_symmetry_space_group_name_H-M "C 2/M"
_symmetry_group_IT_number 12
_symmetry_cell_setting 'monoclinic'
loop_
_space_group_symop_operation_xyz
x,y,z
-x,y,-z
-x,-y,-z
x,-y,z
1/2+x,1/2+y,z
1/2-x,1/2+y,-z
1/2-x,1/2-y,-z
1/2+x,1/2-y,z
loop_
_atom_site_type_symbol
_atom_site_label
_atom_site_fract_x
_atom_site_fract_y
_atom_site_fract_z
Si Si1 0.175125 0.290160 0.503102
Si Si2 0.896125 0.206302 0.362576
Si Si3 0.026231 0.295812 0.943863
Si Si4 0.759673 0.204779 0.644554
Si Si5 0.713952 0.714855 0.879069
Si Si6 0.743337 0.215562 0.193829
Si Si7 0.501496 0.714313 0.827673
O O1 0.169971 0.500000 0.504155
O O2 0.250000 0.250000 0.500000
O O3 0.236115 0.218959 0.582562
O O4 0.035578 0.228293 0.425809
O O5 0.858018 0.284793 0.388907
O O6 0.809892 0.278075 0.275303
O O7 0.871369 0.000000 0.353312
O O8 0.025459 0.500000 0.957626
O O9 0.896128 0.221659 0.886506
O O10 0.023856 0.284985 0.889262
O O11 0.152431 0.220994 0.032096
O O12 0.873686 0.276742 0.735858
O O13 0.789966 0.000000 0.654406
O O14 0.715478 0.500000 0.881535
O O15 0.690210 0.764947 0.814882
O O16 0.609986 0.769834 0.855297
O O17 0.741578 0.000000 0.194956
O O18 0.500299 0.500000 0.830322
#
# Coordination Sequence:
#
# PCOD9175624 Si02
#       7
#     8   8   8   8   8   8   8
#     4  11  25  43  64  91 120 152 189 235 290 347
#     4  11  22  38  63  90 118 153 195 241 288 340
#     4  10  18  33  55  82 111 145 190 240 284 331
#     4  10  22  40  61  83 116 157 197 236 285 349
#     4   9  18  31  53  80 111 150 192 234 282 337
#     4   9  18  32  54  83 113 146 190 238 281 333
#     4  10  20  34  55  81 110 150 189 230 283 343
#
# _framework density 22.341488999999999
#
# number of rings (size 3 to 8) (size 9 to 14) (size 15 to 20)
#    0.000    2.000    1.429    2.143    2.000    4.571 
#    0.000    0.000    0.000    4.286    0.000    0.000 
#    0.000    0.000    0.000    0.000    0.000    0.000 
#
# Total GULP energy -156465.187802 kJ/mol
# GULP energy per Si atom -5588.042421 kJ/mol
# Density = 2.229064 g / cm^3
# Si number density = 22.341489 Si / 1000 Ang^3
#
#
#
# Elastic Constant Matrix: (Units=GPa)
#
#
# Indices 1 2 3 4 5 6 
#
# 1 140.5856 -16.6477 39.7986 -0.0001 -18.8979 -0.0001
# 2 -16.6477 50.0520 -2.6566 -0.0003 6.6216 0.0001
# 3 39.7986 -2.6566 100.0913 0.0001 -5.1288 -0.0002
# 4 -0.0001 -0.0003 0.0001 10.4422 0.0000 -4.4326
# 5 -18.8979 6.6216 -5.1288 0.0000 -12.1648 -0.0002
# 6 -0.0001 0.0001 -0.0002 -4.4326 -0.0002 16.5645
#
#
#
# Elastic Compliance Matrix: (Units=1/GPa)
#
#
# Indices 1 2 3 4 5 6 
#
# 1 0.007327 0.003348 -0.003244 0.000000 -0.008192 0.000000
# 2 0.003348 0.020269 -0.000484 0.000001 0.006035 0.000000
# 3 -0.003244 -0.000484 0.011269 0.000000 0.000025 0.000000
# 4 0.000000 0.000001 0.000000 0.108038 -0.000001 0.028910
# 5 -0.008192 0.006035 0.000025 -0.000001 -0.066204 -0.000001
# 6 0.000000 0.000000 0.000000 0.028910 -0.000001 0.068106
#
#
# Mechanical properties :
#
#
# Convention : Reuss Voigt Hill
#
# Bulk Modulus (GPa) = 26.24317 36.85749 31.55033
# Shear Modulus (GPa) = 30.81346 20.98401 25.89874
#
# Velocity S-wave (km/s) = 3.71779 3.06803 3.40843
# Velocity P-wave (km/s) = 5.49556 5.39291 5.44448
#
# Compressibility (1/GPa) = 0.03810515
#
# Stress axis : x y z
#
# Youngs Moduli (GPa) = 136.48380 49.33676 88.73685
#
# Poissons Ratio (x) = -0.16520 0.28788
# Poissons Ratio (y) = -0.45702 0.04297
# Poissons Ratio (z) = 0.44278 0.02389
#
# Static dielectric constant tensor:
#      x y z
#    x 1.848510 0.000000 0.005270 
#    y 0.000000 1.909520 0.000000 
#    z 0.005270 0.000000 1.815190 
# 
# From -- ./inp_files/275176.got.cif
#   From: 2010.05.17/outbox.cif.g08.bks.cpg/sg12_138_cif.got.tgz:275176.got - 2010.06.03 13:09:07.
