data_PCOD9175296
_publ_section_title
;
Structure prediction by ZEFSAII (Michael W. Deem and Ramdas Pophale) SiO2 
 PCOD9175296
Probable space group: C 2/M
;
_chemical_formula_sum "Si O2"
_cell_formula_units_Z 64
_cell_length_a 29.999087
_cell_length_b 8.801496
_cell_length_c 13.182133
_cell_angle_alpha 90.000000
_cell_angle_beta 78.288819
_cell_angle_gamma 90.000000
_cell_volume 3408.114559
_symmetry_space_group_name_H-M "C 2/M"
_symmetry_group_IT_number 12
_symmetry_cell_setting 'monoclinic'
loop_
_space_group_symop_operation_xyz
x,y,z
-x,y,-z
-x,-y,-z
x,-y,z
1/2+x,1/2+y,z
1/2-x,1/2+y,-z
1/2-x,1/2-y,-z
1/2+x,1/2-y,z
loop_
_atom_site_type_symbol
_atom_site_label
_atom_site_fract_x
_atom_site_fract_y
_atom_site_fract_z
Si Si1 0.707624 0.182369 0.959389
Si Si2 0.201086 0.680844 0.544787
Si Si3 0.927257 0.175595 0.109908
Si Si4 0.892207 0.685515 0.501031
Si Si5 0.563345 0.814894 0.308911
Si Si6 0.537601 0.183231 0.705157
Si Si7 0.677670 0.676573 0.768704
Si Si8 0.894174 0.682795 0.923253
O O1 0.658717 0.222907 0.032377
O O2 0.710466 0.000000 0.953832
O O3 0.750000 0.250000 0.000000
O O4 0.705794 0.252508 0.848119
O O5 0.204076 0.500000 0.536482
O O6 0.250000 0.750000 0.500000
O O7 0.160038 0.732797 0.490142
O O8 0.186031 0.729954 0.663698
O O9 0.956547 0.254233 0.184152
O O10 0.875238 0.185024 0.175083
O O11 0.940134 0.000000 0.094225
O O12 0.924745 0.251602 0.000497
O O13 0.893158 0.500000 0.500651
O O14 0.914224 0.737434 0.596470
O O15 0.922359 0.733560 0.390000
O O16 0.510675 0.771717 0.320664
O O17 0.589540 0.766240 0.195026
O O18 0.564676 0.000000 0.310370
O O19 0.539154 0.000000 0.709994
O O20 0.689559 0.500000 0.747809
O O21 0.897548 0.500000 0.926256
#
# Coordination Sequence:
#
# PCOD9175296 Si02
#       8
#     8   8   8   8   8   8   8   8
#     4  10  20  34  55  81 109 144 187 232 282 341
#     4  11  22  36  56  84 115 146 184 229 281 338
#     4  10  20  34  55  79 108 145 183 228 278 330
#     4   9  18  33  55  83 113 144 182 231 278 326
#     4   9  18  33  55  83 111 142 183 230 279 331
#     4  10  18  32  58  85 108 140 186 231 275 333
#     4  10  20  36  56  77 105 143 186 233 279 327
#     4   9  19  35  54  78 110 146 185 230 279 331
#
# _framework density 18.778711999999999
#
# number of rings (size 3 to 8) (size 9 to 14) (size 15 to 20)
#    0.000    2.250    1.250    1.875    0.000    4.500 
#    0.000    5.625    0.000    5.250    0.000    0.000 
#    0.000    0.000    0.000    0.000    0.000    0.000 
#
# Total GULP energy -178598.043306 kJ/mol
# GULP energy per Si atom -5581.188853 kJ/mol
# Density = 1.873597 g / cm^3
# Si number density = 18.778712 Si / 1000 Ang^3
#
#
#
# Elastic Constant Matrix: (Units=GPa)
#
#
# Indices 1 2 3 4 5 6 
#
# 1 115.4155 30.7165 54.9567 0.0000 30.1748 0.0000
# 2 30.7165 29.2650 15.2771 0.0000 7.6020 0.0000
# 3 54.9567 15.2771 101.1709 0.0000 25.9591 0.0000
# 4 0.0000 0.0000 0.0000 18.5929 0.0000 2.0972
# 5 30.1748 7.6020 25.9591 0.0000 36.7562 0.0000
# 6 0.0000 0.0000 0.0000 2.0972 0.0000 19.3931
#
#
#
# Elastic Compliance Matrix: (Units=1/GPa)
#
#
# Indices 1 2 3 4 5 6 
#
# 1 0.016340 -0.012607 -0.005129 0.000000 -0.007185 0.000000
# 2 -0.012607 0.047451 -0.000555 0.000000 0.000928 0.000000
# 3 -0.005129 -0.000555 0.014221 0.000000 -0.005719 0.000000
# 4 0.000000 0.000000 0.000000 0.054448 0.000000 -0.005888
# 5 -0.007185 0.000928 -0.005719 0.000000 0.036951 0.000000
# 6 0.000000 0.000000 0.000000 -0.005888 0.000000 0.052202
#
#
# Mechanical properties :
#
#
# Convention : Reuss Voigt Hill
#
# Bulk Modulus (GPa) = 24.13641 49.75021 36.94331
# Shear Modulus (GPa) = 18.38197 24.60853 21.49525
#
# Velocity S-wave (km/s) = 3.13209 3.62394 3.38695
# Velocity P-wave (km/s) = 5.09519 6.63784 5.91701
#
# Compressibility (1/GPa) = 0.04143118
#
# Stress axis : x y z
#
# Youngs Moduli (GPa) = 61.19936 21.07422 70.31633
#
# Poissons Ratio (x) = 0.26568 0.36064
# Poissons Ratio (y) = 0.77152 0.03904
# Poissons Ratio (z) = 0.31388 0.01170
#
# Static dielectric constant tensor:
#      x y z
#    x 1.651660 0.000000 -0.008960 
#    y 0.000000 1.634960 0.000000 
#    z -0.008960 0.000000 1.618410 
# 
# From -- ./inp_files/187584.got.cif
#   From: 2010.05.17/outbox.cif.g08.bks.cpg/sg12_94_cif.got.tgz:187584.got - 2010.06.03 13:09:07.
