data_PCOD9175299
_publ_section_title
;
Structure prediction by ZEFSAII (Michael W. Deem and Ramdas Pophale) SiO2 
 PCOD9175299
Probable space group: C 2/M
;
_chemical_formula_sum "Si O2"
_cell_formula_units_Z 40
_cell_length_a 16.914892
_cell_length_b 21.011561
_cell_length_c 10.605315
_cell_angle_alpha 90.000000
_cell_angle_beta 33.263104
_cell_angle_gamma 90.000000
_cell_volume 2067.356927
_symmetry_space_group_name_H-M "C 2/M"
_symmetry_group_IT_number 12
_symmetry_cell_setting 'monoclinic'
loop_
_space_group_symop_operation_xyz
x,y,z
-x,y,-z
-x,-y,-z
x,-y,z
1/2+x,1/2+y,z
1/2-x,1/2+y,-z
1/2-x,1/2-y,-z
1/2+x,1/2-y,z
loop_
_atom_site_type_symbol
_atom_site_label
_atom_site_fract_x
_atom_site_fract_y
_atom_site_fract_z
Si Si1 0.671673 0.000000 0.261780
Si Si2 0.129065 0.368230 0.225425
Si Si3 0.006238 0.338095 0.856750
Si Si4 0.347668 0.500000 0.276752
Si Si5 0.878449 0.199643 0.012966
Si Si6 0.326981 0.356415 0.360746
O O1 0.500000 0.000000 0.500000
O O2 0.711134 0.934594 0.141806
O O3 0.730023 0.000000 0.324002
O O4 0.058908 0.369837 0.181256
O O5 0.000000 0.361279 0.500000
O O6 0.246090 0.313700 0.096730
O O7 0.915162 0.272869 0.991205
O O8 0.175794 0.327882 0.606241
O O9 0.000000 0.372733 0.000000
O O10 0.329930 0.432882 0.370395
O O11 0.500000 0.500000 0.000000
O O12 0.030873 0.171314 0.762853
O O13 0.842209 0.162965 0.192340
#
# Coordination Sequence:
#
# PCOD9175299 Si02
#       6
#     4   8   8   4   8   8
#     4  10  18  32  58  85 118 149 196 259 298 340
#     4  11  21  39  60  91 118 159 208 256 302 358
#     4  12  25  39  59  88 130 166 200 245 310 371
#     4  12  18  36  66  97 118 147 206 265 301 348
#     4  11  21  38  63  89 124 155 203 256 303 360
#     4  11  21  38  63  94 122 155 205 255 309 350
#
# _framework density 19.348376999999999
#
# number of rings (size 3 to 8) (size 9 to 14) (size 15 to 20)
#    0.000    0.800    8.000    2.400    0.000    0.000 
#    0.000    3.000    0.000    0.000    0.000    4.200 
#    0.000    0.000    0.000    0.000    0.000    0.000 
#
# Total GULP energy -111585.770829 kJ/mol
# GULP energy per Si atom -5579.288541 kJ/mol
# Density = 1.930434 g / cm^3
# Si number density = 19.348377 Si / 1000 Ang^3
#
#
#
# Elastic Constant Matrix: (Units=GPa)
#
#
# Indices 1 2 3 4 5 6 
#
# 1 88.5429 -16.2989 20.0682 -0.0011 -1.5470 0.0010
# 2 -16.2989 60.1403 -10.5292 -0.0005 8.6863 0.0005
# 3 20.0682 -10.5292 69.3654 -0.0014 -12.2538 0.0012
# 4 -0.0011 -0.0005 -0.0014 16.4876 0.0007 -13.5459
# 5 -1.5470 8.6863 -12.2538 0.0007 30.8779 -0.0006
# 6 0.0010 0.0005 0.0012 -13.5459 -0.0006 10.1376
#
#
#
# Elastic Compliance Matrix: (Units=1/GPa)
#
#
# Indices 1 2 3 4 5 6 
#
# 1 0.012612 0.003042 -0.003470 0.000002 -0.001601 0.000001
# 2 0.003042 0.018302 0.001092 0.000003 -0.004563 0.000002
# 3 -0.003470 0.001092 0.016670 0.000001 0.006134 0.000000
# 4 0.000002 0.000003 0.000001 -0.620216 -0.000003 -0.828729
# 5 -0.001601 -0.004563 0.006134 -0.000003 0.036023 -0.000002
# 6 0.000001 0.000002 0.000000 -0.828729 -0.000002 -1.008702
#
#
# Mechanical properties :
#
#
# Convention : Reuss Voigt Hill
#
# Bulk Modulus (GPa) = 20.44471 22.72543 21.58507
# Shear Modulus (GPa) = -3.26726 26.48786 11.61030
#
# Velocity S-wave (km/s) = -1.30089 3.70401 2.45228
# Velocity P-wave (km/s) = 2.88672 5.48305 4.38161
#
# Compressibility (1/GPa) = 0.04891240
#
# Stress axis : x y z
#
# Youngs Moduli (GPa) = 79.28705 54.63766 59.98891
#
# Poissons Ratio (x) = -0.16620 0.20816
# Poissons Ratio (y) = -0.24118 -0.06551
# Poissons Ratio (z) = 0.27512 -0.05967
#
# Static dielectric constant tensor:
#      x y z
#    x 1.689090 0.000000 -0.001880 
#    y 0.000000 1.741470 0.000000 
#    z -0.001880 0.000000 1.673930 
# 
# From -- ./inp_files/159417.got.cif
#   From: 2010.05.17/outbox.cif.g08.bks.cpg/sg12_80_cif.got.tgz:159417.got - 2010.06.03 13:09:07.
