data_PCOD9175753
_publ_section_title
;
Structure prediction by ZEFSAII (Michael W. Deem and Ramdas Pophale) SiO2 
 PCOD9175753
Probable space group: C 2/M
;
_chemical_formula_sum "Si O2"
_cell_formula_units_Z 64
_cell_length_a 13.683990
_cell_length_b 23.061312
_cell_length_c 8.954744
_cell_angle_alpha 90.000000
_cell_angle_beta 84.661052
_cell_angle_gamma 90.000000
_cell_volume 2813.595922
_symmetry_space_group_name_H-M "C 2/M"
_symmetry_group_IT_number 12
_symmetry_cell_setting 'monoclinic'
loop_
_space_group_symop_operation_xyz
x,y,z
-x,y,-z
-x,-y,-z
x,-y,z
1/2+x,1/2+y,z
1/2-x,1/2+y,-z
1/2-x,1/2-y,-z
1/2+x,1/2-y,z
loop_
_atom_site_type_symbol
_atom_site_label
_atom_site_fract_x
_atom_site_fract_y
_atom_site_fract_z
Si Si1 0.309911 0.223924 0.627838
Si Si2 0.374225 0.150836 0.138531
Si Si3 0.840417 0.153185 0.663474
Si Si4 0.778878 0.394729 0.570000
Si Si5 0.437555 0.062975 0.358684
Si Si6 0.403365 0.395240 0.938979
Si Si7 0.202156 0.565122 0.092960
Si Si8 0.662500 0.725416 0.910320
O O1 0.250000 0.250000 0.500000
O O2 0.374455 0.279246 0.664339
O O3 0.350089 0.162326 0.572161
O O4 0.225736 0.207224 0.758040
O O5 0.266993 0.154501 0.237308
O O6 0.443064 0.113506 0.236851
O O7 0.402765 0.217857 0.112801
O O8 0.358208 0.114974 0.987479
O O9 0.819034 0.128496 0.501039
O O10 0.906887 0.114227 0.760708
O O11 0.827791 0.435923 0.440937
O O12 0.780342 0.421870 0.733967
O O13 0.500000 0.068823 0.500000
O O14 0.459219 0.000000 0.288335
O O15 0.500000 0.419737 0.000000
O O16 0.308018 0.430895 0.998707
O O17 0.386610 0.330440 0.010925
O O18 0.162452 0.500000 0.080207
O O19 0.750000 0.750000 0.000000
#
# Coordination Sequence:
#
# PCOD9175753 Si02
#       8
#     8   8   8   8   8   8   8   8
#     4   9  15  27  54  78 101 132 176 223 277 320
#     4   9  18  34  59  82 107 143 195 231 274 347
#     4   8  17  32  55  79 104 146 180 222 281 348
#     4  10  18  33  57  81 106 142 196 235 271 338
#     4  10  21  38  54  76 118 159 188 231 285 335
#     4  11  22  37  56  83 117 149 188 234 293 344
#     4  11  21  35  59  86 108 145 197 243 279 336
#     4  11  16  34  59  80 108 144 184 231 287 342
#
# _framework density 22.746693
#
# number of rings (size 3 to 8) (size 9 to 14) (size 15 to 20)
#    0.000    2.125    5.000    1.500    0.000    0.250 
#    2.250    1.875    0.000    3.000    0.000    0.000 
#    0.000    0.000    0.000    0.000    0.000    0.000 
#
# Total GULP energy -178411.901469 kJ/mol
# GULP energy per Si atom -5575.371921 kJ/mol
# Density = 2.269492 g / cm^3
# Si number density = 22.746693 Si / 1000 Ang^3
#
#
#
# Elastic Constant Matrix: (Units=GPa)
#
#
# Indices 1 2 3 4 5 6 
#
# 1 19.7242 0.5533 -3.3208 0.0000 5.2615 0.0000
# 2 0.5533 124.6699 12.5275 0.0000 0.4372 0.0000
# 3 -3.3208 12.5275 105.0624 0.0000 14.9516 0.0000
# 4 0.0000 0.0000 0.0000 23.0813 0.0000 3.2731
# 5 5.2615 0.4372 14.9516 0.0000 22.3781 0.0000
# 6 0.0000 0.0000 0.0000 3.2731 0.0000 0.1179
#
#
#
# Elastic Compliance Matrix: (Units=1/GPa)
#
#
# Indices 1 2 3 4 5 6 
#
# 1 0.055614 -0.000601 0.004076 0.000000 -0.015788 0.000000
# 2 -0.000601 0.008131 -0.001090 0.000000 0.000710 0.000000
# 3 0.004076 -0.001090 0.010952 0.000000 -0.008254 0.000000
# 4 0.000000 0.000000 0.000000 -0.014754 0.000000 0.409566
# 5 -0.015788 0.000710 -0.008254 0.000000 0.053900 0.000000
# 6 0.000000 0.000000 0.000000 0.409566 0.000000 -2.888188
#
#
# Mechanical properties :
#
#
# Convention : Reuss Voigt Hill
#
# Bulk Modulus (GPa) = 12.58376 29.88628 21.23502
# Shear Modulus (GPa) = -1.81645 25.09522 11.63939
#
# Velocity S-wave (km/s) = -0.89459 3.32512 2.26452
# Velocity P-wave (km/s) = 2.11591 5.28291 4.02407
#
# Compressibility (1/GPa) = 0.07946750
#
# Stress axis : x y z
#
# Youngs Moduli (GPa) = 17.98113 122.98841 91.31079
#
# Poissons Ratio (x) = 0.07393 -0.37221
# Poissons Ratio (y) = 0.01081 0.09949
# Poissons Ratio (z) = -0.07330 0.13401
#
# Static dielectric constant tensor:
#      x y z
#    x 1.852690 0.000000 0.064500 
#    y 0.000000 1.784530 0.000000 
#    z 0.064500 0.000000 1.778950 
# 
# From -- ./inp_files/65892.got.cif
#   From: 2010.05.17/outbox.cif.g08.bks.cpg/sg12_33_cif.got.tgz:65892.got - 2010.06.03 13:09:07.
