data_PCOD9175187
_publ_section_title
;
Structure prediction by ZEFSAII (Michael W. Deem and Ramdas Pophale) SiO2 
 PCOD9175187
Probable space group: C 2/M
;
_chemical_formula_sum "Si O2"
_cell_formula_units_Z 36
_cell_length_a 29.797976
_cell_length_b 15.054351
_cell_length_c 10.244428
_cell_angle_alpha 90.000000
_cell_angle_beta 27.823365
_cell_angle_gamma 90.000000
_cell_volume 2144.955866
_symmetry_space_group_name_H-M "C 2/M"
_symmetry_group_IT_number 12
_symmetry_cell_setting 'monoclinic'
loop_
_space_group_symop_operation_xyz
x,y,z
-x,y,-z
-x,-y,-z
x,-y,z
1/2+x,1/2+y,z
1/2-x,1/2+y,-z
1/2-x,1/2-y,-z
1/2+x,1/2-y,z
loop_
_atom_site_type_symbol
_atom_site_label
_atom_site_fract_x
_atom_site_fract_y
_atom_site_fract_z
Si Si1 0.206267 0.694837 0.731319
Si Si2 0.976276 0.801789 0.709425
Si Si3 0.737495 0.500000 0.459726
Si Si4 0.689109 0.307043 0.259437
Si Si5 0.933930 0.000000 0.889163
Si Si6 0.844158 0.000000 0.619658
O O1 0.250000 0.750000 0.500000
O O2 0.204010 0.591906 0.693037
O O3 0.271161 0.704724 0.695825
O O4 0.104044 0.736958 0.028291
O O5 0.000000 0.778234 0.500000
O O6 0.074927 0.791643 0.537224
O O7 0.936304 0.904027 0.811474
O O8 0.684679 0.500000 0.456413
O O9 0.655771 0.500000 0.781476
O O10 0.697026 0.411977 0.208353
O O11 0.750000 0.250000 0.000000
O O12 0.040437 0.000000 0.677597
#
# Coordination Sequence:
#
# PCOD9175187 Si02
#       6
#     8   8   4   8   4   4
#     4  11  22  38  59  85 115 153 188 235 286 341
#     4  11  21  36  59  87 116 149 192 233 290 338
#     4  10  19  35  55  82 116 148 189 232 287 336
#     4  10  20  37  57  83 117 149 189 234 283 337
#     4  10  18  32  56  86 114 140 185 251 285 327
#     4   8  19  31  54  84 112 142 192 233 285 329
#
# _framework density 16.783562
#
# number of rings (size 3 to 8) (size 9 to 14) (size 15 to 20)
#    0.000    1.778    4.444    0.667    0.000    0.889 
#    0.000    2.778    0.000    1.333    0.000    0.000 
#    0.000    0.000    0.000    0.000    0.000    0.000 
#
# Total GULP energy -100280.375385 kJ/mol
# GULP energy per Si atom -5571.131966 kJ/mol
# Density = 1.674536 g / cm^3
# Si number density = 16.783562 Si / 1000 Ang^3
#
#
#
# Elastic Constant Matrix: (Units=GPa)
#
#
# Indices 1 2 3 4 5 6 
#
# 1 65.2220 55.3142 42.9133 0.0000 -7.4487 0.0000
# 2 55.3142 136.6206 92.8876 0.0000 6.6540 0.0000
# 3 42.9133 92.8876 137.8460 0.0000 11.6912 0.0000
# 4 0.0000 0.0000 0.0000 39.5754 0.0000 0.8622
# 5 -7.4487 6.6540 11.6912 0.0000 21.6240 0.0000
# 6 0.0000 0.0000 0.0000 0.8622 0.0000 24.0607
#
#
#
# Elastic Compliance Matrix: (Units=1/GPa)
#
#
# Indices 1 2 3 4 5 6 
#
# 1 0.027067 -0.009420 -0.003265 0.000000 0.013988 0.000000
# 2 -0.009420 0.016800 -0.008043 0.000000 -0.004066 0.000000
# 3 -0.003265 -0.008043 0.014229 0.000000 -0.006342 0.000000
# 4 0.000000 0.000000 0.000000 0.025288 0.000000 -0.000906
# 5 0.013988 -0.004066 -0.006342 0.000000 0.055743 0.000000
# 6 0.000000 0.000000 0.000000 -0.000906 0.000000 0.041594
#
#
# Mechanical properties :
#
#
# Convention : Reuss Voigt Hill
#
# Bulk Modulus (GPa) = 60.09895 80.21320 70.15607
# Shear Modulus (GPa) = 21.95632 26.95692 24.45662
#
# Velocity S-wave (km/s) = 3.62083 4.01203 3.82144
# Velocity P-wave (km/s) = 7.30524 8.32816 7.83342
#
# Compressibility (1/GPa) = 0.01663923
#
# Stress axis : x y z
#
# Youngs Moduli (GPa) = 36.94518 59.52290 70.28001
#
# Poissons Ratio (x) = 0.56073 0.22945
# Poissons Ratio (y) = 0.34804 0.56529
# Poissons Ratio (z) = 0.12062 0.47876
#
# Static dielectric constant tensor:
#      x y z
#    x 1.578240 0.000000 -0.012300 
#    y 0.000000 1.596930 0.000000 
#    z -0.012300 0.000000 1.526690 
# 
# From -- ./inp_files/58377.got.cif
#   From: 2010.05.17/outbox.cif.g08.bks.cpg/sg12_30_cif.got.tgz:58377.got - 2010.06.03 13:09:07.
