data_PCOD9175762
_publ_section_title
;
Structure prediction by ZEFSAII (Michael W. Deem and Ramdas Pophale) SiO2 
 PCOD9175762
Probable space group: C 2/M
;
_chemical_formula_sum "Si O2"
_cell_formula_units_Z 48
_cell_length_a 11.303835
_cell_length_b 13.930264
_cell_length_c 15.430914
_cell_angle_alpha 90.000000
_cell_angle_beta 69.226498
_cell_angle_gamma 90.000000
_cell_volume 2271.871079
_symmetry_space_group_name_H-M "C 2/M"
_symmetry_group_IT_number 12
_symmetry_cell_setting 'monoclinic'
loop_
_space_group_symop_operation_xyz
x,y,z
-x,y,-z
-x,-y,-z
x,-y,z
1/2+x,1/2+y,z
1/2-x,1/2+y,-z
1/2-x,1/2-y,-z
1/2+x,1/2-y,z
loop_
_atom_site_type_symbol
_atom_site_label
_atom_site_fract_x
_atom_site_fract_y
_atom_site_fract_z
Si Si1 0.395503 0.500000 0.952369
Si Si2 0.508740 0.607749 0.658029
Si Si3 0.067128 0.796902 0.147968
Si Si4 0.797872 0.610678 0.519746
Si Si5 0.796268 0.792577 0.621815
Si Si6 0.180344 0.296441 0.842771
Si Si7 0.146442 0.500000 0.937601
O O1 0.421335 0.401601 0.895888
O O2 0.241166 0.500000 0.996309
O O3 0.500000 0.500000 0.000000
O O4 0.480126 0.500000 0.696492
O O5 0.486372 0.682237 0.741635
O O6 0.650828 0.608820 0.587313
O O7 0.411710 0.635739 0.608561
O O8 0.207918 0.752744 0.125138
O O9 0.962503 0.741860 0.119325
O O10 0.844177 0.500000 0.509402
O O11 0.849738 0.690903 0.572632
O O12 0.795778 0.659419 0.425583
O O13 0.728533 0.783128 0.731996
O O14 0.175700 0.406852 0.872236
O O15 0.000000 0.500000 0.000000
#
# Coordination Sequence:
#
# PCOD9175762 Si02
#       7
#     4   8   8   8   8   8   4
#     4  10  22  40  66  95 121 153 198 251 302 364
#     4  10  18  33  57  81 114 154 207 251 292 348
#     4  10  20  38  60  93 118 161 197 250 302 366
#     4  10  20  33  54  83 118 157 207 255 299 345
#     4  10  20  32  54  87 115 156 206 252 300 355
#     4  10  22  39  64  86 124 160 204 249 306 360
#     4  10  24  44  66  91 125 160 199 250 311 376
#
# _framework density 21.127960000000002
#
# number of rings (size 3 to 8) (size 9 to 14) (size 15 to 20)
#    0.000    2.000    2.500    1.000    4.667    3.333 
#    0.000    3.333    5.500    9.000    0.000    0.000 
#    0.000    0.000    0.000    0.000    0.000    0.000 
#
# Total GULP energy -133833.866648 kJ/mol
# GULP energy per Si atom -5576.411110 kJ/mol
# Density = 2.107987 g / cm^3
# Si number density = 21.127960 Si / 1000 Ang^3
#
#
#
# Elastic Constant Matrix: (Units=GPa)
#
#
# Indices 1 2 3 4 5 6 
#
# 1 154.3644 38.6405 25.0913 0.0000 20.2508 0.0000
# 2 38.6405 95.1736 1.5686 0.0000 12.4369 0.0000
# 3 25.0913 1.5686 56.0902 0.0000 18.2153 0.0000
# 4 0.0000 0.0000 0.0000 14.8927 0.0000 9.9505
# 5 20.2508 12.4369 18.2153 0.0000 18.5648 0.0000
# 6 0.0000 0.0000 0.0000 9.9505 0.0000 33.8191
#
#
#
# Elastic Compliance Matrix: (Units=1/GPa)
#
#
# Indices 1 2 3 4 5 6 
#
# 1 0.008119 -0.002567 -0.001824 0.000000 -0.005347 0.000000
# 2 -0.002567 0.012733 0.003894 0.000000 -0.009550 0.000000
# 3 -0.001824 0.003894 0.027498 0.000000 -0.027600 0.000000
# 4 0.000000 0.000000 0.000000 0.083577 0.000000 -0.024591
# 5 -0.005347 -0.009550 -0.027600 0.000000 0.093176 0.000000
# 6 0.000000 0.000000 0.000000 -0.024591 0.000000 0.036804
#
#
# Mechanical properties :
#
#
# Convention : Reuss Voigt Hill
#
# Bulk Modulus (GPa) = 21.11662 48.46987 34.79325
# Shear Modulus (GPa) = 17.94121 29.47718 23.70919
#
# Velocity S-wave (km/s) = 2.91721 3.73925 3.35352
# Velocity P-wave (km/s) = 4.62203 6.45241 5.61234
#
# Compressibility (1/GPa) = 0.04735607
#
# Stress axis : x y z
#
# Youngs Moduli (GPa) = 123.17216 78.53408 36.36563
#
# Poissons Ratio (x) = 0.20163 0.06632
# Poissons Ratio (y) = 0.31624 -0.14160
# Poissons Ratio (z) = 0.22462 -0.30580
#
# Static dielectric constant tensor:
#      x y z
#    x 1.895210 0.000000 0.021470 
#    y 0.000000 1.757350 0.000000 
#    z 0.021470 0.000000 1.771160 
# 
# From -- ./inp_files/204401.got.cif
#   From: 2010.05.17/outbox.cif.g08.bks.cpg/sg12_103_cif.got.tgz:204401.got - 2010.06.03 13:09:07.
