data_PCOD9175564
_publ_section_title
;
Structure prediction by ZEFSAII (Michael W. Deem and Ramdas Pophale) SiO2 
 PCOD9175564
Probable space group: C 2/M
;
_chemical_formula_sum "Si O2"
_cell_formula_units_Z 52
_cell_length_a 5.444162
_cell_length_b 29.626822
_cell_length_c 19.675311
_cell_angle_alpha 90.000000
_cell_angle_beta 46.586699
_cell_angle_gamma 90.000000
_cell_volume 2305.274281
_symmetry_space_group_name_H-M "C 2/M"
_symmetry_group_IT_number 12
_symmetry_cell_setting 'monoclinic'
loop_
_space_group_symop_operation_xyz
x,y,z
-x,y,-z
-x,-y,-z
x,-y,z
1/2+x,1/2+y,z
1/2-x,1/2+y,-z
1/2-x,1/2-y,-z
1/2+x,1/2-y,z
loop_
_atom_site_type_symbol
_atom_site_label
_atom_site_fract_x
_atom_site_fract_y
_atom_site_fract_z
Si Si1 0.454513 0.772499 0.352312
Si Si2 0.101879 0.000000 0.060379
Si Si3 0.115518 0.352610 0.405119
Si Si4 0.237456 0.918281 0.795055
Si Si5 0.484368 0.236430 0.137502
Si Si6 0.395976 0.949633 0.406360
Si Si7 0.735262 0.138441 0.792332
O O1 0.610395 0.746871 0.387811
O O2 0.433133 0.824453 0.379914
O O3 0.741690 0.762672 0.239845
O O4 0.947413 0.956670 0.127222
O O5 0.500000 0.000000 0.000000
O O6 0.000000 0.000000 0.000000
O O7 0.507289 0.344969 0.315289
O O8 0.000000 0.336693 0.500000
O O9 0.054636 0.406164 0.412335
O O10 0.505084 0.940423 0.691037
O O11 0.441756 0.888257 0.810004
O O12 0.963277 0.890708 0.801498
O O13 0.859113 0.241567 0.092924
O O14 0.399681 0.183841 0.149209
O O15 0.000000 0.948649 0.500000
O O16 0.524139 0.000000 0.400473
#
# Coordination Sequence:
#
# PCOD9175564 Si02
#       7
#     8   4   8   8   8   8   8
#     4  10  21  35  52  76 117 166 227 281 344 384
#     4  12  26  50  79 108 145 168 212 284 362 426
#     4  11  23  36  54  84 121 182 236 294 342 383
#     4  11  24  43  67 104 130 181 222 269 347 400
#     4  10  18  33  54  82 122 176 218 278 332 378
#     4  10  22  41  64  91 132 181 236 286 327 393
#     4  11  22  37  62  86 137 171 226 281 315 415
#
# _framework density 22.55697
#
# number of rings (size 3 to 8) (size 9 to 14) (size 15 to 20)
#    0.000    1.385    3.846    2.769    6.462    2.154 
#    1.385    0.000    0.000    0.000    0.000    0.000 
#    0.000   43.077    0.000    0.000    0.000    0.000 
#
# Total GULP energy -145362.837001 kJ/mol
# GULP energy per Si atom -5590.878346 kJ/mol
# Density = 2.250563 g / cm^3
# Si number density = 22.556970 Si / 1000 Ang^3
#
#
#
# Elastic Constant Matrix: (Units=GPa)
#
#
# Indices 1 2 3 4 5 6 
#
# 1 174.0715 57.1126 42.6827 0.0000 12.9484 0.0000
# 2 57.1126 129.1807 33.9883 0.0000 18.0534 0.0000
# 3 42.6827 33.9883 78.1275 0.0000 20.5933 0.0000
# 4 0.0000 0.0000 0.0000 48.2721 0.0000 -4.8867
# 5 12.9484 18.0534 20.5933 0.0000 24.5253 0.0000
# 6 0.0000 0.0000 0.0000 -4.8867 0.0000 36.3049
#
#
#
# Elastic Compliance Matrix: (Units=1/GPa)
#
#
# Indices 1 2 3 4 5 6 
#
# 1 0.007264 -0.002490 -0.003027 0.000000 0.000540 0.000000
# 2 -0.002490 0.009940 -0.001774 0.000000 -0.004512 0.000000
# 3 -0.003027 -0.001774 0.018570 0.000000 -0.012688 0.000000
# 4 0.000000 0.000000 0.000000 0.021002 0.000000 0.002827
# 5 0.000540 -0.004512 -0.012688 0.000000 0.054464 0.000000
# 6 0.000000 0.000000 0.000000 0.002827 0.000000 0.027925
#
#
# Mechanical properties :
#
#
# Convention : Reuss Voigt Hill
#
# Bulk Modulus (GPa) = 47.19379 72.10519 59.64949
# Shear Modulus (GPa) = 31.09222 38.32688 34.70955
#
# Velocity S-wave (km/s) = 3.71669 4.12650 3.92695
# Velocity P-wave (km/s) = 6.27581 7.39860 6.86021
#
# Compressibility (1/GPa) = 0.02118923
#
# Stress axis : x y z
#
# Youngs Moduli (GPa) = 137.66440 100.60839 53.85088
#
# Poissons Ratio (x) = 0.25056 0.16303
# Poissons Ratio (y) = 0.34285 0.09554
# Poissons Ratio (z) = 0.41677 0.17849
#
# Static dielectric constant tensor:
#      x y z
#    x 1.860100 0.000000 -0.010360 
#    y 0.000000 1.863100 0.000000 
#    z -0.010360 0.000000 1.878610 
# 
# From -- ./inp_files/298343.got.cif
#   From: 2010.05.17/outbox.cif.g08.bks.cpg/sg12_150_cif.got.tgz:298343.got - 2010.06.03 13:09:07.
