data_PCOD9175088
_publ_section_title
;
Structure prediction by ZEFSAII (Michael W. Deem and Ramdas Pophale) SiO2 
 PCOD9175088
Probable space group: C 2/M
;
_chemical_formula_sum "Si O2"
_cell_formula_units_Z 64
_cell_length_a 18.293563
_cell_length_b 17.521054
_cell_length_c 22.339851
_cell_angle_alpha 90.000000
_cell_angle_beta 150.541461
_cell_angle_gamma 90.000000
_cell_volume 3521.451299
_symmetry_space_group_name_H-M "C 2/M"
_symmetry_group_IT_number 12
_symmetry_cell_setting 'monoclinic'
loop_
_space_group_symop_operation_xyz
x,y,z
-x,y,-z
-x,-y,-z
x,-y,z
1/2+x,1/2+y,z
1/2-x,1/2+y,-z
1/2-x,1/2-y,-z
1/2+x,1/2-y,z
loop_
_atom_site_type_symbol
_atom_site_label
_atom_site_fract_x
_atom_site_fract_y
_atom_site_fract_z
Si Si1 0.944370 0.084775 0.391890
Si Si2 0.463462 0.268713 0.610677
Si Si3 0.107769 0.089316 0.213647
Si Si4 0.810695 0.165732 0.971684
Si Si5 0.722716 0.697712 0.190233
Si Si6 0.452693 0.183403 0.131020
Si Si7 0.152278 0.208534 0.345043
Si Si8 0.103323 0.368120 0.128757
O O1 0.766729 0.096296 0.255170
O O2 0.000000 0.091849 0.500000
O O3 0.026396 0.150185 0.414036
O O4 0.983336 0.000000 0.398899
O O5 0.604699 0.220710 0.690015
O O6 0.314469 0.225628 0.485747
O O7 0.460177 0.285809 0.679161
O O8 0.184395 0.137114 0.214355
O O9 0.148861 0.130768 0.305181
O O10 0.142195 0.000000 0.236519
O O11 0.932263 0.105343 0.080299
O O12 0.812417 0.167358 0.901224
O O13 0.653251 0.152997 0.891943
O O14 0.864270 0.249262 0.032969
O O15 0.637010 0.777392 0.141932
O O16 0.596879 0.224943 0.261250
O O17 0.507922 0.124369 0.121125
O O18 0.000000 0.394723 0.000000
#
# Coordination Sequence:
#
# PCOD9175088 Si02
#       8
#     8   8   8   8   8   8   8   8
#     4  10  23  39  57  84 117 152 187 235 305 364
#     4  10  22  36  64  86 111 148 200 248 287 345
#     4  11  24  38  57  85 124 160 190 239 300 358
#     4  10  19  32  54  81 115 152 196 237 281 338
#     4  11  19  35  56  88 115 153 198 241 285 340
#     4  10  18  32  55  83 115 144 191 249 283 326
#     4  10  20  39  58  89 112 148 202 244 285 343
#     4  11  19  33  59  87 116 149 197 247 287 340
#
# _framework density 18.174325
#
# number of rings (size 3 to 8) (size 9 to 14) (size 15 to 20)
#    0.000    1.625    5.000    1.125    1.750    1.750 
#    0.000    1.875    0.000    1.500    0.000    0.000 
#    0.000    0.000    0.000    0.000    0.000    0.000 
#
# Total GULP energy -178519.164683 kJ/mol
# GULP energy per Si atom -5578.723896 kJ/mol
# Density = 1.813296 g / cm^3
# Si number density = 18.174325 Si / 1000 Ang^3
#
#
#
# Elastic Constant Matrix: (Units=GPa)
#
#
# Indices 1 2 3 4 5 6 
#
# 1 85.9591 26.4230 18.5948 -0.0009 -3.3425 -0.0001
# 2 26.4230 79.2894 26.3558 -0.0014 -11.6983 0.0009
# 3 18.5948 26.3558 69.3919 -0.0030 -4.8496 0.0000
# 4 -0.0009 -0.0014 -0.0030 5.8164 -0.0004 -3.8991
# 5 -3.3425 -11.6983 -4.8496 -0.0004 29.2597 0.0006
# 6 -0.0001 0.0009 0.0000 -3.8991 0.0006 4.2620
#
#
#
# Elastic Compliance Matrix: (Units=1/GPa)
#
#
# Indices 1 2 3 4 5 6 
#
# 1 0.013237 -0.003748 -0.002147 0.000002 -0.000342 0.000003
# 2 -0.003748 0.016231 -0.004792 -0.000004 0.005267 -0.000008
# 3 -0.002147 -0.004792 0.016851 0.000020 0.000632 0.000019
# 4 0.000002 -0.000004 0.000020 0.444568 -0.000001 0.406713
# 5 -0.000342 0.005267 0.000632 -0.000001 0.036348 -0.000007
# 6 0.000003 -0.000008 0.000019 0.406713 -0.000007 0.606714
#
#
# Mechanical properties :
#
#
# Convention : Reuss Voigt Hill
#
# Bulk Modulus (GPa) = 40.09110 41.93197 41.01154
# Shear Modulus (GPa) = 4.29687 18.75208 11.52447
#
# Velocity S-wave (km/s) = 1.53928 3.21563 2.52088
# Velocity P-wave (km/s) = 5.02656 6.07530 5.57564
#
# Compressibility (1/GPa) = 0.02494319
#
# Stress axis : x y z
#
# Youngs Moduli (GPa) = 75.54750 61.61047 59.34482
#
# Poissons Ratio (x) = 0.23090 0.12744
# Poissons Ratio (y) = 0.28314 0.28440
# Poissons Ratio (z) = 0.16224 0.29526
#
# Static dielectric constant tensor:
#      x y z
#    x 1.637650 0.000000 -0.005600 
#    y 0.000000 1.590610 0.000000 
#    z -0.005600 0.000000 1.652060 
# 
# From -- ./inp_files/317338.got.cif
#   From: 2010.05.17/outbox.cif.g08.bks.cpg/sg12_159_cif.got.tgz:317338.got - 2010.06.03 13:09:07.
