data_PCOD9175973
_publ_section_title
;
Structure prediction by ZEFSAII (Michael W. Deem and Ramdas Pophale) SiO2 
 PCOD9175973
Probable space group: C 2/M
;
_chemical_formula_sum "Si O2"
_cell_formula_units_Z 48
_cell_length_a 32.719625
_cell_length_b 13.969736
_cell_length_c 9.532925
_cell_angle_alpha 90.000000
_cell_angle_beta 28.367761
_cell_angle_gamma 90.000000
_cell_volume 2070.305293
_symmetry_space_group_name_H-M "C 2/M"
_symmetry_group_IT_number 12
_symmetry_cell_setting 'monoclinic'
loop_
_space_group_symop_operation_xyz
x,y,z
-x,y,-z
-x,-y,-z
x,-y,z
1/2+x,1/2+y,z
1/2-x,1/2+y,-z
1/2-x,1/2-y,-z
1/2+x,1/2-y,z
loop_
_atom_site_type_symbol
_atom_site_label
_atom_site_fract_x
_atom_site_fract_y
_atom_site_fract_z
Si Si1 0.431918 0.711598 0.391812
Si Si2 0.843611 0.695734 0.104784
Si Si3 0.938714 0.893278 0.822354
Si Si4 0.090074 0.393065 0.367150
Si Si5 0.326858 0.220889 0.464024
Si Si6 0.735767 0.607809 0.984515
O O1 0.502887 0.634341 0.219954
O O2 0.453926 0.808779 0.410699
O O3 0.406552 0.735811 0.309516
O O4 0.342281 0.673353 0.729750
O O5 0.743198 0.697840 0.364157
O O6 0.850805 0.670850 0.246161
O O7 0.872631 0.806804 0.005216
O O8 0.899347 0.635865 0.826853
O O9 0.000000 0.890794 0.500000
O O10 0.902513 0.000000 0.944224
O O11 0.055418 0.500000 0.491062
O O12 0.187930 0.393789 0.132094
O O13 0.280757 0.149441 0.710917
O O14 0.703807 0.500000 0.058757
#
# Coordination Sequence:
#
# PCOD9175973 Si02
#       6
#     8   8   8   8   8   8
#     4  11  19  39  60  90 123 161 199 250 302 360
#     4  11  21  39  56  86 122 160 201 249 298 355
#     4  11  23  39  64  94 124 159 199 247 310 368
#     4  10  19  34  59  86 111 149 206 252 289 345
#     4  10  21  36  60  80 124 164 198 247 301 348
#     4  10  18  33  61  90 113 151 204 250 298 353
#
# _framework density 23.184985999999999
#
# number of rings (size 3 to 8) (size 9 to 14) (size 15 to 20)
#    0.000    1.500    5.000    1.500    0.000    3.333 
#    0.000    6.667    0.000    0.000    0.000    5.833 
#    0.000    0.000    0.000    0.000    0.000    0.000 
#
# Total GULP energy -134316.822952 kJ/mol
# GULP energy per Si atom -5596.534290 kJ/mol
# Density = 2.313222 g / cm^3
# Si number density = 23.184986 Si / 1000 Ang^3
#
#
#
# Elastic Constant Matrix: (Units=GPa)
#
#
# Indices 1 2 3 4 5 6 
#
# 1 155.6507 18.1630 26.7478 0.0000 22.3585 0.0000
# 2 18.1630 115.8244 9.4554 0.0000 6.2127 0.0000
# 3 26.7478 9.4554 55.5732 0.0000 10.2021 0.0000
# 4 0.0000 0.0000 0.0000 10.2654 0.0000 -2.5186
# 5 22.3585 6.2127 10.2021 0.0000 48.2456 0.0000
# 6 0.0000 0.0000 0.0000 -2.5186 0.0000 24.8416
#
#
#
# Elastic Compliance Matrix: (Units=1/GPa)
#
#
# Indices 1 2 3 4 5 6 
#
# 1 0.007410 -0.000777 -0.002936 0.000000 -0.002713 0.000000
# 2 -0.000777 0.008870 -0.001032 0.000000 -0.000564 0.000000
# 3 -0.002936 -0.001032 0.020089 0.000000 -0.002754 0.000000
# 4 0.000000 0.000000 0.000000 0.099900 0.000000 0.010129
# 5 -0.002713 -0.000564 -0.002754 0.000000 0.022640 0.000000
# 6 0.000000 0.000000 0.000000 0.010129 0.000000 0.041282
#
#
# Mechanical properties :
#
#
# Convention : Reuss Voigt Hill
#
# Bulk Modulus (GPa) = 37.20367 48.42008 42.81187
# Shear Modulus (GPa) = 22.86877 34.84932 28.85904
#
# Velocity S-wave (km/s) = 3.14405 3.88119 3.53190
# Velocity P-wave (km/s) = 5.40937 6.40425 5.92772
#
# Compressibility (1/GPa) = 0.02687907
#
# Stress axis : x y z
#
# Youngs Moduli (GPa) = 134.96140 112.73901 49.77936
#
# Poissons Ratio (x) = 0.08757 0.14616
# Poissons Ratio (y) = 0.10483 0.05136
# Poissons Ratio (z) = 0.39626 0.11632
#
# Static dielectric constant tensor:
#      x y z
#    x 1.944950 0.000000 -0.026330 
#    y 0.000000 1.823710 0.000000 
#    z -0.026330 0.000000 1.876150 
# 
# From -- ./inp_files/111488.got.cif
#   From: 2010.05.17/outbox.cif.g08.bks.cpg/sg12_56_cif.got.tgz:111488.got - 2010.06.03 13:09:07.
