data_PCOD9175935
_publ_section_title
;
Structure prediction by ZEFSAII (Michael W. Deem and Ramdas Pophale) SiO2 
 PCOD9175935
Probable space group: C 2/M
;
_chemical_formula_sum "Si O2"
_cell_formula_units_Z 40
_cell_length_a 10.589213
_cell_length_b 20.584389
_cell_length_c 8.889086
_cell_angle_alpha 90.000000
_cell_angle_beta 92.973279
_cell_angle_gamma 90.000000
_cell_volume 1934.967818
_symmetry_space_group_name_H-M "C 2/M"
_symmetry_group_IT_number 12
_symmetry_cell_setting 'monoclinic'
loop_
_space_group_symop_operation_xyz
x,y,z
-x,y,-z
-x,-y,-z
x,-y,z
1/2+x,1/2+y,z
1/2-x,1/2+y,-z
1/2-x,1/2-y,-z
1/2+x,1/2-y,z
loop_
_atom_site_type_symbol
_atom_site_label
_atom_site_fract_x
_atom_site_fract_y
_atom_site_fract_z
Si Si1 0.134483 0.254380 0.757960
Si Si2 0.167539 0.000000 0.354378
Si Si3 0.624431 0.500000 0.714783
Si Si4 0.294871 0.876962 0.765233
Si Si5 0.500000 0.685877 0.500000
Si Si6 0.000000 0.335625 0.000000
Si Si7 0.736540 0.128436 0.567292
O O1 0.225231 0.192470 0.784835
O O2 0.018279 0.228087 0.650195
O O3 0.196853 0.309065 0.657341
O O4 0.087026 0.288620 0.904325
O O5 0.147164 0.000000 0.535211
O O6 0.248909 0.935445 0.331103
O O7 0.027593 0.000000 0.273151
O O8 0.695404 0.435825 0.780419
O O9 0.339811 0.880135 0.592913
O O10 0.412224 0.877685 0.884707
O O11 0.377747 0.642462 0.514998
#
# Coordination Sequence:
#
# PCOD9175935 Si02
#       7
#     8   4   4   8   4   4   8
#     4  11  21  36  57  83 112 145 188 228 270 324
#     4   9  16  32  60  87 110 134 173 235 286 319
#     4   9  18  35  58  86 112 138 177 226 282 334
#     4  10  21  36  57  83 111 145 184 225 273 330
#     4  10  18  33  60  85 110 140 176 234 284 319
#     4  12  24  37  54  75 114 158 186 224 268 317
#     4  10  19  34  59  88 111 137 182 231 277 327
#
# _framework density 20.672180000000001
#
# number of rings (size 3 to 8) (size 9 to 14) (size 15 to 20)
#    0.000    1.800    0.000    9.000    0.000    0.400 
#    0.000    2.000    0.000    6.000    0.000    0.000 
#    0.000    0.000    0.000    0.000    0.000    0.000 
#
# Total GULP energy -111700.902726 kJ/mol
# GULP energy per Si atom -5585.045136 kJ/mol
# Density = 2.062513 g / cm^3
# Si number density = 20.672180 Si / 1000 Ang^3
#
#
#
# Elastic Constant Matrix: (Units=GPa)
#
#
# Indices 1 2 3 4 5 6 
#
# 1 47.4065 42.2310 48.2349 0.0000 29.1127 0.0000
# 2 42.2310 145.9880 49.9132 0.0000 30.8780 0.0000
# 3 48.2349 49.9132 76.6951 0.0000 22.0029 0.0000
# 4 0.0000 0.0000 0.0000 -3.4664 0.0000 12.3333
# 5 29.1127 30.8780 22.0029 0.0000 36.3843 0.0000
# 6 0.0000 0.0000 0.0000 12.3333 0.0000 20.0910
#
#
#
# Elastic Compliance Matrix: (Units=1/GPa)
#
#
# Indices 1 2 3 4 5 6 
#
# 1 0.108042 -0.002514 -0.050967 0.000000 -0.053495 0.000000
# 2 -0.002514 0.009638 -0.003535 0.000000 -0.004030 0.000000
# 3 -0.050967 -0.003535 0.042145 0.000000 0.018294 0.000000
# 4 0.000000 0.000000 0.000000 -0.090601 0.000000 0.055617
# 5 -0.053495 -0.004030 0.018294 0.000000 0.062645 0.000000
# 6 0.000000 0.000000 0.000000 0.055617 0.000000 0.015632
#
#
# Mechanical properties :
#
#
# Convention : Reuss Voigt Hill
#
# Bulk Modulus (GPa) = 21.83719 61.20531 41.52125
# Shear Modulus (GPa) = 18.06374 19.24916 18.65645
#
# Velocity S-wave (km/s) = 2.95925 3.05481 3.00741
# Velocity P-wave (km/s) = 4.71834 6.48955 5.67349
#
# Compressibility (1/GPa) = 0.04579343
#
# Stress axis : x y z
#
# Youngs Moduli (GPa) = 9.25562 103.75329 23.72776
#
# Poissons Ratio (x) = 0.26085 1.20932
# Poissons Ratio (y) = 0.02327 0.08388
# Poissons Ratio (z) = 0.47173 0.36679
#
# Static dielectric constant tensor:
#      x y z
#    x 1.741950 0.000000 0.029200 
#    y 0.000000 1.800950 0.000000 
#    z 0.029200 0.000000 1.764360 
# 
# From -- ./inp_files/48858.got.cif
#   From: 2010.05.17/outbox.cif.g08.bks.cpg/sg12_25_cif.got.tgz:48858.got - 2010.06.03 13:09:07.
