data_PCOD9175235
_publ_section_title
;
Structure prediction by ZEFSAII (Michael W. Deem and Ramdas Pophale) SiO2 
 PCOD9175235
Probable space group: C 2/M
;
_chemical_formula_sum "Si O2"
_cell_formula_units_Z 52
_cell_length_a 8.641757
_cell_length_b 25.323711
_cell_length_c 19.370629
_cell_angle_alpha 90.000000
_cell_angle_beta 33.869657
_cell_angle_gamma 90.000000
_cell_volume 2362.470676
_symmetry_space_group_name_H-M "C 2/M"
_symmetry_group_IT_number 12
_symmetry_cell_setting 'monoclinic'
loop_
_space_group_symop_operation_xyz
x,y,z
-x,y,-z
-x,-y,-z
x,-y,z
1/2+x,1/2+y,z
1/2-x,1/2+y,-z
1/2-x,1/2-y,-z
1/2+x,1/2-y,z
loop_
_atom_site_type_symbol
_atom_site_label
_atom_site_fract_x
_atom_site_fract_y
_atom_site_fract_z
Si Si1 0.082542 0.440307 0.293065
Si Si2 0.775506 0.916532 0.932490
Si Si3 0.064134 0.620159 0.155905
Si Si4 0.035993 0.658289 0.390747
Si Si5 0.000000 0.253319 0.500000
Si Si6 0.581446 0.216435 0.239179
Si Si7 0.611966 0.660391 0.227418
O O1 0.979028 0.500000 0.337610
O O2 0.414283 0.440231 0.188351
O O3 0.932640 0.396647 0.397659
O O4 0.058026 0.417961 0.224147
O O5 0.788050 0.864160 0.881306
O O6 0.500000 0.943342 0.000000
O O7 0.731597 0.903892 0.029489
O O8 0.159896 0.677812 0.147959
O O9 0.765877 0.632149 0.232899
O O10 0.880171 0.706689 0.485352
O O11 0.287782 0.646265 0.348950
O O12 0.179609 0.687320 0.271906
O O13 0.754679 0.219747 0.624985
O O14 0.666855 0.277135 0.206114
#
# Coordination Sequence:
#
# PCOD9175235 Si02
#       7
#     8   8   8   8   4   8   8
#     4  10  21  38  56  74 101 137 178 223 267 306
#     4   9  19  34  52  77 108 139 174 213 254 307
#     4  10  20  33  50  76 107 138 177 217 250 304
#     4   9  19  33  52  79 106 134 174 218 255 310
#     4  10  18  32  57  84 107 136 170 208 262 320
#     4  10  19  32  53  81 110 141 173 206 254 312
#     4   9  17  32  49  74 111 142 171 209 256 305
#
# _framework density 22.010853999999998
#
# number of rings (size 3 to 8) (size 9 to 14) (size 15 to 20)
#    0.000    2.462    0.000    2.769    0.000    3.385 
#    0.000   14.231    0.000    0.000    0.000   30.154 
#    0.000    0.000    0.000    0.000    0.000    0.000 
#
# Total GULP energy -144808.074319 kJ/mol
# GULP energy per Si atom -5569.541320 kJ/mol
# Density = 2.196076 g / cm^3
# Si number density = 22.010854 Si / 1000 Ang^3
#
#
#
# Elastic Constant Matrix: (Units=GPa)
#
#
# Indices 1 2 3 4 5 6 
#
# 1 84.7329 26.4828 2.4830 -0.0012 12.6702 -0.0006
# 2 26.4828 143.3932 6.4580 -0.0009 8.8128 -0.0004
# 3 2.4830 6.4580 33.7368 -0.0032 3.3189 -0.0004
# 4 -0.0012 -0.0009 -0.0032 62.3593 0.0020 30.9919
# 5 12.6702 8.8128 3.3189 0.0020 27.1326 0.0011
# 6 -0.0006 -0.0004 -0.0004 30.9919 0.0011 26.8298
#
#
#
# Elastic Compliance Matrix: (Units=1/GPa)
#
#
# Indices 1 2 3 4 5 6 
#
# 1 0.013288 -0.002114 -0.000031 0.000000 -0.005515 0.000000
# 2 -0.002114 0.007496 -0.001151 0.000000 -0.001307 0.000000
# 3 -0.000031 -0.001151 0.030189 0.000003 -0.003305 -0.000003
# 4 0.000000 0.000000 0.000003 0.037651 -0.000001 -0.043492
# 5 -0.005515 -0.001307 -0.003305 -0.000001 0.040260 0.000000
# 6 0.000000 0.000000 -0.000003 -0.043492 0.000000 0.087511
#
#
# Mechanical properties :
#
#
# Convention : Reuss Voigt Hill
#
# Bulk Modulus (GPa) = 22.53148 36.96782 29.74965
# Shear Modulus (GPa) = 21.02777 38.36028 29.69403
#
# Velocity S-wave (km/s) = 3.09421 4.17920 3.67694
# Velocity P-wave (km/s) = 4.79836 6.33399 5.61888
#
# Compressibility (1/GPa) = 0.04438235
#
# Stress axis : x y z
#
# Youngs Moduli (GPa) = 75.25597 133.39782 33.12475
#
# Poissons Ratio (x) = 0.28197 0.00102
# Poissons Ratio (y) = 0.15908 0.03812
# Poissons Ratio (z) = 0.00232 0.15352
#
# Static dielectric constant tensor:
#      x y z
#    x 1.902970 0.000000 -0.029590 
#    y 0.000000 1.808880 0.000000 
#    z -0.029590 0.000000 1.894490 
# 
# From -- ./inp_files/302252.got.cif
#   From: 2010.05.17/outbox.cif.g08.bks.cpg/sg12_152_cif.got.tgz:302252.got - 2010.06.03 13:09:07.
