data_PCOD9175040
_publ_section_title
;
Structure prediction by ZEFSAII (Michael W. Deem and Ramdas Pophale) SiO2 
 PCOD9175040
Probable space group: C 2/M
;
_chemical_formula_sum "Si O2"
_cell_formula_units_Z 56
_cell_length_a 21.004230
_cell_length_b 7.835704
_cell_length_c 20.690757
_cell_angle_alpha 90.000000
_cell_angle_beta 51.173805
_cell_angle_gamma 90.000000
_cell_volume 2652.939118
_symmetry_space_group_name_H-M "C 2/M"
_symmetry_group_IT_number 12
_symmetry_cell_setting 'monoclinic'
loop_
_space_group_symop_operation_xyz
x,y,z
-x,y,-z
-x,-y,-z
x,-y,z
1/2+x,1/2+y,z
1/2-x,1/2+y,-z
1/2-x,1/2-y,-z
1/2+x,1/2-y,z
loop_
_atom_site_type_symbol
_atom_site_label
_atom_site_fract_x
_atom_site_fract_y
_atom_site_fract_z
Si Si1 0.136963 0.810605 0.024788
Si Si2 0.446133 0.708902 0.473099
Si Si3 0.100098 0.293591 0.741501
Si Si4 0.530005 0.293760 0.286203
Si Si5 0.523986 0.191578 0.916943
Si Si6 0.762757 0.205623 0.566951
Si Si7 0.799204 0.801641 0.868918
O O1 0.211211 0.785875 0.927536
O O2 0.102364 0.000000 0.040220
O O3 0.170780 0.796051 0.075710
O O4 0.063815 0.682160 0.061710
O O5 0.500000 0.763396 0.500000
O O6 0.445730 0.500000 0.473304
O O7 0.487026 0.763554 0.379523
O O8 0.351745 0.765673 0.533829
O O9 0.102869 0.500000 0.743956
O O10 0.026961 0.251005 0.738478
O O11 0.081972 0.229467 0.825540
O O12 0.185197 0.230968 0.657118
O O13 0.535142 0.500000 0.284004
O O14 0.623393 0.231039 0.219519
O O15 0.555206 0.000000 0.912225
O O16 0.500000 0.276831 0.000000
O O17 0.750000 0.250000 0.500000
O O18 0.762784 0.000000 0.571773
O O19 0.786262 0.000000 0.859537
#
# Coordination Sequence:
#
# PCOD9175040 Si02
#       7
#     8   8   8   8   8   8   8
#     4  10  19  32  52  75 101 133 172 216 265 314
#     4   9  18  33  53  80 111 142 176 220 270 320
#     4  10  20  33  53  81 106 136 179 225 271 320
#     4  10  18  32  55  80 103 137 179 218 263 320
#     4  10  21  37  53  73 106 144 180 223 277 326
#     4  10  19  33  56  83 110 140 179 224 270 323
#     4   9  18  31  49  76 103 131 170 214 261 310
#
# _framework density 21.108664000000001
#
# number of rings (size 3 to 8) (size 9 to 14) (size 15 to 20)
#    0.000    2.286    2.857    0.429    0.000    1.429 
#    2.571    0.000    0.000    1.714    0.000    0.000 
#    0.000    0.000    0.000    0.000    0.000    0.000 
#
# Total GULP energy -156152.033013 kJ/mol
# GULP energy per Si atom -5576.858322 kJ/mol
# Density = 2.106062 g / cm^3
# Si number density = 21.108664 Si / 1000 Ang^3
#
#
#
# Elastic Constant Matrix: (Units=GPa)
#
#
# Indices 1 2 3 4 5 6 
#
# 1 59.8135 -0.3405 46.2825 0.0004 -1.2188 0.0000
# 2 -0.3405 27.7795 2.5572 0.0005 -0.8673 -0.0009
# 3 46.2825 2.5572 199.4063 0.0003 -6.7114 -0.0002
# 4 0.0004 0.0005 0.0003 9.9115 -0.0002 -1.6519
# 5 -1.2188 -0.8673 -6.7114 -0.0002 40.0827 0.0001
# 6 0.0000 -0.0009 -0.0002 -1.6519 0.0001 17.6239
#
#
#
# Elastic Compliance Matrix: (Units=1/GPa)
#
#
# Indices 1 2 3 4 5 6 
#
# 1 0.020393 0.000682 -0.004747 -0.000001 -0.000160 0.000000
# 2 0.000682 0.036083 -0.000597 -0.000002 0.000701 0.000002
# 3 -0.004747 -0.000597 0.006154 0.000000 0.000873 0.000000
# 4 -0.000001 -0.000002 0.000000 0.102494 0.000000 0.009607
# 5 -0.000160 0.000701 0.000873 0.000000 0.025105 0.000000
# 6 0.000000 0.000002 0.000000 0.009607 0.000000 0.057642
#
#
# Mechanical properties :
#
#
# Convention : Reuss Voigt Hill
#
# Bulk Modulus (GPa) = 18.76033 42.66641 30.71337
# Shear Modulus (GPa) = 18.18422 29.42363 23.80392
#
# Velocity S-wave (km/s) = 2.93824 3.73756 3.36175
# Velocity P-wave (km/s) = 4.51861 6.23558 5.44520
#
# Compressibility (1/GPa) = 0.05330396
#
# Stress axis : x y z
#
# Youngs Moduli (GPa) = 49.03732 27.71390 162.50153
#
# Poissons Ratio (x) = -0.01890 0.77144
# Poissons Ratio (y) = -0.03344 0.09708
# Poissons Ratio (z) = 0.23279 0.01656
#
# Static dielectric constant tensor:
#      x y z
#    x 1.733770 0.000000 -0.006180 
#    y 0.000000 1.803180 0.000000 
#    z -0.006180 0.000000 1.794480 
# 
# From -- ./inp_files/319696.got.cif
#   From: 2010.05.17/outbox.cif.g08.bks.cpg/sg12_160_cif.got.tgz:319696.got - 2010.06.03 13:09:07.
