data_PCOD9175688
_publ_section_title
;
Structure prediction by ZEFSAII (Michael W. Deem and Ramdas Pophale) SiO2 
 PCOD9175688
Probable space group: C 2/M
;
_chemical_formula_sum "Si O2"
_cell_formula_units_Z 64
_cell_length_a 12.959459
_cell_length_b 24.003874
_cell_length_c 12.305377
_cell_angle_alpha 90.000000
_cell_angle_beta 105.772279
_cell_angle_gamma 90.000000
_cell_volume 3683.799730
_symmetry_space_group_name_H-M "C 2/M"
_symmetry_group_IT_number 12
_symmetry_cell_setting 'monoclinic'
loop_
_space_group_symop_operation_xyz
x,y,z
-x,y,-z
-x,-y,-z
x,-y,z
1/2+x,1/2+y,z
1/2-x,1/2+y,-z
1/2-x,1/2-y,-z
1/2+x,1/2-y,z
loop_
_atom_site_type_symbol
_atom_site_label
_atom_site_fract_x
_atom_site_fract_y
_atom_site_fract_z
Si Si1 0.619075 0.659227 0.490851
Si Si2 0.600341 0.935635 0.303434
Si Si3 0.768161 0.564196 0.445026
Si Si4 0.254918 0.675961 0.878497
Si Si5 0.277650 0.167450 0.737134
Si Si6 0.106893 0.222477 0.270225
Si Si7 0.346204 0.935306 0.219630
Si Si8 0.869955 0.213382 0.118006
O O1 0.500000 0.647996 0.500000
O O2 0.673170 0.605971 0.448646
O O3 0.694316 0.674093 0.613907
O O4 0.615455 0.707101 0.398870
O O5 0.637470 0.926502 0.439294
O O6 0.670560 0.893250 0.253466
O O7 0.474134 0.926540 0.252833
O O8 0.623493 0.000000 0.283917
O O9 0.733391 0.500000 0.447140
O O10 0.809795 0.571321 0.334771
O O11 0.302527 0.690684 0.773824
O O12 0.212321 0.613037 0.865074
O O13 0.163382 0.721406 0.882081
O O14 0.347752 0.690073 0.991843
O O15 0.370233 0.212847 0.745206
O O16 0.213341 0.181552 0.827346
O O17 0.990041 0.206031 0.193659
O O18 0.323979 0.000000 0.181841
#
# Coordination Sequence:
#
# PCOD9175688 Si02
#       8
#     8   8   8   8   8   8   8   8
#     4  11  20  34  53  79 115 143 171 222 274 324
#     4   9  18  33  54  81 111 143 176 217 271 327
#     4   9  18  32  52  79 110 146 184 218 260 323
#     4  10  21  36  57  80 104 141 186 225 267 311
#     4  10  21  35  54  80 111 140 178 219 269 327
#     4  11  20  36  55  78 108 143 180 220 272 319
#     4  10  18  33  56  82 111 140 179 227 270 316
#     4  10  21  37  56  77 105 143 185 225 262 320
#
# _framework density 17.373365
#
# number of rings (size 3 to 8) (size 9 to 14) (size 15 to 20)
#    0.000    2.000    2.500    1.875    0.000    1.750 
#    0.000    2.500    0.000    4.500    0.000    0.000 
#    0.000    0.000    0.000    0.000    0.000    0.000 
#
# Total GULP energy -178488.100846 kJ/mol
# GULP energy per Si atom -5577.753151 kJ/mol
# Density = 1.733382 g / cm^3
# Si number density = 17.373365 Si / 1000 Ang^3
#
#
#
# Elastic Constant Matrix: (Units=GPa)
#
#
# Indices 1 2 3 4 5 6 
#
# 1 60.8786 30.5362 7.0114 0.0000 1.8216 0.0000
# 2 30.5362 88.1776 16.0067 0.0000 1.2056 0.0000
# 3 7.0114 16.0067 30.0363 0.0000 -6.5277 0.0000
# 4 0.0000 0.0000 0.0000 23.4205 0.0000 0.5472
# 5 1.8216 1.2056 -6.5277 0.0000 14.1893 0.0000
# 6 0.0000 0.0000 0.0000 0.5472 0.0000 19.3602
#
#
#
# Elastic Compliance Matrix: (Units=1/GPa)
#
#
# Indices 1 2 3 4 5 6 
#
# 1 0.020010 -0.006566 -0.001787 0.000000 -0.002833 0.000000
# 2 -0.006566 0.014987 -0.007275 0.000000 -0.003777 0.000000
# 3 -0.001787 -0.007275 0.041967 0.000000 0.020154 0.000000
# 4 0.000000 0.000000 0.000000 0.042726 0.000000 -0.001208
# 5 -0.002833 -0.003777 0.020154 0.000000 0.080432 0.000000
# 6 0.000000 0.000000 0.000000 -0.001208 0.000000 0.051686
#
#
# Mechanical properties :
#
#
# Convention : Reuss Voigt Hill
#
# Bulk Modulus (GPa) = 21.87839 31.80011 26.83925
# Shear Modulus (GPa) = 16.76152 19.76322 18.26237
#
# Velocity S-wave (km/s) = 3.10946 3.37643 3.24569
# Velocity P-wave (km/s) = 5.05095 5.79172 5.43397
#
# Compressibility (1/GPa) = 0.04570721
#
# Stress axis : x y z
#
# Youngs Moduli (GPa) = 49.97382 66.72471 23.82813
#
# Poissons Ratio (x) = 0.43815 0.04259
# Poissons Ratio (y) = 0.32815 0.17334
# Poissons Ratio (z) = 0.08933 0.48541
#
# Static dielectric constant tensor:
#      x y z
#    x 1.562710 0.000000 0.000300 
#    y 0.000000 1.587000 0.000000 
#    z 0.000300 0.000000 1.584590 
# 
# From -- ./inp_files/135345.got.cif
#   From: 2010.05.17/outbox.cif.g08.bks.cpg/sg12_68_cif.got.tgz:135345.got - 2010.06.03 13:09:07.
