data_PCOD9175412
_publ_section_title
;
Structure prediction by ZEFSAII (Michael W. Deem and Ramdas Pophale) SiO2 
 PCOD9175412
Probable space group: C 2/M
;
_chemical_formula_sum "Si O2"
_cell_formula_units_Z 48
_cell_length_a 31.316507
_cell_length_b 14.504052
_cell_length_c 4.906912
_cell_angle_alpha 90.000000
_cell_angle_beta 98.427001
_cell_angle_gamma 90.000000
_cell_volume 2204.735652
_symmetry_space_group_name_H-M "C 2/M"
_symmetry_group_IT_number 12
_symmetry_cell_setting 'monoclinic'
loop_
_space_group_symop_operation_xyz
x,y,z
-x,y,-z
-x,-y,-z
x,-y,z
1/2+x,1/2+y,z
1/2-x,1/2+y,-z
1/2-x,1/2-y,-z
1/2+x,1/2-y,z
loop_
_atom_site_type_symbol
_atom_site_label
_atom_site_fract_x
_atom_site_fract_y
_atom_site_fract_z
Si Si1 0.383685 0.180347 0.958176
Si Si2 0.910521 0.205730 0.448914
Si Si3 0.666073 0.500000 0.985561
Si Si4 0.232812 0.857200 0.272788
Si Si5 0.110792 0.000000 0.434439
Si Si6 0.528701 0.159746 0.759966
Si Si7 0.210120 0.348355 0.201014
O O1 0.376271 0.257027 0.190441
O O2 0.424406 0.120955 0.106257
O O3 0.400190 0.237200 0.712185
O O4 0.340021 0.126358 0.852689
O O5 0.954694 0.244195 0.359077
O O6 0.910586 0.097427 0.506503
O O7 0.694752 0.415281 0.108127
O O8 0.622748 0.500000 0.127404
O O9 0.654347 0.500000 0.658644
O O10 0.212199 0.757363 0.306688
O O11 0.256304 0.895646 0.562668
O O12 0.270109 0.850801 0.080541
O O13 0.500000 0.112527 0.500000
O O14 0.500000 0.170934 0.000000
#
# Coordination Sequence:
#
# PCOD9175412 Si02
#       7
#     8   8   4   8   4   8   8
#     4  10  19  32  53  69  95 125 167 203 257 300
#     4  10  20  31  49  71  92 128 172 211 254 291
#     4  12  24  36  52  73 105 141 166 226 261 294
#     4  10  21  33  51  72 103 127 169 208 263 291
#     4  12  22  34  50  68  95 128 188 215 243 297
#     4  10  18  33  50  69  97 128 162 206 266 308
#     4  10  19  34  51  75  96 131 168 214 243 311
#
# _framework density 21.771317
#
# number of rings (size 3 to 8) (size 9 to 14) (size 15 to 20)
#    1.000    0.667    1.667    5.000    0.000    2.667 
#    0.000    0.833    0.000    0.000    0.000    0.000 
#    0.000    0.000    0.000   15.000    0.000    0.000 
#
# Total GULP energy -133779.863895 kJ/mol
# GULP energy per Si atom -5574.160996 kJ/mol
# Density = 2.172176 g / cm^3
# Si number density = 21.771317 Si / 1000 Ang^3
#
#
#
# Elastic Constant Matrix: (Units=GPa)
#
#
# Indices 1 2 3 4 5 6 
#
# 1 89.8054 -2.5859 33.5730 0.0000 12.1758 0.0000
# 2 -2.5859 48.5635 -6.7430 0.0000 0.3336 0.0000
# 3 33.5730 -6.7430 124.3151 0.0000 3.5561 0.0000
# 4 0.0000 0.0000 0.0000 11.8625 0.0000 13.2759
# 5 12.1758 0.3336 3.5561 0.0000 41.1731 0.0000
# 6 0.0000 0.0000 0.0000 13.2759 0.0000 6.8709
#
#
#
# Elastic Compliance Matrix: (Units=1/GPa)
#
#
# Indices 1 2 3 4 5 6 
#
# 1 0.012877 0.000243 -0.003364 0.000000 -0.003519 0.000000
# 2 0.000243 0.020755 0.001070 0.000000 -0.000332 0.000000
# 3 -0.003364 0.001070 0.009005 0.000000 0.000208 0.000000
# 4 0.000000 0.000000 0.000000 -0.072521 0.000000 0.140125
# 5 -0.003519 -0.000332 0.000208 0.000000 0.025313 0.000000
# 6 0.000000 0.000000 0.000000 0.140125 0.000000 -0.125207
#
#
# Mechanical properties :
#
#
# Convention : Reuss Voigt Hill
#
# Bulk Modulus (GPa) = 25.95088 34.57467 30.26277
# Shear Modulus (GPa) = -44.31376 27.87730 -8.21823
#
# Velocity S-wave (km/s) = -4.51646 3.58223 -1.94499
# Velocity P-wave (km/s) = 3.90541 5.74675 2.98102
#
# Compressibility (1/GPa) = 0.03853435
#
# Stress axis : x y z
#
# Youngs Moduli (GPa) = 77.65879 48.18036 111.05487
#
# Poissons Ratio (x) = -0.01170 0.37356
# Poissons Ratio (y) = -0.01885 -0.11880
# Poissons Ratio (z) = 0.26122 -0.05154
#
# Static dielectric constant tensor:
#      x y z
#    x 1.795070 0.000000 0.049060 
#    y 0.000000 1.884800 0.000000 
#    z 0.049060 0.000000 1.852240 
# 
# From -- ./inp_files/28360.got.cif
#   From: 2010.05.17/outbox.cif.g08.bks.cpg/sg12_15_cif.got.tgz:28360.got - 2010.06.03 13:09:07.
