data_PCOD9175815
_publ_section_title
;
Structure prediction by ZEFSAII (Michael W. Deem and Ramdas Pophale) SiO2 
 PCOD9175815
Probable space group: C 2/M
;
_chemical_formula_sum "Si O2"
_cell_formula_units_Z 48
_cell_length_a 14.474593
_cell_length_b 23.050077
_cell_length_c 10.574010
_cell_angle_alpha 90.000000
_cell_angle_beta 44.104862
_cell_angle_gamma 90.000000
_cell_volume 2455.338124
_symmetry_space_group_name_H-M "C 2/M"
_symmetry_group_IT_number 12
_symmetry_cell_setting 'monoclinic'
loop_
_space_group_symop_operation_xyz
x,y,z
-x,y,-z
-x,-y,-z
x,-y,z
1/2+x,1/2+y,z
1/2-x,1/2+y,-z
1/2-x,1/2-y,-z
1/2+x,1/2-y,z
loop_
_atom_site_type_symbol
_atom_site_label
_atom_site_fract_x
_atom_site_fract_y
_atom_site_fract_z
Si Si1 0.763857 0.115887 0.046228
Si Si2 0.008933 0.387170 0.838533
Si Si3 0.784414 0.234853 0.161420
Si Si4 0.793459 0.500000 0.764301
Si Si5 0.554044 0.674887 0.319224
Si Si6 0.580673 0.000000 0.624723
Si Si7 0.065200 0.258720 0.744101
O O1 0.639452 0.110275 0.073433
O O2 0.737915 0.172224 0.159002
O O3 0.774827 0.058403 0.118692
O O4 0.893815 0.130317 0.836286
O O5 0.083400 0.443169 0.709926
O O6 0.075683 0.327816 0.723016
O O7 0.000000 0.385786 0.000000
O O8 0.678518 0.283713 0.231026
O O9 0.825630 0.235456 0.266544
O O10 0.920212 0.249696 0.952704
O O11 0.815229 0.500000 0.592481
O O12 0.938356 0.500000 0.691034
O O13 0.500000 0.647236 0.500000
O O14 0.446078 0.719052 0.367560
#
# Coordination Sequence:
#
# PCOD9175815 Si02
#       7
#     8   8   8   4   8   4   8
#     4  10  19  37  57  76 111 153 188 228 285 333
#     4  11  17  32  55  83 119 148 173 221 290 349
#     4  10  18  35  56  81 109 149 190 222 281 338
#     4   9  20  38  57  75 104 147 195 234 275 335
#     4  11  21  33  52  83 117 148 188 234 277 333
#     4   9  21  32  52  88 109 138 188 231 282 338
#     4  10  18  33  58  80 111 151 185 225 282 342
#
# _framework density 19.549243000000001
#
# number of rings (size 3 to 8) (size 9 to 14) (size 15 to 20)
#    0.000    1.833    5.000    1.250    0.000    2.000 
#    0.000    2.083    0.000    8.000    0.000    0.000 
#    0.000    0.000    0.000    0.000    0.000    0.000 
#
# Total GULP energy -134017.296341 kJ/mol
# GULP energy per Si atom -5584.054014 kJ/mol
# Density = 1.950475 g / cm^3
# Si number density = 19.549243 Si / 1000 Ang^3
#
#
#
# Elastic Constant Matrix: (Units=GPa)
#
#
# Indices 1 2 3 4 5 6 
#
# 1 75.3799 18.0652 14.8837 0.0000 9.0972 0.0000
# 2 18.0652 135.3062 50.5036 0.0000 17.5516 0.0000
# 3 14.8837 50.5036 82.3804 0.0000 16.1752 0.0000
# 4 0.0000 0.0000 0.0000 10.6840 0.0000 0.4917
# 5 9.0972 17.5516 16.1752 0.0000 20.6375 0.0000
# 6 0.0000 0.0000 0.0000 0.4917 0.0000 15.3686
#
#
#
# Elastic Compliance Matrix: (Units=1/GPa)
#
#
# Indices 1 2 3 4 5 6 
#
# 1 0.014261 -0.000881 -0.001122 0.000000 -0.004658 0.000000
# 2 -0.000881 0.009955 -0.005150 0.000000 -0.004041 0.000000
# 3 -0.001122 -0.005150 0.017187 0.000000 -0.008596 0.000000
# 4 0.000000 0.000000 0.000000 0.093736 0.000000 -0.002999
# 5 -0.004658 -0.004041 -0.008596 0.000000 0.060683 0.000000
# 6 0.000000 0.000000 0.000000 -0.002999 0.000000 0.065164
#
#
# Mechanical properties :
#
#
# Convention : Reuss Voigt Hill
#
# Bulk Modulus (GPa) = 36.90560 51.10795 44.00678
# Shear Modulus (GPa) = 17.58561 23.31228 20.44894
#
# Velocity S-wave (km/s) = 3.00251 3.45699 3.23774
# Velocity P-wave (km/s) = 5.56232 6.49110 6.04457
#
# Compressibility (1/GPa) = 0.02709616
#
# Stress axis : x y z
#
# Youngs Moduli (GPa) = 70.12171 100.45376 58.18493
#
# Poissons Ratio (x) = 0.08851 0.06527
# Poissons Ratio (y) = 0.06178 0.29966
# Poissons Ratio (z) = 0.07867 0.51735
#
# Static dielectric constant tensor:
#      x y z
#    x 1.704210 0.000000 0.014580 
#    y 0.000000 1.666180 0.000000 
#    z 0.014580 0.000000 1.720870 
# 
# From -- ./inp_files/147964.got.cif
#   From: 2010.05.17/outbox.cif.g08.bks.cpg/sg12_74_cif.got.tgz:147964.got - 2010.06.03 13:09:07.
