data_PCOD9175968
_publ_section_title
;
Structure prediction by ZEFSAII (Michael W. Deem and Ramdas Pophale) SiO2 
 PCOD9175968
Probable space group: C 2/M
;
_chemical_formula_sum "Si O2"
_cell_formula_units_Z 64
_cell_length_a 15.085904
_cell_length_b 15.425342
_cell_length_c 17.691611
_cell_angle_alpha 90.000000
_cell_angle_beta 134.427313
_cell_angle_gamma 90.000000
_cell_volume 2940.060825
_symmetry_space_group_name_H-M "C 2/M"
_symmetry_group_IT_number 12
_symmetry_cell_setting 'monoclinic'
loop_
_space_group_symop_operation_xyz
x,y,z
-x,y,-z
-x,-y,-z
x,-y,z
1/2+x,1/2+y,z
1/2-x,1/2+y,-z
1/2-x,1/2-y,-z
1/2+x,1/2-y,z
loop_
_atom_site_type_symbol
_atom_site_label
_atom_site_fract_x
_atom_site_fract_y
_atom_site_fract_z
Si Si1 0.055756 0.905219 0.248181
Si Si2 0.112888 0.401533 0.360212
Si Si3 0.398714 0.406858 0.554219
Si Si4 0.408188 0.221552 0.507180
Si Si5 0.647483 0.406225 0.067659
Si Si6 0.344355 0.771480 0.731790
Si Si7 0.220691 0.904802 0.934663
Si Si8 0.851394 0.720089 0.901074
O O1 0.123972 0.901786 0.369172
O O2 0.084739 0.820538 0.217191
O O3 0.912197 0.903484 0.185656
O O4 0.079749 0.000000 0.226267
O O5 0.062274 0.500000 0.332885
O O6 0.261451 0.410178 0.437232
O O7 0.098267 0.344270 0.426979
O O8 0.073823 0.338649 0.268399
O O9 0.461598 0.500000 0.575757
O O10 0.457435 0.316297 0.563933
O O11 0.500000 0.184580 0.500000
O O12 0.277227 0.242532 0.388268
O O13 0.697579 0.500000 0.122179
O O14 0.700944 0.317975 0.132072
O O15 0.500000 0.407350 0.000000
O O16 0.678204 0.397931 0.996635
O O17 0.319465 0.813634 0.798311
O O18 0.299906 0.831689 0.941864
O O19 0.279404 0.000000 0.960201
O O20 0.000000 0.722175 0.000000
#
# Coordination Sequence:
#
# PCOD9175968 Si02
#       8
#     8   8   8   8   8   8   8   8
#     4  10  18  33  61  88 110 148 202 255 304 354
#     4  10  20  39  59  80 115 157 204 247 294 360
#     4   9  17  33  57  82 111 146 188 243 298 353
#     4  11  22  36  56  86 122 157 192 247 312 368
#     4   9  18  37  61  88 118 152 198 256 309 350
#     4  11  22  38  61  86 118 160 204 249 304 360
#     4  10  22  38  61  89 122 160 203 256 307 362
#     4  11  24  39  60  92 126 166 206 250 306 374
#
# _framework density 21.768256999999998
#
# number of rings (size 3 to 8) (size 9 to 14) (size 15 to 20)
#    0.000    1.875    2.500    2.625    1.750    2.750 
#    0.000    0.000    0.000    3.750    0.000    0.000 
#    0.000    0.000    0.000    0.000    0.000    0.000 
#
# Total GULP energy -178317.884963 kJ/mol
# GULP energy per Si atom -5572.433905 kJ/mol
# Density = 2.171871 g / cm^3
# Si number density = 21.768257 Si / 1000 Ang^3
#
#
#
# Elastic Constant Matrix: (Units=GPa)
#
#
# Indices 1 2 3 4 5 6 
#
# 1 77.7166 57.4504 14.1744 0.0000 -27.6918 0.0000
# 2 57.4504 136.2487 26.1823 0.0000 -17.9793 0.0000
# 3 14.1744 26.1823 33.9456 0.0000 -23.1851 0.0000
# 4 0.0000 0.0000 0.0000 0.5371 0.0000 -1.8930
# 5 -27.6918 -17.9793 -23.1851 0.0000 27.3690 0.0000
# 6 0.0000 0.0000 0.0000 -1.8930 0.0000 14.5247
#
#
#
# Elastic Compliance Matrix: (Units=1/GPa)
#
#
# Indices 1 2 3 4 5 6 
#
# 1 0.039765 -0.015887 0.037972 -0.000002 0.061965 0.000000
# 2 -0.015887 0.014964 -0.021768 0.000001 -0.024685 0.000000
# 3 0.037972 -0.021768 0.111217 -0.000004 0.118336 -0.000001
# 4 -0.000002 0.000001 -0.000004 3.443556 -0.000006 0.448793
# 5 0.061965 -0.024685 0.118336 -0.000006 0.183264 -0.000001
# 6 0.000000 0.000000 -0.000001 0.448793 -0.000001 0.127339
#
#
# Mechanical properties :
#
#
# Convention : Reuss Voigt Hill
#
# Bulk Modulus (GPa) = 6.00310 49.28056 27.64183
# Shear Modulus (GPa) = 1.25786 18.49308 9.87547
#
# Velocity S-wave (km/s) = 0.76098 2.91785 2.13225
# Velocity P-wave (km/s) = 1.88038 5.83436 4.33449
#
# Compressibility (1/GPa) = 0.16658071
#
# Stress axis : x y z
#
# Youngs Moduli (GPa) = 25.14754 66.82595 8.99139
#
# Poissons Ratio (x) = 1.06169 -0.34142
# Poissons Ratio (y) = 0.39953 0.19572
# Poissons Ratio (z) = -0.95491 1.45466
#
# Static dielectric constant tensor:
#      x y z
#    x 1.789360 0.000000 -0.015750 
#    y 0.000000 1.874190 0.000000 
#    z -0.015750 0.000000 1.851810 
# 
# From -- ./inp_files/270319.got.cif
#   From: 2010.05.17/outbox.cif.g08.bks.cpg/sg12_136_cif.got.tgz:270319.got - 2010.06.03 13:09:07.
