data_PCOD9175873
_publ_section_title
;
Structure prediction by ZEFSAII (Michael W. Deem and Ramdas Pophale) SiO2 
 PCOD9175873
Probable space group: C 2/M
;
_chemical_formula_sum "Si O2"
_cell_formula_units_Z 40
_cell_length_a 11.990791
_cell_length_b 25.278331
_cell_length_c 7.809164
_cell_angle_alpha 90.000000
_cell_angle_beta 54.678753
_cell_angle_gamma 90.000000
_cell_volume 1931.301510
_symmetry_space_group_name_H-M "C 2/M"
_symmetry_group_IT_number 12
_symmetry_cell_setting 'monoclinic'
loop_
_space_group_symop_operation_xyz
x,y,z
-x,y,-z
-x,-y,-z
x,-y,z
1/2+x,1/2+y,z
1/2-x,1/2+y,-z
1/2-x,1/2-y,-z
1/2+x,1/2-y,z
loop_
_atom_site_type_symbol
_atom_site_label
_atom_site_fract_x
_atom_site_fract_y
_atom_site_fract_z
Si Si1 0.299296 0.916136 0.583973
Si Si2 0.996200 0.940341 0.203414
Si Si3 0.500000 0.636751 0.500000
Si Si4 0.000000 0.647052 0.000000
Si Si5 0.736763 0.189544 0.563371
Si Si6 0.409783 0.058859 0.844861
O O1 0.166635 0.941064 0.616538
O O2 0.283170 0.853054 0.572691
O O3 0.436957 0.935301 0.369393
O O4 0.311574 0.932472 0.770335
O O5 0.050862 0.900377 0.297334
O O6 0.051028 0.000000 0.168073
O O7 0.000000 0.923054 0.000000
O O8 0.373037 0.670934 0.542758
O O9 0.099784 0.681302 0.795593
O O10 0.902587 0.606633 0.982789
O O11 0.750000 0.250000 0.500000
O O12 0.391876 0.000000 0.931947
#
# Coordination Sequence:
#
# PCOD9175873 Si02
#       6
#     8   8   4   4   8   8
#     4   9  19  35  56  83 123 158 202 246 300 368
#     4  10  20  35  58  90 126 166 205 244 302 378
#     4  10  23  42  64  86 130 160 207 260 316 370
#     4  10  23  38  62  94 120 154 209 256 304 384
#     4  10  23  45  62  88 119 160 210 264 316 358
#     4  10  18  33  58  89 124 160 190 244 311 373
#
# _framework density 20.711421000000001
#
# number of rings (size 3 to 8) (size 9 to 14) (size 15 to 20)
#    0.000    2.200    0.000    3.000    2.800    3.200 
#    7.200    4.000    0.000    0.000    0.000    0.000 
#    0.000    0.000    0.000    0.000    0.000    0.000 
#
# Total GULP energy -111686.416118 kJ/mol
# GULP energy per Si atom -5584.320806 kJ/mol
# Density = 2.066428 g / cm^3
# Si number density = 20.711421 Si / 1000 Ang^3
#
#
#
# Elastic Constant Matrix: (Units=GPa)
#
#
# Indices 1 2 3 4 5 6 
#
# 1 96.8956 43.7654 15.9848 0.0000 -2.8616 0.0000
# 2 43.7654 191.0908 60.3727 0.0000 12.0709 0.0000
# 3 15.9848 60.3727 62.1076 0.0000 8.8096 0.0000
# 4 0.0000 0.0000 0.0000 -25.2237 0.0000 -40.7557
# 5 -2.8616 12.0709 8.8096 0.0000 29.8446 0.0000
# 6 0.0000 0.0000 0.0000 -40.7557 0.0000 -18.7952
#
#
#
# Elastic Compliance Matrix: (Units=1/GPa)
#
#
# Indices 1 2 3 4 5 6 
#
# 1 0.011689 -0.002556 -0.000866 0.000000 0.002410 0.000000
# 2 -0.002556 0.008136 -0.007044 0.000000 -0.001456 0.000000
# 3 -0.000866 -0.007044 0.023775 0.000000 -0.004252 0.000000
# 4 0.000000 0.000000 0.000000 0.015835 0.000000 -0.034337
# 5 0.002410 -0.001456 -0.004252 0.000000 0.035582 0.000000
# 6 0.000000 0.000000 0.000000 -0.034337 0.000000 0.021251
#
#
# Mechanical properties :
#
#
# Convention : Reuss Voigt Hill
#
# Bulk Modulus (GPa) = 44.11616 65.59330 54.85473
# Shear Modulus (GPa) = 34.54102 12.49653 23.51878
#
# Velocity S-wave (km/s) = 4.08821 2.45901 3.37344
# Velocity P-wave (km/s) = 6.60540 6.30882 6.45881
#
# Compressibility (1/GPa) = 0.02266743
#
# Stress axis : x y z
#
# Youngs Moduli (GPa) = 85.55219 122.90966 42.06156
#
# Poissons Ratio (x) = 0.31413 0.03642
# Poissons Ratio (y) = 0.21865 0.29630
# Poissons Ratio (z) = 0.07407 0.86583
#
# Static dielectric constant tensor:
#      x y z
#    x 1.765570 0.000000 -0.006590 
#    y 0.000000 1.711340 0.000000 
#    z -0.006590 0.000000 1.783720 
# 
# From -- ./inp_files/50479.got.cif
#   From: 2010.05.17/outbox.cif.g08.bks.cpg/sg12_26_cif.got.tgz:50479.got - 2010.06.03 13:09:07.
