data_PCOD9175747
_publ_section_title
;
Structure prediction by ZEFSAII (Michael W. Deem and Ramdas Pophale) SiO2 
 PCOD9175747
Probable space group: C 2/M
;
_chemical_formula_sum "Si O2"
_cell_formula_units_Z 46
_cell_length_a 22.998645
_cell_length_b 7.741951
_cell_length_c 34.639288
_cell_angle_alpha 90.000000
_cell_angle_beta 154.397952
_cell_angle_gamma 90.000000
_cell_volume 2665.164168
_symmetry_space_group_name_H-M "C 2/M"
_symmetry_group_IT_number 12
_symmetry_cell_setting 'monoclinic'
loop_
_space_group_symop_operation_xyz
x,y,z
-x,y,-z
-x,-y,-z
x,-y,z
1/2+x,1/2+y,z
1/2-x,1/2+y,-z
1/2-x,1/2-y,-z
1/2+x,1/2-y,z
loop_
_atom_site_type_symbol
_atom_site_label
_atom_site_fract_x
_atom_site_fract_y
_atom_site_fract_z
Si Si1 0.922795 0.702989 0.741148
Si Si2 0.036332 0.798200 0.891759
Si Si3 0.162664 0.500000 0.015808
Si Si4 0.449895 0.500000 0.229236
Si Si5 0.131620 0.207945 0.601872
Si Si6 0.000000 0.500000 0.000000
Si Si7 0.798489 0.000000 0.216272
Si Si8 0.265347 0.193357 0.254992
O O1 0.933614 0.500000 0.738560
O O2 0.768854 0.743949 0.660805
O O3 0.009905 0.743004 0.831839
O O4 0.970569 0.829761 0.736329
O O5 0.134344 0.668349 0.972570
O O6 0.889962 0.779890 0.824811
O O7 0.075644 0.000000 0.917110
O O8 0.060334 0.500000 0.990833
O O9 0.311621 0.500000 0.121950
O O10 0.410385 0.500000 0.250193
O O11 0.149001 0.286794 0.654624
O O12 0.000000 0.265165 0.500000
O O13 0.125002 0.000000 0.602782
O O14 0.845892 0.500000 0.891175
O O15 0.805262 0.833749 0.247690
O O16 0.277062 0.000000 0.246510
#
# Coordination Sequence:
#
# PCOD9175747 Si02
#       8
#     8   8   4   4   8   2   4   8
#     4  10  20  38  56  80 118 145 179 226 285 345
#     4  10  18  33  57  80 108 142 179 235 292 331
#     4  11  21  36  54  78 106 149 193 241 276 331
#     4  11  26  37  53  79 109 160 196 219 279 343
#     4   9  18  34  63  98 118 138 178 238 298 343
#     4  10  20  36  58  74 108 148 200 236 296 296
#     4  11  21  40  57  74 118 155 194 245 269 345
#     4  10  19  33  59  88 113 146 184 234 297 336
#
# _framework density 17.259723999999999
#
# number of rings (size 3 to 8) (size 9 to 14) (size 15 to 20)
#    0.000    1.913    4.348    0.000    1.217    2.435 
#    0.000    3.478    0.000    1.043    0.000    0.000 
#    0.000    0.000    0.000    0.000    0.000    0.000 
#
# Total GULP energy -128153.820282 kJ/mol
# GULP energy per Si atom -5571.905230 kJ/mol
# Density = 1.722044 g / cm^3
# Si number density = 17.259724 Si / 1000 Ang^3
#
#
#
# Elastic Constant Matrix: (Units=GPa)
#
#
# Indices 1 2 3 4 5 6 
#
# 1 111.9152 73.4053 15.0461 0.0000 -6.2163 0.0001
# 2 73.4053 119.1638 32.6116 0.0016 -7.3012 -0.0017
# 3 15.0461 32.6116 68.3948 0.0029 -7.1494 -0.0027
# 4 0.0000 0.0016 0.0029 15.0526 -0.0002 1.8676
# 5 -6.2163 -7.3012 -7.1494 -0.0002 15.0072 0.0000
# 6 0.0001 -0.0017 -0.0027 1.8676 0.0000 22.4288
#
#
#
# Elastic Compliance Matrix: (Units=1/GPa)
#
#
# Indices 1 2 3 4 5 6 
#
# 1 0.015165 -0.009607 0.001487 0.000001 0.002316 -0.000001
# 2 -0.009607 0.015837 -0.005313 -0.000001 0.001194 0.000001
# 3 0.001487 -0.005313 0.017493 -0.000003 0.006364 0.000002
# 4 0.000001 -0.000001 -0.000003 0.067127 -0.000001 -0.005589
# 5 0.002316 0.001194 0.006364 -0.000001 0.071207 0.000001
# 6 -0.000001 0.000001 0.000002 -0.005589 0.000001 0.045051
#
#
# Mechanical properties :
#
#
# Convention : Reuss Voigt Hill
#
# Bulk Modulus (GPa) = 46.23584 60.17777 53.20680
# Shear Modulus (GPa) = 18.80013 22.39177 20.59595
#
# Velocity S-wave (km/s) = 3.30396 3.60577 3.45816
# Velocity P-wave (km/s) = 6.43438 7.23029 6.84392
#
# Compressibility (1/GPa) = 0.02162824
#
# Stress axis : x y z
#
# Youngs Moduli (GPa) = 65.94048 63.14416 57.16716
#
# Poissons Ratio (x) = 0.60661 -0.08498
# Poissons Ratio (y) = 0.63347 0.30373
# Poissons Ratio (z) = -0.09803 0.33548
#
# Static dielectric constant tensor:
#      x y z
#    x 1.574820 0.000000 0.016120 
#    y 0.000000 1.592870 0.000000 
#    z 0.016120 0.000000 1.569130 
# 
# From -- ./inp_files/248863.got.cif
#   From: 2010.05.17/outbox.cif.g08.bks.cpg/sg12_125_cif.got.tgz:248863.got - 2010.06.03 13:09:07.
