data_PCOD9175921
_publ_section_title
;
Structure prediction by ZEFSAII (Michael W. Deem and Ramdas Pophale) SiO2 
 PCOD9175921
Probable space group: C 2/M
;
_chemical_formula_sum "Si O2"
_cell_formula_units_Z 40
_cell_length_a 11.024124
_cell_length_b 21.809802
_cell_length_c 6.994015
_cell_angle_alpha 90.000000
_cell_angle_beta 79.377429
_cell_angle_gamma 90.000000
_cell_volume 1652.780853
_symmetry_space_group_name_H-M "C 2/M"
_symmetry_group_IT_number 12
_symmetry_cell_setting 'monoclinic'
loop_
_space_group_symop_operation_xyz
x,y,z
-x,y,-z
-x,-y,-z
x,-y,z
1/2+x,1/2+y,z
1/2-x,1/2+y,-z
1/2-x,1/2-y,-z
1/2+x,1/2-y,z
loop_
_atom_site_type_symbol
_atom_site_label
_atom_site_fract_x
_atom_site_fract_y
_atom_site_fract_z
Si Si1 0.084054 0.000000 0.264497
Si Si2 0.807755 0.000000 0.191483
Si Si3 0.855585 0.135162 0.700022
Si Si4 0.408856 0.838624 0.266434
Si Si5 0.831563 0.373151 0.723852
Si Si6 0.404129 0.306119 0.273735
O O1 0.122084 0.936262 0.350150
O O2 0.938377 0.000000 0.263206
O O3 0.153821 0.000000 0.041466
O O4 0.728109 0.059983 0.256515
O O5 0.715354 0.142346 0.808461
O O6 0.872130 0.176307 0.504392
O O7 0.968395 0.157478 0.800094
O O8 0.373568 0.856684 0.495208
O O9 0.543034 0.867290 0.192225
O O10 0.424277 0.765662 0.247803
O O11 0.717981 0.327539 0.801137
#
# Coordination Sequence:
#
# PCOD9175921 Si02
#       6
#     4   4   8   8   8   8
#     4  11  24  41  56  76 106 153 206 238 251 314
#     4  11  24  41  57  72 109 157 200 233 266 310
#     4  10  19  33  57  85 111 147 182 229 273 322
#     4  10  20  33  58  92 123 132 170 228 294 346
#     4  10  19  35  56  82 114 154 172 220 289 337
#     4  10  18  33  59  89 119 142 168 225 289 344
#
# _framework density 24.201637000000002
#
# number of rings (size 3 to 8) (size 9 to 14) (size 15 to 20)
#    0.000    1.800    2.000    6.000    0.000    7.200 
#    0.000    2.000    0.000   13.200    0.000    0.000 
#    0.000    0.000    0.000    0.000    0.000    0.000 
#
# Total GULP energy -111928.716470 kJ/mol
# GULP energy per Si atom -5596.435823 kJ/mol
# Density = 2.414655 g / cm^3
# Si number density = 24.201637 Si / 1000 Ang^3
#
#
#
# Elastic Constant Matrix: (Units=GPa)
#
#
# Indices 1 2 3 4 5 6 
#
# 1 266.5181 56.4896 38.1383 0.0000 -23.6953 0.0000
# 2 56.4896 170.0044 -1.9649 0.0000 -17.0718 0.0000
# 3 38.1383 -1.9649 78.9350 0.0000 -6.4756 0.0000
# 4 0.0000 0.0000 0.0000 -27.0421 0.0000 -28.2229
# 5 -23.6953 -17.0718 -6.4756 0.0000 40.7433 0.0000
# 6 0.0000 0.0000 0.0000 -28.2229 0.0000 59.8961
#
#
#
# Elastic Compliance Matrix: (Units=1/GPa)
#
#
# Indices 1 2 3 4 5 6 
#
# 1 0.004484 -0.001341 -0.002059 0.000000 0.001718 0.000000
# 2 -0.001341 0.006552 0.000985 0.000000 0.002122 0.000000
# 3 -0.002059 0.000985 0.013804 0.000000 0.001409 0.000000
# 4 0.000000 0.000000 0.000000 -0.024789 0.000000 -0.011680
# 5 0.001718 0.002122 0.001409 0.000000 0.026657 0.000000
# 6 0.000000 0.000000 0.000000 -0.011680 0.000000 0.011192
#
#
# Mechanical properties :
#
#
# Convention : Reuss Voigt Hill
#
# Bulk Modulus (GPa) = 49.97463 77.86483 63.91973
# Shear Modulus (GPa) = 101.21778 42.90576 72.06177
#
# Velocity S-wave (km/s) = 6.47406 4.21508 5.46262
# Velocity P-wave (km/s) = 8.75093 7.47880 8.13976
#
# Compressibility (1/GPa) = 0.02001016
#
# Stress axis : x y z
#
# Youngs Moduli (GPa) = 223.02854 152.61786 72.44532
#
# Poissons Ratio (x) = 0.20467 0.14915
# Poissons Ratio (y) = 0.29910 -0.07137
# Poissons Ratio (z) = 0.45916 -0.15035
#
# Static dielectric constant tensor:
#      x y z
#    x 1.995850 0.000000 0.075350 
#    y 0.000000 1.843910 0.000000 
#    z 0.075350 0.000000 2.118850 
# 
# From -- ./inp_files/48656.got.cif
#   From: 2010.05.17/outbox.cif.g08.bks.cpg/sg12_25_cif.got.tgz:48656.got - 2010.06.03 13:09:07.
