data_PCOD9175515
_publ_section_title
;
Structure prediction by ZEFSAII (Michael W. Deem and Ramdas Pophale) SiO2 
 PCOD9175515
Probable space group: C 2/M
;
_chemical_formula_sum "Si O2"
_cell_formula_units_Z 42
_cell_length_a 19.223839
_cell_length_b 15.092361
_cell_length_c 16.234223
_cell_angle_alpha 90.000000
_cell_angle_beta 157.744807
_cell_angle_gamma 90.000000
_cell_volume 1783.862556
_symmetry_space_group_name_H-M "C 2/M"
_symmetry_group_IT_number 12
_symmetry_cell_setting 'monoclinic'
loop_
_space_group_symop_operation_xyz
x,y,z
-x,y,-z
-x,-y,-z
x,-y,z
1/2+x,1/2+y,z
1/2-x,1/2+y,-z
1/2-x,1/2-y,-z
1/2+x,1/2-y,z
loop_
_atom_site_type_symbol
_atom_site_label
_atom_site_fract_x
_atom_site_fract_y
_atom_site_fract_z
Si Si1 0.208953 0.659377 0.059236
Si Si2 0.796090 0.396519 0.770212
Si Si3 0.601487 0.175812 0.686740
Si Si4 0.000000 0.500000 0.500000
Si Si5 0.626791 0.105703 0.412769
Si Si6 0.557486 0.606907 0.354288
O O1 0.273568 0.609472 0.212615
O O2 0.230747 0.762829 0.103381
O O3 0.352322 0.639346 0.143511
O O4 0.013791 0.623426 0.816309
O O5 0.819268 0.500000 0.774501
O O6 0.669814 0.361686 0.558488
O O7 0.000000 0.354660 0.000000
O O8 0.500000 0.224543 0.500000
O O9 0.634365 0.078889 0.684743
O O10 0.459637 0.157891 0.605689
O O11 0.825906 0.133646 0.598004
O O12 0.627019 0.000000 0.433422
O O13 0.552676 0.500000 0.347841
#
# Coordination Sequence:
#
# PCOD9175515 Si02
#       6
#     8   8   8   2   8   8
#     4  12  22  35  60  95 120 151 204 258 294 352
#     4  10  18  33  53  83 126 170 194 227 298 369
#     4  10  21  41  65  86 114 164 210 250 302 349
#     4   8  20  44  64  84 108 166 212 246 296 364
#     4  11  21  39  63  89 126 161 197 245 305 364
#     4  10  21  34  55  88 128 167 193 235 306 366
#
# _framework density 23.544415000000001
#
# number of rings (size 3 to 8) (size 9 to 14) (size 15 to 20)
#    0.571    0.952    2.857    4.000    0.000    2.286 
#    0.000    0.000    0.000    0.000    0.000    7.333 
#    0.000    0.000    0.000    0.000    0.000    0.000 
#
# Total GULP energy -117028.915462 kJ/mol
# GULP energy per Si atom -5572.805498 kJ/mol
# Density = 2.349083 g / cm^3
# Si number density = 23.544415 Si / 1000 Ang^3
#
#
#
# Elastic Constant Matrix: (Units=GPa)
#
#
# Indices 1 2 3 4 5 6 
#
# 1 69.7790 -3.6039 4.2179 -0.0007 -2.5753 -0.0002
# 2 -3.6039 80.9513 0.1044 -0.0031 5.0846 -0.0067
# 3 4.2179 0.1044 35.2464 -0.0004 17.9740 -0.0121
# 4 -0.0007 -0.0031 -0.0004 10.7770 0.0010 11.8207
# 5 -2.5753 5.0846 17.9740 0.0010 32.8844 -0.0047
# 6 -0.0002 -0.0067 -0.0121 11.8207 -0.0047 -17.2375
#
#
#
# Elastic Compliance Matrix: (Units=1/GPa)
#
#
# Indices 1 2 3 4 5 6 
#
# 1 0.014653 0.000479 -0.003192 0.000000 0.002818 0.000001
# 2 0.000479 0.012534 0.001213 0.000005 -0.002563 -0.000001
# 3 -0.003192 0.001213 0.040170 0.000016 -0.022393 -0.000011
# 4 0.000000 0.000005 0.000016 0.052957 -0.000006 0.036316
# 5 0.002818 -0.002563 -0.022393 -0.000006 0.043266 0.000001
# 6 0.000001 -0.000001 -0.000011 0.036316 0.000001 -0.033109
#
#
# Mechanical properties :
#
#
# Convention : Reuss Voigt Hill
#
# Bulk Modulus (GPa) = 15.53847 20.82376 18.18112
# Shear Modulus (GPa) = 32.27418 17.63533 24.95475
#
# Velocity S-wave (km/s) = 3.70642 2.73980 3.25914
# Velocity P-wave (km/s) = 4.99306 4.34423 4.67990
#
# Compressibility (1/GPa) = 0.06435638
#
# Stress axis : x y z
#
# Youngs Moduli (GPa) = 68.24700 79.78374 24.89442
#
# Poissons Ratio (x) = -0.03825 0.07946
# Poissons Ratio (y) = -0.03272 -0.03019
# Poissons Ratio (z) = 0.21784 -0.09675
#
# Static dielectric constant tensor:
#      x y z
#    x 1.978670 0.000000 -0.007920 
#    y 0.000000 1.890890 0.000000 
#    z -0.007920 0.000000 1.942280 
# 
# From -- ./inp_files/285276.got.cif
#   From: 2010.05.17/outbox.cif.g08.bks.cpg/sg12_143_cif.got.tgz:285276.got - 2010.06.03 13:09:07.
