data_PCOD9175093
_publ_section_title
;
Structure prediction by ZEFSAII (Michael W. Deem and Ramdas Pophale) SiO2 
 PCOD9175093
Probable space group: C 2/M
;
_chemical_formula_sum "Si O2"
_cell_formula_units_Z 64
_cell_length_a 15.105501
_cell_length_b 11.581051
_cell_length_c 17.399158
_cell_angle_alpha 90.000000
_cell_angle_beta 91.942087
_cell_angle_gamma 90.000000
_cell_volume 3042.018186
_symmetry_space_group_name_H-M "C 2/M"
_symmetry_group_IT_number 12
_symmetry_cell_setting 'monoclinic'
loop_
_space_group_symop_operation_xyz
x,y,z
-x,y,-z
-x,-y,-z
x,-y,z
1/2+x,1/2+y,z
1/2-x,1/2+y,-z
1/2-x,1/2-y,-z
1/2+x,1/2-y,z
loop_
_atom_site_type_symbol
_atom_site_label
_atom_site_fract_x
_atom_site_fract_y
_atom_site_fract_z
Si Si1 0.030057 0.120365 0.185939
Si Si2 0.036493 0.370118 0.621449
Si Si3 0.772933 0.362444 0.448269
Si Si4 0.155310 0.208224 0.066979
Si Si5 0.154978 0.621977 0.948228
Si Si6 0.887385 0.299939 0.215416
Si Si7 0.777793 0.363152 0.789407
Si Si8 0.622308 0.277650 0.330821
O O1 0.093854 0.127852 0.115467
O O2 0.083263 0.133760 0.267118
O O3 0.968563 0.229931 0.183060
O O4 0.979382 0.000000 0.184270
O O5 0.002664 0.500000 0.605300
O O6 0.123248 0.349993 0.571437
O O7 0.078450 0.363544 0.708398
O O8 0.957034 0.276137 0.619369
O O9 0.761955 0.500000 0.472602
O O10 0.750000 0.250000 0.500000
O O11 0.702964 0.338980 0.377158
O O12 0.239912 0.139938 0.037651
O O13 0.187593 0.305622 0.130028
O O14 0.112447 0.273557 0.993874
O O15 0.123677 0.500000 0.977872
O O16 0.145316 0.625659 0.856522
O O17 0.812375 0.205709 0.232311
O O18 0.768242 0.500000 0.795682
O O19 0.842541 0.327815 0.721382
#
# Coordination Sequence:
#
# PCOD9175093 Si02
#       8
#     8   8   8   8   8   8   8   8
#     4  10  20  36  56  80 112 150 194 249 303 357
#     4  10  21  40  65  93 129 165 211 258 308 370
#     4  11  25  46  69  99 133 170 208 254 309 377
#     4   9  20  33  49  77 106 146 200 245 300 368
#     4  10  19  34  53  73 105 147 194 249 303 356
#     4  10  20  34  54  86 113 150 204 247 303 363
#     4  10  18  32  55  83 119 157 199 250 306 360
#     4  10  21  39  64  95 122 161 208 253 302 363
#
# _framework density 21.038665000000002
#
# number of rings (size 3 to 8) (size 9 to 14) (size 15 to 20)
#    0.000    2.000    1.250    2.250    0.000    2.000 
#    0.000    8.125    0.000    0.000    0.000    0.000 
#    0.000    0.000    0.000    0.000    0.000    0.000 
#
# Total GULP energy -178377.372497 kJ/mol
# GULP energy per Si atom -5574.292891 kJ/mol
# Density = 2.099078 g / cm^3
# Si number density = 21.038665 Si / 1000 Ang^3
#
#
#
# Elastic Constant Matrix: (Units=GPa)
#
#
# Indices 1 2 3 4 5 6 
#
# 1 64.9055 15.2711 7.1766 0.0000 -19.4204 0.0000
# 2 15.2711 122.7207 22.2112 0.0000 -13.3346 0.0000
# 3 7.1766 22.2112 41.6489 0.0000 -8.1386 0.0000
# 4 0.0000 0.0000 0.0000 -8.2256 0.0000 8.0537
# 5 -19.4204 -13.3346 -8.1386 0.0000 25.8024 0.0000
# 6 0.0000 0.0000 0.0000 8.0537 0.0000 2.3017
#
#
#
# Elastic Compliance Matrix: (Units=1/GPa)
#
#
# Indices 1 2 3 4 5 6 
#
# 1 0.019980 -0.000883 -0.000131 0.000000 0.014541 0.000000
# 2 -0.000883 0.009338 -0.004278 0.000000 0.002812 0.000000
# 3 -0.000131 -0.004278 0.027562 0.000000 0.006384 0.000000
# 4 0.000000 0.000000 0.000000 -0.027468 0.000000 0.096112
# 5 0.014541 0.002812 0.006384 0.000000 0.053167 0.000000
# 6 0.000000 0.000000 0.000000 0.096112 0.000000 0.098163
#
#
# Mechanical properties :
#
#
# Convention : Reuss Voigt Hill
#
# Bulk Modulus (GPa) = 21.59986 35.39921 28.49954
# Shear Modulus (GPa) = 24.18288 16.28346 20.23317
#
# Velocity S-wave (km/s) = 3.39403 2.78506 3.10451
# Velocity P-wave (km/s) = 5.06441 5.21579 5.14066
#
# Compressibility (1/GPa) = 0.04629659
#
# Stress axis : x y z
#
# Youngs Moduli (GPa) = 50.05048 107.08541 36.28188
#
# Poissons Ratio (x) = 0.09452 0.00474
# Poissons Ratio (y) = 0.04418 0.15523
# Poissons Ratio (z) = 0.00654 0.45816
#
# Static dielectric constant tensor:
#      x y z
#    x 1.788940 0.000000 0.020780 
#    y 0.000000 1.786740 0.000000 
#    z 0.020780 0.000000 1.816620 
# 
# From -- ./inp_files/269306.got.cif
#   From: 2010.05.17/outbox.cif.g08.bks.cpg/sg12_135_cif.got.tgz:269306.got - 2010.06.03 13:09:07.
