data_PCOD9175165
_publ_section_title
;
Structure prediction by ZEFSAII (Michael W. Deem and Ramdas Pophale) SiO2 
 PCOD9175165
Probable space group: C 2/M
;
_chemical_formula_sum "Si O2"
_cell_formula_units_Z 32
_cell_length_a 21.825901
_cell_length_b 17.412348
_cell_length_c 9.074139
_cell_angle_alpha 90.000000
_cell_angle_beta 157.835058
_cell_angle_gamma 90.000000
_cell_volume 1301.044197
_symmetry_space_group_name_H-M "C 2/M"
_symmetry_group_IT_number 12
_symmetry_cell_setting 'monoclinic'
loop_
_space_group_symop_operation_xyz
x,y,z
-x,y,-z
-x,-y,-z
x,-y,z
1/2+x,1/2+y,z
1/2-x,1/2+y,-z
1/2-x,1/2-y,-z
1/2+x,1/2-y,z
loop_
_atom_site_type_symbol
_atom_site_label
_atom_site_fract_x
_atom_site_fract_y
_atom_site_fract_z
Si Si1 0.594107 0.707456 0.576096
Si Si2 0.329059 0.413227 0.505443
Si Si3 0.675832 0.091838 0.446802
Si Si4 0.988248 0.628382 0.647592
O O1 0.500000 0.668177 0.500000
O O2 0.623296 0.648585 0.510610
O O3 0.489364 0.780082 0.287703
O O4 0.750000 0.750000 0.000000
O O5 0.395358 0.500000 0.635284
O O6 0.322639 0.385424 0.663056
O O7 0.135346 0.418106 0.044270
O O8 0.671521 0.110705 0.611076
O O9 0.673530 0.000000 0.430368
O O10 0.500000 0.124207 0.000000
O O11 0.000000 0.611397 0.500000
#
# Coordination Sequence:
#
# PCOD9175165 Si02
#       4
#     8   8   8   8
#     4  11  21  38  56  85 116 147 185 238 277 333
#     4  10  20  36  57  83 114 150 188 231 282 334
#     4   8  16  30  50  81 116 144 183 233 277 328
#     4  10  18  32  56  83 112 146 187 231 274 325
#
# _framework density 24.595628000000001
#
# number of rings (size 3 to 8) (size 9 to 14) (size 15 to 20)
#    0.000    2.250    5.000    2.250    0.000    3.500 
#    0.000    0.000    0.000    0.000    0.000    3.500 
#    0.000    0.000    0.000    0.000    0.000    0.000 
#
# Total GULP energy -89183.073335 kJ/mol
# GULP energy per Si atom -5573.942083 kJ/mol
# Density = 2.453965 g / cm^3
# Si number density = 24.595628 Si / 1000 Ang^3
#
#
#
# Elastic Constant Matrix: (Units=GPa)
#
#
# Indices 1 2 3 4 5 6 
#
# 1 291.8238 76.2313 16.0792 0.0000 -4.0579 0.0000
# 2 76.2313 97.7056 35.5860 0.0000 -5.9206 0.0000
# 3 16.0792 35.5860 65.8173 0.0000 -11.8140 0.0000
# 4 0.0000 0.0000 0.0000 31.1536 0.0000 9.0663
# 5 -4.0579 -5.9206 -11.8140 0.0000 22.3864 0.0000
# 6 0.0000 0.0000 0.0000 9.0663 0.0000 58.0079
#
#
#
# Elastic Compliance Matrix: (Units=1/GPa)
#
#
# Indices 1 2 3 4 5 6 
#
# 1 0.004355 -0.003750 0.001025 0.000000 0.000338 0.000000
# 2 -0.003750 0.015976 -0.007827 0.000000 -0.000585 0.000000
# 3 0.001025 -0.007827 0.020808 0.000000 0.009097 0.000000
# 4 0.000000 0.000000 0.000000 0.033629 0.000000 -0.005256
# 5 0.000338 -0.000585 0.009097 0.000000 0.049377 0.000000
# 6 0.000000 0.000000 0.000000 -0.005256 0.000000 0.018061
#
#
# Mechanical properties :
#
#
# Convention : Reuss Voigt Hill
#
# Bulk Modulus (GPa) = 49.91591 79.01551 64.46571
# Shear Modulus (GPa) = 29.41399 44.13960 36.77680
#
# Velocity S-wave (km/s) = 3.46194 4.24088 3.87105
# Velocity P-wave (km/s) = 6.02650 7.49504 6.80053
#
# Compressibility (1/GPa) = 0.02003369
#
# Stress axis : x y z
#
# Youngs Moduli (GPa) = 229.64146 62.59422 48.05890
#
# Poissons Ratio (x) = 0.23474 -0.04924
# Poissons Ratio (y) = 0.86120 0.37614
# Poissons Ratio (z) = -0.23527 0.48990
#
# Static dielectric constant tensor:
#      x y z
#    x 2.118060 0.000000 -0.001980 
#    y 0.000000 1.876950 0.000000 
#    z -0.001980 0.000000 2.107580 
# 
# From -- ./inp_files/46069.got.cif
#   From: 2010.05.17/outbox.cif.g08.bks.cpg/sg12_24_cif.got.tgz:46069.got - 2010.06.03 13:09:07.
