data_PCOD9175422
_publ_section_title
;
Structure prediction by ZEFSAII (Michael W. Deem and Ramdas Pophale) SiO2 
 PCOD9175422
Probable space group: C 2/M
;
_chemical_formula_sum "Si O2"
_cell_formula_units_Z 40
_cell_length_a 7.632793
_cell_length_b 25.391819
_cell_length_c 11.444614
_cell_angle_alpha 90.000000
_cell_angle_beta 82.702447
_cell_angle_gamma 90.000000
_cell_volume 2200.119551
_symmetry_space_group_name_H-M "C 2/M"
_symmetry_group_IT_number 12
_symmetry_cell_setting 'monoclinic'
loop_
_space_group_symop_operation_xyz
x,y,z
-x,y,-z
-x,-y,-z
x,-y,z
1/2+x,1/2+y,z
1/2-x,1/2+y,-z
1/2-x,1/2-y,-z
1/2+x,1/2-y,z
loop_
_atom_site_type_symbol
_atom_site_label
_atom_site_fract_x
_atom_site_fract_y
_atom_site_fract_z
Si Si1 0.799569 0.582782 0.534172
Si Si2 0.245614 0.889938 0.290128
Si Si3 0.291368 0.309531 0.527705
Si Si4 0.565235 0.062830 0.125177
Si Si5 0.414598 0.440145 0.217052
O O1 0.711073 0.577281 0.413891
O O2 0.798884 0.646833 0.548290
O O3 0.695566 0.560033 0.651664
O O4 0.000000 0.564424 0.500000
O O5 0.430487 0.907931 0.222138
O O6 0.256540 0.830555 0.338687
O O7 0.083650 0.903155 0.219541
O O8 0.500000 0.317457 0.500000
O O9 0.250000 0.250000 0.500000
O O10 0.768709 0.076577 0.134197
O O11 0.551097 0.000000 0.147857
O O12 0.500000 0.073194 0.000000
O O13 0.474516 0.500000 0.187059
#
# Coordination Sequence:
#
# PCOD9175422 Si02
#       5
#     8   8   8   8   8
#     4  10  18  33  50  79 114 139 178 216 272 342
#     4  10  20  35  53  78 114 142 180 225 269 333
#     4  10  19  32  51  80 111 136 173 221 277 337
#     4  10  22  37  54  79 110 151 197 228 261 316
#     4  11  20  33  54  78 113 149 176 222 275 330
#
# _framework density 18.180828999999999
#
# number of rings (size 3 to 8) (size 9 to 14) (size 15 to 20)
#    1.200    0.600    4.000    1.800    0.000    3.600 
#    0.000    3.000    0.000    0.000    0.000    5.600 
#    0.000    0.000    0.000    0.000    0.000    0.000 
#
# Total GULP energy -111395.784398 kJ/mol
# GULP energy per Si atom -5569.789220 kJ/mol
# Density = 1.813945 g / cm^3
# Si number density = 18.180829 Si / 1000 Ang^3
#
#
#
# Elastic Constant Matrix: (Units=GPa)
#
#
# Indices 1 2 3 4 5 6 
#
# 1 80.4814 23.4015 1.1934 0.0000 24.4943 0.0000
# 2 23.4015 78.4029 15.2040 0.0000 11.2158 0.0000
# 3 1.1934 15.2040 32.4509 0.0000 20.9771 0.0000
# 4 0.0000 0.0000 0.0000 7.3588 0.0000 9.3988
# 5 24.4943 11.2158 20.9771 0.0000 26.7752 0.0000
# 6 0.0000 0.0000 0.0000 9.3988 0.0000 11.8186
#
#
#
# Elastic Compliance Matrix: (Units=1/GPa)
#
#
# Indices 1 2 3 4 5 6 
#
# 1 0.031222 -0.008933 0.038661 0.000000 -0.055109 0.000000
# 2 -0.008933 0.016614 -0.016693 0.000000 0.014291 0.000000
# 3 0.038661 -0.016693 0.112565 0.000000 -0.116564 0.000000
# 4 0.000000 0.000000 0.000000 -8.653456 0.000000 6.881687
# 5 -0.055109 0.014291 -0.116564 0.000000 0.173098 0.000000
# 6 0.000000 0.000000 0.000000 6.881687 0.000000 -5.388070
#
#
# Mechanical properties :
#
#
# Convention : Reuss Voigt Hill
#
# Bulk Modulus (GPa) = 5.36279 30.10366 17.73323
# Shear Modulus (GPa) = -0.36571 19.29295 9.46362
#
# Velocity S-wave (km/s) = -0.44899 3.26109 2.28398
# Velocity P-wave (km/s) = 1.63930 5.54739 4.09028
#
# Compressibility (1/GPa) = 0.18647008
#
# Stress axis : x y z
#
# Youngs Moduli (GPa) = 32.02919 60.19157 8.88376
#
# Poissons Ratio (x) = 0.53766 -0.34345
# Poissons Ratio (y) = 0.28610 0.14830
# Poissons Ratio (z) = -1.23827 1.00479
#
# Static dielectric constant tensor:
#      x y z
#    x 1.661120 0.000000 0.028660 
#    y 0.000000 1.643780 0.000000 
#    z 0.028660 0.000000 1.646200 
# 
# From -- ./inp_files/121306.got.cif
#   From: 2010.05.17/outbox.cif.g08.bks.cpg/sg12_61_cif.got.tgz:121306.got - 2010.06.03 13:09:07.
