data_PCOD9175576
_publ_section_title
;
Structure prediction by ZEFSAII (Michael W. Deem and Ramdas Pophale) SiO2 
 PCOD9175576
Probable space group: C 2/M
;
_chemical_formula_sum "Si O2"
_cell_formula_units_Z 48
_cell_length_a 16.799658
_cell_length_b 15.105494
_cell_length_c 17.728076
_cell_angle_alpha 90.000000
_cell_angle_beta 146.158658
_cell_angle_gamma 90.000000
_cell_volume 2505.361228
_symmetry_space_group_name_H-M "C 2/M"
_symmetry_group_IT_number 12
_symmetry_cell_setting 'monoclinic'
loop_
_space_group_symop_operation_xyz
x,y,z
-x,y,-z
-x,-y,-z
x,-y,z
1/2+x,1/2+y,z
1/2-x,1/2+y,-z
1/2-x,1/2-y,-z
1/2+x,1/2-y,z
loop_
_atom_site_type_symbol
_atom_site_label
_atom_site_fract_x
_atom_site_fract_y
_atom_site_fract_z
Si Si1 0.098236 0.500000 0.314529
Si Si2 0.529341 0.500000 0.112686
Si Si3 0.196525 0.180681 0.277716
Si Si4 0.518457 0.000000 0.923768
Si Si5 0.317738 0.806967 0.211800
Si Si6 0.783113 0.500000 0.124198
Si Si7 0.642201 0.176194 0.443106
Si Si8 0.055501 0.700133 0.956552
O O1 0.149679 0.587411 0.398583
O O2 0.120013 0.500000 0.241328
O O3 0.924371 0.500000 0.184486
O O4 0.613095 0.589494 0.196223
O O5 0.500000 0.500000 0.000000
O O6 0.376070 0.500000 0.034335
O O7 0.283186 0.211239 0.271886
O O8 0.305208 0.160746 0.430297
O O9 0.071764 0.254647 0.191879
O O10 0.583439 0.902384 0.960207
O O11 0.500000 0.000000 0.000000
O O12 0.479853 0.789315 0.316594
O O13 0.294814 0.911491 0.182253
O O14 0.200914 0.755901 0.069856
O O15 0.750000 0.250000 0.500000
O O16 0.000000 0.705917 0.000000
#
# Coordination Sequence:
#
# PCOD9175576 Si02
#       8
#     4   4   8   4   8   4   8   8
#     4  10  23  41  56  81 122 153 185 237 299 336
#     4  12  17  31  58  95 125 145 182 232 284 341
#     4  11  19  33  60  89 115 155 192 223 280 358
#     4  10  20  39  61  81 102 145 203 250 286 326
#     4  10  19  36  58  85 119 152 187 235 283 342
#     4  10  18  33  54  88 127 148 162 228 300 349
#     4  11  24  40  55  82 120 161 191 230 287 344
#     4   9  18  33  59  86 108 139 194 250 283 315
#
# _framework density 19.158913999999999
#
# number of rings (size 3 to 8) (size 9 to 14) (size 15 to 20)
#    0.000    1.667    3.333    2.500    0.000    0.000 
#    3.000    6.667    0.000    0.000    0.000   10.500 
#    0.000    0.000    0.000    0.000    0.000    0.000 
#
# Total GULP energy -133829.443745 kJ/mol
# GULP energy per Si atom -5576.226823 kJ/mol
# Density = 1.911531 g / cm^3
# Si number density = 19.158914 Si / 1000 Ang^3
#
#
#
# Elastic Constant Matrix: (Units=GPa)
#
#
# Indices 1 2 3 4 5 6 
#
# 1 50.8659 35.6251 37.8838 0.0000 10.6523 0.0000
# 2 35.6251 128.9632 42.4939 0.0000 17.3199 0.0000
# 3 37.8838 42.4939 87.3289 -0.0002 11.4661 -0.0002
# 4 0.0000 0.0000 -0.0002 30.6361 0.0000 2.3147
# 5 10.6523 17.3199 11.4661 0.0000 41.8652 0.0000
# 6 0.0000 0.0000 -0.0002 2.3147 0.0000 18.3773
#
#
#
# Elastic Compliance Matrix: (Units=1/GPa)
#
#
# Indices 1 2 3 4 5 6 
#
# 1 0.031918 -0.004729 -0.011136 0.000000 -0.003115 0.000000
# 2 -0.004729 0.010236 -0.002626 0.000000 -0.002312 0.000000
# 3 -0.011136 -0.002626 0.017681 0.000000 -0.000923 0.000000
# 4 0.000000 0.000000 0.000000 0.032955 0.000000 -0.004151
# 5 -0.003115 -0.002312 -0.000923 0.000000 0.025888 0.000000
# 6 0.000000 0.000000 0.000000 -0.004151 0.000000 0.054938
#
#
# Mechanical properties :
#
#
# Convention : Reuss Voigt Hill
#
# Bulk Modulus (GPa) = 43.75829 55.46260 49.61044
# Shear Modulus (GPa) = 22.91313 28.25271 25.58292
#
# Velocity S-wave (km/s) = 3.46200 3.84428 3.65814
# Velocity P-wave (km/s) = 6.23457 6.97970 6.61763
#
# Compressibility (1/GPa) = 0.02285281
#
# Stress axis : x y z
#
# Youngs Moduli (GPa) = 31.33027 97.69105 56.55917
#
# Poissons Ratio (x) = 0.46202 0.62984
# Poissons Ratio (y) = 0.14817 0.14851
# Poissons Ratio (z) = 0.34889 0.25651
#
# Static dielectric constant tensor:
#      x y z
#    x 1.767120 0.000000 -0.043550 
#    y 0.000000 1.657060 0.000000 
#    z -0.043550 0.000000 1.683330 
# 
# From -- ./inp_files/278294.got.cif
#   From: 2010.05.17/outbox.cif.g08.bks.cpg/sg12_140_cif.got.tgz:278294.got - 2010.06.03 13:09:07.
