data_PCOD9175025
_publ_section_title
;
Structure prediction by ZEFSAII (Michael W. Deem and Ramdas Pophale) SiO2 
 PCOD9175025
Probable space group: C 2/M
;
_chemical_formula_sum "Si O2"
_cell_formula_units_Z 64
_cell_length_a 20.375502
_cell_length_b 7.327555
_cell_length_c 26.657836
_cell_angle_alpha 90.000000
_cell_angle_beta 136.820502
_cell_angle_gamma 90.000000
_cell_volume 2723.516989
_symmetry_space_group_name_H-M "C 2/M"
_symmetry_group_IT_number 12
_symmetry_cell_setting 'monoclinic'
loop_
_space_group_symop_operation_xyz
x,y,z
-x,y,-z
-x,-y,-z
x,-y,z
1/2+x,1/2+y,z
1/2-x,1/2+y,-z
1/2-x,1/2-y,-z
1/2+x,1/2-y,z
loop_
_atom_site_type_symbol
_atom_site_label
_atom_site_fract_x
_atom_site_fract_y
_atom_site_fract_z
Si Si1 0.887922 0.777669 0.434857
Si Si2 0.876016 0.791061 0.883354
Si Si3 0.051474 0.776533 0.920167
Si Si4 0.202120 0.779314 0.720284
Si Si5 0.456529 0.292549 0.193758
Si Si6 0.478936 0.723408 0.315756
Si Si7 0.156799 0.217092 0.481083
Si Si8 0.765566 0.221142 0.919985
O O1 0.834605 0.717934 0.354658
O O2 0.839323 0.716434 0.459613
O O3 0.000000 0.724438 0.500000
O O4 0.887400 0.000000 0.432524
O O5 0.804772 0.786931 0.796123
O O6 0.816385 0.714605 0.896784
O O7 0.976908 0.713892 0.921021
O O8 0.895739 0.000000 0.909067
O O9 0.022062 0.710914 0.848620
O O10 0.048513 0.000000 0.917857
O O11 0.159693 0.726982 0.994905
O O12 0.122370 0.722513 0.716732
O O13 0.205195 0.000000 0.721743
O O14 0.493095 0.500000 0.212894
O O15 0.491452 0.211499 0.265767
O O16 0.340815 0.295091 0.133359
O O17 0.478894 0.500000 0.314559
O O18 0.563600 0.784796 0.399442
O O19 0.250000 0.250000 0.500000
O O20 0.143833 0.000000 0.477808
O O21 0.756800 0.000000 0.913945
#
# Coordination Sequence:
#
# PCOD9175025 Si02
#       8
#     8   8   8   8   8   8   8   8
#     4   9  16  30  55  78  96 130 176 210 239 291
#     4  10  20  34  52  75 103 136 170 207 255 308
#     4   9  19  34  51  72 102 138 172 205 249 309
#     4  10  18  32  55  79 100 128 173 219 251 290
#     4  10  19  33  54  77 100 132 173 211 251 302
#     4   9  17  31  53  75  99 132 168 205 248 301
#     4  10  20  35  54  79 107 136 169 206 252 302
#     4  10  19  33  53  75 100 134 173 211 251 300
#
# _framework density 23.499026000000001
#
# number of rings (size 3 to 8) (size 9 to 14) (size 15 to 20)
#    0.000    2.375    2.500    0.750    0.000    2.500 
#    0.000    4.375    0.000    2.250    0.000    0.000 
#    0.000    0.000    0.000    0.000    0.000    0.000 
#
# Total GULP energy -178859.603677 kJ/mol
# GULP energy per Si atom -5589.362615 kJ/mol
# Density = 2.344554 g / cm^3
# Si number density = 23.499026 Si / 1000 Ang^3
#
#
#
# Elastic Constant Matrix: (Units=GPa)
#
#
# Indices 1 2 3 4 5 6 
#
# 1 76.5397 -8.6924 -10.8999 0.0000 -19.2540 0.0000
# 2 -8.6924 95.4517 -5.0741 0.0000 -4.9693 0.0001
# 3 -10.8999 -5.0741 79.1674 0.0000 -21.5030 0.0000
# 4 0.0000 0.0000 0.0000 6.0586 0.0000 6.1905
# 5 -19.2540 -4.9693 -21.5030 0.0000 48.6002 0.0000
# 6 0.0000 0.0001 0.0000 6.1905 0.0000 19.7047
#
#
#
# Elastic Compliance Matrix: (Units=1/GPa)
#
#
# Indices 1 2 3 4 5 6 
#
# 1 0.016184 0.002180 0.004740 0.000000 0.008732 0.000000
# 2 0.002180 0.010911 0.001747 0.000000 0.002752 0.000000
# 3 0.004740 0.001747 0.015861 0.000000 0.009074 0.000000
# 4 0.000000 0.000000 0.000000 0.243082 0.000000 -0.076367
# 5 0.008732 0.002752 0.009074 0.000000 0.028331 0.000000
# 6 0.000000 0.000000 0.000000 -0.076367 0.000000 0.074741
#
#
# Mechanical properties :
#
#
# Convention : Reuss Voigt Hill
#
# Bulk Modulus (GPa) = 16.58640 22.42511 19.50575
# Shear Modulus (GPa) = 12.75925 33.26105 23.01015
#
# Velocity S-wave (km/s) = 2.33270 3.76629 3.13261
# Velocity P-wave (km/s) = 3.78536 5.33638 4.62633
#
# Compressibility (1/GPa) = 0.06029037
#
# Stress axis : x y z
#
# Youngs Moduli (GPa) = 61.78862 91.64866 63.04940
#
# Poissons Ratio (x) = -0.19983 -0.29883
# Poissons Ratio (y) = -0.13472 -0.11016
# Poissons Ratio (z) = -0.29286 -0.16012
#
# Static dielectric constant tensor:
#      x y z
#    x 1.867310 0.000000 -0.042200 
#    y 0.000000 1.905010 0.000000 
#    z -0.042200 0.000000 1.856770 
# 
# From -- ./inp_files/343084.got.cif
#   From: 2010.05.17/outbox.cif.g08.bks.cpg/sg12_172_cif.got.tgz:343084.got - 2010.06.03 13:09:07.
