data_PCOD9175492
_publ_section_title
;
Structure prediction by ZEFSAII (Michael W. Deem and Ramdas Pophale) SiO2 
 PCOD9175492
Probable space group: C 2/M
;
_chemical_formula_sum "Si O2"
_cell_formula_units_Z 60
_cell_length_a 27.005387
_cell_length_b 20.504502
_cell_length_c 5.576849
_cell_angle_alpha 90.000000
_cell_angle_beta 90.070023
_cell_angle_gamma 90.000000
_cell_volume 3088.077510
_symmetry_space_group_name_H-M "C 2/M"
_symmetry_group_IT_number 12
_symmetry_cell_setting 'monoclinic'
loop_
_space_group_symop_operation_xyz
x,y,z
-x,y,-z
-x,-y,-z
x,-y,z
1/2+x,1/2+y,z
1/2-x,1/2+y,-z
1/2-x,1/2-y,-z
1/2+x,1/2-y,z
loop_
_atom_site_type_symbol
_atom_site_label
_atom_site_fract_x
_atom_site_fract_y
_atom_site_fract_z
Si Si1 0.452665 0.288822 0.119220
Si Si2 0.803506 0.071419 0.936637
Si Si3 0.776686 0.203418 0.191121
Si Si4 0.902116 0.118588 0.723776
Si Si5 0.372085 0.745155 0.447310
Si Si6 0.808300 0.424816 0.193575
Si Si7 0.500000 0.387597 0.500000
Si Si8 0.176717 0.353380 0.318258
O O1 0.417134 0.241899 0.268613
O O2 0.478239 0.340617 0.296770
O O3 0.500000 0.254734 0.000000
O O4 0.421344 0.334282 0.938295
O O5 0.855396 0.075725 0.798169
O O6 0.752091 0.076293 0.788776
O O7 0.801221 0.000000 0.060771
O O8 0.801069 0.137128 0.091138
O O9 0.820684 0.243656 0.306762
O O10 0.731306 0.178359 0.349086
O O11 0.750000 0.250000 0.000000
O O12 0.881521 0.171981 0.537830
O O13 0.950503 0.081648 0.616940
O O14 0.363937 0.796079 0.661065
O O15 0.822858 0.500000 0.164139
O O16 0.829670 0.397346 0.443500
O O17 0.821785 0.387413 0.944044
#
# Coordination Sequence:
#
# PCOD9175492 Si02
#       8
#     8   8   8   8   8   8   4   8
#     4   9  18  33  54  77 108 142 178 230 297 353
#     4  10  20  34  54  77 106 150 199 243 288 344
#     4  11  21  36  54  83 117 155 194 245 300 349
#     4  10  18  33  53  76 107 140 185 234 301 338
#     4  11  20  31  55  82 110 145 184 238 291 351
#     4  10  22  39  55  77 116 158 196 240 286 340
#     4   8  18  32  53  76  98 142 179 230 294 358
#     4  11  22  34  56  83 113 150 198 235 283 349
#
# _framework density 19.429566000000001
#
# number of rings (size 3 to 8) (size 9 to 14) (size 15 to 20)
#    0.000    1.867    1.333    4.000    1.867    0.533 
#    0.000    1.000    0.000    3.600    0.000    0.000 
#    0.000    3.200    0.000    0.000    0.000    0.000 
#
# Total GULP energy -167133.409913 kJ/mol
# GULP energy per Si atom -5571.113664 kJ/mol
# Density = 1.938534 g / cm^3
# Si number density = 19.429566 Si / 1000 Ang^3
#
#
#
# Elastic Constant Matrix: (Units=GPa)
#
#
# Indices 1 2 3 4 5 6 
#
# 1 59.3467 39.2485 41.6326 0.0000 -24.2718 0.0000
# 2 39.2485 88.4907 31.1872 0.0000 -21.7018 0.0000
# 3 41.6326 31.1872 79.1306 0.0000 -7.3114 0.0000
# 4 0.0000 0.0000 0.0000 26.6436 0.0000 -7.6875
# 5 -24.2718 -21.7018 -7.3114 0.0000 43.2251 0.0000
# 6 0.0000 0.0000 0.0000 -7.6875 0.0000 12.6359
#
#
#
# Elastic Compliance Matrix: (Units=1/GPa)
#
#
# Indices 1 2 3 4 5 6 
#
# 1 0.040274 -0.008192 -0.016509 0.000000 0.015709 0.000000
# 2 -0.008192 0.016399 -0.001847 0.000000 0.003321 0.000000
# 3 -0.016509 -0.001847 0.021444 0.000000 -0.006570 0.000000
# 4 0.000000 0.000000 0.000000 0.045524 0.000000 0.027696
# 5 0.015709 0.003321 -0.006570 0.000000 0.032512 0.000000
# 6 0.000000 0.000000 0.000000 0.027696 0.000000 0.095990
#
#
# Mechanical properties :
#
#
# Convention : Reuss Voigt Hill
#
# Bulk Modulus (GPa) = 39.96438 50.12273 45.04356
# Shear Modulus (GPa) = 15.94497 24.16091 20.05294
#
# Velocity S-wave (km/s) = 2.86782 3.53017 3.21609
# Velocity P-wave (km/s) = 5.61955 6.51685 6.08476
#
# Compressibility (1/GPa) = 0.02502228
#
# Stress axis : x y z
#
# Youngs Moduli (GPa) = 24.82988 60.97831 46.63333
#
# Poissons Ratio (x) = 0.49953 0.76987
# Poissons Ratio (y) = 0.20340 0.08611
# Poissons Ratio (z) = 0.40992 0.11260
#
# Static dielectric constant tensor:
#      x y z
#    x 1.747150 0.000000 -0.009360 
#    y 0.000000 1.744410 0.000000 
#    z -0.009360 0.000000 1.803120 
# 
# From -- ./inp_files/29188.got.cif
#   From: 2010.05.17/outbox.cif.g08.bks.cpg/sg12_15_cif.got.tgz:29188.got - 2010.06.03 13:09:07.
