data_PCOD9175577
_publ_section_title
;
Structure prediction by ZEFSAII (Michael W. Deem and Ramdas Pophale) SiO2 
 PCOD9175577
Probable space group: C 2/M
;
_chemical_formula_sum "Si O2"
_cell_formula_units_Z 52
_cell_length_a 19.271282
_cell_length_b 7.451412
_cell_length_c 25.894018
_cell_angle_alpha 90.000000
_cell_angle_beta 143.750028
_cell_angle_gamma 90.000000
_cell_volume 2198.686475
_symmetry_space_group_name_H-M "C 2/M"
_symmetry_group_IT_number 12
_symmetry_cell_setting 'monoclinic'
loop_
_space_group_symop_operation_xyz
x,y,z
-x,y,-z
-x,-y,-z
x,-y,z
1/2+x,1/2+y,z
1/2-x,1/2+y,-z
1/2-x,1/2-y,-z
1/2+x,1/2-y,z
loop_
_atom_site_type_symbol
_atom_site_label
_atom_site_fract_x
_atom_site_fract_y
_atom_site_fract_z
Si Si1 0.315129 0.795961 0.773149
Si Si2 0.706723 0.215410 0.358623
Si Si3 0.573388 0.288634 0.928764
Si Si4 0.322217 0.283550 0.118177
Si Si5 0.034443 0.783019 0.445963
Si Si6 0.495132 0.294386 0.306124
Si Si7 0.353604 0.000000 0.330178
O O1 0.317108 0.727149 0.714435
O O2 0.449935 0.792135 0.871572
O O3 0.227611 0.657928 0.746336
O O4 0.271808 0.000000 0.748906
O O5 0.836339 0.259243 0.456014
O O6 0.609526 0.290030 0.338729
O O7 0.695082 0.000000 0.352347
O O8 0.553199 0.500000 0.911609
O O9 0.615411 0.218793 0.897473
O O10 0.685235 0.259522 0.032377
O O11 0.333081 0.500000 0.124417
O O12 0.392220 0.213123 0.209562
O O13 0.027314 0.720379 0.381363
O O14 0.931170 0.660641 0.405493
O O15 0.017887 0.000000 0.442287
O O16 0.462508 0.500000 0.297034
#
# Coordination Sequence:
#
# PCOD9175577 Si02
#       7
#     8   8   8   8   8   8   4
#     4  11  23  39  62  91 124 160 206 261 306 362
#     4  10  22  37  60  91 125 157 200 261 319 362
#     4  10  18  33  54  89 125 158 194 244 314 372
#     4   9  18  31  55  88 125 159 192 244 312 374
#     4  10  24  43  59  88 123 163 216 255 296 363
#     4  10  20  36  62  89 125 163 199 253 310 371
#     4  12  26  43  66  85 122 176 218 250 307 361
#
# _framework density 23.650483000000001
#
# number of rings (size 3 to 8) (size 9 to 14) (size 15 to 20)
#    0.000    1.846    2.308    1.385    3.231    2.462 
#    0.000    2.308    0.000    1.846    0.000    4.308 
#    0.000    0.000    0.000    0.000    0.000    0.000 
#
# Total GULP energy -144875.384696 kJ/mol
# GULP energy per Si atom -5572.130181 kJ/mol
# Density = 2.359665 g / cm^3
# Si number density = 23.650483 Si / 1000 Ang^3
#
#
#
# Elastic Constant Matrix: (Units=GPa)
#
#
# Indices 1 2 3 4 5 6 
#
# 1 53.9549 -1.1762 26.5376 0.0000 -4.9735 0.0000
# 2 -1.1762 120.1100 27.3300 0.0000 4.7983 0.0002
# 3 26.5376 27.3300 170.9940 0.0000 18.5565 0.0000
# 4 0.0000 0.0000 0.0000 27.5710 0.0000 12.1785
# 5 -4.9735 4.7983 18.5565 0.0000 32.2603 0.0000
# 6 0.0000 0.0002 0.0000 12.1785 0.0000 0.4699
#
#
#
# Elastic Compliance Matrix: (Units=1/GPa)
#
#
# Indices 1 2 3 4 5 6 
#
# 1 0.021015 0.000898 -0.003991 0.000000 0.005402 0.000000
# 2 0.000898 0.008687 -0.001496 0.000000 -0.000293 0.000000
# 3 -0.003991 -0.001496 0.007199 0.000000 -0.004534 0.000000
# 4 0.000000 0.000000 0.000000 -0.003472 0.000000 0.089972
# 5 0.005402 -0.000293 -0.004534 0.000000 0.034482 0.000000
# 6 0.000000 0.000000 0.000000 0.089972 0.000000 -0.203688
#
#
# Mechanical properties :
#
#
# Convention : Reuss Voigt Hill
#
# Bulk Modulus (GPa) = 36.07264 50.04909 43.06087
# Shear Modulus (GPa) = -42.60430 31.55141 -5.52644
#
# Velocity S-wave (km/s) = -4.24891 3.65646 -1.53029
# Velocity P-wave (km/s) = 2.96403 6.24773 3.88900
#
# Compressibility (1/GPa) = 0.02772184
#
# Stress axis : x y z
#
# Youngs Moduli (GPa) = 47.58607 115.11990 138.91481
#
# Poissons Ratio (x) = -0.10339 0.55443
# Poissons Ratio (y) = -0.04274 0.20781
# Poissons Ratio (z) = 0.18992 0.17222
#
# Static dielectric constant tensor:
#      x y z
#    x 2.012780 0.000000 0.005310 
#    y 0.000000 1.899010 0.000000 
#    z 0.005310 0.000000 1.894900 
# 
# From -- ./inp_files/380407.got.cif
#   From: 2010.05.17/outbox.cif.g08.bks.cpg/sg12_191_cif.got.tgz:380407.got - 2010.06.03 13:09:07.
