data_PCOD9175028
_publ_section_title
;
Structure prediction by ZEFSAII (Michael W. Deem and Ramdas Pophale) SiO2 
 PCOD9175028
Probable space group: C 2/M
;
_chemical_formula_sum "Si O2"
_cell_formula_units_Z 64
_cell_length_a 23.182303
_cell_length_b 15.472075
_cell_length_c 7.216721
_cell_angle_alpha 90.000000
_cell_angle_beta 93.676666
_cell_angle_gamma 90.000000
_cell_volume 2583.153872
_symmetry_space_group_name_H-M "C 2/M"
_symmetry_group_IT_number 12
_symmetry_cell_setting 'monoclinic'
loop_
_space_group_symop_operation_xyz
x,y,z
-x,y,-z
-x,-y,-z
x,-y,z
1/2+x,1/2+y,z
1/2-x,1/2+y,-z
1/2-x,1/2-y,-z
1/2+x,1/2-y,z
loop_
_atom_site_type_symbol
_atom_site_label
_atom_site_fract_x
_atom_site_fract_y
_atom_site_fract_z
Si Si1 0.306539 0.266607 0.634282
Si Si2 0.879224 0.781540 0.118440
Si Si3 0.287304 0.599815 0.942202
Si Si4 0.528162 0.907654 0.302673
Si Si5 0.159917 0.405137 0.781559
Si Si6 0.332659 0.090789 0.656769
Si Si7 0.929995 0.772098 0.714642
Si Si8 0.481217 0.597689 0.215577
O O1 0.250000 0.250000 0.500000
O O2 0.301711 0.354225 0.747600
O O3 0.308081 0.175792 0.745598
O O4 0.372961 0.263246 0.572508
O O5 0.818718 0.835325 0.093320
O O6 0.902240 0.778280 0.912125
O O7 0.874305 0.682347 0.182375
O O8 0.925718 0.842024 0.226488
O O9 0.308155 0.500000 0.962189
O O10 0.218286 0.597327 0.911946
O O11 0.500000 0.910577 0.500000
O O12 0.598088 0.911691 0.308912
O O13 0.523456 0.806329 0.252943
O O14 0.508989 0.000000 0.210944
O O15 0.131357 0.500000 0.808621
O O16 0.176059 0.404308 0.566985
O O17 0.307632 0.000000 0.717269
O O18 0.964752 0.857466 0.674919
O O19 0.470237 0.500000 0.268281
O O20 0.500000 0.597426 0.000000
#
# Coordination Sequence:
#
# PCOD9175028 Si02
#       8
#     8   8   8   8   8   8   8   8
#     4  10  18  32  55  79 104 136 178 227 275 318
#     4  10  20  34  55  81 109 148 184 224 272 323
#     4  10  20  35  56  81 108 143 188 229 271 325
#     4   9  18  32  52  74 101 137 175 215 265 325
#     4  10  20  33  53  80 113 147 179 220 272 332
#     4   9  18  33  51  78 108 139 178 217 266 330
#     4   9  20  33  50  80 104 133 178 227 271 314
#     4   9  18  35  56  77 103 139 185 226 264 317
#
# _framework density 24.775917
#
# number of rings (size 3 to 8) (size 9 to 14) (size 15 to 20)
#    0.000    2.500    1.250    0.750    1.750    3.500 
#    0.000    1.875    0.000    5.625    0.000    0.000 
#    0.000    0.000    0.000    0.000    0.000    0.000 
#
# Total GULP energy -178345.859318 kJ/mol
# GULP energy per Si atom -5573.308104 kJ/mol
# Density = 2.471953 g / cm^3
# Si number density = 24.775917 Si / 1000 Ang^3
#
#
#
# Elastic Constant Matrix: (Units=GPa)
#
#
# Indices 1 2 3 4 5 6 
#
# 1 83.4545 68.6228 23.6996 0.0000 18.2075 0.0000
# 2 68.6228 242.2747 21.0333 0.0000 5.9856 0.0000
# 3 23.6996 21.0333 60.5456 0.0000 -1.1172 0.0000
# 4 0.0000 0.0000 0.0000 25.0332 0.0000 -7.6792
# 5 18.2075 5.9856 -1.1172 0.0000 33.1526 0.0000
# 6 0.0000 0.0000 0.0000 -7.6792 0.0000 42.5672
#
#
#
# Elastic Compliance Matrix: (Units=1/GPa)
#
#
# Indices 1 2 3 4 5 6 
#
# 1 0.020048 -0.004872 -0.006346 0.000000 -0.010344 0.000000
# 2 -0.004872 0.005462 0.000041 0.000000 0.001691 0.000000
# 3 -0.006346 0.000041 0.019062 0.000000 0.004120 0.000000
# 4 0.000000 0.000000 0.000000 0.042287 0.000000 0.007629
# 5 -0.010344 0.001691 0.004120 0.000000 0.035678 0.000000
# 6 0.000000 0.000000 0.000000 0.007629 0.000000 0.024868
#
#
# Mechanical properties :
#
#
# Convention : Reuss Voigt Hill
#
# Bulk Modulus (GPa) = 45.00806 68.10957 56.55882
# Shear Modulus (GPa) = 28.22214 38.34519 33.28367
#
# Velocity S-wave (km/s) = 3.37871 3.93832 3.66920
# Velocity P-wave (km/s) = 5.78156 6.94481 6.38971
#
# Compressibility (1/GPa) = 0.02221824
#
# Stress axis : x y z
#
# Youngs Moduli (GPa) = 49.88141 183.07751 52.45955
#
# Poissons Ratio (x) = 0.89193 0.33289
# Poissons Ratio (y) = 0.24302 -0.00213
# Poissons Ratio (z) = 0.31653 -0.00745
#
# Static dielectric constant tensor:
#      x y z
#    x 2.013830 0.000000 0.014440 
#    y 0.000000 2.055360 0.000000 
#    z 0.014440 0.000000 2.046120 
# 
# From -- ./inp_files/174728.got.cif
#   From: 2010.05.17/outbox.cif.g08.bks.cpg/sg12_88_cif.got.tgz:174728.got - 2010.06.03 13:09:07.
