data_PCOD9175944
_publ_section_title
;
Structure prediction by ZEFSAII (Michael W. Deem and Ramdas Pophale) SiO2 
 PCOD9175944
Probable space group: C 2/M
;
_chemical_formula_sum "Si O2"
_cell_formula_units_Z 56
_cell_length_a 32.491118
_cell_length_b 8.805218
_cell_length_c 12.013867
_cell_angle_alpha 90.000000
_cell_angle_beta 56.094166
_cell_angle_gamma 90.000000
_cell_volume 2852.609931
_symmetry_space_group_name_H-M "C 2/M"
_symmetry_group_IT_number 12
_symmetry_cell_setting 'monoclinic'
loop_
_space_group_symop_operation_xyz
x,y,z
-x,y,-z
-x,-y,-z
x,-y,z
1/2+x,1/2+y,z
1/2-x,1/2+y,-z
1/2-x,1/2-y,-z
1/2+x,1/2-y,z
loop_
_atom_site_type_symbol
_atom_site_label
_atom_site_fract_x
_atom_site_fract_y
_atom_site_fract_z
Si Si1 0.694533 0.317434 0.078204
Si Si2 0.928805 0.821739 0.357473
Si Si3 0.520173 0.315423 0.091161
Si Si4 0.344803 0.183732 0.639573
Si Si5 0.723213 0.165246 0.441309
Si Si6 0.870688 0.666568 0.265610
Si Si7 0.864140 0.181733 0.058202
O O1 0.697319 0.500000 0.081982
O O2 0.661901 0.251197 0.228334
O O3 0.666449 0.279448 0.005352
O O4 0.750000 0.250000 0.000000
O O5 0.894528 0.740076 0.500990
O O6 0.905488 0.791756 0.269590
O O7 0.984661 0.766981 0.247366
O O8 0.928213 0.000000 0.383355
O O9 0.517540 0.500000 0.092464
O O10 0.577315 0.275320 0.028300
O O11 0.500000 0.262107 0.000000
O O12 0.294599 0.235944 0.647963
O O13 0.343941 0.000000 0.642417
O O14 0.750000 0.250000 0.500000
O O15 0.669759 0.145521 0.578671
O O16 0.746760 0.000000 0.385743
O O17 0.894010 0.500000 0.211038
O O18 0.844654 0.729475 0.195157
O O19 0.861389 0.000000 0.077874
#
# Coordination Sequence:
#
# PCOD9175944 Si02
#       7
#     8   8   8   8   8   8   8
#     4  11  25  43  64  86 113 155 204 248 295 346
#     4  10  18  33  60  88 117 155 191 233 290 346
#     4   9  16  31  58  90 121 152 191 239 289 345
#     4  10  22  41  59  81 116 153 196 243 291 349
#     4   9  20  34  51  77 107 141 183 234 288 342
#     4  10  20  33  50  81 120 153 185 232 290 348
#     4  10  21  38  59  85 115 152 200 245 285 344
#
# _framework density 19.631146000000001
#
# number of rings (size 3 to 8) (size 9 to 14) (size 15 to 20)
#    0.000    2.143    1.429    2.571    2.000    4.571 
#    0.000    2.857    0.000    4.286    0.000    0.000 
#    0.000    0.000    0.000    0.000    0.000    0.000 
#
# Total GULP energy -155885.564347 kJ/mol
# GULP energy per Si atom -5567.341584 kJ/mol
# Density = 1.958646 g / cm^3
# Si number density = 19.631146 Si / 1000 Ang^3
#
#
#
# Elastic Constant Matrix: (Units=GPa)
#
#
# Indices 1 2 3 4 5 6 
#
# 1 82.6764 16.6048 33.3011 0.0000 8.5931 0.0000
# 2 16.6048 33.9631 21.6393 0.0000 5.1069 0.0000
# 3 33.3011 21.6393 102.4458 0.0000 12.4289 0.0000
# 4 0.0000 0.0000 0.0000 14.1919 0.0000 2.3427
# 5 8.5931 5.1069 12.4289 0.0000 31.2366 0.0000
# 6 0.0000 0.0000 0.0000 2.3427 0.0000 20.6329
#
#
#
# Elastic Compliance Matrix: (Units=1/GPa)
#
#
# Indices 1 2 3 4 5 6 
#
# 1 0.014650 -0.004613 -0.003562 0.000000 -0.001859 0.000000
# 2 -0.004613 0.035717 -0.005769 0.000000 -0.002275 0.000000
# 3 -0.003562 -0.005769 0.012508 0.000000 -0.003054 0.000000
# 4 0.000000 0.000000 0.000000 0.071808 0.000000 -0.008153
# 5 -0.001859 -0.002275 -0.003054 0.000000 0.034112 0.000000
# 6 0.000000 0.000000 0.000000 -0.008153 0.000000 0.049392
#
#
# Mechanical properties :
#
#
# Convention : Reuss Voigt Hill
#
# Bulk Modulus (GPa) = 28.58259 40.24174 34.41216
# Shear Modulus (GPa) = 19.39954 23.04827 21.22391
#
# Velocity S-wave (km/s) = 3.14698 3.43018 3.29163
# Velocity P-wave (km/s) = 5.27220 6.01927 5.65808
#
# Compressibility (1/GPa) = 0.03498634
#
# Stress axis : x y z
#
# Youngs Moduli (GPa) = 68.25996 27.99803 79.94762
#
# Poissons Ratio (x) = 0.12917 0.28479
# Poissons Ratio (y) = 0.31491 0.46120
# Poissons Ratio (z) = 0.24315 0.16151
#
# Static dielectric constant tensor:
#      x y z
#    x 1.733370 0.000000 -0.042550 
#    y 0.000000 1.730320 0.000000 
#    z -0.042550 0.000000 1.729150 
# 
# From -- ./inp_files/187229.got.cif
#   From: 2010.05.17/outbox.cif.g08.bks.cpg/sg12_94_cif.got.tgz:187229.got - 2010.06.03 13:09:07.
