data_PCOD9175381
_publ_section_title
;
Structure prediction by ZEFSAII (Michael W. Deem and Ramdas Pophale) SiO2 
 PCOD9175381
Probable space group: C 2/M
;
_chemical_formula_sum "Si O2"
_cell_formula_units_Z 46
_cell_length_a 25.334413
_cell_length_b 19.779979
_cell_length_c 10.647969
_cell_angle_alpha 90.000000
_cell_angle_beta 153.842005
_cell_angle_gamma 90.000000
_cell_volume 2352.297556
_symmetry_space_group_name_H-M "C 2/M"
_symmetry_group_IT_number 12
_symmetry_cell_setting 'monoclinic'
loop_
_space_group_symop_operation_xyz
x,y,z
-x,y,-z
-x,-y,-z
x,-y,z
1/2+x,1/2+y,z
1/2-x,1/2+y,-z
1/2-x,1/2-y,-z
1/2+x,1/2-y,z
loop_
_atom_site_type_symbol
_atom_site_label
_atom_site_fract_x
_atom_site_fract_y
_atom_site_fract_z
Si Si1 0.939364 0.611692 0.183209
Si Si2 0.802784 0.000000 0.754705
Si Si3 0.305535 0.000000 0.751427
Si Si4 0.734166 0.229620 0.114336
Si Si5 0.224868 0.622807 0.764703
Si Si6 0.500000 0.000000 0.500000
Si Si7 0.896149 0.129827 0.362966
Si Si8 0.060332 0.000000 0.385422
O O1 0.081497 0.619917 0.469421
O O2 0.925325 0.558980 0.266605
O O3 0.880348 0.568275 0.944123
O O4 0.876785 0.682346 0.084765
O O5 0.765589 0.934494 0.756087
O O6 0.735891 0.000000 0.480210
O O7 0.946354 0.000000 0.051124
O O8 0.186145 0.000000 0.582125
O O9 0.739261 0.300647 0.195401
O O10 0.847049 0.179536 0.365054
O O11 0.750000 0.250000 0.000000
O O12 0.291646 0.610283 0.040855
O O13 0.946392 0.064490 0.538193
O O14 0.000000 0.162619 0.500000
#
# Coordination Sequence:
#
# PCOD9175381 Si02
#       8
#     8   4   4   8   8   2   8   4
#     4  11  23  40  63  98 132 167 222 259 328 387
#     4  12  25  47  64  91 125 172 229 269 327 379
#     4  11  26  44  69  90 123 175 219 277 318 384
#     4  10  23  37  62  96 138 169 201 259 334 397
#     4  11  25  38  65  96 129 172 209 271 326 391
#     4  10  18  32  62  90 130 166 192 264 298 380
#     4  11  21  37  63  99 132 164 201 262 332 389
#     4  12  22  41  68  94 129 164 220 269 321 386
#
# _framework density 19.555347999999999
#
# number of rings (size 3 to 8) (size 9 to 14) (size 15 to 20)
#    0.000    1.043    3.478    4.174    7.304    1.391 
#    0.000    0.870    0.000    0.000    0.000    0.000 
#    0.000    0.000    0.000    0.000    0.000    0.000 
#
# Total GULP energy -128085.285158 kJ/mol
# GULP energy per Si atom -5568.925442 kJ/mol
# Density = 1.951084 g / cm^3
# Si number density = 19.555348 Si / 1000 Ang^3
#
#
#
# Elastic Constant Matrix: (Units=GPa)
#
#
# Indices 1 2 3 4 5 6 
#
# 1 45.1842 29.2128 44.8380 0.0000 3.4548 0.0000
# 2 29.2128 137.8596 54.3634 0.0000 -6.5755 0.0000
# 3 44.8380 54.3634 143.1829 0.0000 4.2868 0.0000
# 4 0.0000 0.0000 0.0000 -12.0510 0.0000 4.7402
# 5 3.4548 -6.5755 4.2868 0.0000 44.9402 0.0000
# 6 0.0000 0.0000 0.0000 4.7402 0.0000 11.9145
#
#
#
# Elastic Compliance Matrix: (Units=1/GPa)
#
#
# Indices 1 2 3 4 5 6 
#
# 1 0.033696 -0.003662 -0.009094 0.000000 -0.002259 0.000000
# 2 -0.003662 0.009040 -0.002340 0.000000 0.001827 0.000000
# 3 -0.009094 -0.002340 0.010740 0.000000 -0.000668 0.000000
# 4 0.000000 0.000000 0.000000 -0.071752 0.000000 0.028546
# 5 -0.002259 0.001827 -0.000668 0.000000 0.022757 0.000000
# 6 0.000000 0.000000 0.000000 0.028546 0.000000 0.072574
#
#
# Mechanical properties :
#
#
# Convention : Reuss Voigt Hill
#
# Bulk Modulus (GPa) = 42.94778 64.78391 53.86584
# Shear Modulus (GPa) = 43.47510 22.14824 32.81167
#
# Velocity S-wave (km/s) = 4.72018 3.36905 4.10065
# Velocity P-wave (km/s) = 7.19143 6.95230 7.07287
#
# Compressibility (1/GPa) = 0.02328409
#
# Stress axis : x y z
#
# Youngs Moduli (GPa) = 29.67682 110.62313 93.10636
#
# Poissons Ratio (x) = 0.40509 0.84672
# Poissons Ratio (y) = 0.10867 0.21788
# Poissons Ratio (z) = 0.26988 0.25887
#
# Static dielectric constant tensor:
#      x y z
#    x 1.689020 0.000000 0.028050 
#    y 0.000000 1.717100 0.000000 
#    z 0.028050 0.000000 1.730100 
# 
# From -- ./inp_files/190300.got.cif
#   From: 2010.05.17/outbox.cif.g08.bks.cpg/sg12_96_cif.got.tgz:190300.got - 2010.06.03 13:09:07.
