data_PCOD9175279
_publ_section_title
;
Structure prediction by ZEFSAII (Michael W. Deem and Ramdas Pophale) SiO2 
 PCOD9175279
Probable space group: C 2/M
;
_chemical_formula_sum "Si O2"
_cell_formula_units_Z 40
_cell_length_a 27.280880
_cell_length_b 14.976711
_cell_length_c 15.770175
_cell_angle_alpha 90.000000
_cell_angle_beta 161.471681
_cell_angle_gamma 90.000000
_cell_volume 2047.523007
_symmetry_space_group_name_H-M "C 2/M"
_symmetry_group_IT_number 12
_symmetry_cell_setting 'monoclinic'
loop_
_space_group_symop_operation_xyz
x,y,z
-x,y,-z
-x,-y,-z
x,-y,z
1/2+x,1/2+y,z
1/2-x,1/2+y,-z
1/2-x,1/2-y,-z
1/2+x,1/2-y,z
loop_
_atom_site_type_symbol
_atom_site_label
_atom_site_fract_x
_atom_site_fract_y
_atom_site_fract_z
Si Si1 0.149595 0.599401 0.623726
Si Si2 0.891045 0.893674 0.741215
Si Si3 0.433197 0.754958 0.302862
Si Si4 0.051314 0.785239 0.858750
Si Si5 0.067605 0.399923 0.293856
O O1 0.177296 0.500000 0.701897
O O2 0.143532 0.595024 0.511932
O O3 0.989342 0.642328 0.390108
O O4 0.282830 0.668059 0.866594
O O5 0.711389 0.879251 0.468339
O O6 0.942501 0.840951 0.742630
O O7 0.914681 0.000000 0.768070
O O8 0.000000 0.867212 0.000000
O O9 0.500000 0.716453 0.500000
O O10 0.496743 0.714957 0.318844
O O11 0.250000 0.750000 0.000000
O O12 0.048186 0.683283 0.888296
O O13 0.006100 0.500000 0.174003
#
# Coordination Sequence:
#
# PCOD9175279 Si02
#       5
#     8   8   8   8   8
#     4  10  20  37  64  94 118 160 213 255 302 379
#     4  10  18  32  57  92 125 160 210 257 299 375
#     4  11  23  42  61  90 123 166 214 266 317 371
#     4  11  20  34  62  91 124 157 212 262 312 360
#     4   9  19  34  55  87 125 161 202 249 307 377
#
# _framework density 19.535799000000001
#
# number of rings (size 3 to 8) (size 9 to 14) (size 15 to 20)
#    0.000    1.800    4.000    1.200    0.000    0.400 
#    0.000    0.000    0.000   16.800    0.000    0.000 
#    0.000    0.000    0.000    0.000    0.000    0.000 
#
# Total GULP energy -111521.882149 kJ/mol
# GULP energy per Si atom -5576.094107 kJ/mol
# Density = 1.949134 g / cm^3
# Si number density = 19.535799 Si / 1000 Ang^3
#
#
#
# Elastic Constant Matrix: (Units=GPa)
#
#
# Indices 1 2 3 4 5 6 
#
# 1 139.6557 47.0797 35.0522 0.0000 -5.8803 0.0000
# 2 47.0797 130.0051 62.7985 0.0000 14.4496 0.0000
# 3 35.0522 62.7985 76.7651 0.0000 11.1925 0.0000
# 4 0.0000 0.0000 0.0000 28.4272 0.0000 -2.3449
# 5 -5.8803 14.4496 11.1925 0.0000 20.7187 0.0000
# 6 0.0000 0.0000 0.0000 -2.3449 0.0000 16.2014
#
#
#
# Elastic Compliance Matrix: (Units=1/GPa)
#
#
# Indices 1 2 3 4 5 6 
#
# 1 0.008980 -0.002497 -0.002913 0.000000 0.005864 0.000000
# 2 -0.002497 0.013654 -0.009268 0.000000 -0.005224 0.000000
# 3 -0.002913 -0.009268 0.022922 0.000000 -0.006746 0.000000
# 4 0.000000 0.000000 0.000000 0.035603 0.000000 0.005153
# 5 0.005864 -0.005224 -0.006746 0.000000 0.057217 0.000000
# 6 0.000000 0.000000 0.000000 0.005153 0.000000 0.062469
#
#
# Mechanical properties :
#
#
# Convention : Reuss Voigt Hill
#
# Bulk Modulus (GPa) = 61.72456 70.69854 66.21155
# Shear Modulus (GPa) = 21.22246 26.50250 23.86248
#
# Velocity S-wave (km/s) = 3.29954 3.68722 3.49875
# Velocity P-wave (km/s) = 6.79560 7.37531 7.09138
#
# Compressibility (1/GPa) = 0.01620101
#
# Stress axis : x y z
#
# Youngs Moduli (GPa) = 111.35691 73.24121 43.62620
#
# Poissons Ratio (x) = 0.18286 0.12708
# Poissons Ratio (y) = 0.27802 0.40431
# Poissons Ratio (z) = 0.32438 0.67878
#
# Static dielectric constant tensor:
#      x y z
#    x 1.730640 0.000000 0.006650 
#    y 0.000000 1.705600 0.000000 
#    z 0.006650 0.000000 1.695370 
# 
# From -- ./inp_files/246651.got.cif
#   From: 2010.05.17/outbox.cif.g08.bks.cpg/sg12_124_cif.got.tgz:246651.got - 2010.06.03 13:09:07.
