data_PCOD9175373
_publ_section_title
;
Structure prediction by ZEFSAII (Michael W. Deem and Ramdas Pophale) SiO2 
 PCOD9175373
Probable space group: C 2/M
;
_chemical_formula_sum "Si O2"
_cell_formula_units_Z 48
_cell_length_a 13.241077
_cell_length_b 30.124454
_cell_length_c 5.478052
_cell_angle_alpha 90.000000
_cell_angle_beta 92.118848
_cell_angle_gamma 90.000000
_cell_volume 2183.592584
_symmetry_space_group_name_H-M "C 2/M"
_symmetry_group_IT_number 12
_symmetry_cell_setting 'monoclinic'
loop_
_space_group_symop_operation_xyz
x,y,z
-x,y,-z
-x,-y,-z
x,-y,z
1/2+x,1/2+y,z
1/2-x,1/2+y,-z
1/2-x,1/2-y,-z
1/2+x,1/2-y,z
loop_
_atom_site_type_symbol
_atom_site_label
_atom_site_fract_x
_atom_site_fract_y
_atom_site_fract_z
Si Si1 0.105085 0.320949 0.950704
Si Si2 0.159905 0.189498 0.008842
Si Si3 0.673343 0.290600 0.510232
Si Si4 0.724676 0.551678 0.504718
Si Si5 0.120057 0.916027 0.997036
Si Si6 0.155493 0.363853 0.452927
O O1 0.218145 0.299994 0.971725
O O2 0.099742 0.343305 0.682947
O O3 0.111760 0.354823 0.181075
O O4 0.000000 0.296278 0.000000
O O5 0.114589 0.207234 0.254595
O O6 0.117728 0.210640 0.760276
O O7 0.146618 0.136438 0.003514
O O8 0.750000 0.250000 0.500000
O O9 0.738576 0.336167 0.529591
O O10 0.749740 0.500000 0.514733
O O11 0.662554 0.564107 0.746468
O O12 0.819755 0.584872 0.511256
O O13 0.666203 0.562361 0.246449
O O14 0.000000 0.921086 0.000000
#
# Coordination Sequence:
#
# PCOD9175373 Si02
#       6
#     8   8   8   8   8   8
#     4  10  18  32  61  83 106 146 185 230 283 335
#     4  10  19  37  55  83 119 145 194 229 296 345
#     4  10  18  32  61  83 108 153 192 232 286 351
#     4  12  23  40  62  86 121 157 197 249 292 345
#     4  12  23  40  62  86 120 161 199 243 291 349
#     4  10  19  37  55  86 116 145 192 230 294 347
#
# _framework density 21.982120999999999
#
# number of rings (size 3 to 8) (size 9 to 14) (size 15 to 20)
#    0.000    1.333    6.667    2.000    0.000    2.000 
#    0.000    0.000    0.000   27.000    0.000    0.000 
#    0.000    0.000    0.000    0.000    0.000    0.000 
#
# Total GULP energy -133981.053111 kJ/mol
# GULP energy per Si atom -5582.543880 kJ/mol
# Density = 2.193209 g / cm^3
# Si number density = 21.982121 Si / 1000 Ang^3
#
#
#
# Elastic Constant Matrix: (Units=GPa)
#
#
# Indices 1 2 3 4 5 6 
#
# 1 61.5376 -0.4288 5.8014 0.0000 -8.8038 0.0000
# 2 -0.4288 118.7509 36.9385 0.0000 1.2581 0.0000
# 3 5.8014 36.9385 228.5559 0.0000 -6.6186 0.0000
# 4 0.0000 0.0000 0.0000 30.3754 0.0000 -1.8416
# 5 -8.8038 1.2581 -6.6186 0.0000 16.3130 0.0000
# 6 0.0000 0.0000 0.0000 -1.8416 0.0000 1.8407
#
#
#
# Elastic Compliance Matrix: (Units=1/GPa)
#
#
# Indices 1 2 3 4 5 6 
#
# 1 0.017617 0.000019 -0.000177 0.000000 0.009434 0.000000
# 2 0.000019 0.008893 -0.001475 0.000000 -0.001274 0.000000
# 3 -0.000177 -0.001475 0.004674 0.000000 0.001914 0.000000
# 4 0.000000 0.000000 0.000000 0.035047 0.000000 0.035066
# 5 0.009434 -0.001274 0.001914 0.000000 0.067267 0.000000
# 6 0.000000 0.000000 0.000000 0.035066 0.000000 0.578367
#
#
# Mechanical properties :
#
#
# Convention : Reuss Voigt Hill
#
# Bulk Modulus (GPa) = 35.81963 54.82962 45.32463
# Shear Modulus (GPa) = 6.90191 34.14137 20.52164
#
# Velocity S-wave (km/s) = 1.77387 3.94527 3.05874
# Velocity P-wave (km/s) = 4.53053 6.76391 5.75657
#
# Compressibility (1/GPa) = 0.02791765
#
# Stress axis : x y z
#
# Youngs Moduli (GPa) = 56.76424 112.44468 213.96968
#
# Poissons Ratio (x) = -0.00210 0.03787
# Poissons Ratio (y) = -0.00106 0.31553
# Poissons Ratio (z) = 0.01005 0.16582
#
# Static dielectric constant tensor:
#      x y z
#    x 1.818910 0.000000 -0.000380 
#    y 0.000000 1.797900 0.000000 
#    z -0.000380 0.000000 1.899850 
# 
# From -- ./inp_files/12887.got.cif
#   From: 2010.05.17/outbox.cif.g08.bks.cpg/sg12_7_cif.got.tgz:12887.got - 2010.06.03 13:09:07.
