data_PCOD9175520
_publ_section_title
;
Structure prediction by ZEFSAII (Michael W. Deem and Ramdas Pophale) SiO2 
 PCOD9175520
Probable space group: C 2/M
;
_chemical_formula_sum "Si O2"
_cell_formula_units_Z 48
_cell_length_a 31.332394
_cell_length_b 8.309042
_cell_length_c 18.991743
_cell_angle_alpha 90.000000
_cell_angle_beta 144.956086
_cell_angle_gamma 90.000000
_cell_volume 2839.067045
_symmetry_space_group_name_H-M "C 2/M"
_symmetry_group_IT_number 12
_symmetry_cell_setting 'monoclinic'
loop_
_space_group_symop_operation_xyz
x,y,z
-x,y,-z
-x,-y,-z
x,-y,z
1/2+x,1/2+y,z
1/2-x,1/2+y,-z
1/2-x,1/2-y,-z
1/2+x,1/2-y,z
loop_
_atom_site_type_symbol
_atom_site_label
_atom_site_fract_x
_atom_site_fract_y
_atom_site_fract_z
Si Si1 0.545502 0.000000 0.852985
Si Si2 0.619323 0.000000 0.339780
Si Si3 0.221463 0.500000 0.341511
Si Si4 0.424397 0.689232 0.358531
Si Si5 0.291411 0.177819 0.264537
Si Si6 0.976728 0.179270 0.270137
Si Si7 0.192198 0.500000 0.144133
Si Si8 0.648311 0.750506 0.501363
O O1 0.468680 0.000000 0.793149
O O2 0.542652 0.836016 0.802483
O O3 0.617917 0.000000 0.998588
O O4 0.668109 0.000000 0.336031
O O5 0.637407 0.854789 0.416866
O O6 0.178163 0.500000 0.209089
O O7 0.279848 0.645164 0.418889
O O8 0.500000 0.739124 0.500000
O O9 0.411430 0.500000 0.359010
O O10 0.355588 0.790284 0.294071
O O11 0.438615 0.699845 0.294673
O O12 0.238511 0.335425 0.191470
O O13 0.330405 0.175894 0.394201
O O14 0.256860 0.000000 0.207059
O O15 0.066259 0.176901 0.401674
O O16 0.956072 0.000000 0.214237
#
# Coordination Sequence:
#
# PCOD9175520 Si02
#       8
#     4   4   4   8   8   8   4   8
#     4  10  24  41  58  76 111 150 203 238 262 330
#     4  10  20  35  55  89 111 138 179 230 287 347
#     4  10  20  33  61  81 113 146 169 232 295 335
#     4  10  19  30  55  88 120 147 179 227 276 341
#     4  11  21  35  58  84 116 152 185 227 283 330
#     4  10  20  35  57  84 116 152 183 223 284 328
#     4  10  24  43  56  78 107 154 203 234 270 324
#     4  10  18  33  53  88 119 140 172 219 286 357
#
# _framework density 16.906962
#
# number of rings (size 3 to 8) (size 9 to 14) (size 15 to 20)
#    0.000    1.833    4.167    0.500    1.167    1.333 
#    0.000    0.833    0.000    0.000    0.000    4.667 
#    0.000    0.000    0.000    0.000    0.000    0.000 
#
# Total GULP energy -133625.780626 kJ/mol
# GULP energy per Si atom -5567.740859 kJ/mol
# Density = 1.686848 g / cm^3
# Si number density = 16.906962 Si / 1000 Ang^3
#
#
#
# Elastic Constant Matrix: (Units=GPa)
#
#
# Indices 1 2 3 4 5 6 
#
# 1 134.1681 53.0122 37.4973 0.0000 7.5697 0.0000
# 2 53.0122 123.0381 54.4121 0.0000 1.9149 0.0000
# 3 37.4973 54.4121 108.9966 0.0000 1.2191 0.0000
# 4 0.0000 0.0000 0.0000 -22.6484 0.0000 0.5283
# 5 7.5697 1.9149 1.2191 0.0000 8.8014 0.0000
# 6 0.0000 0.0000 0.0000 0.5283 0.0000 14.0746
#
#
#
# Elastic Compliance Matrix: (Units=1/GPa)
#
#
# Indices 1 2 3 4 5 6 
#
# 1 0.009624 -0.003342 -0.001560 0.000000 -0.007334 0.000000
# 2 -0.003342 0.011612 -0.004658 0.000000 0.000993 0.000000
# 3 -0.001560 -0.004658 0.012029 0.000000 0.000689 0.000000
# 4 0.000000 0.000000 0.000000 -0.044115 0.000000 0.001656
# 5 -0.007334 0.000993 0.000689 0.000000 0.119613 0.000000
# 6 0.000000 0.000000 0.000000 0.001656 0.000000 0.070988
#
#
# Mechanical properties :
#
#
# Convention : Reuss Voigt Hill
#
# Bulk Modulus (GPa) = 70.70398 72.89401 71.79900
# Shear Modulus (GPa) = 24.55945 14.79762 19.67853
#
# Velocity S-wave (km/s) = 3.81546 2.96165 3.41534
# Velocity P-wave (km/s) = 7.83075 7.40969 7.62313
#
# Compressibility (1/GPa) = 0.01414348
#
# Stress axis : x y z
#
# Youngs Moduli (GPa) = 103.90926 86.11607 83.13201
#
# Poissons Ratio (x) = 0.28783 0.12971
# Poissons Ratio (y) = 0.34730 0.38725
# Poissons Ratio (z) = 0.16212 0.40115
#
# Static dielectric constant tensor:
#      x y z
#    x 1.535320 0.000000 0.002530 
#    y 0.000000 1.627350 0.000000 
#    z 0.002530 0.000000 1.537380 
# 
# From -- ./inp_files/295436.got.cif
#   From: 2010.05.17/outbox.cif.g08.bks.cpg/sg12_148_cif.got.tgz:295436.got - 2010.06.03 13:09:07.
