data_PCOD9175874
_publ_section_title
;
Structure prediction by ZEFSAII (Michael W. Deem and Ramdas Pophale) SiO2 
 PCOD9175874
Probable space group: C 2/M
;
_chemical_formula_sum "Si O2"
_cell_formula_units_Z 38
_cell_length_a 21.690226
_cell_length_b 7.785306
_cell_length_c 11.175052
_cell_angle_alpha 90.000000
_cell_angle_beta 88.018919
_cell_angle_gamma 90.000000
_cell_volume 1885.947765
_symmetry_space_group_name_H-M "C 2/M"
_symmetry_group_IT_number 12
_symmetry_cell_setting 'monoclinic'
loop_
_space_group_symop_operation_xyz
x,y,z
-x,y,-z
-x,-y,-z
x,-y,z
1/2+x,1/2+y,z
1/2-x,1/2+y,-z
1/2-x,1/2-y,-z
1/2+x,1/2-y,z
loop_
_atom_site_type_symbol
_atom_site_label
_atom_site_fract_x
_atom_site_fract_y
_atom_site_fract_z
Si Si1 0.286756 0.301689 0.306870
Si Si2 0.856730 0.193666 0.049592
Si Si3 0.630871 0.000000 0.620550
Si Si4 0.341720 0.300679 0.782201
Si Si5 0.059560 0.500000 0.239770
Si Si6 0.500000 0.000000 0.500000
Si Si7 0.437164 0.000000 0.116068
O O1 0.292852 0.500000 0.344547
O O2 0.314202 0.287929 0.169427
O O3 0.325534 0.168616 0.383986
O O4 0.215651 0.249339 0.297048
O O5 0.910824 0.331174 0.054775
O O6 0.881706 0.000000 0.049856
O O7 0.823364 0.216161 0.924254
O O8 0.576055 0.000000 0.529448
O O9 0.598963 0.000000 0.753691
O O10 0.358677 0.500000 0.760616
O O11 0.397383 0.167955 0.762757
O O12 0.017760 0.500000 0.359583
O O13 0.009486 0.500000 0.136687
#
# Coordination Sequence:
#
# PCOD9175874 Si02
#       7
#     8   8   4   8   4   2   4
#     4  10  18  33  58  89 125 156 185 221 280 346
#     4   9  19  31  52  87 123 163 193 220 263 341
#     4   9  19  39  63  85 110 145 193 247 293 344
#     4  11  21  34  55  88 126 155 187 229 283 341
#     4  11  24  42  60  82 110 152 202 254 295 339
#     4  10  24  50  70  78 104 148 202 256 308 344
#     4   9  19  35  55  78 116 162 200 233 275 331
#
# _framework density 20.14902
#
# number of rings (size 3 to 8) (size 9 to 14) (size 15 to 20)
#    0.000    2.105    2.105    1.263    0.000    2.526 
#    0.000    8.421    0.000    0.000    0.000    0.000 
#    0.000    0.000    0.000    0.000    0.000    0.000 
#
# Total GULP energy -105806.091306 kJ/mol
# GULP energy per Si atom -5568.741648 kJ/mol
# Density = 2.010316 g / cm^3
# Si number density = 20.149020 Si / 1000 Ang^3
#
#
#
# Elastic Constant Matrix: (Units=GPa)
#
#
# Indices 1 2 3 4 5 6 
#
# 1 114.6938 85.6113 20.3059 0.0000 46.0204 0.0000
# 2 85.6113 158.6330 33.2663 0.0000 36.0327 0.0000
# 3 20.3059 33.2663 54.2417 0.0000 29.7365 0.0000
# 4 0.0000 0.0000 0.0000 -3.6366 0.0000 11.0438
# 5 46.0204 36.0327 29.7365 0.0000 51.0753 0.0000
# 6 0.0000 0.0000 0.0000 11.0438 0.0000 -7.6072
#
#
#
# Elastic Compliance Matrix: (Units=1/GPa)
#
#
# Indices 1 2 3 4 5 6 
#
# 1 0.020660 -0.008849 0.006574 0.000000 -0.016200 0.000000
# 2 -0.008849 0.011534 -0.005392 0.000000 0.002975 0.000000
# 3 0.006574 -0.005392 0.030028 0.000000 -0.019602 0.000000
# 4 0.000000 0.000000 0.000000 0.080669 0.000000 0.117112
# 5 -0.016200 0.002975 -0.019602 0.000000 0.043489 0.000000
# 6 0.000000 0.000000 0.000000 0.117112 0.000000 0.038563
#
#
# Mechanical properties :
#
#
# Convention : Reuss Voigt Hill
#
# Bulk Modulus (GPa) = 21.32725 67.32616 44.32670
# Shear Modulus (GPa) = 19.53821 20.52532 20.03177
#
# Velocity S-wave (km/s) = 3.11736 3.19513 3.15648
# Velocity P-wave (km/s) = 4.85437 6.86283 5.94405
#
# Compressibility (1/GPa) = 0.04688838
#
# Stress axis : x y z
#
# Youngs Moduli (GPa) = 48.40203 86.69734 33.30191
#
# Poissons Ratio (x) = 0.76716 -0.21892
# Poissons Ratio (y) = 0.42830 0.17958
# Poissons Ratio (z) = -0.31819 0.46751
#
# Static dielectric constant tensor:
#      x y z
#    x 1.703350 0.000000 -0.028720 
#    y 0.000000 1.702950 0.000000 
#    z -0.028720 0.000000 1.709930 
# 
# From -- ./inp_files/162802.got.cif
#   From: 2010.05.17/outbox.cif.g08.bks.cpg/sg12_82_cif.got.tgz:162802.got - 2010.06.03 13:09:07.
