data_PCOD9175632
_publ_section_title
;
Structure prediction by ZEFSAII (Michael W. Deem and Ramdas Pophale) SiO2 
 PCOD9175632
Probable space group: C 2/M
;
_chemical_formula_sum "Si O2"
_cell_formula_units_Z 40
_cell_length_a 7.439290
_cell_length_b 32.129549
_cell_length_c 8.309262
_cell_angle_alpha 90.000000
_cell_angle_beta 51.721332
_cell_angle_gamma 90.000000
_cell_volume 1559.093419
_symmetry_space_group_name_H-M "C 2/M"
_symmetry_group_IT_number 12
_symmetry_cell_setting 'monoclinic'
loop_
_space_group_symop_operation_xyz
x,y,z
-x,y,-z
-x,-y,-z
x,-y,z
1/2+x,1/2+y,z
1/2-x,1/2+y,-z
1/2-x,1/2-y,-z
1/2+x,1/2-y,z
loop_
_atom_site_type_symbol
_atom_site_label
_atom_site_fract_x
_atom_site_fract_y
_atom_site_fract_z
Si Si1 0.361277 0.133256 0.911200
Si Si2 0.634556 0.712203 0.158488
Si Si3 0.767855 0.178946 0.565954
Si Si4 0.830744 0.952340 0.463250
Si Si5 0.299685 0.952098 0.827058
O O1 0.552401 0.148400 0.673614
O O2 0.575299 0.047691 0.675402
O O3 0.500000 0.131106 0.000000
O O4 0.245172 0.088636 0.958456
O O5 0.368248 0.706196 0.363135
O O6 0.767674 0.708251 0.257424
O O7 0.687390 0.670877 0.028244
O O8 0.750000 0.750000 0.000000
O O9 0.000000 0.155890 0.500000
O O10 0.000000 0.932917 0.500000
O O11 0.789557 0.940456 0.301326
O O12 0.910757 0.000000 0.400660
O O13 0.235881 0.000000 0.903842
#
# Coordination Sequence:
#
# PCOD9175632 Si02
#       5
#     8   8   8   8   8
#     4  10  18  33  55  83 128 174 208 275 336 386
#     4   8  16  32  54  82 119 169 224 275 331 405
#     4   7  17  31  50  82 116 169 221 258 332 407
#     4   8  15  32  55  84 121 163 212 272 331 395
#     4   9  18  31  55  92 124 166 226 268 323 403
#
# _framework density 25.655934999999999
#
# number of rings (size 3 to 8) (size 9 to 14) (size 15 to 20)
#    1.200    2.200    0.000    1.200    0.000    2.000 
#    0.000    4.000    0.000    2.400    0.000    5.600 
#    0.000    0.000    0.000    0.000    0.000    5.600 
#
# Total GULP energy -111407.811971 kJ/mol
# GULP energy per Si atom -5570.390599 kJ/mol
# Density = 2.559754 g / cm^3
# Si number density = 25.655935 Si / 1000 Ang^3
#
#
#
# Elastic Constant Matrix: (Units=GPa)
#
#
# Indices 1 2 3 4 5 6 
#
# 1 127.5781 24.8314 37.4549 0.0000 -2.4658 0.0000
# 2 24.8314 196.8631 79.8352 0.0000 3.2291 0.0000
# 3 37.4549 79.8352 121.7316 0.0000 -28.5789 0.0000
# 4 0.0000 0.0000 0.0000 22.9853 0.0000 7.0728
# 5 -2.4658 3.2291 -28.5789 0.0000 36.2110 0.0000
# 6 0.0000 0.0000 0.0000 7.0728 0.0000 -9.6289
#
#
#
# Elastic Compliance Matrix: (Units=1/GPa)
#
#
# Indices 1 2 3 4 5 6 
#
# 1 0.008730 0.000303 -0.003377 0.000000 -0.002098 0.000000
# 2 0.000303 0.007814 -0.006600 0.000000 -0.005885 0.000000
# 3 -0.003377 -0.006600 0.016775 0.000000 0.013598 0.000000
# 4 0.000000 0.000000 0.000000 0.035485 0.000000 0.026065
# 5 -0.002098 -0.005885 0.013598 0.000000 0.038729 0.000000
# 6 0.000000 0.000000 0.000000 0.026065 0.000000 -0.084708
#
#
# Mechanical properties :
#
#
# Convention : Reuss Voigt Hill
#
# Bulk Modulus (GPa) = 71.57755 81.15732 76.36744
# Shear Modulus (GPa) = 106.76583 30.18359 68.47471
#
# Velocity S-wave (km/s) = 6.45793 3.43370 5.17180
# Velocity P-wave (km/s) = 9.14144 6.88637 8.09284
#
# Compressibility (1/GPa) = 0.01397086
#
# Stress axis : x y z
#
# Youngs Moduli (GPa) = 114.54249 127.96829 59.61411
#
# Poissons Ratio (x) = -0.03876 0.20134
# Poissons Ratio (y) = -0.03469 0.39344
# Poissons Ratio (z) = 0.38685 0.84456
#
# Static dielectric constant tensor:
#      x y z
#    x 2.126570 0.000000 -0.060960 
#    y 0.000000 2.018750 0.000000 
#    z -0.060960 0.000000 2.259260 
# 
# From -- ./inp_files/148804.got.cif
#   From: 2010.05.17/outbox.cif.g08.bks.cpg/sg12_75_cif.got.tgz:148804.got - 2010.06.03 13:09:07.
