data_PCOD9175369
_publ_section_title
;
Structure prediction by ZEFSAII (Michael W. Deem and Ramdas Pophale) SiO2 
 PCOD9175369
Probable space group: C 2/M
;
_chemical_formula_sum "Si O2"
_cell_formula_units_Z 48
_cell_length_a 27.807064
_cell_length_b 14.493491
_cell_length_c 10.082266
_cell_angle_alpha 90.000000
_cell_angle_beta 142.944353
_cell_angle_gamma 90.000000
_cell_volume 2448.547290
_symmetry_space_group_name_H-M "C 2/M"
_symmetry_group_IT_number 12
_symmetry_cell_setting 'monoclinic'
loop_
_space_group_symop_operation_xyz
x,y,z
-x,y,-z
-x,-y,-z
x,-y,z
1/2+x,1/2+y,z
1/2-x,1/2+y,-z
1/2-x,1/2-y,-z
1/2+x,1/2-y,z
loop_
_atom_site_type_symbol
_atom_site_label
_atom_site_fract_x
_atom_site_fract_y
_atom_site_fract_z
Si Si1 0.831922 0.398703 0.289146
Si Si2 0.426259 0.104464 0.238037
Si Si3 0.150591 0.896130 0.813778
Si Si4 0.405088 0.390780 0.816964
Si Si5 0.317895 0.285726 0.387224
Si Si6 0.632010 0.727535 0.006339
O O1 0.864494 0.500000 0.397033
O O2 0.854546 0.381599 0.185546
O O3 0.855836 0.314050 0.434113
O O4 0.736448 0.403302 0.075585
O O5 0.500000 0.114320 0.500000
O O6 0.423621 0.000000 0.182023
O O7 0.420895 0.180099 0.113254
O O8 0.166490 0.848520 0.708068
O O9 0.117988 0.000000 0.728527
O O10 0.106357 0.827461 0.816194
O O11 0.384985 0.500000 0.776408
O O12 0.357198 0.337950 0.596290
O O13 0.382740 0.340043 0.904299
O O14 0.500000 0.383417 0.000000
O O15 0.223999 0.263653 0.204633
#
# Coordination Sequence:
#
# PCOD9175369 Si02
#       6
#     8   8   8   8   8   8
#     4   9  17  32  55  87 120 143 176 234 295 348
#     4  10  20  33  55  89 122 150 183 234 299 354
#     4  10  18  32  60  93 119 142 189 247 293 349
#     4  11  27  45  59  80 120 165 204 249 301 348
#     4  11  20  38  61  91 113 154 199 244 295 350
#     4  11  21  39  62  90 116 156 202 242 295 352
#
# _framework density 19.603459999999998
#
# number of rings (size 3 to 8) (size 9 to 14) (size 15 to 20)
#    0.000    1.667    3.333    2.500    2.333    1.333 
#    0.000    0.833    0.000    5.000    0.000    0.000 
#    0.000    0.000    0.000    0.000    0.000    0.000 
#
# Total GULP energy -133835.415970 kJ/mol
# GULP energy per Si atom -5576.475665 kJ/mol
# Density = 1.955884 g / cm^3
# Si number density = 19.603460 Si / 1000 Ang^3
#
#
#
# Elastic Constant Matrix: (Units=GPa)
#
#
# Indices 1 2 3 4 5 6 
#
# 1 50.3132 44.3054 31.3164 0.0000 -22.0156 0.0000
# 2 44.3054 191.6114 63.9819 0.0000 -23.2499 0.0000
# 3 31.3164 63.9819 46.7951 0.0000 -20.1143 0.0000
# 4 0.0000 0.0000 0.0000 28.8481 0.0000 -15.9147
# 5 -22.0156 -23.2499 -20.1143 0.0000 25.1198 0.0000
# 6 0.0000 0.0000 0.0000 -15.9147 0.0000 19.8801
#
#
#
# Elastic Compliance Matrix: (Units=1/GPa)
#
#
# Indices 1 2 3 4 5 6 
#
# 1 0.040354 -0.001447 -0.015859 0.000000 0.021329 0.000000
# 2 -0.001447 0.009758 -0.013778 0.000000 -0.003270 0.000000
# 3 -0.015859 -0.013778 0.060026 0.000000 0.021413 0.000000
# 4 0.000000 0.000000 0.000000 0.062082 0.000000 0.049699
# 5 0.021329 -0.003270 0.021413 0.000000 0.072622 0.000000
# 6 0.000000 0.000000 0.000000 0.049699 0.000000 0.090087
#
#
# Mechanical properties :
#
#
# Convention : Reuss Voigt Hill
#
# Bulk Modulus (GPa) = 20.84717 63.10301 41.97509
# Shear Modulus (GPa) = 12.10398 24.71064 18.40731
#
# Velocity S-wave (km/s) = 2.48753 3.55424 3.06761
# Velocity P-wave (km/s) = 4.34833 7.00736 5.83142
#
# Compressibility (1/GPa) = 0.04796814
#
# Stress axis : x y z
#
# Youngs Moduli (GPa) = 24.78080 102.48471 16.65943
#
# Poissons Ratio (x) = 0.14832 0.26420
# Poissons Ratio (y) = 0.03586 0.22954
# Poissons Ratio (z) = 0.39300 1.41207
#
# Static dielectric constant tensor:
#      x y z
#    x 1.753320 0.000000 0.051370 
#    y 0.000000 1.741610 0.000000 
#    z 0.051370 0.000000 1.673600 
# 
# From -- ./inp_files/104980.got.cif
#   From: 2010.05.17/outbox.cif.g08.bks.cpg/sg12_53_cif.got.tgz:104980.got - 2010.06.03 13:09:07.
